@<TRIPOS>MOLECULE
NONAME
39 40 1 0 0 
SMALL
USER_CHARGES


@<TRIPOS>ATOM
  1 O        0.3180     0.6550    -1.0710 O.2   1 <1>  -0.5700 
  2 C        0.9460     1.3700    -0.3180 C.2   1 <1>   0.6340 
  3 O        0.2730     2.2060     0.4820 O.3   1 <1>  -0.4300 
  4 C        2.3940     1.3640    -0.2370 C.ar  1 <1>   0.0860 
  5 C       -1.1400     2.2770     0.4670 C.3   1 <1>   0.0400 
  6 C        3.1580     0.5300    -1.0580 C.ar  1 <1>  -0.1500 
  7 C        3.0960     2.1840     0.6520 C.ar  1 <1>  -0.1500 
  8 C        4.5380     0.5090    -0.9930 C.ar  1 <1>  -0.1500 
  9 C        4.4760     2.1650     0.7200 C.ar  1 <1>  -0.1500 
 10 C        5.2240     1.3220    -0.0960 C.ar  1 <1>  -0.0230 
 11 N        6.6440     1.3040    -0.0140 N.pl3 1 <1>   0.5930 
 12 N        7.3850     2.4450     0.1100 N.2   1 <1>  -0.7070 
 13 C        7.4750     0.2040    -0.0200 C.2   1 <1>  -0.0680 
 14 C        8.6250     2.0620     0.1500 C.2   1 <1>   0.1080 
 15 N        7.1020    -1.1550    -0.0890 N.pl3 1 <1>  -0.8840 
 16 C        8.7370     0.6760     0.0710 C.2   1 <1>  -0.1500 
 17 C        9.8310     3.0120     0.2710 C.3   1 <1>   0.1810 
 18 C       10.6260     2.6780     1.5420 C.3   1 <1>  -0.2400 
 19 C       10.7390     2.8480    -0.9560 C.3   1 <1>  -0.2400 
 20 C        9.3830     4.4820     0.3510 C.3   1 <1>  -0.2400 
 21 H       -1.4530     3.0120     1.1870 H     1 <1>   0.0800 
 22 H       -1.5400     1.3110     0.7230 H     1 <1>   0.0800 
 23 H       -1.4630     2.5630    -0.5190 H     1 <1>   0.0800 
 24 H        2.6540    -0.1110    -1.7610 H     1 <1>   0.1500 
 25 H        2.5520     2.8490     1.2990 H     1 <1>   0.1500 
 26 H        5.0930    -0.1420    -1.6500 H     1 <1>   0.1500 
 27 H        4.9890     2.8150     1.4120 H     1 <1>   0.1500 
 28 H        7.8150    -1.8210     0.2290 H     1 <1>   0.4000 
 29 H        6.1840    -1.3870     0.3090 H     1 <1>   0.4000 
 30 H        9.6520     0.1140     0.0840 H     1 <1>   0.1500 
 31 H        9.9910     2.7690     2.4050 H     1 <1>   0.0800 
 32 H       11.4580     3.3490     1.6560 H     1 <1>   0.0800 
 33 H       11.0020     1.6730     1.5020 H     1 <1>   0.0800 
 34 H       11.1140     1.8430    -1.0210 H     1 <1>   0.0800 
 35 H       11.5750     3.5220    -0.9020 H     1 <1>   0.0800 
 36 H       10.1840     3.0610    -1.8520 H     1 <1>   0.0800 
 37 H        8.7460     4.6290     1.2050 H     1 <1>   0.0800 
 38 H        8.8260     4.7480    -0.5300 H     1 <1>   0.0800 
 39 H       10.2290     5.1390     0.4340 H     1 <1>   0.0800 
@<TRIPOS>BOND
  1   1   2  2   
  2   2   3  1   
  3   2   4  1   
  4   3   5  1   
  5   4   6  ar  
  6   4   7  ar  
  7   5  21  1   
  8   5  22  1   
  9   5  23  1   
 10   6   8  ar  
 11   6  24  1   
 12   7   9  ar  
 13   7  25  1   
 14   8  10  ar  
 15   8  26  1   
 16   9  10  ar  
 17   9  27  1   
 18  10  11  1   
 19  11  12  1   
 20  11  13  1   
 21  12  14  2   
 22  13  15  1   
 23  13  16  2   
 24  14  16  1   
 25  14  17  1   
 26  15  28  1   
 27  15  29  1   
 28  16  30  1   
 29  17  18  1   
 30  17  19  1   
 31  17  20  1   
 32  18  31  1   
 33  18  32  1   
 34  18  33  1   
 35  19  34  1   
 36  19  35  1   
 37  19  36  1   
 38  20  37  1   
 39  20  38  1   
 40  20  39  1   
@<TRIPOS>SUBSTRUCTURE
  1 ****  10 GROUP 4 **** **** 0

# MOE 2024.06 (io_trps.svl 2023.06)
