@<TRIPOS>MOLECULE
NONAME
46 49 1 0 0 
SMALL
USER_CHARGES


@<TRIPOS>ATOM
  1 CL      -0.4690     2.3180     0.6280 Cl    1 <1>  -0.1770 
  2 C       -1.0330     2.9760    -0.8960 C.ar  1 <1>   0.1770 
  3 C       -0.2830     3.9530    -1.5330 C.ar  1 <1>   0.1770 
  4 C       -2.2280     2.5310    -1.4480 C.ar  1 <1>  -0.1440 
  5 CL       1.2180     4.5210    -0.8390 Cl    1 <1>  -0.1770 
  6 C       -0.7110     4.5020    -2.7270 C.ar  1 <1>  -0.1500 
  7 C       -2.6530     3.0910    -2.6460 C.ar  1 <1>  -0.1500 
  8 C       -3.0760     1.4540    -0.7850 C.3   1 <1>   0.2540 
  9 C       -1.9020     4.0680    -3.2830 C.ar  1 <1>  -0.1500 
 10 N       -4.2550     2.0540    -0.1290 N.3   1 <1>  -0.8100 
 11 C       -5.2020     1.0080     0.3270 C.3   1 <1>   0.1100 
 12 C       -3.8750     2.9380     1.0050 C.3   1 <1>   0.1100 
 13 C       -6.4570     1.6040     1.0130 C.3   1 <1>   0.3430 
 14 C       -5.1040     3.5480     1.7230 C.3   1 <1>   0.3430 
 15 N       -6.3790     3.1020     1.0760 N.4   1 <1>  -0.9590 
 16 C       -7.5990     3.7550     1.6160 C.3   1 <1>   0.4860 
 17 C       -8.7900     3.3320     0.7780 C.ar  1 <1>  -0.1430 
 18 C       -8.9190     3.7970    -0.5290 C.ar  1 <1>  -0.1500 
 19 C       -9.7510     2.4690     1.3110 C.ar  1 <1>  -0.1500 
 20 C      -10.0040     3.3700    -1.2670 C.ar  1 <1>   0.0830 
 21 C      -10.8370     2.0550     0.5500 C.ar  1 <1>  -0.1500 
 22 O      -10.3180     3.6800    -2.5270 O.3   1 <1>  -0.3630 
 23 C      -10.9360     2.5230    -0.7440 C.ar  1 <1>   0.0830 
 24 C      -11.5380     2.9990    -2.8240 C.3   1 <1>   0.4000 
 25 O      -11.8800     2.2600    -1.6530 O.3   1 <1>  -0.3620 
 26 H       -0.1180     5.2590    -3.2120 H     1 <1>   0.1500 
 27 H       -3.5800     2.7650    -3.0900 H     1 <1>   0.1500 
 28 H       -2.5020     0.8850    -0.0740 H     1 <1>   0.0800 
 29 H       -3.4060     0.7710    -1.5500 H     1 <1>   0.0800 
 30 H       -2.2470     4.4890    -4.2130 H     1 <1>   0.1500 
 31 H       -4.7090     0.3420     1.0150 H     1 <1>   0.0800 
 32 H       -5.5210     0.4210    -0.5190 H     1 <1>   0.0800 
 33 H       -3.2640     3.7470     0.6440 H     1 <1>   0.0800 
 34 H       -3.2870     2.3870     1.7200 H     1 <1>   0.0800 
 35 H       -6.5490     1.1950     2.0050 H     1 <1>   0.0800 
 36 H       -7.3290     1.3050     0.4540 H     1 <1>   0.0800 
 37 H       -5.0280     4.6220     1.6860 H     1 <1>   0.0800 
 38 H       -5.0910     3.2520     2.7580 H     1 <1>   0.0800 
 39 H       -6.2730     3.3700     0.0860 H     1 <1>   0.4500 
 40 H       -7.4970     4.8270     1.5740 H     1 <1>   0.0800 
 41 H       -7.7520     3.4650     2.6430 H     1 <1>   0.0800 
 42 H       -8.2140     4.4710    -0.9810 H     1 <1>   0.1500 
 43 H       -9.6690     2.1110     2.3240 H     1 <1>   0.1500 
 44 H      -11.5890     1.3920     0.9420 H     1 <1>   0.1500 
 45 H      -11.3850     2.3240    -3.6470 H     1 <1>   0.0800 
 46 H      -12.3100     3.7180    -3.0360 H     1 <1>   0.0800 
@<TRIPOS>BOND
  1   1   2  1   
  2   2   3  ar  
  3   2   4  ar  
  4   3   5  1   
  5   3   6  ar  
  6   4   7  ar  
  7   4   8  1   
  8   6   9  ar  
  9   6  26  1   
 10   7   9  ar  
 11   7  27  1   
 12   8  10  1   
 13   8  28  1   
 14   8  29  1   
 15   9  30  1   
 16  10  11  1   
 17  10  12  1   
 18  11  13  1   
 19  11  31  1   
 20  11  32  1   
 21  12  14  1   
 22  12  33  1   
 23  12  34  1   
 24  13  15  1   
 25  13  35  1   
 26  13  36  1   
 27  14  15  1   
 28  14  37  1   
 29  14  38  1   
 30  15  16  1   
 31  15  39  1   
 32  16  17  1   
 33  16  40  1   
 34  16  41  1   
 35  17  18  ar  
 36  17  19  ar  
 37  18  20  ar  
 38  18  42  1   
 39  19  21  ar  
 40  19  43  1   
 41  20  22  1   
 42  20  23  ar  
 43  21  23  ar  
 44  21  44  1   
 45  22  24  1   
 46  23  25  1   
 47  24  25  1   
 48  24  45  1   
 49  24  46  1   
@<TRIPOS>SUBSTRUCTURE
  1 ****  15 GROUP 4 **** **** 0

# MOE 2024.06 (io_trps.svl 2023.06)
