@<TRIPOS>MOLECULE
NONAME
39 39 1 0 0 
SMALL
USER_CHARGES


@<TRIPOS>ATOM
  1 BR       1.0100    -0.1550    -1.6110 Br    1 <1>  -0.1110 
  2 C        0.4930    -1.7850    -0.7190 C.ar  1 <1>   0.1110 
  3 C        1.3050    -2.2980     0.2820 C.ar  1 <1>  -0.1440 
  4 C       -0.6800    -2.3960    -1.1150 C.ar  1 <1>  -0.1500 
  5 C        0.9180    -3.4830     0.8910 C.ar  1 <1>  -0.1500 
  6 C        2.5730    -1.5880     0.6980 C.3   1 <1>   0.4870 
  7 C       -1.0640    -3.5690    -0.4890 C.ar  1 <1>   0.0820 
  8 C       -0.2460    -4.1290     0.5020 C.ar  1 <1>   0.0820 
  9 N        3.6080    -1.9020    -0.3110 N.4   1 <1>  -0.9060 
 10 O       -2.2370    -4.1250    -0.8710 O.3   1 <1>  -0.3620 
 11 O       -0.5350    -5.2960     1.1280 O.3   1 <1>  -0.3620 
 12 C        4.9150    -1.2840    -0.0630 C.3   1 <1>   0.4230 
 13 C       -3.2860    -4.0760     0.0750 C.3   1 <1>   0.1200 
 14 C       -0.6190    -6.4580     0.3290 C.3   1 <1>   0.0400 
 15 C        4.8250     0.2140    -0.3410 C.3   1 <1>  -0.2400 
 16 C        5.9140    -1.9460    -1.0010 C.3   1 <1>  -0.2400 
 17 C       -4.5260    -4.7200    -0.5430 C.3   1 <1>   0.1200 
 18 O       -5.5590    -4.7120     0.3850 O.3   1 <1>  -0.6800 
 19 H       -1.2940    -1.9710    -1.8900 H     1 <1>   0.1500 
 20 H        1.5050    -3.9310     1.6760 H     1 <1>   0.1500 
 21 H        2.8820    -1.9290     1.6730 H     1 <1>   0.0800 
 22 H        2.3970    -0.5250     0.7430 H     1 <1>   0.0800 
 23 H        3.2640    -1.5980    -1.2290 H     1 <1>   0.4500 
 24 H        3.7130    -2.9210    -0.3640 H     1 <1>   0.4500 
 25 H        5.2200    -1.4510     0.9590 H     1 <1>   0.0800 
 26 H       -3.4780    -3.0450     0.3120 H     1 <1>   0.0800 
 27 H       -2.9810    -4.6110     0.9560 H     1 <1>   0.0800 
 28 H       -0.6730    -7.3110     0.9820 H     1 <1>   0.0800 
 29 H        0.2590    -6.5240    -0.2880 H     1 <1>   0.0800 
 30 H       -1.5020    -6.4130    -0.2810 H     1 <1>   0.0800 
 31 H        4.4960     0.4070    -1.3480 H     1 <1>   0.0800 
 32 H        5.7970     0.6600    -0.2210 H     1 <1>   0.0800 
 33 H        4.1640     0.7030     0.3510 H     1 <1>   0.0800 
 34 H        5.6440    -1.7980    -2.0320 H     1 <1>   0.0800 
 35 H        5.9900    -3.0000    -0.7970 H     1 <1>   0.0800 
 36 H        6.8900    -1.5170    -0.8500 H     1 <1>   0.0800 
 37 H       -4.3330    -5.7410    -0.8240 H     1 <1>   0.0800 
 38 H       -4.8510    -4.1580    -1.4010 H     1 <1>   0.0800 
 39 H       -5.3650    -5.3090     1.1330 H     1 <1>   0.4000 
@<TRIPOS>BOND
  1   1   2  1   
  2   2   3  ar  
  3   2   4  ar  
  4   3   5  ar  
  5   3   6  1   
  6   4   7  ar  
  7   4  19  1   
  8   5   8  ar  
  9   5  20  1   
 10   6   9  1   
 11   6  21  1   
 12   6  22  1   
 13   7   8  ar  
 14   7  10  1   
 15   8  11  1   
 16   9  12  1   
 17   9  23  1   
 18   9  24  1   
 19  10  13  1   
 20  11  14  1   
 21  12  15  1   
 22  12  16  1   
 23  12  25  1   
 24  13  17  1   
 25  13  26  1   
 26  13  27  1   
 27  14  28  1   
 28  14  29  1   
 29  14  30  1   
 30  15  31  1   
 31  15  32  1   
 32  15  33  1   
 33  16  34  1   
 34  16  35  1   
 35  16  36  1   
 36  17  18  1   
 37  17  37  1   
 38  17  38  1   
 39  18  39  1   
@<TRIPOS>SUBSTRUCTURE
  1 ****   3 GROUP 4 **** **** 0

# MOE 2024.06 (io_trps.svl 2023.06)
