@<TRIPOS>MOLECULE
NONAME
34 35 1 0 0 
SMALL
USER_CHARGES


@<TRIPOS>ATOM
  1 S        0.1080    -0.8930     1.2210 S.3   1 <1>  -0.0800 
  2 C       -0.7410     0.1230     0.1200 C.2   1 <1>   0.4340 
  3 C        1.5390    -0.4970     0.3100 C.2   1 <1>   0.4420 
  4 S       -2.5010     0.2970     0.3730 S.3   1 <1>  -0.2860 
  5 N       -0.0190     0.6580    -0.7780 N.2   1 <1>  -0.3380 
  6 N        1.2980     0.3000    -0.6690 N.2   1 <1>  -0.3380 
  7 N        2.7770    -1.0070     0.6400 N.am  1 <1>  -0.4940 
  8 C       -3.0070     1.4390    -0.9840 C.3   1 <1>   0.0700 
  9 C        3.1930    -1.8570     1.6260 C.2   1 <1>   0.5690 
 10 C       -4.5120     1.6690    -0.8700 C.3   1 <1>  -0.2400 
 11 O        2.4550    -2.3360     2.4480 O.2   1 <1>  -0.5700 
 12 C        4.6680    -2.2230     1.6930 C.3   1 <1>   0.0440 
 13 C        5.4920    -1.5350     0.6090 C.ar  1 <1>  -0.1430 
 14 C        5.6150    -2.1130    -0.6450 C.ar  1 <1>  -0.1500 
 15 C        6.1000    -0.3150     0.8610 C.ar  1 <1>  -0.1500 
 16 C        6.3310    -1.4790    -1.6470 C.ar  1 <1>  -0.1430 
 17 C        6.8190     0.3200    -0.1350 C.ar  1 <1>  -0.1500 
 18 C        6.9330    -0.2600    -1.3850 C.ar  1 <1>  -0.1500 
 19 C        6.4560    -2.1210    -3.0170 C.3   1 <1>  -0.0970 
 20 H        3.5250    -0.6860     0.0200 H     1 <1>   0.3700 
 21 H       -2.7430     0.9680    -1.9150 H     1 <1>   0.0800 
 22 H       -2.4510     2.3520    -0.8600 H     1 <1>   0.0800 
 23 H       -5.0380     0.7360    -0.9660 H     1 <1>   0.0800 
 24 H       -4.8410     2.3330    -1.6500 H     1 <1>   0.0800 
 25 H       -4.7490     2.1100     0.0820 H     1 <1>   0.0800 
 26 H        4.7580    -3.2890     1.5970 H     1 <1>   0.0800 
 27 H        5.0410    -1.9530     2.6630 H     1 <1>   0.0800 
 28 H        5.1500    -3.0630    -0.8490 H     1 <1>   0.1500 
 29 H        6.0170     0.1490     1.8290 H     1 <1>   0.1500 
 30 H        7.2920     1.2670     0.0620 H     1 <1>   0.1500 
 31 H        7.4960     0.2420    -2.1530 H     1 <1>   0.1500 
 32 H        5.5390    -2.6130    -3.2850 H     1 <1>   0.0800 
 33 H        7.2510    -2.8450    -3.0070 H     1 <1>   0.0800 
 34 H        6.6730    -1.3790    -3.7650 H     1 <1>   0.0800 
@<TRIPOS>BOND
  1   1   2  1   
  2   1   3  1   
  3   2   4  1   
  4   2   5  2   
  5   3   6  2   
  6   3   7  1   
  7   4   8  1   
  8   5   6  1   
  9   7   9  am  
 10   7  20  1   
 11   8  10  1   
 12   8  21  1   
 13   8  22  1   
 14   9  11  2   
 15   9  12  1   
 16  10  23  1   
 17  10  24  1   
 18  10  25  1   
 19  12  13  1   
 20  12  26  1   
 21  12  27  1   
 22  13  14  ar  
 23  13  15  ar  
 24  14  16  ar  
 25  14  28  1   
 26  15  17  ar  
 27  15  29  1   
 28  16  18  ar  
 29  16  19  1   
 30  17  18  ar  
 31  17  30  1   
 32  18  31  1   
 33  19  32  1   
 34  19  33  1   
 35  19  34  1   
@<TRIPOS>SUBSTRUCTURE
  1 ****   7 GROUP 4 **** **** 0

# MOE 2024.06 (io_trps.svl 2023.06)
