@<TRIPOS>MOLECULE
NONAME
25 26 1 0 0 
SMALL
USER_CHARGES


@<TRIPOS>ATOM
  1 CL       0.7660    -0.1920     1.6700 Cl    1 <1>  -0.1770 
  2 C        0.3440    -1.6720     0.8220 C.ar  1 <1>   0.1770 
  3 C       -0.9850    -2.0080     0.6370 C.ar  1 <1>   0.1770 
  4 C        1.3680    -2.4920     0.3490 C.ar  1 <1>   0.1170 
  5 CL      -2.2610    -0.9690     1.2310 Cl    1 <1>  -0.1770 
  6 C       -1.3340    -3.1730    -0.0200 C.ar  1 <1>  -0.1500 
  7 N        2.7090    -2.1160     0.5600 N.am  1 <1>  -0.5470 
  8 C        1.0010    -3.6680    -0.3040 C.ar  1 <1>  -0.1500 
  9 C       -0.3310    -4.0060    -0.4890 C.ar  1 <1>  -0.1500 
 10 C        3.8590    -2.4760    -0.0840 C.2   1 <1>   0.6900 
 11 O        3.8410    -3.1880    -1.0690 O.2   1 <1>  -0.5700 
 12 N        5.0330    -1.9990     0.4070 N.am  1 <1>  -0.5790 
 13 C        6.3630    -2.2550    -0.1630 C.3   1 <1>   0.0490 
 14 C        7.5040    -2.4500     0.7790 C.3   1 <1>  -0.2000 
 15 C        7.4010    -1.1910    -0.0280 C.3   1 <1>  -0.2000 
 16 H       -2.3710    -3.4240    -0.1590 H     1 <1>   0.1500 
 17 H        2.8230    -1.3350     1.2020 H     1 <1>   0.3700 
 18 H        1.7590    -4.3360    -0.6730 H     1 <1>   0.1500 
 19 H       -0.5840    -4.9190    -1.0010 H     1 <1>   0.1500 
 20 H        5.0370    -1.4820     1.2810 H     1 <1>   0.3700 
 21 H        6.3370    -2.8390    -1.0710 H     1 <1>   0.1000 
 22 H        8.2700    -3.1600     0.5180 H     1 <1>   0.1000 
 23 H        7.3190    -2.4120     1.8380 H     1 <1>   0.1000 
 24 H        7.1420    -0.2700     0.4650 H     1 <1>   0.1000 
 25 H        8.0960    -1.0460    -0.8360 H     1 <1>   0.1000 
@<TRIPOS>BOND
  1   1   2  1   
  2   2   3  ar  
  3   2   4  ar  
  4   3   5  1   
  5   3   6  ar  
  6   4   7  1   
  7   4   8  ar  
  8   6   9  ar  
  9   6  16  1   
 10   7  10  am  
 11   7  17  1   
 12   8   9  ar  
 13   8  18  1   
 14   9  19  1   
 15  10  11  2   
 16  10  12  am  
 17  12  13  1   
 18  12  20  1   
 19  13  14  1   
 20  13  15  1   
 21  13  21  1   
 22  14  15  1   
 23  14  22  1   
 24  14  23  1   
 25  15  24  1   
 26  15  25  1   
@<TRIPOS>SUBSTRUCTURE
  1 ****   7 GROUP 4 **** **** 0

# MOE 2024.06 (io_trps.svl 2023.06)
