@<TRIPOS>MOLECULE
NONAME
49 52 1 0 0 
SMALL
USER_CHARGES


@<TRIPOS>ATOM
  1 S        0.4450     3.5020     0.6290 S.3   1 <1>  -0.2860 
  2 C        1.8930     4.5130     0.9210 C.2   1 <1>   0.2420 
  3 C       -0.8840     4.7740     0.5270 C.3   1 <1>   0.0700 
  4 N        1.8060     5.7930     0.9920 N.2   1 <1>  -0.5650 
  5 N        3.1330     3.9810     1.0840 N.pl3 1 <1>   0.0480 
  6 C       -2.2020     4.0640     0.2150 C.3   1 <1>   0.3430 
  7 C        3.0930     6.1710     1.2270 C.ar  1 <1>   0.2270 
  8 C        3.9310     5.0670     1.2890 C.ar  1 <1>  -0.1520 
  9 C        3.5240     2.5540     1.1440 C.3   1 <1>   0.2390 
 10 N       -3.3580     5.0180     0.1820 N.4   1 <1>  -0.9590 
 11 C        3.6140     7.4510     1.4030 C.ar  1 <1>  -0.1500 
 12 C        5.3010     5.2180     1.5170 C.ar  1 <1>  -0.1500 
 13 C        4.6370     2.2270     0.1550 C.ar  1 <1>  -0.1440 
 14 C       -4.6620     4.2730     0.0750 C.3   1 <1>   0.3430 
 15 C       -3.2440     6.0230    -0.9380 C.3   1 <1>   0.3430 
 16 C        4.9640     7.6050     1.6330 C.ar  1 <1>  -0.1500 
 17 C        5.8060     6.4880     1.6890 C.ar  1 <1>  -0.1500 
 18 C        5.7760     1.5620     0.5860 C.ar  1 <1>  -0.1500 
 19 C        4.5260     2.5830    -1.1820 C.ar  1 <1>  -0.1500 
 20 C       -5.8560     5.2370    -0.0670 C.3   1 <1>   0.1200 
 21 C       -4.5030     6.9070    -1.0370 C.3   1 <1>   0.1200 
 22 C        6.7900     1.2600    -0.3050 C.ar  1 <1>  -0.1500 
 23 C        5.5400     2.2820    -2.0730 C.ar  1 <1>  -0.1500 
 24 O       -5.6470     6.1100    -1.1390 O.3   1 <1>  -0.5600 
 25 C        6.6730     1.6200    -1.6360 C.ar  1 <1>  -0.1500 
 26 H       -0.5920     5.4550    -0.2510 H     1 <1>   0.0800 
 27 H       -0.9060     5.2710     1.4800 H     1 <1>   0.0800 
 28 H       -2.3720     3.3180     0.9740 H     1 <1>   0.0800 
 29 H       -2.1150     3.5610    -0.7350 H     1 <1>   0.0800 
 30 H        2.6720     1.9370     0.9270 H     1 <1>   0.0800 
 31 H        3.8460     2.3400     2.1460 H     1 <1>   0.0800 
 32 H       -3.3760     5.5410     1.0680 H     1 <1>   0.4500 
 33 H        2.9490     8.2930     1.3540 H     1 <1>   0.1500 
 34 H        5.9470     4.3580     1.5510 H     1 <1>   0.1500 
 35 H       -4.8080     3.6540     0.9460 H     1 <1>   0.0800 
 36 H       -4.6450     3.6290    -0.7890 H     1 <1>   0.0800 
 37 H       -3.1180     5.5100    -1.8780 H     1 <1>   0.0800 
 38 H       -2.3830     6.6530    -0.7870 H     1 <1>   0.0800 
 39 H        5.3830     8.5870     1.7700 H     1 <1>   0.1500 
 40 H        6.8570     6.6330     1.8650 H     1 <1>   0.1500 
 41 H        5.8840     1.2740     1.6180 H     1 <1>   0.1500 
 42 H        3.6520     3.1010    -1.5390 H     1 <1>   0.1500 
 43 H       -6.0030     5.8140     0.8290 H     1 <1>   0.0800 
 44 H       -6.7570     4.6830    -0.2690 H     1 <1>   0.0800 
 45 H       -4.4550     7.5220    -1.9190 H     1 <1>   0.0800 
 46 H       -4.6000     7.5480    -0.1780 H     1 <1>   0.0800 
 47 H        7.6720     0.7450     0.0350 H     1 <1>   0.1500 
 48 H        5.4490     2.5640    -3.1080 H     1 <1>   0.1500 
 49 H        7.4620     1.3860    -2.3290 H     1 <1>   0.1500 
@<TRIPOS>BOND
  1   1   2  1   
  2   1   3  1   
  3   2   4  2   
  4   2   5  1   
  5   3   6  1   
  6   3  26  1   
  7   3  27  1   
  8   4   7  1   
  9   5   8  1   
 10   5   9  1   
 11   6  10  1   
 12   6  28  1   
 13   6  29  1   
 14   7   8  ar  
 15   7  11  ar  
 16   8  12  ar  
 17   9  13  1   
 18   9  30  1   
 19   9  31  1   
 20  10  14  1   
 21  10  15  1   
 22  10  32  1   
 23  11  16  ar  
 24  11  33  1   
 25  12  17  ar  
 26  12  34  1   
 27  13  18  ar  
 28  13  19  ar  
 29  14  20  1   
 30  14  35  1   
 31  14  36  1   
 32  15  21  1   
 33  15  37  1   
 34  15  38  1   
 35  16  17  ar  
 36  16  39  1   
 37  17  40  1   
 38  18  22  ar  
 39  18  41  1   
 40  19  23  ar  
 41  19  42  1   
 42  20  24  1   
 43  20  43  1   
 44  20  44  1   
 45  21  24  1   
 46  21  45  1   
 47  21  46  1   
 48  22  25  ar  
 49  22  47  1   
 50  23  25  ar  
 51  23  48  1   
 52  25  49  1   
@<TRIPOS>SUBSTRUCTURE
  1 ****   2 GROUP 4 **** **** 0

# MOE 2024.06 (io_trps.svl 2023.06)
