@<TRIPOS>MOLECULE
NONAME
44 46 1 0 0 
SMALL
USER_CHARGES


@<TRIPOS>ATOM
  1 CL      -0.3500    -3.4140     2.5320 Cl    1 <1>  -0.1770 
  2 C       -1.3680    -2.5190     1.4170 C.ar  1 <1>   0.1770 
  3 C       -1.0260    -2.4130     0.0630 C.ar  1 <1>   0.1000 
  4 C       -2.5090    -1.9300     1.9270 C.ar  1 <1>  -0.1500 
  5 N        0.1140    -2.9860    -0.5170 N.pl3 1 <1>  -0.8380 
  6 C       -1.8810    -1.6890    -0.7590 C.ar  1 <1>  -0.1500 
  7 C       -3.3440    -1.2130     1.0870 C.ar  1 <1>  -0.1500 
  8 C        0.1260    -4.4780    -0.6120 C.3   1 <1>   0.2090 
  9 C        1.4250    -2.3820    -0.1260 C.3   1 <1>   0.2090 
 10 C       -3.0270    -1.0950    -0.2560 C.ar  1 <1>  -0.1500 
 11 C        1.2750    -4.9680    -1.5180 C.3   1 <1>   0.3430 
 12 C        2.5630    -2.8870    -1.0350 C.3   1 <1>   0.3430 
 13 N        2.6040    -4.3920    -1.1130 N.4   1 <1>  -0.9590 
 14 C        3.7270    -4.8860    -1.9440 C.3   1 <1>   0.4860 
 15 C        5.0270    -4.4620    -1.2890 C.ar  1 <1>  -0.1430 
 16 C        5.3300    -4.8790     0.0050 C.ar  1 <1>   0.0830 
 17 C        5.9160    -3.6530    -1.9810 C.ar  1 <1>  -0.1500 
 18 O        4.4200    -5.6650     0.6440 O.3   1 <1>  -0.3630 
 19 C        6.5260    -4.4760     0.5930 C.ar  1 <1>  -0.1500 
 20 C        7.1020    -3.2570    -1.3890 C.ar  1 <1>  -0.1500 
 21 C        4.7320    -6.2900     1.8750 C.3   1 <1>   0.0400 
 22 C        7.4050    -3.6680    -0.1040 C.ar  1 <1>  -0.1500 
 23 H       -2.7430    -2.0300     2.9720 H     1 <1>   0.1500 
 24 H       -1.6420    -1.5920    -1.8020 H     1 <1>   0.1500 
 25 H       -4.2360    -0.7510     1.4740 H     1 <1>   0.1500 
 26 H       -0.8140    -4.8140    -1.0140 H     1 <1>   0.0800 
 27 H        0.2370    -4.9070     0.3680 H     1 <1>   0.0800 
 28 H        1.6520    -2.6250     0.8970 H     1 <1>   0.0800 
 29 H        1.3570    -1.3090    -0.2020 H     1 <1>   0.0800 
 30 H       -3.6750    -0.5380    -0.9120 H     1 <1>   0.1500 
 31 H        1.0500    -4.6770    -2.5300 H     1 <1>   0.0800 
 32 H        1.3140    -6.0440    -1.4810 H     1 <1>   0.0800 
 33 H        3.5020    -2.5130    -0.6600 H     1 <1>   0.0800 
 34 H        2.4130    -2.4790    -2.0200 H     1 <1>   0.0800 
 35 H        2.8360    -4.7350    -0.1640 H     1 <1>   0.4500 
 36 H        3.6610    -4.4850    -2.9420 H     1 <1>   0.0800 
 37 H        3.7000    -5.9620    -1.9990 H     1 <1>   0.0800 
 38 H        5.7050    -3.3250    -2.9850 H     1 <1>   0.1500 
 39 H        6.7950    -4.7760     1.5890 H     1 <1>   0.1500 
 40 H        7.7940    -2.6300    -1.9280 H     1 <1>   0.1500 
 41 H        4.8780    -5.5340     2.6270 H     1 <1>   0.0800 
 42 H        5.6220    -6.8830     1.7520 H     1 <1>   0.0800 
 43 H        3.9100    -6.9240     2.1520 H     1 <1>   0.0800 
 44 H        8.3300    -3.3580     0.3530 H     1 <1>   0.1500 
@<TRIPOS>BOND
  1   1   2  1   
  2   2   3  ar  
  3   2   4  ar  
  4   3   5  1   
  5   3   6  ar  
  6   4   7  ar  
  7   4  23  1   
  8   5   8  1   
  9   5   9  1   
 10   6  10  ar  
 11   6  24  1   
 12   7  10  ar  
 13   7  25  1   
 14   8  11  1   
 15   8  26  1   
 16   8  27  1   
 17   9  12  1   
 18   9  28  1   
 19   9  29  1   
 20  10  30  1   
 21  11  13  1   
 22  11  31  1   
 23  11  32  1   
 24  12  13  1   
 25  12  33  1   
 26  12  34  1   
 27  13  14  1   
 28  13  35  1   
 29  14  15  1   
 30  14  36  1   
 31  14  37  1   
 32  15  16  ar  
 33  15  17  ar  
 34  16  18  1   
 35  16  19  ar  
 36  17  20  ar  
 37  17  38  1   
 38  18  21  1   
 39  19  22  ar  
 40  19  39  1   
 41  20  22  ar  
 42  20  40  1   
 43  21  41  1   
 44  21  42  1   
 45  21  43  1   
 46  22  44  1   
@<TRIPOS>SUBSTRUCTURE
  1 ****  12 GROUP 4 **** **** 0

# MOE 2024.06 (io_trps.svl 2023.06)
