@<TRIPOS>MOLECULE
NONAME
46 48 1 0 0 
SMALL
USER_CHARGES


@<TRIPOS>ATOM
  1 F        1.7460     0.9770    -1.6420 F     1 <1>  -0.1900 
  2 C        1.6890     1.6580    -0.5270 C.ar  1 <1>   0.1900 
  3 C        0.5820     2.4550    -0.2700 C.ar  1 <1>  -0.1440 
  4 C        2.7440     1.5410     0.3580 C.ar  1 <1>  -0.1500 
  5 C        0.5500     3.1500     0.9300 C.ar  1 <1>  -0.1500 
  6 C       -0.5670     2.5750    -1.2610 C.3   1 <1>   0.2540 
  7 C        2.6940     2.2430     1.5500 C.ar  1 <1>  -0.1500 
  8 C        1.5980     3.0450     1.8320 C.ar  1 <1>  -0.1500 
  9 N       -1.7500     1.8310    -0.7830 N.3   1 <1>  -0.8100 
 10 C       -2.9200     2.0650    -1.6630 C.3   1 <1>   0.1100 
 11 C       -1.4750     0.3740    -0.6650 C.3   1 <1>   0.1100 
 12 C       -4.1760     1.2880    -1.1950 C.3   1 <1>   0.3430 
 13 C       -2.7130    -0.4280    -0.1990 C.3   1 <1>   0.3430 
 14 N       -3.8830     0.4780     0.0350 N.4   1 <1>  -0.9590 
 15 C       -5.0600    -0.2030     0.6310 C.3   1 <1>   0.4860 
 16 C       -6.1360     0.8310     0.9560 C.ar  1 <1>  -0.1430 
 17 C       -7.3630     0.8900     0.2800 C.ar  1 <1>  -0.1430 
 18 C       -5.8640     1.7400     1.9710 C.ar  1 <1>  -0.1500 
 19 C       -8.2750     1.8800     0.6410 C.ar  1 <1>  -0.1500 
 20 C       -7.7240    -0.1040    -0.8410 C.3   1 <1>   1.1630 
 21 C       -6.7820     2.7130     2.3130 C.ar  1 <1>  -0.1500 
 22 C       -7.9880     2.7840     1.6460 C.ar  1 <1>  -0.1500 
 23 F       -7.6600    -1.3600    -0.4190 F     1 <1>  -0.3400 
 24 F       -8.9290     0.0630    -1.3640 F     1 <1>  -0.3400 
 25 F       -6.8600    -0.0150    -1.8470 F     1 <1>  -0.3400 
 26 H        3.5840     0.9140     0.1180 H     1 <1>   0.1500 
 27 H       -0.2930     3.7760     1.1660 H     1 <1>   0.1500 
 28 H       -0.2710     2.2180    -2.2330 H     1 <1>   0.0800 
 29 H       -0.8190     3.6180    -1.3600 H     1 <1>   0.0800 
 30 H        3.5040     2.1690     2.2550 H     1 <1>   0.1500 
 31 H        1.5630     3.5910     2.7600 H     1 <1>   0.1500 
 32 H       -2.6840     1.7750    -2.6730 H     1 <1>   0.0800 
 33 H       -3.1520     3.1170    -1.6750 H     1 <1>   0.0800 
 34 H       -0.6850     0.2120     0.0490 H     1 <1>   0.0800 
 35 H       -1.1340    -0.0140    -1.6110 H     1 <1>   0.0800 
 36 H       -4.5100     0.6440    -1.9920 H     1 <1>   0.0800 
 37 H       -4.9640     1.9940    -0.9920 H     1 <1>   0.0800 
 38 H       -2.4630    -0.9520     0.7090 H     1 <1>   0.0800 
 39 H       -2.9590    -1.1640    -0.9470 H     1 <1>   0.0800 
 40 H       -3.5260     1.1840     0.6970 H     1 <1>   0.4500 
 41 H       -4.7680    -0.7020     1.5420 H     1 <1>   0.0800 
 42 H       -5.4300    -0.9490    -0.0500 H     1 <1>   0.0800 
 43 H       -4.9350     1.7050     2.5150 H     1 <1>   0.1500 
 44 H       -9.2300     1.9630     0.1470 H     1 <1>   0.1500 
 45 H       -6.5640     3.4160     3.1010 H     1 <1>   0.1500 
 46 H       -8.7060     3.5420     1.9120 H     1 <1>   0.1500 
@<TRIPOS>BOND
  1   1   2  1   
  2   2   3  ar  
  3   2   4  ar  
  4   3   5  ar  
  5   3   6  1   
  6   4   7  ar  
  7   4  26  1   
  8   5   8  ar  
  9   5  27  1   
 10   6   9  1   
 11   6  28  1   
 12   6  29  1   
 13   7   8  ar  
 14   7  30  1   
 15   8  31  1   
 16   9  10  1   
 17   9  11  1   
 18  10  12  1   
 19  10  32  1   
 20  10  33  1   
 21  11  13  1   
 22  11  34  1   
 23  11  35  1   
 24  12  14  1   
 25  12  36  1   
 26  12  37  1   
 27  13  14  1   
 28  13  38  1   
 29  13  39  1   
 30  14  15  1   
 31  14  40  1   
 32  15  16  1   
 33  15  41  1   
 34  15  42  1   
 35  16  17  ar  
 36  16  18  ar  
 37  17  19  ar  
 38  17  20  1   
 39  18  21  ar  
 40  18  43  1   
 41  19  22  ar  
 42  19  44  1   
 43  20  23  1   
 44  20  24  1   
 45  20  25  1   
 46  21  22  ar  
 47  21  45  1   
 48  22  46  1   
@<TRIPOS>SUBSTRUCTURE
  1 ****  14 GROUP 4 **** **** 0

# MOE 2024.06 (io_trps.svl 2023.06)
