@<TRIPOS>MOLECULE
NONAME
42 44 1 0 0 
SMALL
USER_CHARGES


@<TRIPOS>ATOM
  1 CL       0.1710     0.9430    -0.3130 Cl    1 <1>  -0.1770 
  2 C       -1.5040     1.4130    -0.4250 C.ar  1 <1>   0.1770 
  3 C       -2.4420     0.4940    -0.8560 C.ar  1 <1>  -0.1500 
  4 C       -1.8730     2.7000    -0.0830 C.ar  1 <1>  -0.1500 
  5 C       -3.7700     0.8730    -0.9380 C.ar  1 <1>  -0.1500 
  6 C       -3.2040     3.0680    -0.1700 C.ar  1 <1>  -0.1500 
  7 C       -4.1790     2.1600    -0.5890 C.ar  1 <1>   0.0530 
  8 C       -5.5720     2.5280    -0.6690 C.2   1 <1>   0.1330 
  9 N       -6.3240     2.3770    -1.7250 N.2   1 <1>  -0.3380 
 10 N       -6.2840     3.0670     0.3420 N.pl3 1 <1>   0.0480 
 11 N       -7.5400     2.8320    -1.4320 N.2   1 <1>  -0.3380 
 12 C       -7.4810     3.2270    -0.2110 C.2   1 <1>   0.2430 
 13 C       -5.8740     3.3600     1.7320 C.3   1 <1>   0.0160 
 14 S       -8.8670     3.9210     0.6980 S.3   1 <1>  -0.2860 
 15 C      -10.2670     3.9650    -0.5260 C.3   1 <1>   0.1310 
 16 C      -11.4900     3.2610     0.0440 C.2   1 <1>   0.5690 
 17 O      -12.3860     3.9700     0.4430 O.2   1 <1>  -0.5700 
 18 N      -11.5810     1.8880     0.0880 N.am  1 <1>  -0.6600 
 19 C      -10.5250     0.9420    -0.3750 C.3   1 <1>   0.1400 
 20 C      -12.7970     1.2120     0.6220 C.3   1 <1>   0.1400 
 21 C      -11.0950     0.0250    -1.4620 C.3   1 <1>  -0.1600 
 22 C      -13.3910     0.2950    -0.4520 C.3   1 <1>  -0.1600 
 23 C      -12.3550    -0.7080    -0.9800 C.3   1 <1>  -0.1600 
 24 H       -2.1320    -0.5000    -1.1240 H     1 <1>   0.1500 
 25 H       -1.1230     3.4000     0.2400 H     1 <1>   0.1500 
 26 H       -4.5080     0.1670    -1.2810 H     1 <1>   0.1500 
 27 H       -3.4910     4.0750     0.0790 H     1 <1>   0.1500 
 28 H       -5.6000     4.3960     1.8110 H     1 <1>   0.0800 
 29 H       -5.0390     2.7420     2.0040 H     1 <1>   0.0800 
 30 H       -6.6920     3.1560     2.4000 H     1 <1>   0.0800 
 31 H       -9.9550     3.5080    -1.4440 H     1 <1>   0.0800 
 32 H      -10.4880     5.0010    -0.7040 H     1 <1>   0.0800 
 33 H      -10.1960     0.3520     0.4630 H     1 <1>   0.0800 
 34 H       -9.6720     1.4610    -0.7650 H     1 <1>   0.0800 
 35 H      -13.5350     1.9350     0.9260 H     1 <1>   0.0800 
 36 H      -12.5230     0.6340     1.4880 H     1 <1>   0.0800 
 37 H      -10.3460    -0.6920    -1.7480 H     1 <1>   0.0800 
 38 H      -11.3280     0.6180    -2.3290 H     1 <1>   0.0800 
 39 H      -13.7540     0.9040    -1.2620 H     1 <1>   0.0800 
 40 H      -14.2310    -0.2350    -0.0400 H     1 <1>   0.0800 
 41 H      -12.0900    -1.3930    -0.1930 H     1 <1>   0.0800 
 42 H      -12.7780    -1.2770    -1.7900 H     1 <1>   0.0800 
@<TRIPOS>BOND
  1   1   2  1   
  2   2   3  ar  
  3   2   4  ar  
  4   3   5  ar  
  5   3  24  1   
  6   4   6  ar  
  7   4  25  1   
  8   5   7  ar  
  9   5  26  1   
 10   6   7  ar  
 11   6  27  1   
 12   7   8  1   
 13   8   9  2   
 14   8  10  1   
 15   9  11  1   
 16  10  12  1   
 17  10  13  1   
 18  11  12  2   
 19  12  14  1   
 20  13  28  1   
 21  13  29  1   
 22  13  30  1   
 23  14  15  1   
 24  15  16  1   
 25  15  31  1   
 26  15  32  1   
 27  16  17  2   
 28  16  18  am  
 29  18  19  1   
 30  18  20  1   
 31  19  21  1   
 32  19  33  1   
 33  19  34  1   
 34  20  22  1   
 35  20  35  1   
 36  20  36  1   
 37  21  23  1   
 38  21  37  1   
 39  21  38  1   
 40  22  23  1   
 41  22  39  1   
 42  22  40  1   
 43  23  41  1   
 44  23  42  1   
@<TRIPOS>SUBSTRUCTURE
  1 ****  12 GROUP 4 **** **** 0

# MOE 2024.06 (io_trps.svl 2023.06)
