@<TRIPOS>MOLECULE
NONAME
30 31 1 0 0 
SMALL
USER_CHARGES


@<TRIPOS>ATOM
  1 O        0.3630     0.0160    -0.0020 O.3   1 <1>  -0.3630 
  2 C        1.7210    -0.0440    -0.0040 C.ar  1 <1>   0.0830 
  3 C       -0.4380    -1.1420    -0.0010 C.3   1 <1>   0.1200 
  4 C        2.4280     1.1780    -0.0050 C.ar  1 <1>   0.0820 
  5 C        2.4160    -1.2330    -0.0050 C.ar  1 <1>  -0.1500 
  6 C       -1.8990    -0.7030     0.0020 C.3   1 <1>  -0.2400 
  7 O        1.6990     2.3260    -0.0040 O.3   1 <1>  -0.3620 
  8 C        3.8050     1.1680    -0.0070 C.ar  1 <1>  -0.1500 
  9 C        3.8160    -1.2600    -0.0070 C.ar  1 <1>   0.3100 
 10 C        2.3040     3.5980    -0.0040 C.3   1 <1>   0.1200 
 11 C        4.5270    -0.0320    -0.0080 C.ar  1 <1>   0.3100 
 12 N        4.4510    -2.4620    -0.0080 N.ar  1 <1>  -0.6200 
 13 C        1.1960     4.6450    -0.0030 C.3   1 <1>  -0.2400 
 14 N        5.8850     0.0160    -0.0100 N.ar  1 <1>  -0.6200 
 15 C        5.7450    -2.3710    -0.0100 C.ar  1 <1>   0.1600 
 16 C        6.4510    -1.1510    -0.0110 C.ar  1 <1>   0.1600 
 17 H       -0.2110    -1.7130     0.8830 H     1 <1>   0.0800 
 18 H       -0.2140    -1.7130    -0.8850 H     1 <1>   0.0800 
 19 H        1.9240    -2.1840    -0.0040 H     1 <1>   0.1500 
 20 H       -2.1060    -0.1180     0.8800 H     1 <1>   0.0800 
 21 H       -2.5400    -1.5660     0.0030 H     1 <1>   0.0800 
 22 H       -2.1090    -0.1180    -0.8760 H     1 <1>   0.0800 
 23 H        4.3850     2.0690    -0.0080 H     1 <1>   0.1500 
 24 H        2.9110     3.6870    -0.8890 H     1 <1>   0.0800 
 25 H        2.9130     3.6860     0.8790 H     1 <1>   0.0800 
 26 H        0.5840     4.5340    -0.8800 H     1 <1>   0.0800 
 27 H        1.6240     5.6310    -0.0030 H     1 <1>   0.0800 
 28 H        0.5860     4.5340     0.8760 H     1 <1>   0.0800 
 29 H        6.3210    -3.2790    -0.0110 H     1 <1>   0.1500 
 30 H        7.5260    -1.1980    -0.0120 H     1 <1>   0.1500 
@<TRIPOS>BOND
  1   1   2  1   
  2   1   3  1   
  3   2   4  ar  
  4   2   5  ar  
  5   3   6  1   
  6   3  17  1   
  7   3  18  1   
  8   4   7  1   
  9   4   8  ar  
 10   5   9  ar  
 11   5  19  1   
 12   6  20  1   
 13   6  21  1   
 14   6  22  1   
 15   7  10  1   
 16   8  11  ar  
 17   8  23  1   
 18   9  11  ar  
 19   9  12  ar  
 20  10  13  1   
 21  10  24  1   
 22  10  25  1   
 23  11  14  ar  
 24  12  15  ar  
 25  13  26  1   
 26  13  27  1   
 27  13  28  1   
 28  14  16  ar  
 29  15  16  ar  
 30  15  29  1   
 31  16  30  1   
@<TRIPOS>SUBSTRUCTURE
  1 ****   4 GROUP 4 **** **** 0

# MOE 2024.06 (io_trps.svl 2023.06)
