@<TRIPOS>MOLECULE
NONAME
41 43 1 0 0 
SMALL
USER_CHARGES


@<TRIPOS>ATOM
  1 O       -0.8810    -0.7020    -1.7910 O.2   1 <1>  -0.5700 
  2 C       -1.0550    -1.3950    -0.8090 C.2   1 <1>   0.6340 
  3 O       -0.0030    -2.0220    -0.2720 O.3   1 <1>  -0.4300 
  4 C       -2.3530    -1.5760    -0.1820 C.ar  1 <1>   0.0860 
  5 C        1.2950    -1.9070    -0.8210 C.3   1 <1>   0.0400 
  6 C       -2.5290    -2.3730     0.9500 C.ar  1 <1>  -0.1500 
  7 C       -3.4920    -0.9550    -0.6930 C.ar  1 <1>  -0.1500 
  8 C       -3.7710    -2.5370     1.5350 C.ar  1 <1>  -0.1500 
  9 C       -4.7360    -1.1160    -0.1110 C.ar  1 <1>  -0.1500 
 10 C       -4.8970    -1.9130     1.0190 C.ar  1 <1>  -0.1440 
 11 C       -6.2540    -2.1220     1.7230 C.3   1 <1>   0.5890 
 12 N       -6.8340    -3.4870     1.5320 N.4   1 <1>  -0.1220 
 13 N       -7.2870    -1.2060     1.1620 N.3   1 <1>  -0.6400 
 14 O       -5.9570    -4.5380     1.5360 O.2   1 <1>  -0.7500 
 15 C       -7.5210    -3.3600     0.2560 C.3   1 <1>   0.1760 
 16 O       -7.9280    -0.5480     2.1760 O.3   1 <1>  -0.3000 
 17 C       -8.2450    -2.0450     0.4420 C.3   1 <1>   0.1900 
 18 C       -8.5010    -4.4490    -0.1760 C.3   1 <1>  -0.1600 
 19 C       -8.7120    -1.5370    -0.9180 C.3   1 <1>  -0.1600 
 20 C       -9.1020    -4.0180    -1.5310 C.3   1 <1>  -0.1600 
 21 C       -9.6790    -2.5820    -1.5190 C.3   1 <1>  -0.1600 
 22 H        1.9710    -2.4950    -0.2270 H     1 <1>   0.0800 
 23 H        1.5880    -0.8710    -0.8030 H     1 <1>   0.0800 
 24 H        1.2770    -2.2710    -1.8340 H     1 <1>   0.0800 
 25 H       -1.6840    -2.8830     1.3790 H     1 <1>   0.1500 
 26 H       -3.3980    -0.3330    -1.5670 H     1 <1>   0.1500 
 27 H       -3.8660    -3.1780     2.3960 H     1 <1>   0.1500 
 28 H       -5.5750    -0.6090    -0.5530 H     1 <1>   0.1500 
 29 H       -6.1380    -1.9350     2.7760 H     1 <1>   0.0800 
 30 H       -7.5150    -3.6350     2.2780 H     1 <1>   0.3600 
 31 H       -6.7720    -3.2390    -0.5070 H     1 <1>   0.0800 
 32 H       -7.8540     0.4260     2.0610 H     1 <1>   0.4000 
 33 H       -9.1120    -2.2130     1.0610 H     1 <1>   0.0800 
 34 H       -9.2800    -4.5710     0.5550 H     1 <1>   0.0800 
 35 H       -7.9740    -5.3810    -0.2870 H     1 <1>   0.0800 
 36 H       -7.8650    -1.4030    -1.5700 H     1 <1>   0.0800 
 37 H       -9.2160    -0.5940    -0.8030 H     1 <1>   0.0800 
 38 H       -9.8720    -4.7140    -1.8210 H     1 <1>   0.0800 
 39 H       -8.3280    -4.0690    -2.2790 H     1 <1>   0.0800 
 40 H       -9.9390    -2.2930    -2.5230 H     1 <1>   0.0800 
 41 H      -10.5880    -2.5830    -0.9410 H     1 <1>   0.0800 
@<TRIPOS>BOND
  1   1   2  2   
  2   2   3  1   
  3   2   4  1   
  4   3   5  1   
  5   4   6  ar  
  6   4   7  ar  
  7   5  22  1   
  8   5  23  1   
  9   5  24  1   
 10   6   8  ar  
 11   6  25  1   
 12   7   9  ar  
 13   7  26  1   
 14   8  10  ar  
 15   8  27  1   
 16   9  10  ar  
 17   9  28  1   
 18  10  11  1   
 19  11  12  1   
 20  11  13  1   
 21  11  29  1   
 22  12  14  2   
 23  12  15  1   
 24  12  30  1   
 25  13  16  1   
 26  13  17  1   
 27  15  17  1   
 28  15  18  1   
 29  15  31  1   
 30  16  32  1   
 31  17  19  1   
 32  17  33  1   
 33  18  20  1   
 34  18  34  1   
 35  18  35  1   
 36  19  21  1   
 37  19  36  1   
 38  19  37  1   
 39  20  21  1   
 40  20  38  1   
 41  20  39  1   
 42  21  40  1   
 43  21  41  1   
@<TRIPOS>SUBSTRUCTURE
  1 ****  10 GROUP 4 **** **** 0

# MOE 2024.06 (io_trps.svl 2023.06)
