@<TRIPOS>MOLECULE
NONAME
50 50 1 0 0 
SMALL
USER_CHARGES


@<TRIPOS>ATOM
  1 O      -11.6760    -0.2710    -0.8600 O.3   1 <1>  -0.5320 
  2 C      -10.4970    -0.4400    -0.2540 C.ar  1 <1>   0.0830 
  3 C       -9.6670     0.6730    -0.0320 C.ar  1 <1>  -0.1430 
  4 C      -10.1500    -1.7460     0.1330 C.ar  1 <1>  -0.1430 
  5 C       -8.4510     0.4260     0.5930 C.ar  1 <1>  -0.1500 
  6 C       -9.9510     2.1660    -0.4030 C.3   1 <1>   0.1440 
  7 C       -8.9140    -1.9120     0.7500 C.ar  1 <1>  -0.1500 
  8 C      -11.0820    -2.9820    -0.0980 C.3   1 <1>   0.1440 
  9 C       -8.0680    -0.8440     0.9730 C.ar  1 <1>  -0.1430 
 10 C       -9.9440     3.0170     0.8810 C.3   1 <1>  -0.2400 
 11 C       -8.8480     2.6760    -1.3500 C.3   1 <1>  -0.2400 
 12 C      -11.2850     2.4780    -1.1060 C.3   1 <1>  -0.2400 
 13 C      -12.4190    -2.8120     0.6490 C.3   1 <1>  -0.2400 
 14 C      -11.3330    -3.2110    -1.6010 C.3   1 <1>  -0.2400 
 15 C      -10.4850    -4.3060     0.4250 C.3   1 <1>  -0.2400 
 16 C       -6.7180    -1.0600     1.6100 C.3   1 <1>   0.4860 
 17 N       -5.7730    -1.2280     0.4880 N.4   1 <1>  -0.9060 
 18 C       -4.3600    -1.3920     0.9310 C.3   1 <1>   0.3430 
 19 C       -3.4070    -1.5400    -0.2620 C.3   1 <1>   0.1200 
 20 O       -2.1280    -1.6640     0.2470 O.3   1 <1>  -0.6800 
 21 H      -12.1650    -1.1090    -0.9310 H     1 <1>   0.4500 
 22 H       -7.7840     1.2440     0.7930 H     1 <1>   0.1500 
 23 H       -8.5810    -2.8780     1.0750 H     1 <1>   0.1500 
 24 H       -8.9920     2.9950     1.3750 H     1 <1>   0.0800 
 25 H      -10.6880     2.6470     1.5640 H     1 <1>   0.0800 
 26 H      -10.1710     4.0440     0.6580 H     1 <1>   0.0800 
 27 H       -8.8190     2.0640    -2.2340 H     1 <1>   0.0800 
 28 H       -7.8800     2.6590    -0.8890 H     1 <1>   0.0800 
 29 H       -9.0450     3.6900    -1.6490 H     1 <1>   0.0800 
 30 H      -12.1150     2.1960    -0.4840 H     1 <1>   0.0800 
 31 H      -11.3520     1.9520    -2.0410 H     1 <1>   0.0800 
 32 H      -11.3770     3.5290    -1.3150 H     1 <1>   0.0800 
 33 H      -13.0180    -2.0100     0.2680 H     1 <1>   0.0800 
 34 H      -12.2310    -2.6180     1.6900 H     1 <1>   0.0800 
 35 H      -13.0100    -3.7090     0.5770 H     1 <1>   0.0800 
 36 H      -11.8910    -2.4200    -2.0610 H     1 <1>   0.0800 
 37 H      -11.8880    -4.1200    -1.7580 H     1 <1>   0.0800 
 38 H      -10.3950    -3.2980    -2.1190 H     1 <1>   0.0800 
 39 H      -10.3110    -4.2540     1.4860 H     1 <1>   0.0800 
 40 H       -9.5640    -4.5380    -0.0780 H     1 <1>   0.0800 
 41 H      -11.1620    -5.1240     0.2500 H     1 <1>   0.0800 
 42 H       -6.7340    -1.9390     2.2340 H     1 <1>   0.0800 
 43 H       -6.4520    -0.2050     2.2100 H     1 <1>   0.0800 
 44 H       -5.8820    -0.4100    -0.1220 H     1 <1>   0.4500 
 45 H       -6.0900    -2.0350    -0.0630 H     1 <1>   0.4500 
 46 H       -4.2700    -2.2670     1.5530 H     1 <1>   0.0800 
 47 H       -4.0560    -0.5310     1.5050 H     1 <1>   0.0800 
 48 H       -3.4300    -0.6680    -0.8930 H     1 <1>   0.0800 
 49 H       -3.6260    -2.4270    -0.8310 H     1 <1>   0.0800 
 50 H       -1.4580    -1.7630    -0.4640 H     1 <1>   0.4000 
@<TRIPOS>BOND
  1   1   2  1   
  2   1  21  1   
  3   2   3  ar  
  4   2   4  ar  
  5   3   5  ar  
  6   3   6  1   
  7   4   7  ar  
  8   4   8  1   
  9   5   9  ar  
 10   5  22  1   
 11   6  10  1   
 12   6  11  1   
 13   6  12  1   
 14   7   9  ar  
 15   7  23  1   
 16   8  13  1   
 17   8  14  1   
 18   8  15  1   
 19   9  16  1   
 20  10  24  1   
 21  10  25  1   
 22  10  26  1   
 23  11  27  1   
 24  11  28  1   
 25  11  29  1   
 26  12  30  1   
 27  12  31  1   
 28  12  32  1   
 29  13  33  1   
 30  13  34  1   
 31  13  35  1   
 32  14  36  1   
 33  14  37  1   
 34  14  38  1   
 35  15  39  1   
 36  15  40  1   
 37  15  41  1   
 38  16  17  1   
 39  16  42  1   
 40  16  43  1   
 41  17  18  1   
 42  17  44  1   
 43  17  45  1   
 44  18  19  1   
 45  18  46  1   
 46  18  47  1   
 47  19  20  1   
 48  19  48  1   
 49  19  49  1   
 50  20  50  1   
@<TRIPOS>SUBSTRUCTURE
  1 ****   9 GROUP 4 **** **** 0

# MOE 2024.06 (io_trps.svl 2023.06)
