@<TRIPOS>MOLECULE
NONAME
43 44 1 0 0 
SMALL
USER_CHARGES


@<TRIPOS>ATOM
  1 O        1.5180     1.5760     0.8120 O.3   1 <1>  -0.5600 
  2 C        1.6960     0.8600    -0.3820 C.3   1 <1>   0.1200 
  3 C        1.7730     2.9480     0.7080 C.3   1 <1>   0.1200 
  4 C        3.0700     1.1480    -1.0340 C.3   1 <1>   0.3430 
  5 C        3.2540     3.2080     0.3480 C.3   1 <1>   0.3430 
  6 N        3.9440     1.9640    -0.1300 N.4   1 <1>  -0.9590 
  7 C        5.3410     2.1720    -0.6230 C.3   1 <1>   0.3430 
  8 C        6.1690     0.8760    -0.4850 C.3   1 <1>   0.2000 
  9 O        5.7780     0.2090     0.6760 O.3   1 <1>  -0.6800 
 10 C        7.6780     1.1390    -0.4220 C.3   1 <1>   0.1200 
 11 O        8.3270    -0.0790    -0.1250 O.3   1 <1>  -0.3630 
 12 C        9.6790    -0.1620    -0.0150 C.ar  1 <1>   0.0830 
 13 C       10.2260    -1.4170     0.2380 C.ar  1 <1>  -0.1440 
 14 C       10.5190     0.9430    -0.1430 C.ar  1 <1>  -0.1500 
 15 C       11.6000    -1.5500     0.3570 C.ar  1 <1>  -0.1500 
 16 C        9.3380    -2.6440     0.3850 C.3   1 <1>  -0.0970 
 17 C       11.8910     0.8030    -0.0220 C.ar  1 <1>  -0.1430 
 18 C       12.4270    -0.4490     0.2280 C.ar  1 <1>  -0.1500 
 19 C       12.8080     2.0050    -0.1630 C.3   1 <1>  -0.0970 
 20 H        0.8960     1.1130    -1.0570 H     1 <1>   0.0800 
 21 H        1.6150    -0.1860    -0.1450 H     1 <1>   0.0800 
 22 H        1.5350     3.4040     1.6540 H     1 <1>   0.0800 
 23 H        1.1190     3.3630    -0.0390 H     1 <1>   0.0800 
 24 H        2.9130     1.6720    -1.9610 H     1 <1>   0.0800 
 25 H        3.5480     0.2100    -1.2640 H     1 <1>   0.0800 
 26 H        3.7610     3.5870     1.2210 H     1 <1>   0.0800 
 27 H        3.2970     3.9730    -0.4090 H     1 <1>   0.0800 
 28 H        4.0620     1.3580     0.7090 H     1 <1>   0.4500 
 29 H        5.8150     2.9320    -0.0240 H     1 <1>   0.0800 
 30 H        5.3400     2.5090    -1.6460 H     1 <1>   0.0800 
 31 H        5.9660     0.2260    -1.3190 H     1 <1>   0.0800 
 32 H        6.4740    -0.4560     0.8980 H     1 <1>   0.4000 
 33 H        7.9110     1.8450     0.3560 H     1 <1>   0.0800 
 34 H        8.0460     1.4970    -1.3680 H     1 <1>   0.0800 
 35 H       10.1270     1.9210    -0.3380 H     1 <1>   0.1500 
 36 H       12.0380    -2.5140     0.5520 H     1 <1>   0.1500 
 37 H        8.7450    -2.7740    -0.5030 H     1 <1>   0.0800 
 38 H        8.6820    -2.5200     1.2280 H     1 <1>   0.0800 
 39 H        9.9250    -3.5320     0.5360 H     1 <1>   0.0800 
 40 H       13.4920    -0.5730     0.3220 H     1 <1>   0.1500 
 41 H       12.2940     2.9090     0.1100 H     1 <1>   0.0800 
 42 H       13.1430     2.0890    -1.1810 H     1 <1>   0.0800 
 43 H       13.6660     1.8980     0.4760 H     1 <1>   0.0800 
@<TRIPOS>BOND
  1   1   2  1   
  2   1   3  1   
  3   2   4  1   
  4   2  20  1   
  5   2  21  1   
  6   3   5  1   
  7   3  22  1   
  8   3  23  1   
  9   4   6  1   
 10   4  24  1   
 11   4  25  1   
 12   5   6  1   
 13   5  26  1   
 14   5  27  1   
 15   6   7  1   
 16   6  28  1   
 17   7   8  1   
 18   7  29  1   
 19   7  30  1   
 20   8   9  1   
 21   8  10  1   
 22   8  31  1   
 23   9  32  1   
 24  10  11  1   
 25  10  33  1   
 26  10  34  1   
 27  11  12  1   
 28  12  13  ar  
 29  12  14  ar  
 30  13  15  ar  
 31  13  16  1   
 32  14  17  ar  
 33  14  35  1   
 34  15  18  ar  
 35  15  36  1   
 36  16  37  1   
 37  16  38  1   
 38  16  39  1   
 39  17  18  ar  
 40  17  19  1   
 41  18  40  1   
 42  19  41  1   
 43  19  42  1   
 44  19  43  1   
@<TRIPOS>SUBSTRUCTURE
  1 ****  10 GROUP 4 **** **** 0

# MOE 2024.06 (io_trps.svl 2023.06)
