@<TRIPOS>MOLECULE
NONAME
46 48 1 0 0 
SMALL
USER_CHARGES


@<TRIPOS>ATOM
  1 F       -2.3520     1.5980     2.3440 F     1 <1>  -0.1900 
  2 C       -3.3350     1.1760     1.5900 C.ar  1 <1>   0.1900 
  3 C       -4.6030     1.6840     1.8020 C.ar  1 <1>  -0.1500 
  4 C       -3.0670     0.2390     0.6090 C.ar  1 <1>  -0.1500 
  5 C       -5.6370     1.2330     1.0000 C.ar  1 <1>  -0.1500 
  6 C       -4.1130    -0.2010    -0.1840 C.ar  1 <1>  -0.1500 
  7 C       -5.4020     0.2880     0.0020 C.ar  1 <1>   0.1000 
  8 N       -6.4280    -0.1770    -0.8090 N.pl3 1 <1>  -0.8380 
  9 C       -7.0610     0.8390    -1.7100 C.3   1 <1>   0.2090 
 10 C       -7.4350    -1.0540    -0.1380 C.3   1 <1>   0.2090 
 11 C       -7.9990     0.1720    -2.7300 C.3   1 <1>   0.1400 
 12 C       -8.3800    -1.7110    -1.1610 C.3   1 <1>   0.1400 
 13 N       -9.0160    -0.6760    -2.0350 N.am  1 <1>  -0.6600 
 14 C      -10.2570    -0.1680    -1.7610 C.2   1 <1>   0.6900 
 15 O      -10.4870     1.0170    -1.9150 O.2   1 <1>  -0.5700 
 16 N      -11.2220    -1.0160    -1.3100 N.am  1 <1>  -0.5470 
 17 C      -12.4900    -0.7090    -0.8060 C.ar  1 <1>   0.1170 
 18 C      -12.6830    -0.0490     0.4120 C.ar  1 <1>  -0.1430 
 19 C      -13.6000    -1.1100    -1.5410 C.ar  1 <1>  -0.1500 
 20 C      -13.9740     0.1900     0.8590 C.ar  1 <1>  -0.1500 
 21 C      -11.5200     0.4150     1.2860 C.3   1 <1>  -0.0170 
 22 C      -14.8820    -0.8670    -1.0860 C.ar  1 <1>  -0.1500 
 23 C      -15.0700    -0.2150     0.1180 C.ar  1 <1>  -0.1500 
 24 C      -10.9490    -0.7460     2.1060 C.3   1 <1>  -0.2400 
 25 H       -4.7700     2.4120     2.5740 H     1 <1>   0.1500 
 26 H       -2.0680    -0.1320     0.4730 H     1 <1>   0.1500 
 27 H       -6.6330     1.6100     1.1430 H     1 <1>   0.1500 
 28 H       -3.9450    -0.9280    -0.9570 H     1 <1>   0.1500 
 29 H       -6.2900     1.3790    -2.2320 H     1 <1>   0.0800 
 30 H       -7.6260     1.5440    -1.1250 H     1 <1>   0.0800 
 31 H       -8.0160    -0.4690     0.5540 H     1 <1>   0.0800 
 32 H       -6.9220    -1.8190     0.4190 H     1 <1>   0.0800 
 33 H       -7.4180    -0.4420    -3.3940 H     1 <1>   0.0800 
 34 H       -8.4840     0.9290    -3.3200 H     1 <1>   0.0800 
 35 H       -9.1240    -2.2800    -0.6350 H     1 <1>   0.0800 
 36 H       -7.8130    -2.3910    -1.7730 H     1 <1>   0.0800 
 37 H      -11.0810    -1.9730    -1.6130 H     1 <1>   0.3700 
 38 H      -13.4580    -1.6110    -2.4800 H     1 <1>   0.1500 
 39 H      -14.1360     0.6950     1.7950 H     1 <1>   0.1500 
 40 H      -11.8570     1.1860     1.9560 H     1 <1>   0.0800 
 41 H      -10.7470     0.8510     0.6810 H     1 <1>   0.0800 
 42 H      -15.7320    -1.1800    -1.6680 H     1 <1>   0.1500 
 43 H      -16.0650    -0.0210     0.4770 H     1 <1>   0.1500 
 44 H      -11.7160    -1.1620     2.7350 H     1 <1>   0.0800 
 45 H      -10.1410    -0.3990     2.7250 H     1 <1>   0.0800 
 46 H      -10.5830    -1.5170     1.4540 H     1 <1>   0.0800 
@<TRIPOS>BOND
  1   1   2  1   
  2   2   3  ar  
  3   2   4  ar  
  4   3   5  ar  
  5   3  25  1   
  6   4   6  ar  
  7   4  26  1   
  8   5   7  ar  
  9   5  27  1   
 10   6   7  ar  
 11   6  28  1   
 12   7   8  1   
 13   8   9  1   
 14   8  10  1   
 15   9  11  1   
 16   9  29  1   
 17   9  30  1   
 18  10  12  1   
 19  10  31  1   
 20  10  32  1   
 21  11  13  1   
 22  11  33  1   
 23  11  34  1   
 24  12  13  1   
 25  12  35  1   
 26  12  36  1   
 27  13  14  am  
 28  14  15  2   
 29  14  16  am  
 30  16  17  1   
 31  16  37  1   
 32  17  18  ar  
 33  17  19  ar  
 34  18  20  ar  
 35  18  21  1   
 36  19  22  ar  
 37  19  38  1   
 38  20  23  ar  
 39  20  39  1   
 40  21  24  1   
 41  21  40  1   
 42  21  41  1   
 43  22  23  ar  
 44  22  42  1   
 45  23  43  1   
 46  24  44  1   
 47  24  45  1   
 48  24  46  1   
@<TRIPOS>SUBSTRUCTURE
  1 ****  10 GROUP 4 **** **** 0

# MOE 2024.06 (io_trps.svl 2023.06)
