@<TRIPOS>MOLECULE
NONAME
35 37 1 0 0 
SMALL
USER_CHARGES


@<TRIPOS>ATOM
  1 S        0.2250     0.9010    -0.2930 S.3   1 <1>  -0.3320 
  2 C        2.0050     0.7080    -0.2500 C.ar  1 <1>   0.7220 
  3 C       -0.4270    -0.7260    -0.8840 C.3   1 <1>  -0.0100 
  4 N        2.4800    -0.5030    -0.6320 N.ar  1 <1>  -0.3100 
  5 N        2.6810     1.7550     0.1470 N.ar  1 <1>  -0.5670 
  6 N        3.7630    -0.7260    -0.6290 N.ar  1 <1>  -0.2560 
  7 C        3.9940     1.5110     0.1440 C.ar  1 <1>   0.1050 
  8 C        4.5320     0.2950    -0.2370 C.ar  1 <1>   0.2560 
  9 N        5.0060     2.3670     0.4930 N.pl3 1 <1>   0.0480 
 10 C        5.9430     0.4050    -0.1170 C.ar  1 <1>   0.0000 
 11 C        6.2100     1.6980     0.3360 C.ar  1 <1>  -0.1520 
 12 C        4.8300     3.7650     0.9410 C.3   1 <1>   0.0960 
 13 C        6.9940    -0.4820    -0.3570 C.ar  1 <1>  -0.1500 
 14 C        7.5230     2.1300     0.5540 C.ar  1 <1>  -0.1500 
 15 C        5.0030     4.7310    -0.2380 C.3   1 <1>  -0.1600 
 16 C        8.2740    -0.0340    -0.1340 C.ar  1 <1>   0.1900 
 17 C        8.5610     1.2540     0.3170 C.ar  1 <1>  -0.1500 
 18 C        4.8380     6.1880     0.2110 C.3   1 <1>  -0.1600 
 19 F        9.2760    -0.8460    -0.3510 F     1 <1>  -0.1900 
 20 C        5.0110     7.1480    -0.9680 C.3   1 <1>  -0.2400 
 21 H       -1.4990    -0.6540    -0.9260 H     1 <1>   0.0800 
 22 H       -0.1190    -1.4820    -0.1840 H     1 <1>   0.0800 
 23 H       -0.0160    -0.9140    -1.8600 H     1 <1>   0.0800 
 24 H        5.5510     3.9770     1.7090 H     1 <1>   0.0800 
 25 H        3.8450     3.8720     1.3610 H     1 <1>   0.0800 
 26 H        6.7990    -1.4800    -0.7050 H     1 <1>   0.1500 
 27 H        7.7180     3.1300     0.9000 H     1 <1>   0.1500 
 28 H        4.2650     4.5050    -0.9890 H     1 <1>   0.0800 
 29 H        5.9810     4.5990    -0.6690 H     1 <1>   0.0800 
 30 H        9.5850     1.5430     0.4710 H     1 <1>   0.1500 
 31 H        5.5690     6.4220     0.9670 H     1 <1>   0.0800 
 32 H        3.8580     6.3270     0.6380 H     1 <1>   0.0800 
 33 H        5.9910     7.0430    -1.4010 H     1 <1>   0.0800 
 34 H        4.8920     8.1640    -0.6370 H     1 <1>   0.0800 
 35 H        4.2750     6.9490    -1.7270 H     1 <1>   0.0800 
@<TRIPOS>BOND
  1   1   2  1   
  2   1   3  1   
  3   2   4  ar  
  4   2   5  ar  
  5   3  21  1   
  6   3  22  1   
  7   3  23  1   
  8   4   6  ar  
  9   5   7  ar  
 10   6   8  ar  
 11   7   8  ar  
 12   7   9  1   
 13   8  10  1   
 14   9  11  1   
 15   9  12  1   
 16  10  11  ar  
 17  10  13  ar  
 18  11  14  ar  
 19  12  15  1   
 20  12  24  1   
 21  12  25  1   
 22  13  16  ar  
 23  13  26  1   
 24  14  17  ar  
 25  14  27  1   
 26  15  18  1   
 27  15  28  1   
 28  15  29  1   
 29  16  17  ar  
 30  16  19  1   
 31  17  30  1   
 32  18  20  1   
 33  18  31  1   
 34  18  32  1   
 35  20  33  1   
 36  20  34  1   
 37  20  35  1   
@<TRIPOS>SUBSTRUCTURE
  1 ****   7 GROUP 4 **** **** 0

# MOE 2024.06 (io_trps.svl 2023.06)
