@<TRIPOS>MOLECULE
NONAME
35 36 1 0 0 
SMALL
USER_CHARGES


@<TRIPOS>ATOM
  1 F        3.1120    -4.8000    -0.3510 F     1 <1>  -0.1900 
  2 C        3.4370    -3.5560    -0.5800 C.ar  1 <1>   0.1900 
  3 C        2.5550    -2.5270    -0.2350 C.ar  1 <1>   0.0860 
  4 C        4.6670    -3.3380    -1.1730 C.ar  1 <1>  -0.1500 
  5 C        1.2590    -2.7380     0.3920 C.2   1 <1>   0.5440 
  6 C        2.9910    -1.2320    -0.5340 C.ar  1 <1>  -0.1500 
  7 C        5.0600    -2.0420    -1.4490 C.ar  1 <1>  -0.1500 
  8 O        0.3920    -1.8900     0.3050 O.2   1 <1>  -0.5700 
  9 N        0.9590    -3.8840     1.0830 N.am  1 <1>  -0.7300 
 10 C        4.2180    -0.9910    -1.1280 C.ar  1 <1>  -0.1500 
 11 C       -0.1550    -4.1700     2.0520 C.3   1 <1>   0.1400 
 12 C       -1.5120    -3.4800     1.7710 C.3   1 <1>   0.3430 
 13 N       -1.8570    -3.4560     0.3210 N.4   1 <1>  -0.9590 
 14 C       -3.0740    -2.6880    -0.0100 C.3   1 <1>   0.3430 
 15 C       -1.9550    -4.7610    -0.3630 C.3   1 <1>   0.3430 
 16 C       -3.4310    -3.1340    -1.4230 C.3   1 <1>  -0.1600 
 17 C       -2.6570    -4.4340    -1.6720 C.3   1 <1>  -0.1600 
 18 H        5.3060    -4.1690    -1.4160 H     1 <1>   0.1500 
 19 H        2.3550    -0.3950    -0.2950 H     1 <1>   0.1500 
 20 H        6.0150    -1.8500    -1.9110 H     1 <1>   0.1500 
 21 H        1.7120    -4.5840     1.1070 H     1 <1>   0.3700 
 22 H        4.5210     0.0200    -1.3430 H     1 <1>   0.1500 
 23 H        0.1710    -3.8910     3.0400 H     1 <1>   0.0800 
 24 H       -0.3190    -5.2330     2.0660 H     1 <1>   0.0800 
 25 H       -1.4450    -2.4650     2.1270 H     1 <1>   0.0800 
 26 H       -2.2880    -3.9740     2.3310 H     1 <1>   0.0800 
 27 H       -1.0580    -2.9390    -0.1030 H     1 <1>   0.4500 
 28 H       -2.8940    -1.6250     0.0390 H     1 <1>   0.0800 
 29 H       -3.8710    -2.9530     0.6660 H     1 <1>   0.0800 
 30 H       -2.5650    -5.4340     0.2190 H     1 <1>   0.0800 
 31 H       -0.9830    -5.1980    -0.5270 H     1 <1>   0.0800 
 32 H       -3.1350    -2.3790    -2.1310 H     1 <1>   0.0800 
 33 H       -4.4940    -3.2820    -1.5070 H     1 <1>   0.0800 
 34 H       -3.3060    -5.2400    -1.9680 H     1 <1>   0.0800 
 35 H       -1.9210    -4.2860    -2.4440 H     1 <1>   0.0800 
@<TRIPOS>BOND
  1   1   2  1   
  2   2   3  ar  
  3   2   4  ar  
  4   3   5  1   
  5   3   6  ar  
  6   4   7  ar  
  7   4  18  1   
  8   5   8  2   
  9   5   9  am  
 10   6  10  ar  
 11   6  19  1   
 12   7  10  ar  
 13   7  20  1   
 14   9  11  1   
 15   9  21  1   
 16  10  22  1   
 17  11  12  1   
 18  11  23  1   
 19  11  24  1   
 20  12  13  1   
 21  12  25  1   
 22  12  26  1   
 23  13  14  1   
 24  13  15  1   
 25  13  27  1   
 26  14  16  1   
 27  14  28  1   
 28  14  29  1   
 29  15  17  1   
 30  15  30  1   
 31  15  31  1   
 32  16  17  1   
 33  16  32  1   
 34  16  33  1   
 35  17  34  1   
 36  17  35  1   
@<TRIPOS>SUBSTRUCTURE
  1 ****   5 GROUP 4 **** **** 0

# MOE 2024.06 (io_trps.svl 2023.06)
