@<TRIPOS>MOLECULE
NONAME
39 40 1 0 0 
SMALL
USER_CHARGES


@<TRIPOS>ATOM
  1 CL      -0.4160     0.0100    -2.0840 Cl    1 <1>  -0.1770 
  2 C       -2.0310    -0.0310    -1.4230 C.ar  1 <1>   0.1770 
  3 C       -2.4630     1.0090    -0.6250 C.ar  1 <1>  -0.1500 
  4 C       -2.8530    -1.1010    -1.7070 C.ar  1 <1>  -0.1500 
  5 C       -3.7480     0.9930    -0.0870 C.ar  1 <1>  -0.1440 
  6 C       -4.1290    -1.1230    -1.1770 C.ar  1 <1>  -0.1500 
  7 C       -4.5940    -0.0890    -0.3660 C.ar  1 <1>   0.1170 
  8 C       -4.2370     2.1530     0.7870 C.3   1 <1>   1.1640 
  9 N       -5.8930    -0.1590     0.1670 N.am  1 <1>  -0.5470 
 10 F       -3.2840     3.0230     1.0980 F     1 <1>  -0.3400 
 11 F       -5.2010     2.8530     0.2050 F     1 <1>  -0.3400 
 12 F       -4.7390     1.7310     1.9450 F     1 <1>  -0.3400 
 13 C       -7.0510    -0.5660    -0.4370 C.2   1 <1>   0.5690 
 14 O       -7.0900    -0.9580    -1.5780 O.2   1 <1>  -0.5700 
 15 C       -8.3420    -0.5050     0.3790 C.3   1 <1>  -0.0190 
 16 C       -8.8530    -1.9160     0.7230 C.3   1 <1>  -0.1600 
 17 C       -9.4410     0.2890    -0.3560 C.3   1 <1>  -0.1600 
 18 C      -10.1640    -1.8660     1.5130 C.3   1 <1>   0.1400 
 19 C      -10.7440     0.3220     0.4460 C.3   1 <1>   0.1400 
 20 N      -11.1720    -1.0700     0.7580 N.am  1 <1>  -0.6600 
 21 C      -12.3710    -1.6270     0.3900 C.2   1 <1>   0.5690 
 22 O      -12.6880    -2.7480     0.7080 O.2   1 <1>  -0.5700 
 23 C      -13.3620    -0.8470    -0.4430 C.3   1 <1>  -0.1790 
 24 H       -1.7800     1.8210    -0.4400 H     1 <1>   0.1500 
 25 H       -2.5000    -1.9000    -2.3350 H     1 <1>   0.1500 
 26 H       -4.7740    -1.9560    -1.3980 H     1 <1>   0.1500 
 27 H       -6.0000     0.1790     1.1260 H     1 <1>   0.3700 
 28 H       -8.1340     0.0060     1.3020 H     1 <1>   0.0800 
 29 H       -8.1130    -2.4430     1.2990 H     1 <1>   0.0800 
 30 H       -9.0190    -2.4740    -0.1830 H     1 <1>   0.0800 
 31 H       -9.6360    -0.1600    -1.3150 H     1 <1>   0.0800 
 32 H       -9.1050     1.2960    -0.5310 H     1 <1>   0.0800 
 33 H      -10.0040    -1.4070     2.4740 H     1 <1>   0.0800 
 34 H      -10.5170    -2.8690     1.6820 H     1 <1>   0.0800 
 35 H      -11.4950     0.8470    -0.1160 H     1 <1>   0.0800 
 36 H      -10.5930     0.8530     1.3700 H     1 <1>   0.0800 
 37 H      -13.6890     0.0200     0.0980 H     1 <1>   0.0800 
 38 H      -14.2160    -1.4610    -0.6580 H     1 <1>   0.0800 
 39 H      -12.9070    -0.5540    -1.3700 H     1 <1>   0.0800 
@<TRIPOS>BOND
  1   1   2  1   
  2   2   3  ar  
  3   2   4  ar  
  4   3   5  ar  
  5   3  24  1   
  6   4   6  ar  
  7   4  25  1   
  8   5   7  ar  
  9   5   8  1   
 10   6   7  ar  
 11   6  26  1   
 12   7   9  1   
 13   8  10  1   
 14   8  11  1   
 15   8  12  1   
 16   9  13  am  
 17   9  27  1   
 18  13  14  2   
 19  13  15  1   
 20  15  16  1   
 21  15  17  1   
 22  15  28  1   
 23  16  18  1   
 24  16  29  1   
 25  16  30  1   
 26  17  19  1   
 27  17  31  1   
 28  17  32  1   
 29  18  20  1   
 30  18  33  1   
 31  18  34  1   
 32  19  20  1   
 33  19  35  1   
 34  19  36  1   
 35  20  21  am  
 36  21  22  2   
 37  21  23  1   
 38  23  37  1   
 39  23  38  1   
 40  23  39  1   
@<TRIPOS>SUBSTRUCTURE
  1 ****  13 GROUP 4 **** **** 0

# MOE 2024.06 (io_trps.svl 2023.06)
