@<TRIPOS>MOLECULE
NONAME
48 50 1 0 0 
SMALL
USER_CHARGES


@<TRIPOS>ATOM
  1 S       -0.2820     0.2400     1.3660 S.o2  1 <1>   1.4470 
  2 O        0.2820    -0.8200     2.1760 O.2   1 <1>  -0.6500 
  3 O       -1.1270     1.2320     1.9930 O.2   1 <1>  -0.6500 
  4 N        1.0340     1.0620     0.6800 N.am  1 <1>  -0.8490 
  5 C       -1.1390    -0.4560    -0.0750 C.ar  1 <1>  -0.0090 
  6 C        2.0270     0.1380     0.1250 C.3   1 <1>   0.1960 
  7 C        1.6330     1.9950     1.6370 C.3   1 <1>   0.1960 
  8 C       -1.5060    -1.7960    -0.1190 C.ar  1 <1>  -0.1500 
  9 C       -1.4510     0.3400    -1.1720 C.ar  1 <1>  -0.1500 
 10 C        3.1210     0.9140    -0.6100 C.3   1 <1>  -0.1600 
 11 C        2.7250     2.8270     0.9590 C.3   1 <1>  -0.1600 
 12 C       -2.1550    -2.3270    -1.2200 C.ar  1 <1>  -0.1500 
 13 C       -2.0990    -0.1820    -2.2780 C.ar  1 <1>  -0.1500 
 14 C        3.8000     1.9310     0.3210 C.3   1 <1>  -0.0190 
 15 C       -2.4520    -1.5190    -2.3020 C.ar  1 <1>  -0.1500 
 16 C        4.8580     2.7540    -0.4150 C.2   1 <1>   0.5690 
 17 O        4.5160     3.4420    -1.3450 O.2   1 <1>  -0.5700 
 18 N        6.1520     2.6540     0.0200 N.am  1 <1>  -0.5470 
 19 C        7.3360     3.2670    -0.4240 C.ar  1 <1>   0.1170 
 20 C        8.5490     2.7150    -0.0330 C.ar  1 <1>  -0.1500 
 21 C        7.3590     4.4070    -1.2230 C.ar  1 <1>  -0.1500 
 22 C        9.7540     3.2700    -0.4230 C.ar  1 <1>   0.0820 
 23 C        8.5580     4.9700    -1.6210 C.ar  1 <1>  -0.1500 
 24 O       10.8800     2.6510     0.0140 O.3   1 <1>  -0.3630 
 25 C        9.7580     4.4080    -1.2250 C.ar  1 <1>  -0.1500 
 26 C       12.1600     3.1270    -0.3390 C.3   1 <1>   0.0400 
 27 H        1.5510    -0.5340    -0.5700 H     1 <1>   0.0800 
 28 H        2.4640    -0.4520     0.9150 H     1 <1>   0.0800 
 29 H        2.0400     1.4490     2.4730 H     1 <1>   0.0800 
 30 H        0.8770     2.6670     2.0120 H     1 <1>   0.0800 
 31 H       -1.2810    -2.4340     0.7200 H     1 <1>   0.1500 
 32 H       -1.1790     1.3830    -1.1570 H     1 <1>   0.1500 
 33 H        2.6810     1.4230    -1.4510 H     1 <1>   0.0800 
 34 H        3.8530     0.2250    -0.9930 H     1 <1>   0.0800 
 35 H        3.1770     3.4800     1.6840 H     1 <1>   0.0800 
 36 H        2.2690     3.4440     0.2040 H     1 <1>   0.0800 
 37 H       -2.4300    -3.3680    -1.2350 H     1 <1>   0.1500 
 38 H       -2.3300     0.4520    -3.1170 H     1 <1>   0.1500 
 39 H        4.2830     1.3850     1.1110 H     1 <1>   0.0800 
 40 H       -2.9570    -1.9290    -3.1610 H     1 <1>   0.1500 
 41 H        6.2990     1.9920     0.7780 H     1 <1>   0.3700 
 42 H        8.5700     1.8370     0.5830 H     1 <1>   0.1500 
 43 H        6.4410     4.8660    -1.5390 H     1 <1>   0.1500 
 44 H        8.5530     5.8500    -2.2410 H     1 <1>   0.1500 
 45 H       10.6740     4.8640    -1.5480 H     1 <1>   0.1500 
 46 H       12.8920     2.4820     0.1120 H     1 <1>   0.0800 
 47 H       12.2760     4.1290     0.0340 H     1 <1>   0.0800 
 48 H       12.2590     3.0990    -1.4100 H     1 <1>   0.0800 
@<TRIPOS>BOND
  1   1   2  2   
  2   1   3  2   
  3   1   4  am  
  4   1   5  1   
  5   4   6  1   
  6   4   7  1   
  7   5   8  ar  
  8   5   9  ar  
  9   6  10  1   
 10   6  27  1   
 11   6  28  1   
 12   7  11  1   
 13   7  29  1   
 14   7  30  1   
 15   8  12  ar  
 16   8  31  1   
 17   9  13  ar  
 18   9  32  1   
 19  10  14  1   
 20  10  33  1   
 21  10  34  1   
 22  11  14  1   
 23  11  35  1   
 24  11  36  1   
 25  12  15  ar  
 26  12  37  1   
 27  13  15  ar  
 28  13  38  1   
 29  14  16  1   
 30  14  39  1   
 31  15  40  1   
 32  16  17  2   
 33  16  18  am  
 34  18  19  1   
 35  18  41  1   
 36  19  20  ar  
 37  19  21  ar  
 38  20  22  ar  
 39  20  42  1   
 40  21  23  ar  
 41  21  43  1   
 42  22  24  1   
 43  22  25  ar  
 44  23  25  ar  
 45  23  44  1   
 46  24  26  1   
 47  25  45  1   
 48  26  46  1   
 49  26  47  1   
 50  26  48  1   
@<TRIPOS>SUBSTRUCTURE
  1 ****  14 GROUP 4 **** **** 0

# MOE 2024.06 (io_trps.svl 2023.06)
