@<TRIPOS>MOLECULE
NONAME
39 41 1 0 0 
SMALL
USER_CHARGES


@<TRIPOS>ATOM
  1 CL       1.8100    -0.9890     3.2950 Cl    1 <1>  -0.1770 
  2 C        2.6960    -1.2840     1.8210 C.ar  1 <1>   0.1770 
  3 C        2.0500    -1.7940     0.6980 C.ar  1 <1>   0.1770 
  4 C        4.0500    -1.0010     1.7920 C.ar  1 <1>  -0.1500 
  5 CL       0.3430    -2.1490     0.7400 Cl    1 <1>  -0.1770 
  6 C        2.7490    -2.0280    -0.4730 C.ar  1 <1>  -0.1500 
  7 C        4.7560    -1.2360     0.6170 C.ar  1 <1>   0.0860 
  8 C        4.1100    -1.7440    -0.5050 C.ar  1 <1>   0.0860 
  9 C        6.1350    -1.0570     0.2580 C.2   1 <1>   0.5440 
 10 C        5.1000    -1.8640    -1.5370 C.2   1 <1>   0.5440 
 11 O        7.0230    -0.6160     0.9560 O.2   1 <1>  -0.5700 
 12 N        6.3100    -1.4570    -1.0390 N.am  1 <1>  -0.4200 
 13 O        4.9210    -2.2300    -2.6770 O.2   1 <1>  -0.5700 
 14 C        7.5980    -1.5210    -1.7830 C.3   1 <1>   0.2010 
 15 C        8.4550    -2.7240    -1.3740 C.2   1 <1>   0.5690 
 16 O        8.2770    -3.7480    -1.9880 O.2   1 <1>  -0.5700 
 17 N        9.4010    -2.6800    -0.3690 N.am  1 <1>  -0.6600 
 18 C       10.0770    -3.9420     0.0830 C.3   1 <1>   0.1400 
 19 C        9.7850    -1.4690     0.4270 C.3   1 <1>   0.1400 
 20 C       11.6020    -3.7610     0.1780 C.3   1 <1>   0.3430 
 21 C       11.3160    -1.3240     0.5400 C.3   1 <1>   0.3430 
 22 N       11.9750    -2.5830     1.0390 N.4   1 <1>  -0.9590 
 23 C       13.4590    -2.4220     1.1170 C.3   1 <1>   0.2630 
 24 H        4.5480    -0.6060     2.6610 H     1 <1>   0.1500 
 25 H        2.2540    -2.4220    -1.3440 H     1 <1>   0.1500 
 26 H        8.1340    -0.6030    -1.6470 H     1 <1>   0.0800 
 27 H        7.3850    -1.6120    -2.8330 H     1 <1>   0.0800 
 28 H        9.8730    -4.7520    -0.5970 H     1 <1>   0.0800 
 29 H        9.6840    -4.2270     1.0430 H     1 <1>   0.0800 
 30 H        9.3630    -1.5500     1.4140 H     1 <1>   0.0800 
 31 H        9.3920    -0.5740    -0.0160 H     1 <1>   0.0800 
 32 H       11.9900    -3.6230    -0.8180 H     1 <1>   0.0800 
 33 H       12.0360    -4.6620     0.5800 H     1 <1>   0.0800 
 34 H       11.5400    -0.5050     1.2050 H     1 <1>   0.0800 
 35 H       11.7060    -1.0740    -0.4330 H     1 <1>   0.0800 
 36 H       11.6120    -2.7660     1.9860 H     1 <1>   0.4500 
 37 H       13.8680    -2.2300     0.1380 H     1 <1>   0.0800 
 38 H       13.9130    -3.3170     1.5100 H     1 <1>   0.0800 
 39 H       13.7140    -1.5980     1.7650 H     1 <1>   0.0800 
@<TRIPOS>BOND
  1   1   2  1   
  2   2   3  ar  
  3   2   4  ar  
  4   3   5  1   
  5   3   6  ar  
  6   4   7  ar  
  7   4  24  1   
  8   6   8  ar  
  9   6  25  1   
 10   7   8  ar  
 11   7   9  1   
 12   8  10  1   
 13   9  11  2   
 14   9  12  am  
 15  10  12  am  
 16  10  13  2   
 17  12  14  1   
 18  14  15  1   
 19  14  26  1   
 20  14  27  1   
 21  15  16  2   
 22  15  17  am  
 23  17  18  1   
 24  17  19  1   
 25  18  20  1   
 26  18  28  1   
 27  18  29  1   
 28  19  21  1   
 29  19  30  1   
 30  19  31  1   
 31  20  22  1   
 32  20  32  1   
 33  20  33  1   
 34  21  22  1   
 35  21  34  1   
 36  21  35  1   
 37  22  23  1   
 38  22  36  1   
 39  23  37  1   
 40  23  38  1   
 41  23  39  1   
@<TRIPOS>SUBSTRUCTURE
  1 ****   9 GROUP 4 **** **** 0

# MOE 2024.06 (io_trps.svl 2023.06)
