@<TRIPOS>MOLECULE
NONAME
52 54 1 0 0 
SMALL
USER_CHARGES


@<TRIPOS>ATOM
  1 O        0.7430    -1.6200    -1.6300 O.2   1 <1>  -0.5700 
  2 C        1.6270    -1.5930    -0.8070 C.2   1 <1>   0.5690 
  3 N        2.4560    -0.5130    -0.6860 N.am  1 <1>  -0.6600 
  4 C        1.7820    -2.8270     0.0880 C.3   1 <1>  -0.0190 
  5 C        3.6110    -0.3460     0.2280 C.3   1 <1>   0.1400 
  6 C        2.2820     0.6910    -1.5310 C.3   1 <1>   0.1400 
  7 C        2.2530    -4.0330    -0.7490 C.3   1 <1>  -0.1600 
  8 C        0.4540    -3.1530     0.8020 C.3   1 <1>  -0.1600 
  9 C        4.3080     0.9240    -0.2460 C.3   1 <1>  -0.1600 
 10 C        3.2100     1.7360    -0.9250 C.3   1 <1>  -0.1600 
 11 C        2.2690    -5.3310     0.0560 C.3   1 <1>   0.3430 
 12 C        0.5190    -4.4670     1.5730 C.3   1 <1>   0.3430 
 13 N        0.9230    -5.5560     0.6450 N.4   1 <1>  -0.9590 
 14 C        0.7990    -6.8910     1.2590 C.3   1 <1>   0.4810 
 15 C       -0.4110    -7.5300     0.6110 C.2   1 <1>  -0.2760 
 16 C       -0.2810    -8.4780    -0.3360 C.2   1 <1>  -0.1780 
 17 C       -1.7540    -7.0250     1.1390 C.3   1 <1>  -0.1020 
 18 C       -1.3160    -9.1660    -1.0700 C.ar  1 <1>   0.0280 
 19 C       -2.2890    -8.4720    -1.7840 C.ar  1 <1>  -0.1500 
 20 C       -1.3530   -10.5560    -1.0970 C.ar  1 <1>  -0.1500 
 21 C       -3.2710    -9.1420    -2.4910 C.ar  1 <1>  -0.1500 
 22 C       -2.3320   -11.2320    -1.8030 C.ar  1 <1>  -0.1500 
 23 C       -3.2940   -10.5250    -2.5010 C.ar  1 <1>  -0.1500 
 24 H        2.5190    -2.6330     0.8440 H     1 <1>   0.0800 
 25 H        3.2500    -0.2160     1.2340 H     1 <1>   0.0800 
 26 H        4.2750    -1.1920     0.1770 H     1 <1>   0.0800 
 27 H        2.5810     0.4570    -2.5390 H     1 <1>   0.0800 
 28 H        1.2560     1.0190    -1.5290 H     1 <1>   0.0800 
 29 H        3.2420    -3.8390    -1.1260 H     1 <1>   0.0800 
 30 H        1.6090    -4.1600    -1.6020 H     1 <1>   0.0800 
 31 H       -0.3480    -3.2120     0.0850 H     1 <1>   0.0800 
 32 H        0.2110    -2.3540     1.4810 H     1 <1>   0.0800 
 33 H        4.7680     1.4570     0.5680 H     1 <1>   0.0800 
 34 H        5.0640     0.6630    -0.9650 H     1 <1>   0.0800 
 35 H        3.5960     2.4080    -1.6720 H     1 <1>   0.0800 
 36 H        2.6640     2.3040    -0.1920 H     1 <1>   0.0800 
 37 H        3.0070    -5.2660     0.8390 H     1 <1>   0.0800 
 38 H        2.5300    -6.1510    -0.5950 H     1 <1>   0.0800 
 39 H       -0.4490    -4.6810     1.9980 H     1 <1>   0.0800 
 40 H        1.2330    -4.3840     2.3760 H     1 <1>   0.0800 
 41 H        0.2490    -5.5710    -0.1340 H     1 <1>   0.4500 
 42 H        1.6740    -7.4830     1.0420 H     1 <1>   0.0800 
 43 H        0.6780    -6.8290     2.3280 H     1 <1>   0.0800 
 44 H        0.6990    -8.8160    -0.6290 H     1 <1>   0.1500 
 45 H       -1.7730    -7.0640     2.2140 H     1 <1>   0.0800 
 46 H       -2.5650    -7.6380     0.7870 H     1 <1>   0.0800 
 47 H       -1.9420    -6.0160     0.8220 H     1 <1>   0.0800 
 48 H       -2.2760    -7.3980    -1.7900 H     1 <1>   0.1500 
 49 H       -0.6100   -11.1160    -0.5570 H     1 <1>   0.1500 
 50 H       -4.0170    -8.5890    -3.0360 H     1 <1>   0.1500 
 51 H       -2.3470   -12.3080    -1.8110 H     1 <1>   0.1500 
 52 H       -4.0570   -11.0490    -3.0500 H     1 <1>   0.1500 
@<TRIPOS>BOND
  1   1   2  2   
  2   2   3  am  
  3   2   4  1   
  4   3   5  1   
  5   3   6  1   
  6   4   7  1   
  7   4   8  1   
  8   4  24  1   
  9   5   9  1   
 10   5  25  1   
 11   5  26  1   
 12   6  10  1   
 13   6  27  1   
 14   6  28  1   
 15   7  11  1   
 16   7  29  1   
 17   7  30  1   
 18   8  12  1   
 19   8  31  1   
 20   8  32  1   
 21   9  10  1   
 22   9  33  1   
 23   9  34  1   
 24  10  35  1   
 25  10  36  1   
 26  11  13  1   
 27  11  37  1   
 28  11  38  1   
 29  12  13  1   
 30  12  39  1   
 31  12  40  1   
 32  13  14  1   
 33  13  41  1   
 34  14  15  1   
 35  14  42  1   
 36  14  43  1   
 37  15  16  2   
 38  15  17  1   
 39  16  18  1   
 40  16  44  1   
 41  17  45  1   
 42  17  46  1   
 43  17  47  1   
 44  18  19  ar  
 45  18  20  ar  
 46  19  21  ar  
 47  19  48  1   
 48  20  22  ar  
 49  20  49  1   
 50  21  23  ar  
 51  21  50  1   
 52  22  23  ar  
 53  22  51  1   
 54  23  52  1   
@<TRIPOS>SUBSTRUCTURE
  1 ****  13 GROUP 4 **** **** 0

# MOE 2024.06 (io_trps.svl 2023.06)
