@<TRIPOS>MOLECULE
NONAME
31 31 1 0 0 
SMALL
USER_CHARGES


@<TRIPOS>ATOM
  1 O       -0.2520    -0.0200     0.6560 O.3   1 <1>  -0.6800 
  2 C       -1.4250    -0.5800     0.1700 C.3   1 <1>   0.1200 
  3 C       -2.6360     0.3220     0.5340 C.3   1 <1>   0.4230 
  4 N       -3.9680    -0.2440     0.1160 N.4   1 <1>  -0.9590 
  5 C       -2.4640     1.7230    -0.0940 C.3   1 <1>  -0.1600 
  6 C       -5.0290     0.3480     0.9760 C.3   1 <1>   0.3430 
  7 C       -4.0720    -1.7320     0.0890 C.3   1 <1>   0.3430 
  8 C       -3.5800     2.7600     0.1440 C.3   1 <1>  -0.1600 
  9 C       -5.7810     1.4270     0.2020 C.3   1 <1>  -0.1600 
 10 C       -5.3130    -2.1490    -0.6940 C.3   1 <1>  -0.2400 
 11 C       -4.8950     2.4180    -0.5720 C.3   1 <1>  -0.1600 
 12 H        0.5360    -0.5540     0.4180 H     1 <1>   0.4000 
 13 H       -1.5140    -1.5500     0.6260 H     1 <1>   0.0800 
 14 H       -1.3280    -0.6770    -0.8980 H     1 <1>   0.0800 
 15 H       -2.6320     0.4240     1.6070 H     1 <1>   0.0800 
 16 H       -4.1400     0.1070    -0.8340 H     1 <1>   0.4500 
 17 H       -2.2980     1.6190    -1.1520 H     1 <1>   0.0800 
 18 H       -1.5600     2.1480     0.3080 H     1 <1>   0.0800 
 19 H       -4.5840     0.7850     1.8560 H     1 <1>   0.0800 
 20 H       -5.7250    -0.4080     1.3020 H     1 <1>   0.0800 
 21 H       -4.1130    -2.1240     1.0930 H     1 <1>   0.0800 
 22 H       -3.2130    -2.1550    -0.4060 H     1 <1>   0.0800 
 23 H       -3.2310     3.7010    -0.2500 H     1 <1>   0.0800 
 24 H       -3.7450     2.9110     1.1980 H     1 <1>   0.0800 
 25 H       -6.3690     1.9800     0.9150 H     1 <1>   0.0800 
 26 H       -6.4780     0.9650    -0.4770 H     1 <1>   0.0800 
 27 H       -6.2180    -1.8410    -0.2030 H     1 <1>   0.0800 
 28 H       -5.3360    -3.2220    -0.7690 H     1 <1>   0.0800 
 29 H       -5.2880    -1.7490    -1.6920 H     1 <1>   0.0800 
 30 H       -4.6820     2.0400    -1.5580 H     1 <1>   0.0800 
 31 H       -5.4580     3.3270    -0.7110 H     1 <1>   0.0800 
@<TRIPOS>BOND
  1   1   2  1   
  2   1  12  1   
  3   2   3  1   
  4   2  13  1   
  5   2  14  1   
  6   3   4  1   
  7   3   5  1   
  8   3  15  1   
  9   4   6  1   
 10   4   7  1   
 11   4  16  1   
 12   5   8  1   
 13   5  17  1   
 14   5  18  1   
 15   6   9  1   
 16   6  19  1   
 17   6  20  1   
 18   7  10  1   
 19   7  21  1   
 20   7  22  1   
 21   8  11  1   
 22   8  23  1   
 23   8  24  1   
 24   9  11  1   
 25   9  25  1   
 26   9  26  1   
 27  10  27  1   
 28  10  28  1   
 29  10  29  1   
 30  11  30  1   
 31  11  31  1   
@<TRIPOS>SUBSTRUCTURE
  1 ****   4 GROUP 4 **** **** 0

# MOE 2024.06 (io_trps.svl 2023.06)
