@<TRIPOS>MOLECULE
NONAME
20 21 1 0 0 
SMALL
USER_CHARGES


@<TRIPOS>ATOM
  1 O       -2.5060    -4.1800    -0.0490 O.3   1 <1>  -0.8290 
  2 C       -1.4070    -3.5770    -0.0430 C.ar  1 <1>   0.1390 
  3 N       -1.3890    -2.2270    -0.1470 N.ar  1 <1>  -0.3100 
  4 C       -0.2350    -4.3180     0.0720 C.ar  1 <1>  -0.1500 
  5 N       -0.2450    -1.5870    -0.1430 N.ar  1 <1>  -0.3100 
  6 C        0.9570    -3.6490     0.0770 C.ar  1 <1>  -0.1440 
  7 C        0.8930    -2.2650    -0.0340 C.ar  1 <1>   0.1660 
  8 C        2.2670    -4.4110     0.2110 C.3   1 <1>  -0.0170 
  9 C        2.1610    -1.4240    -0.0610 C.3   1 <1>  -0.0170 
 10 C        3.4720    -3.5730    -0.2300 C.3   1 <1>  -0.1600 
 11 C        3.4130    -2.1810     0.4080 C.3   1 <1>  -0.1600 
 12 H       -0.3230    -5.3820     0.1530 H     1 <1>   0.1500 
 13 H        2.2200    -5.3120    -0.3750 H     1 <1>   0.0800 
 14 H        2.3840    -4.6920     1.2430 H     1 <1>   0.0800 
 15 H        2.0180    -0.5550     0.5570 H     1 <1>   0.0800 
 16 H        2.3040    -1.0870    -1.0720 H     1 <1>   0.0800 
 17 H        3.4630    -3.4770    -1.3020 H     1 <1>   0.0800 
 18 H        4.3810    -4.0720     0.0560 H     1 <1>   0.0800 
 19 H        3.3820    -2.2820     1.4790 H     1 <1>   0.0800 
 20 H        4.2920    -1.6170     0.1500 H     1 <1>   0.0800 
@<TRIPOS>BOND
  1   1   2  1   
  2   2   3  ar  
  3   2   4  ar  
  4   3   5  ar  
  5   4   6  ar  
  6   4  12  1   
  7   5   7  ar  
  8   6   7  ar  
  9   6   8  1   
 10   7   9  1   
 11   8  10  1   
 12   8  13  1   
 13   8  14  1   
 14   9  11  1   
 15   9  15  1   
 16   9  16  1   
 17  10  11  1   
 18  10  17  1   
 19  10  18  1   
 20  11  19  1   
 21  11  20  1   
@<TRIPOS>SUBSTRUCTURE
  1 ****   6 GROUP 4 **** **** 0

# MOE 2024.06 (io_trps.svl 2023.06)
