@<TRIPOS>MOLECULE
NONAME
41 41 1 0 0 
SMALL
USER_CHARGES


@<TRIPOS>ATOM
  1 P       -0.1480     0.6230     0.8300 P.3   1 <1>   0.8390 
  2 O       -0.4650     0.7360     2.2530 O.2   1 <1>  -0.7000 
  3 C        1.6240     0.7200     0.5420 C.ar  1 <1>  -0.1390 
  4 C       -0.7910    -0.8980     0.1620 C.3   1 <1>  -0.1600 
  5 C       -0.9100     1.9520    -0.0750 C.3   1 <1>  -0.1600 
  6 C        2.2810     0.3120    -0.6340 C.ar  1 <1>  -0.1790 
  7 C        2.4130     1.2490     1.5590 C.ar  1 <1>  -0.1500 
  8 C       -2.2240    -1.2330     0.6110 C.3   1 <1>  -0.1600 
  9 C       -0.4100     3.3500     0.3240 C.3   1 <1>  -0.1600 
 10 C        1.5800    -0.2340    -1.7790 C.2   1 <1>   0.9790 
 11 C        3.6690     0.4270    -0.7210 C.ar  1 <1>  -0.1500 
 12 C        3.7860     1.3700     1.4580 C.ar  1 <1>  -0.1500 
 13 C       -2.7030    -2.5570     0.0030 C.3   1 <1>  -0.1600 
 14 C       -1.1310     4.4490    -0.4670 C.3   1 <1>  -0.1600 
 15 O        0.7460     0.4500    -2.3930 O.co2 1 <1>  -0.9000 
 16 O        1.7770    -1.4050    -2.1400 O.co2 1 <1>  -0.9000 
 17 C        4.4210     0.9510     0.3090 C.ar  1 <1>  -0.1500 
 18 C       -4.1290    -2.8860     0.4510 C.3   1 <1>  -0.2400 
 19 C       -0.6230     5.8370    -0.0650 C.3   1 <1>  -0.2400 
 20 H       -0.1550    -1.7130     0.4540 H     1 <1>   0.0800 
 21 H       -0.7930    -0.8830    -0.9110 H     1 <1>   0.0800 
 22 H       -1.9710     1.9250     0.0810 H     1 <1>   0.0800 
 23 H       -0.7590     1.8380    -1.1300 H     1 <1>   0.0800 
 24 H        1.9350     1.5750     2.4670 H     1 <1>   0.1500 
 25 H       -2.8860    -0.4400     0.3100 H     1 <1>   0.0800 
 26 H       -2.2490    -1.2980     1.6860 H     1 <1>   0.0800 
 27 H        0.6490     3.4110     0.1340 H     1 <1>   0.0800 
 28 H       -0.5700     3.4950     1.3790 H     1 <1>   0.0800 
 29 H        4.1520     0.0900    -1.6220 H     1 <1>   0.1500 
 30 H        4.3530     1.7830     2.2730 H     1 <1>   0.1500 
 31 H       -2.0410    -3.3520     0.3050 H     1 <1>   0.0800 
 32 H       -2.6710    -2.4910    -1.0720 H     1 <1>   0.0800 
 33 H       -2.1900     4.3910    -0.2850 H     1 <1>   0.0800 
 34 H       -0.9620     4.3000    -1.5200 H     1 <1>   0.0800 
 35 H        5.4890     1.0300     0.2140 H     1 <1>   0.1500 
 36 H       -4.1740    -2.9750     1.5220 H     1 <1>   0.0800 
 37 H       -4.4450    -3.8180     0.0150 H     1 <1>   0.0800 
 38 H       -4.8080    -2.1130     0.1370 H     1 <1>   0.0800 
 39 H       -0.7960     6.0110     0.9820 H     1 <1>   0.0800 
 40 H       -1.1370     6.5940    -0.6300 H     1 <1>   0.0800 
 41 H        0.4320     5.9190    -0.2610 H     1 <1>   0.0800 
@<TRIPOS>BOND
  1   1   2  2   
  2   1   3  1   
  3   1   4  1   
  4   1   5  1   
  5   3   6  ar  
  6   3   7  ar  
  7   4   8  1   
  8   4  20  1   
  9   4  21  1   
 10   5   9  1   
 11   5  22  1   
 12   5  23  1   
 13   6  10  1   
 14   6  11  ar  
 15   7  12  ar  
 16   7  24  1   
 17   8  13  1   
 18   8  25  1   
 19   8  26  1   
 20   9  14  1   
 21   9  27  1   
 22   9  28  1   
 23  10  15  ar  
 24  10  16  ar  
 25  11  17  ar  
 26  11  29  1   
 27  12  17  ar  
 28  12  30  1   
 29  13  18  1   
 30  13  31  1   
 31  13  32  1   
 32  14  19  1   
 33  14  33  1   
 34  14  34  1   
 35  17  35  1   
 36  18  36  1   
 37  18  37  1   
 38  18  38  1   
 39  19  39  1   
 40  19  40  1   
 41  19  41  1   
@<TRIPOS>SUBSTRUCTURE
  1 ****   1 GROUP 4 **** **** 0

# MOE 2024.06 (io_trps.svl 2023.06)
