@<TRIPOS>MOLECULE
Structure670
31 32 1 0 0 
SMALL
USER_CHARGES


@<TRIPOS>ATOM
  1 CL      -0.0250    -1.2930     2.4340 Cl    1 <1>  -0.1770 
  2 C        0.9350    -2.1340     1.2510 C.ar  1 <1>   0.4870 
  3 N        0.2900    -2.9090     0.4070 N.ar  1 <1>  -0.6200 
  4 C        2.2860    -1.9580     1.2480 C.ar  1 <1>  -0.1500 
  5 C        1.0790    -3.5180    -0.4570 C.ar  1 <1>   0.4700 
  6 C        3.0010    -2.6440     0.2920 C.ar  1 <1>   0.4100 
  7 N        2.3910    -3.4370    -0.5680 N.ar  1 <1>  -0.6200 
  8 N        4.3680    -2.5220     0.2020 N.pl3 1 <1>  -0.8380 
  9 C        4.9910    -1.1870     0.0320 C.3   1 <1>   0.2090 
 10 C        5.1900    -3.6700    -0.2610 C.3   1 <1>   0.2090 
 11 C        6.3310    -1.1580     0.7680 C.3   1 <1>  -0.1600 
 12 C        6.5350    -3.6510     0.4680 C.3   1 <1>  -0.1600 
 13 C        7.2600    -2.2980     0.3020 C.3   1 <1>  -0.0190 
 14 C        8.5980    -2.2580     1.0550 C.2   1 <1>   0.6590 
 15 O        8.7760    -2.9270     2.0370 O.2   1 <1>  -0.5700 
 16 O        9.5730    -1.4550     0.6300 O.3   1 <1>  -0.4300 
 17 C        9.6170    -0.7410    -0.5870 C.3   1 <1>   0.0400 
 18 H        2.7740    -1.3260     1.9600 H     1 <1>   0.1500 
 19 H        0.5880    -4.1660    -1.1650 H     1 <1>   0.1500 
 20 H        4.3440    -0.4180     0.4170 H     1 <1>   0.0800 
 21 H        5.1410    -1.0030    -1.0190 H     1 <1>   0.0800 
 22 H        5.3360    -3.5970    -1.3260 H     1 <1>   0.0800 
 23 H        4.6800    -4.5960    -0.0520 H     1 <1>   0.0800 
 24 H        6.1480    -1.2540     1.8240 H     1 <1>   0.0800 
 25 H        6.8010    -0.2060     0.6040 H     1 <1>   0.0800 
 26 H        7.1540    -4.4450     0.0900 H     1 <1>   0.0800 
 27 H        6.3580    -3.8470     1.5110 H     1 <1>   0.0800 
 28 H        7.4500    -2.1790    -0.7480 H     1 <1>   0.0800 
 29 H       10.5470    -0.2010    -0.6220 H     1 <1>   0.0800 
 30 H        8.7960    -0.0480    -0.6260 H     1 <1>   0.0800 
 31 H        9.5740    -1.4380    -1.4060 H     1 <1>   0.0800 
@<TRIPOS>BOND
  1   1   2  1   
  2   2   3  ar  
  3   2   4  ar  
  4   3   5  ar  
  5   4   6  ar  
  6   4  18  1   
  7   5   7  ar  
  8   5  19  1   
  9   6   7  ar  
 10   6   8  1   
 11   8   9  1   
 12   8  10  1   
 13   9  11  1   
 14   9  20  1   
 15   9  21  1   
 16  10  12  1   
 17  10  22  1   
 18  10  23  1   
 19  11  13  1   
 20  11  24  1   
 21  11  25  1   
 22  12  13  1   
 23  12  26  1   
 24  12  27  1   
 25  13  14  1   
 26  13  28  1   
 27  14  15  2   
 28  14  16  1   
 29  16  17  1   
 30  17  29  1   
 31  17  30  1   
 32  17  31  1   
@<TRIPOS>SUBSTRUCTURE
  1 ****   8 GROUP 4 **** **** 0

# MOE 2024.06 (io_trps.svl 2023.06)
