@<TRIPOS>MOLECULE
NONAME
29 30 1 0 0 
SMALL
USER_CHARGES


@<TRIPOS>ATOM
  1 O       -0.1460    -0.2480     0.2970 O.3   1 <1>  -0.2800 
  2 C       -0.9050    -1.2990     0.5120 C.2   1 <1>   0.4250 
  3 C        1.0190    -0.7460     0.5850 C.2   1 <1>   0.3280 
  4 N       -0.2390    -2.3360     0.8980 N.2   1 <1>  -0.3380 
  5 C       -2.3370    -1.2120     0.3120 C.ar  1 <1>   0.0530 
  6 N        1.0210    -1.9670     0.9440 N.2   1 <1>  -0.3380 
  7 C       -2.9550    -0.0340    -0.1090 C.ar  1 <1>  -0.1500 
  8 C       -3.1680    -2.3090     0.5320 C.ar  1 <1>  -0.1500 
  9 C       -4.3220     0.0430    -0.2990 C.ar  1 <1>  -0.1500 
 10 C       -4.5350    -2.2330     0.3430 C.ar  1 <1>  -0.1500 
 11 C       -5.1450    -1.0560    -0.0770 C.ar  1 <1>  -0.1440 
 12 C       -6.6770    -1.0210    -0.2740 C.3   1 <1>   0.1440 
 13 C       -7.0820    -2.0540    -1.3360 C.3   1 <1>  -0.2400 
 14 C       -7.1960     0.3510    -0.7400 C.3   1 <1>  -0.2400 
 15 C       -7.3740    -1.3530     1.0530 C.3   1 <1>  -0.2400 
 16 H        1.8870    -0.1150     0.5060 H     1 <1>   0.1500 
 17 H       -2.3570     0.8410    -0.2930 H     1 <1>   0.1500 
 18 H       -2.7360    -3.2390     0.8580 H     1 <1>   0.1500 
 19 H       -4.7240     0.9840    -0.6240 H     1 <1>   0.1500 
 20 H       -5.1240    -3.1120     0.5290 H     1 <1>   0.1500 
 21 H       -6.5720    -1.8500    -2.2610 H     1 <1>   0.0800 
 22 H       -8.1420    -2.0200    -1.5150 H     1 <1>   0.0800 
 23 H       -6.8290    -3.0500    -1.0250 H     1 <1>   0.0800 
 24 H       -6.7570     0.6200    -1.6840 H     1 <1>   0.0800 
 25 H       -6.9610     1.1090    -0.0150 H     1 <1>   0.0800 
 26 H       -8.2640     0.3290    -0.8640 H     1 <1>   0.0800 
 27 H       -7.1240    -2.3430     1.3860 H     1 <1>   0.0800 
 28 H       -8.4430    -1.2980     0.9460 H     1 <1>   0.0800 
 29 H       -7.0700    -0.6550     1.8130 H     1 <1>   0.0800 
@<TRIPOS>BOND
  1   1   2  1   
  2   1   3  1   
  3   2   4  2   
  4   2   5  1   
  5   3   6  2   
  6   3  16  1   
  7   4   6  1   
  8   5   7  ar  
  9   5   8  ar  
 10   7   9  ar  
 11   7  17  1   
 12   8  10  ar  
 13   8  18  1   
 14   9  11  ar  
 15   9  19  1   
 16  10  11  ar  
 17  10  20  1   
 18  11  12  1   
 19  12  13  1   
 20  12  14  1   
 21  12  15  1   
 22  13  21  1   
 23  13  22  1   
 24  13  23  1   
 25  14  24  1   
 26  14  25  1   
 27  14  26  1   
 28  15  27  1   
 29  15  28  1   
 30  15  29  1   
@<TRIPOS>SUBSTRUCTURE
  1 ****   5 GROUP 4 **** **** 0

# MOE 2024.06 (io_trps.svl 2023.06)
