@<TRIPOS>MOLECULE
NONAME
46 48 1 0 0 
SMALL
USER_CHARGES


@<TRIPOS>ATOM
  1 O       -0.0870     0.2580    -0.6410 O.2   1 <1>  -0.5700 
  2 C        0.0300     1.4660    -0.6970 C.2   1 <1>   0.5440 
  3 N       -1.0820     2.2310    -0.5090 N.am  1 <1>  -0.7300 
  4 C        1.3130     2.0780    -1.0010 C.ar  1 <1>   0.0860 
  5 C       -2.4520     1.7200    -0.2760 C.3   1 <1>   0.1400 
  6 C        1.8750     3.1310    -0.2620 C.ar  1 <1>  -0.1430 
  7 C        2.0330     1.5990    -2.0960 C.ar  1 <1>  -0.1500 
  8 C       -3.5300     2.8340    -0.1620 C.3   1 <1>   0.1440 
  9 C        3.0900     3.6800    -0.6430 C.ar  1 <1>  -0.1500 
 10 C        1.1940     3.7000     0.9770 C.3   1 <1>  -0.0960 
 11 C        3.2460     2.1460    -2.4680 C.ar  1 <1>  -0.1500 
 12 C       -4.8330     2.1080     0.2520 C.ar  1 <1>  -0.1430 
 13 C       -3.6860     3.5830    -1.5120 C.3   1 <1>  -0.1600 
 14 C       -3.1630     3.8800     0.9290 C.3   1 <1>  -0.1600 
 15 C        3.7750     3.1940    -1.7410 C.ar  1 <1>  -0.1500 
 16 C       -5.9110     1.9180    -0.6110 C.ar  1 <1>  -0.1500 
 17 C       -4.9420     1.5940     1.5420 C.ar  1 <1>  -0.1500 
 18 C       -2.5280     4.5380    -1.8640 C.3   1 <1>   0.1200 
 19 C       -2.5820     5.1960     0.3900 C.3   1 <1>   0.1200 
 20 C       -7.0530     1.2560    -0.1950 C.ar  1 <1>  -0.1500 
 21 C       -6.0820     0.9320     1.9610 C.ar  1 <1>  -0.1500 
 22 O       -1.8070     4.9280    -0.7310 O.3   1 <1>  -0.5600 
 23 C       -7.1420     0.7630     1.0920 C.ar  1 <1>  -0.1500 
 24 H       -1.0190     3.2580    -0.5950 H     1 <1>   0.3700 
 25 H       -2.4350     1.1370     0.6280 H     1 <1>   0.0800 
 26 H       -2.7130     1.0510    -1.0780 H     1 <1>   0.0800 
 27 H        1.6240     0.7800    -2.6620 H     1 <1>   0.1500 
 28 H        3.5170     4.4930    -0.0820 H     1 <1>   0.1500 
 29 H        1.9050     4.1990     1.6090 H     1 <1>   0.0800 
 30 H        0.4390     4.4080     0.6880 H     1 <1>   0.0800 
 31 H        0.7360     2.9140     1.5520 H     1 <1>   0.0800 
 32 H        3.7760     1.7570    -3.3200 H     1 <1>   0.1500 
 33 H       -4.5800     4.1800    -1.4710 H     1 <1>   0.0800 
 34 H       -3.8070     2.8830    -2.3190 H     1 <1>   0.0800 
 35 H       -2.4660     3.4520     1.6280 H     1 <1>   0.0800 
 36 H       -4.0400     4.1440     1.4920 H     1 <1>   0.0800 
 37 H        4.7180     3.6280    -2.0260 H     1 <1>   0.1500 
 38 H       -5.8920     2.2720    -1.6240 H     1 <1>   0.1500 
 39 H       -4.1320     1.7010     2.2420 H     1 <1>   0.1500 
 40 H       -2.9000     5.4240    -2.3500 H     1 <1>   0.0800 
 41 H       -1.8330     4.0520    -2.5280 H     1 <1>   0.0800 
 42 H       -1.9560     5.6680     1.1280 H     1 <1>   0.0800 
 43 H       -3.3640     5.8820     0.1070 H     1 <1>   0.0800 
 44 H       -7.8750     1.1230    -0.8770 H     1 <1>   0.1500 
 45 H       -6.1430     0.5460     2.9640 H     1 <1>   0.1500 
 46 H       -8.0310     0.2490     1.4150 H     1 <1>   0.1500 
@<TRIPOS>BOND
  1   1   2  2   
  2   2   3  am  
  3   2   4  1   
  4   3   5  1   
  5   3  24  1   
  6   4   6  ar  
  7   4   7  ar  
  8   5   8  1   
  9   5  25  1   
 10   5  26  1   
 11   6   9  ar  
 12   6  10  1   
 13   7  11  ar  
 14   7  27  1   
 15   8  12  1   
 16   8  13  1   
 17   8  14  1   
 18   9  15  ar  
 19   9  28  1   
 20  10  29  1   
 21  10  30  1   
 22  10  31  1   
 23  11  15  ar  
 24  11  32  1   
 25  12  16  ar  
 26  12  17  ar  
 27  13  18  1   
 28  13  33  1   
 29  13  34  1   
 30  14  19  1   
 31  14  35  1   
 32  14  36  1   
 33  15  37  1   
 34  16  20  ar  
 35  16  38  1   
 36  17  21  ar  
 37  17  39  1   
 38  18  22  1   
 39  18  40  1   
 40  18  41  1   
 41  19  22  1   
 42  19  42  1   
 43  19  43  1   
 44  20  23  ar  
 45  20  44  1   
 46  21  23  ar  
 47  21  45  1   
 48  23  46  1   
@<TRIPOS>SUBSTRUCTURE
  1 ****   3 GROUP 4 **** **** 0

# MOE 2024.06 (io_trps.svl 2023.06)
