@<TRIPOS>MOLECULE
NONAME
54 56 1 0 0 
SMALL
USER_CHARGES


@<TRIPOS>ATOM
  1 O        0.7740     0.9290    -1.5790 O.2   1 <1>  -0.5700 
  2 C        1.2220     1.8310    -0.9090 C.2   1 <1>   0.6900 
  3 N        0.7120     3.0810    -0.9930 N.am  1 <1>  -0.5390 
  4 N        2.2450     1.6170    -0.0660 N.am  1 <1>  -0.7300 
  5 C        1.1740     4.1750    -0.2890 C.2   1 <1>  -0.0290 
  6 C        2.9330     2.6860     0.6840 C.3   1 <1>   0.5020 
  7 C        2.2480     4.0520     0.5390 C.2   1 <1>  -0.1240 
  8 C        0.3830     5.4660    -0.5380 C.3   1 <1>   0.2480 
  9 C        4.3830     2.7180     0.1920 C.ar  1 <1>  -0.1430 
 10 C        2.8640     5.0860     1.3110 C.2   1 <1>   0.7060 
 11 N       -1.0500     5.1850    -0.7750 N.3   1 <1>  -0.8100 
 12 C        5.4450     2.2370     0.9570 C.ar  1 <1>  -0.1440 
 13 C        4.6420     3.2470    -1.0670 C.ar  1 <1>  -0.1500 
 14 O        2.7340     6.2690     1.0660 O.2   1 <1>  -0.5700 
 15 O        3.6200     4.7300     2.3580 O.3   1 <1>  -0.4300 
 16 C       -1.7220     4.7310     0.4620 C.3   1 <1>   0.1100 
 17 C       -1.7390     6.3830    -1.2900 C.3   1 <1>   0.1100 
 18 C        6.7350     2.3110     0.4530 C.ar  1 <1>  -0.1500 
 19 C        5.2470     1.6260     2.3380 C.3   1 <1>  -0.0970 
 20 C        5.9300     3.3220    -1.5640 C.ar  1 <1>  -0.1430 
 21 C        4.4160     5.6490     3.0770 C.3   1 <1>   0.1200 
 22 C       -3.2280     4.5150     0.2250 C.3   1 <1>   0.1200 
 23 C       -3.2440     6.1180    -1.4760 C.3   1 <1>   0.1200 
 24 C        6.9780     2.8500    -0.7960 C.ar  1 <1>  -0.1500 
 25 C        6.1800     3.9100    -2.9410 C.3   1 <1>  -0.0970 
 26 C        5.7410     5.8270     2.3360 C.3   1 <1>  -0.2400 
 27 O       -3.8170     5.6810    -0.2770 O.3   1 <1>  -0.5600 
 28 H       -0.1360     3.1920    -1.5550 H     1 <1>   0.3700 
 29 H        2.7710     0.7570    -0.1980 H     1 <1>   0.3700 
 30 H        2.8950     2.4140     1.7230 H     1 <1>   0.0800 
 31 H        0.7960     5.9390    -1.4130 H     1 <1>   0.0800 
 32 H        0.4790     6.1500     0.2860 H     1 <1>   0.0800 
 33 H        3.8270     3.6060    -1.6730 H     1 <1>   0.1500 
 34 H       -1.5950     5.4620     1.2430 H     1 <1>   0.0800 
 35 H       -1.2870     3.8050     0.7960 H     1 <1>   0.0800 
 36 H       -1.3130     6.6620    -2.2380 H     1 <1>   0.0800 
 37 H       -1.6120     7.2070    -0.6080 H     1 <1>   0.0800 
 38 H        7.5670     1.9470     1.0300 H     1 <1>   0.1500 
 39 H        4.8870     2.3700     3.0250 H     1 <1>   0.0800 
 40 H        6.1730     1.2370     2.7230 H     1 <1>   0.0800 
 41 H        4.5420     0.8150     2.2900 H     1 <1>   0.0800 
 42 H        4.5890     5.2350     4.0550 H     1 <1>   0.0800 
 43 H        3.8890     6.5830     3.1800 H     1 <1>   0.0800 
 44 H       -3.7200     4.2690     1.1490 H     1 <1>   0.0800 
 45 H       -3.3870     3.7160    -0.4780 H     1 <1>   0.0800 
 46 H       -3.4040     5.3660    -2.2290 H     1 <1>   0.0800 
 47 H       -3.7490     7.0200    -1.7710 H     1 <1>   0.0800 
 48 H        7.9870     2.8970    -1.1670 H     1 <1>   0.1500 
 49 H        5.5480     4.7650    -3.0990 H     1 <1>   0.0800 
 50 H        5.9650     3.1740    -3.6940 H     1 <1>   0.0800 
 51 H        7.2040     4.2210    -3.0410 H     1 <1>   0.0800 
 52 H        6.2410     4.8810     2.2310 H     1 <1>   0.0800 
 53 H        6.3780     6.4930     2.8880 H     1 <1>   0.0800 
 54 H        5.5700     6.2510     1.3620 H     1 <1>   0.0800 
@<TRIPOS>BOND
  1   1   2  2   
  2   2   3  am  
  3   2   4  am  
  4   3   5  1   
  5   3  28  1   
  6   4   6  1   
  7   4  29  1   
  8   5   7  2   
  9   5   8  1   
 10   6   7  1   
 11   6   9  1   
 12   6  30  1   
 13   7  10  1   
 14   8  11  1   
 15   8  31  1   
 16   8  32  1   
 17   9  12  ar  
 18   9  13  ar  
 19  10  14  2   
 20  10  15  1   
 21  11  16  1   
 22  11  17  1   
 23  12  18  ar  
 24  12  19  1   
 25  13  20  ar  
 26  13  33  1   
 27  15  21  1   
 28  16  22  1   
 29  16  34  1   
 30  16  35  1   
 31  17  23  1   
 32  17  36  1   
 33  17  37  1   
 34  18  24  ar  
 35  18  38  1   
 36  19  39  1   
 37  19  40  1   
 38  19  41  1   
 39  20  24  ar  
 40  20  25  1   
 41  21  26  1   
 42  21  42  1   
 43  21  43  1   
 44  22  27  1   
 45  22  44  1   
 46  22  45  1   
 47  23  27  1   
 48  23  46  1   
 49  23  47  1   
 50  24  48  1   
 51  25  49  1   
 52  25  50  1   
 53  25  51  1   
 54  26  52  1   
 55  26  53  1   
 56  26  54  1   
@<TRIPOS>SUBSTRUCTURE
  1 ****   7 GROUP 4 **** **** 0

# MOE 2024.06 (io_trps.svl 2023.06)
