@<TRIPOS>MOLECULE
NONAME
43 45 1 0 0 
SMALL
USER_CHARGES


@<TRIPOS>ATOM
  1 S       -0.7300     0.6760     0.4510 S.3   1 <1>  -0.0800 
  2 C       -1.8450    -0.6000     0.0940 C.2   1 <1>   0.4420 
  3 C        0.5540    -0.4180     0.0440 C.2   1 <1>   0.1980 
  4 N       -1.2500    -1.6740    -0.2750 N.2   1 <1>  -0.3380 
  5 N       -3.1830    -0.3120     0.2470 N.am  1 <1>  -0.4940 
  6 N        0.1130    -1.5630    -0.3010 N.2   1 <1>  -0.3380 
  7 C        2.0060     0.0800     0.1370 C.3   1 <1>   0.1800 
  8 C       -4.2830    -1.0980     0.0360 C.2   1 <1>   0.5690 
  9 C        2.3310     0.5100     1.5770 C.3   1 <1>  -0.2400 
 10 C        2.9850    -1.0380    -0.2640 C.3   1 <1>  -0.2400 
 11 C        2.2220     1.2710    -0.8100 C.3   1 <1>  -0.2400 
 12 O       -4.2170    -2.2410    -0.3470 O.2   1 <1>  -0.5700 
 13 C       -5.6730    -0.4810     0.3040 C.3   1 <1>   0.3410 
 14 O       -5.5170     0.9220     0.4970 O.3   1 <1>  -0.4300 
 15 C       -6.6050    -0.7300    -0.9010 C.3   1 <1>  -0.0170 
 16 C       -6.2650    -1.0460     1.6090 C.3   1 <1>  -0.2400 
 17 C       -6.5280     1.7880     0.3990 C.2   1 <1>   0.6340 
 18 C       -7.8630     0.1220    -0.8280 C.ar  1 <1>  -0.1440 
 19 O       -6.3240     2.9030     0.8180 O.2   1 <1>  -0.5700 
 20 C       -7.7820     1.3600    -0.1890 C.ar  1 <1>   0.0860 
 21 C       -9.0510    -0.3150    -1.3880 C.ar  1 <1>  -0.1500 
 22 C       -8.9340     2.1460    -0.1400 C.ar  1 <1>  -0.1500 
 23 C      -10.1820     0.4790    -1.3220 C.ar  1 <1>  -0.1500 
 24 C      -10.1220     1.7120    -0.6980 C.ar  1 <1>  -0.1500 
 25 H       -3.3990     0.6380     0.5500 H     1 <1>   0.3700 
 26 H        1.7130     1.3360     1.8800 H     1 <1>   0.0800 
 27 H        3.3590     0.8120     1.6590 H     1 <1>   0.0800 
 28 H        2.1600    -0.3090     2.2540 H     1 <1>   0.0800 
 29 H        4.0030    -0.7000    -0.2020 H     1 <1>   0.0800 
 30 H        2.7910    -1.3590    -1.2720 H     1 <1>   0.0800 
 31 H        2.8660    -1.8880     0.3860 H     1 <1>   0.0800 
 32 H        3.2480     1.5920    -0.7870 H     1 <1>   0.0800 
 33 H        1.9760     0.9890    -1.8190 H     1 <1>   0.0800 
 34 H        1.6020     2.1030    -0.5290 H     1 <1>   0.0800 
 35 H       -6.8640    -1.7750    -0.9400 H     1 <1>   0.0800 
 36 H       -6.0780    -0.4990    -1.8110 H     1 <1>   0.0800 
 37 H       -7.2370    -0.6360     1.8130 H     1 <1>   0.0800 
 38 H       -5.6100    -0.8340     2.4350 H     1 <1>   0.0800 
 39 H       -6.3640    -2.1150     1.5290 H     1 <1>   0.0800 
 40 H       -9.1060    -1.2720    -1.8800 H     1 <1>   0.1500 
 41 H       -8.8910     3.1080     0.3440 H     1 <1>   0.1500 
 42 H      -11.1060     0.1400    -1.7570 H     1 <1>   0.1500 
 43 H      -11.0000     2.3330    -0.6480 H     1 <1>   0.1500 
@<TRIPOS>BOND
  1   1   2  1   
  2   1   3  1   
  3   2   4  2   
  4   2   5  1   
  5   3   6  2   
  6   3   7  1   
  7   4   6  1   
  8   5   8  am  
  9   5  25  1   
 10   7   9  1   
 11   7  10  1   
 12   7  11  1   
 13   8  12  2   
 14   8  13  1   
 15   9  26  1   
 16   9  27  1   
 17   9  28  1   
 18  10  29  1   
 19  10  30  1   
 20  10  31  1   
 21  11  32  1   
 22  11  33  1   
 23  11  34  1   
 24  13  14  1   
 25  13  15  1   
 26  13  16  1   
 27  14  17  1   
 28  15  18  1   
 29  15  35  1   
 30  15  36  1   
 31  16  37  1   
 32  16  38  1   
 33  16  39  1   
 34  17  19  2   
 35  17  20  1   
 36  18  20  ar  
 37  18  21  ar  
 38  20  22  ar  
 39  21  23  ar  
 40  21  40  1   
 41  22  24  ar  
 42  22  41  1   
 43  23  24  ar  
 44  23  42  1   
 45  24  43  1   
@<TRIPOS>SUBSTRUCTURE
  1 ****   5 GROUP 4 **** **** 0

# MOE 2024.06 (io_trps.svl 2023.06)
