@<TRIPOS>MOLECULE
NONAME
38 40 1 0 0 
SMALL
USER_CHARGES


@<TRIPOS>ATOM
  1 S        0.0510    -0.0290     0.0430 S.3   1 <1>  -0.2860 
  2 C       -1.4540     0.8810     0.3440 C.2   1 <1>   0.5340 
  3 C        1.2340     0.7240     1.2590 C.3   1 <1>   0.1310 
  4 O       -2.5100     0.5770    -0.3250 O.3   1 <1>  -0.2800 
  5 N       -1.6100     1.8380     1.1710 N.2   1 <1>  -0.3380 
  6 C        2.6300     0.1510     1.0740 C.2   1 <1>   0.5690 
  7 C       -3.3980     1.4170     0.1290 C.2   1 <1>   0.4790 
  8 N       -2.8880     2.1930     1.0320 N.2   1 <1>  -0.3380 
  9 O        3.0180    -0.6160     1.9260 O.2   1 <1>  -0.5700 
 10 N        3.4200     0.5060     0.0050 N.am  1 <1>  -0.6600 
 11 C       -4.7460     1.3900    -0.3870 C.2   1 <1>  -0.0010 
 12 C        4.8010    -0.0360    -0.1450 C.3   1 <1>   0.1400 
 13 C        3.0120     1.4160    -1.1040 C.3   1 <1>   0.1400 
 14 C       -5.8380     2.1500    -0.0860 C.2   1 <1>  -0.0400 
 15 C       -5.2120     0.4990    -1.3770 C.2   1 <1>  -0.1500 
 16 C        5.8020     1.1210    -0.2280 C.3   1 <1>  -0.1600 
 17 C        3.9920     2.5900    -1.1930 C.3   1 <1>  -0.1600 
 18 O       -6.8790     1.7860    -0.8010 O.3   1 <1>  -0.2800 
 19 C       -6.0380     3.2920     0.8920 C.3   1 <1>  -0.0600 
 20 C       -6.5100     0.7940    -1.5800 C.2   1 <1>  -0.0100 
 21 C        5.4410     2.1060    -1.3490 C.3   1 <1>  -0.1600 
 22 H        0.8640     0.4930     2.2410 H     1 <1>   0.0800 
 23 H        1.2300     1.7870     1.1140 H     1 <1>   0.0800 
 24 H        4.8490    -0.6280    -1.0430 H     1 <1>   0.0800 
 25 H        5.0560    -0.6720     0.6860 H     1 <1>   0.0800 
 26 H        2.0170     1.7930    -0.9600 H     1 <1>   0.0800 
 27 H        3.0250     0.8620    -2.0280 H     1 <1>   0.0800 
 28 H       -4.6160    -0.2580    -1.8550 H     1 <1>   0.1500 
 29 H        6.7880     0.7260    -0.3980 H     1 <1>   0.0800 
 30 H        5.8150     1.6340     0.7180 H     1 <1>   0.0800 
 31 H        3.9030     3.1870    -0.3020 H     1 <1>   0.0800 
 32 H        3.7280     3.2110    -2.0310 H     1 <1>   0.0800 
 33 H       -5.1350     3.5140     1.4270 H     1 <1>   0.0800 
 34 H       -6.8020     3.0300     1.6000 H     1 <1>   0.0800 
 35 H       -6.3480     4.1720     0.3590 H     1 <1>   0.0800 
 36 H       -7.2360     0.3590    -2.2450 H     1 <1>   0.1500 
 37 H        5.5530     1.6180    -2.3020 H     1 <1>   0.0800 
 38 H        6.1120     2.9480    -1.3250 H     1 <1>   0.0800 
@<TRIPOS>BOND
  1   1   2  1   
  2   1   3  1   
  3   2   4  1   
  4   2   5  2   
  5   3   6  1   
  6   3  22  1   
  7   3  23  1   
  8   4   7  1   
  9   5   8  1   
 10   6   9  2   
 11   6  10  am  
 12   7   8  2   
 13   7  11  1   
 14  10  12  1   
 15  10  13  1   
 16  11  14  2   
 17  11  15  1   
 18  12  16  1   
 19  12  24  1   
 20  12  25  1   
 21  13  17  1   
 22  13  26  1   
 23  13  27  1   
 24  14  18  1   
 25  14  19  1   
 26  15  20  2   
 27  15  28  1   
 28  16  21  1   
 29  16  29  1   
 30  16  30  1   
 31  17  21  1   
 32  17  31  1   
 33  17  32  1   
 34  18  20  1   
 35  19  33  1   
 36  19  34  1   
 37  19  35  1   
 38  20  36  1   
 39  21  37  1   
 40  21  38  1   
@<TRIPOS>SUBSTRUCTURE
  1 ****   2 GROUP 4 **** **** 0

# MOE 2024.06 (io_trps.svl 2023.06)
