@<TRIPOS>MOLECULE
NONAME
32 32 1 0 0 
SMALL
USER_CHARGES


@<TRIPOS>ATOM
  1 O        0.2590     0.3470     0.3070 O.2   1 <1>  -0.5700 
  2 C        0.3660     1.5430     0.1190 C.2   1 <1>   0.8050 
  3 O       -0.7400     2.2850     0.0160 O.3   1 <1>  -0.4300 
  4 C        1.6460     2.1880     0.0200 C.2   1 <1>  -0.2370 
  5 C       -2.0230     1.7110     0.1140 C.3   1 <1>   0.1200 
  6 N        2.7820     1.4570     0.2100 N.pl3 1 <1>   0.0330 
  7 C        2.0400     3.4790    -0.2440 C.2   1 <1>  -0.1810 
  8 C       -3.0520     2.8250    -0.0510 C.3   1 <1>  -0.2400 
  9 C        3.8550     2.2630     0.0890 C.2   1 <1>  -0.3320 
 10 C        3.4460     3.5450    -0.1840 C.2   1 <1>  -0.0860 
 11 C        1.1360     4.6550    -0.5820 C.3   1 <1>  -0.0590 
 12 C        5.2720     1.7360     0.2470 C.3   1 <1>  -0.0600 
 13 C        4.2750     4.7180    -0.3710 C.2   1 <1>   0.4750 
 14 N        5.2220     4.7730    -1.2270 N.2   1 <1>  -0.5130 
 15 C        3.9560     5.8930     0.5450 C.3   1 <1>  -0.1790 
 16 O        5.9510     5.8740    -1.3580 O.3   1 <1>  -0.3370 
 17 H       -2.1270     0.9710    -0.6620 H     1 <1>   0.0800 
 18 H       -2.1150     1.2400     1.0780 H     1 <1>   0.0800 
 19 H        2.7830     0.4490     0.4070 H     1 <1>   0.2700 
 20 H       -2.9420     3.2910    -1.0140 H     1 <1>   0.0800 
 21 H       -2.9290     3.5610     0.7230 H     1 <1>   0.0800 
 22 H       -4.0440     2.4150     0.0200 H     1 <1>   0.0800 
 23 H        1.6420     5.3380    -1.2400 H     1 <1>   0.0800 
 24 H        0.8530     5.1730     0.3160 H     1 <1>   0.0800 
 25 H        0.2480     4.3210    -1.0840 H     1 <1>   0.0800 
 26 H        5.9890     2.5320     0.1580 H     1 <1>   0.0800 
 27 H        5.4800     1.0090    -0.5170 H     1 <1>   0.0800 
 28 H        5.3930     1.2760     1.2110 H     1 <1>   0.0800 
 29 H        4.8480     6.2290     1.0400 H     1 <1>   0.0800 
 30 H        3.5310     6.6970    -0.0260 H     1 <1>   0.0800 
 31 H        3.2530     5.5930     1.3020 H     1 <1>   0.0800 
 32 H        5.6890     6.6380    -0.8090 H     1 <1>   0.4000 
@<TRIPOS>BOND
  1   1   2  2   
  2   2   3  1   
  3   2   4  1   
  4   3   5  1   
  5   4   6  1   
  6   4   7  2   
  7   5   8  1   
  8   5  17  1   
  9   5  18  1   
 10   6   9  1   
 11   6  19  1   
 12   7  10  1   
 13   7  11  1   
 14   8  20  1   
 15   8  21  1   
 16   8  22  1   
 17   9  10  2   
 18   9  12  1   
 19  10  13  1   
 20  11  23  1   
 21  11  24  1   
 22  11  25  1   
 23  12  26  1   
 24  12  27  1   
 25  12  28  1   
 26  13  14  2   
 27  13  15  1   
 28  14  16  1   
 29  15  29  1   
 30  15  30  1   
 31  15  31  1   
 32  16  32  1   
@<TRIPOS>SUBSTRUCTURE
  1 ****   7 GROUP 4 **** **** 0

# MOE 2024.06 (io_trps.svl 2023.06)
