@<TRIPOS>MOLECULE
NONAME
26 26 1 0 0 
SMALL
USER_CHARGES


@<TRIPOS>ATOM
  1 CL      -0.9530     0.4030     1.3720 Cl    1 <1>  -0.1770 
  2 C       -2.1830    -0.6810     0.7740 C.ar  1 <1>   0.1770 
  3 C       -2.9300    -0.3160    -0.3300 C.ar  1 <1>  -0.1500 
  4 C       -2.3920    -1.8880     1.4140 C.ar  1 <1>  -0.1500 
  5 C       -3.9040    -1.1790    -0.8010 C.ar  1 <1>  -0.1500 
  6 C       -3.3680    -2.7470     0.9380 C.ar  1 <1>  -0.1500 
  7 C       -4.1260    -2.3980    -0.1730 C.ar  1 <1>  -0.1430 
  8 C       -5.1970    -3.3360    -0.7000 C.3   1 <1>   0.2840 
  9 N       -6.5070    -2.8530    -0.2400 N.am  1 <1>  -0.7300 
 10 C       -7.6650    -2.9120    -0.9410 C.2   1 <1>   0.5690 
 11 O       -7.7240    -3.4310    -2.0300 O.2   1 <1>  -0.5700 
 12 C       -8.9320    -2.3050    -0.3370 C.3   1 <1>   0.1810 
 13 O       -8.6940    -1.7320     0.9290 O.3   1 <1>  -0.5600 
 14 C       -9.8230    -1.1640     1.5110 C.3   1 <1>   0.0400 
 15 H       -2.7500     0.6290    -0.8090 H     1 <1>   0.1500 
 16 H       -1.7980    -2.1470     2.2720 H     1 <1>   0.1500 
 17 H       -4.4950    -0.9020    -1.6590 H     1 <1>   0.1500 
 18 H       -3.5350    -3.6870     1.4350 H     1 <1>   0.1500 
 19 H       -5.0390    -4.3350    -0.3320 H     1 <1>   0.0800 
 20 H       -5.1730    -3.3620    -1.7770 H     1 <1>   0.0800 
 21 H       -6.5260    -2.3660     0.6610 H     1 <1>   0.3700 
 22 H       -9.6720    -3.0780    -0.2320 H     1 <1>   0.0800 
 23 H       -9.3000    -1.5410    -0.9970 H     1 <1>   0.0800 
 24 H       -9.5390    -0.7570     2.4650 H     1 <1>   0.0800 
 25 H      -10.5730    -1.9240     1.6490 H     1 <1>   0.0800 
 26 H      -10.1930    -0.3770     0.8770 H     1 <1>   0.0800 
@<TRIPOS>BOND
  1   1   2  1   
  2   2   3  ar  
  3   2   4  ar  
  4   3   5  ar  
  5   3  15  1   
  6   4   6  ar  
  7   4  16  1   
  8   5   7  ar  
  9   5  17  1   
 10   6   7  ar  
 11   6  18  1   
 12   7   8  1   
 13   8   9  1   
 14   8  19  1   
 15   8  20  1   
 16   9  10  am  
 17   9  21  1   
 18  10  11  2   
 19  10  12  1   
 20  12  13  1   
 21  12  22  1   
 22  12  23  1   
 23  13  14  1   
 24  14  24  1   
 25  14  25  1   
 26  14  26  1   
@<TRIPOS>SUBSTRUCTURE
  1 ****   7 GROUP 4 **** **** 0

# MOE 2024.06 (io_trps.svl 2023.06)
