@<TRIPOS>MOLECULE
NONAME
35 36 1 0 0 
SMALL
USER_CHARGES


@<TRIPOS>ATOM
  1 I       -0.5820    -2.3990     2.2130 I     1 <1>  -0.0810 
  2 C        1.2460    -2.2380     1.1430 C.ar  1 <1>   0.0810 
  3 C        2.1830    -1.3130     1.5610 C.ar  1 <1>  -0.1500 
  4 C        1.4560    -3.0620     0.0540 C.ar  1 <1>  -0.1500 
  5 C        3.3710    -1.2180     0.8580 C.ar  1 <1>  -0.1500 
  6 C        2.6510    -2.9500    -0.6330 C.ar  1 <1>  -0.1500 
  7 C        3.6370    -2.0340    -0.2490 C.ar  1 <1>   0.0860 
  8 C        4.8900    -1.9360    -0.9800 C.2   1 <1>   0.5440 
  9 O        4.9370    -2.2510    -2.1550 O.2   1 <1>  -0.5700 
 10 N        6.0380    -1.4600    -0.3850 N.am  1 <1>  -0.6600 
 11 C        6.8350    -0.4380    -1.1330 C.3   1 <1>   0.2200 
 12 C        6.7510    -2.2100     0.7050 C.3   1 <1>   0.2200 
 13 C        8.1020    -0.0390    -0.3620 C.3   1 <1>  -0.1600 
 14 C        5.9720     0.8030    -1.3790 C.3   1 <1>  -0.2400 
 15 C        8.1860    -2.5130     0.2480 C.3   1 <1>  -0.1600 
 16 C        6.0620    -3.5230     1.0980 C.3   1 <1>  -0.2400 
 17 C        9.0000    -1.2440    -0.0510 C.3   1 <1>  -0.1600 
 18 H        1.9900    -0.6820     2.4100 H     1 <1>   0.1500 
 19 H        0.7070    -3.7710    -0.2520 H     1 <1>   0.1500 
 20 H        4.1110    -0.5000     1.1660 H     1 <1>   0.1500 
 21 H        2.8360    -3.5790    -1.4880 H     1 <1>   0.1500 
 22 H        7.1250    -0.8610    -2.0820 H     1 <1>   0.0800 
 23 H        6.7920    -1.5780     1.5770 H     1 <1>   0.0800 
 24 H        7.8100     0.4380     0.5580 H     1 <1>   0.0800 
 25 H        8.6630     0.6800    -0.9320 H     1 <1>   0.0800 
 26 H        5.6190     1.2070    -0.4490 H     1 <1>   0.0800 
 27 H        6.5490     1.5550    -1.8860 H     1 <1>   0.0800 
 28 H        5.1330     0.5590    -2.0050 H     1 <1>   0.0800 
 29 H        8.1320    -3.1180    -0.6410 H     1 <1>   0.0800 
 30 H        8.6990    -3.0880     0.9980 H     1 <1>   0.0800 
 31 H        5.9410    -4.1630     0.2410 H     1 <1>   0.0800 
 32 H        5.1080    -3.3360     1.5530 H     1 <1>   0.0800 
 33 H        6.6600    -4.0450     1.8230 H     1 <1>   0.0800 
 34 H        9.6240    -1.0030     0.7920 H     1 <1>   0.0800 
 35 H        9.6460    -1.4400    -0.8900 H     1 <1>   0.0800 
@<TRIPOS>BOND
  1   1   2  1   
  2   2   3  ar  
  3   2   4  ar  
  4   3   5  ar  
  5   3  18  1   
  6   4   6  ar  
  7   4  19  1   
  8   5   7  ar  
  9   5  20  1   
 10   6   7  ar  
 11   6  21  1   
 12   7   8  1   
 13   8   9  2   
 14   8  10  am  
 15  10  11  1   
 16  10  12  1   
 17  11  13  1   
 18  11  14  1   
 19  11  22  1   
 20  12  15  1   
 21  12  16  1   
 22  12  23  1   
 23  13  17  1   
 24  13  24  1   
 25  13  25  1   
 26  14  26  1   
 27  14  27  1   
 28  14  28  1   
 29  15  17  1   
 30  15  29  1   
 31  15  30  1   
 32  16  31  1   
 33  16  32  1   
 34  16  33  1   
 35  17  34  1   
 36  17  35  1   
@<TRIPOS>SUBSTRUCTURE
  1 ****   8 GROUP 4 **** **** 0

# MOE 2024.06 (io_trps.svl 2023.06)
