@<TRIPOS>MOLECULE
NONAME
42 42 1 0 0 
SMALL
USER_CHARGES


@<TRIPOS>ATOM
  1 F       -2.3310    -0.5360     1.1480 F     1 <1>  -0.3400 
  2 C       -3.0300     0.3700     0.4860 C.3   1 <1>   1.1640 
  3 F       -4.1760     0.5270     1.1510 F     1 <1>  -0.3400 
  4 F       -3.3800    -0.1800    -0.6690 F     1 <1>  -0.3400 
  5 C       -2.3380     1.7320     0.2900 C.ar  1 <1>  -0.1440 
  6 C       -2.8940     2.7480    -0.5030 C.ar  1 <1>  -0.1440 
  7 C       -1.1210     1.9740     0.9240 C.ar  1 <1>  -0.1500 
  8 C       -2.2200     3.9540    -0.6490 C.ar  1 <1>  -0.1500 
  9 C       -4.2210     2.5980    -1.2380 C.3   1 <1>   0.4870 
 10 C       -0.4670     3.1810     0.7770 C.ar  1 <1>  -0.1500 
 11 C       -1.0150     4.1710    -0.0110 C.ar  1 <1>  -0.1500 
 12 N       -5.3390     2.7120    -0.2470 N.4   1 <1>  -0.9590 
 13 C       -6.5860     2.0320    -0.7610 C.3   1 <1>   0.3430 
 14 C       -5.5150     4.1480     0.1330 C.3   1 <1>   0.3430 
 15 C       -7.3620     1.2290     0.3260 C.3   1 <1>   0.3430 
 16 C       -6.4390     4.2760     1.3370 C.3   1 <1>  -0.2400 
 17 N       -8.5440     0.4420    -0.1900 N.4   1 <1>  -0.9590 
 18 C       -9.6570     1.3020    -0.7210 C.3   1 <1>   0.2630 
 19 C       -9.0900    -0.4370     0.8990 C.3   1 <1>   0.2630 
 20 H       -0.6580     1.2230     1.5460 H     1 <1>   0.1500 
 21 H       -2.6150     4.7450    -1.2660 H     1 <1>   0.1500 
 22 H       -4.2470     1.6410    -1.7330 H     1 <1>   0.0800 
 23 H       -4.3120     3.3610    -1.9950 H     1 <1>   0.0800 
 24 H        0.4750     3.3500     1.2750 H     1 <1>   0.1500 
 25 H       -0.4970     5.1100    -0.1290 H     1 <1>   0.1500 
 26 H       -4.9920     2.2310     0.5980 H     1 <1>   0.4500 
 27 H       -6.3070     1.3380    -1.5370 H     1 <1>   0.0800 
 28 H       -7.2390     2.7710    -1.1960 H     1 <1>   0.0800 
 29 H       -5.9090     4.7140    -0.6970 H     1 <1>   0.0800 
 30 H       -4.5560     4.5710     0.3960 H     1 <1>   0.0800 
 31 H       -7.7040     1.9080     1.0890 H     1 <1>   0.0800 
 32 H       -6.6720     0.5390     0.7860 H     1 <1>   0.0800 
 33 H       -7.4560     4.0400     1.0850 H     1 <1>   0.0800 
 34 H       -6.4270     5.2990     1.6710 H     1 <1>   0.0800 
 35 H       -6.1000     3.6650     2.1550 H     1 <1>   0.0800 
 36 H       -8.2420    -0.1970    -0.9470 H     1 <1>   0.4500 
 37 H      -10.0250     1.9620     0.0480 H     1 <1>   0.0800 
 38 H      -10.4760     0.6850    -1.0570 H     1 <1>   0.0800 
 39 H       -9.3200     1.8950    -1.5560 H     1 <1>   0.0800 
 40 H       -9.4480     0.1580     1.7240 H     1 <1>   0.0800 
 41 H       -8.3270    -1.1070     1.2640 H     1 <1>   0.0800 
 42 H       -9.9100    -1.0310     0.5270 H     1 <1>   0.0800 
@<TRIPOS>BOND
  1   1   2  1   
  2   2   3  1   
  3   2   4  1   
  4   2   5  1   
  5   5   6  ar  
  6   5   7  ar  
  7   6   8  ar  
  8   6   9  1   
  9   7  10  ar  
 10   7  20  1   
 11   8  11  ar  
 12   8  21  1   
 13   9  12  1   
 14   9  22  1   
 15   9  23  1   
 16  10  11  ar  
 17  10  24  1   
 18  11  25  1   
 19  12  13  1   
 20  12  14  1   
 21  12  26  1   
 22  13  15  1   
 23  13  27  1   
 24  13  28  1   
 25  14  16  1   
 26  14  29  1   
 27  14  30  1   
 28  15  17  1   
 29  15  31  1   
 30  15  32  1   
 31  16  33  1   
 32  16  34  1   
 33  16  35  1   
 34  17  18  1   
 35  17  19  1   
 36  17  36  1   
 37  18  37  1   
 38  18  38  1   
 39  18  39  1   
 40  19  40  1   
 41  19  41  1   
 42  19  42  1   
@<TRIPOS>SUBSTRUCTURE
  1 ****  12 GROUP 4 **** **** 0

# MOE 2024.06 (io_trps.svl 2023.06)
