@<TRIPOS>MOLECULE
NONAME
40 41 1 0 0 
SMALL
USER_CHARGES


@<TRIPOS>ATOM
  1 O       -0.7990    -0.0160     0.6820 O.2   1 <1>  -0.5700 
  2 C       -1.7810    -0.7150     0.5390 C.2   1 <1>   0.7060 
  3 O       -2.9410    -0.1350     0.2480 O.3   1 <1>  -0.2330 
  4 C       -1.7600    -2.1310     0.6630 C.2   1 <1>  -0.1360 
  5 C       -4.0870    -0.8310     0.0760 C.ar  1 <1>   0.0820 
  6 C       -2.8660    -2.8930     0.4990 C.2   1 <1>  -0.1670 
  7 C       -4.1230    -2.2360     0.1860 C.ar  1 <1>   0.0280 
  8 C       -5.2180    -0.0830    -0.2100 C.ar  1 <1>  -0.1500 
  9 C       -2.7050    -4.4060     0.6580 C.3   1 <1>  -0.0220 
 10 C       -5.3870    -2.8390    -0.0100 C.ar  1 <1>   0.0830 
 11 C       -6.4370    -0.6970    -0.4000 C.ar  1 <1>  -0.1430 
 12 C       -2.5870    -5.0920    -0.7070 C.3   1 <1>  -0.2400 
 13 O       -5.5040    -4.1830     0.0790 O.3   1 <1>  -0.3630 
 14 C       -6.5110    -2.0740    -0.3000 C.ar  1 <1>  -0.1500 
 15 C       -7.6810     0.1140    -0.7170 C.3   1 <1>  -0.0970 
 16 C       -6.7060    -4.8180     0.4910 C.3   1 <1>   0.1810 
 17 C       -6.4530    -6.2810     0.8480 C.2   1 <1>   0.5690 
 18 O       -6.6340    -6.5990     2.0020 O.2   1 <1>  -0.5700 
 19 N       -6.0630    -7.2030    -0.1020 N.am  1 <1>  -0.6600 
 20 C       -5.8170    -8.6290     0.2580 C.3   1 <1>   0.0600 
 21 C       -5.8040    -6.8940    -1.5370 C.3   1 <1>   0.0600 
 22 H       -0.7980    -2.5460     0.8940 H     1 <1>   0.1500 
 23 H       -5.1270     0.9860    -0.2810 H     1 <1>   0.1500 
 24 H       -3.5100    -4.8230     1.2350 H     1 <1>   0.0800 
 25 H       -1.8070    -4.6170     1.2130 H     1 <1>   0.0800 
 26 H       -2.5150    -6.1570    -0.5770 H     1 <1>   0.0800 
 27 H       -1.7090    -4.7440    -1.2210 H     1 <1>   0.0800 
 28 H       -3.4460    -4.8750    -1.3150 H     1 <1>   0.0800 
 29 H       -7.4650    -2.5360    -0.4630 H     1 <1>   0.1500 
 30 H       -7.4630     1.1670    -0.7230 H     1 <1>   0.0800 
 31 H       -8.4390    -0.0730     0.0220 H     1 <1>   0.0800 
 32 H       -8.0620    -0.1620    -1.6840 H     1 <1>   0.0800 
 33 H       -7.4200    -4.7610    -0.3070 H     1 <1>   0.0800 
 34 H       -7.0800    -4.3010     1.3560 H     1 <1>   0.0800 
 35 H       -6.0130    -8.8040     1.3020 H     1 <1>   0.0800 
 36 H       -4.7920    -8.8830     0.0550 H     1 <1>   0.0800 
 37 H       -6.4620    -9.2660    -0.3210 H     1 <1>   0.0800 
 38 H       -6.0080    -5.8650    -1.7680 H     1 <1>   0.0800 
 39 H       -6.4280    -7.5140    -2.1570 H     1 <1>   0.0800 
 40 H       -4.7730    -7.0960    -1.7670 H     1 <1>   0.0800 
@<TRIPOS>BOND
  1   1   2  2   
  2   2   3  1   
  3   2   4  1   
  4   3   5  1   
  5   4   6  2   
  6   4  22  1   
  7   5   7  ar  
  8   5   8  ar  
  9   6   7  1   
 10   6   9  1   
 11   7  10  ar  
 12   8  11  ar  
 13   8  23  1   
 14   9  12  1   
 15   9  24  1   
 16   9  25  1   
 17  10  13  1   
 18  10  14  ar  
 19  11  14  ar  
 20  11  15  1   
 21  12  26  1   
 22  12  27  1   
 23  12  28  1   
 24  13  16  1   
 25  14  29  1   
 26  15  30  1   
 27  15  31  1   
 28  15  32  1   
 29  16  17  1   
 30  16  33  1   
 31  16  34  1   
 32  17  18  2   
 33  17  19  am  
 34  19  20  1   
 35  19  21  1   
 36  20  35  1   
 37  20  36  1   
 38  20  37  1   
 39  21  38  1   
 40  21  39  1   
 41  21  40  1   
@<TRIPOS>SUBSTRUCTURE
  1 ****  10 GROUP 4 **** **** 0

# MOE 2024.06 (io_trps.svl 2023.06)
