@<TRIPOS>MOLECULE
NONAME
49 51 1 0 0 
SMALL
USER_CHARGES


@<TRIPOS>ATOM
  1 O        0.1710    -0.0320     0.9620 O.co2 1 <1>  -0.9000 
  2 C        1.1160     0.2920     0.2320 C.2   1 <1>   0.9060 
  3 O        1.2940    -0.2320    -0.8690 O.co2 1 <1>  -0.9000 
  4 C        2.0220     1.4170     0.7170 C.3   1 <1>  -0.1860 
  5 C        1.4790     2.9980     0.4340 C.3   1 <1>  -0.0190 
  6 C        3.5410     1.2980     0.1020 C.3   1 <1>  -0.0800 
  7 C        0.0330     3.2710    -0.0230 C.2   1 <1>   0.5690 
  8 C        2.6030     3.7230    -0.5220 C.3   1 <1>  -0.0800 
  9 C        3.0790     2.5170    -0.1870 C.3   1 <1>  -0.1600 
 10 C        4.6640     2.0540    -0.8140 C.3   1 <1>  -0.1600 
 11 O       -0.2300     4.3700    -0.4600 O.2   1 <1>  -0.5700 
 12 N       -0.9400     2.3420     0.1250 N.am  1 <1>  -0.7300 
 13 C        4.1260     3.6110    -1.0970 C.3   1 <1>  -0.1600 
 14 C       -2.3460     2.4560    -0.2960 C.3   1 <1>   0.1400 
 15 C       -3.2340     1.7920     0.7530 C.3   1 <1>  -0.0170 
 16 C       -4.7040     1.9520     0.3930 C.ar  1 <1>  -0.1430 
 17 C       -5.3800     0.9400    -0.2690 C.ar  1 <1>  -0.1500 
 18 C       -5.3810     3.1130     0.7220 C.ar  1 <1>  -0.1500 
 19 C       -6.7200     1.0700    -0.5990 C.ar  1 <1>   0.0820 
 20 C       -6.7160     3.2660     0.3900 C.ar  1 <1>  -0.1500 
 21 O       -7.2720    -0.0020    -1.2330 O.3   1 <1>  -0.3620 
 22 C       -7.4020     2.2560    -0.2810 C.ar  1 <1>   0.0820 
 23 C       -8.5810    -0.4180    -0.9100 C.3   1 <1>   0.0400 
 24 O       -8.7100     2.4050    -0.6460 O.3   1 <1>  -0.3630 
 25 C       -9.3660     3.6510    -0.5690 C.3   1 <1>   0.0400 
 26 H        2.0720     1.2780     1.7840 H     1 <1>   0.0800 
 27 H        1.5150     3.4980     1.3900 H     1 <1>   0.0800 
 28 H        4.1080     1.0990     1.0000 H     1 <1>   0.0800 
 29 H        2.0520     3.8680    -1.4430 H     1 <1>   0.0800 
 30 H        2.6030     2.0820    -1.1730 H     1 <1>   0.0800 
 31 H        3.5490     2.9360     0.8040 H     1 <1>   0.0800 
 32 H        4.7800     1.5260    -1.7480 H     1 <1>   0.0800 
 33 H        5.6240     2.0650    -0.3230 H     1 <1>   0.0800 
 34 H       -0.6670     1.3910     0.4510 H     1 <1>   0.3700 
 35 H        4.7650     4.3230    -0.5970 H     1 <1>   0.0800 
 36 H        4.1550     3.8310    -2.1520 H     1 <1>   0.0800 
 37 H       -2.4700     1.9630    -1.2450 H     1 <1>   0.0800 
 38 H       -2.6100     3.4940    -0.4080 H     1 <1>   0.0800 
 39 H       -3.0500     2.2430     1.7120 H     1 <1>   0.0800 
 40 H       -2.9810     0.7480     0.8210 H     1 <1>   0.0800 
 41 H       -4.8690     0.0320    -0.5340 H     1 <1>   0.1500 
 42 H       -4.8650     3.9050     1.2370 H     1 <1>   0.1500 
 43 H       -7.1970     4.1830     0.6640 H     1 <1>   0.1500 
 44 H       -8.6750    -1.4570    -1.1680 H     1 <1>   0.0800 
 45 H       -9.2810     0.1630    -1.4820 H     1 <1>   0.0800 
 46 H       -8.7440    -0.2820     0.1450 H     1 <1>   0.0800 
 47 H      -10.3440     3.5400    -1.0020 H     1 <1>   0.0800 
 48 H       -8.8010     4.3780    -1.1250 H     1 <1>   0.0800 
 49 H       -9.4550     3.9360     0.4640 H     1 <1>   0.0800 
@<TRIPOS>BOND
  1   1   2  ar  
  2   2   3  ar  
  3   2   4  1   
  4   4   5  1   
  5   4   6  1   
  6   4  26  1   
  7   5   7  1   
  8   5   8  1   
  9   5  27  1   
 10   6   9  1   
 11   6  10  1   
 12   6  28  1   
 13   7  11  2   
 14   7  12  am  
 15   8   9  1   
 16   8  13  1   
 17   8  29  1   
 18   9  30  1   
 19   9  31  1   
 20  10  13  1   
 21  10  32  1   
 22  10  33  1   
 23  12  14  1   
 24  12  34  1   
 25  13  35  1   
 26  13  36  1   
 27  14  15  1   
 28  14  37  1   
 29  14  38  1   
 30  15  16  1   
 31  15  39  1   
 32  15  40  1   
 33  16  17  ar  
 34  16  18  ar  
 35  17  19  ar  
 36  17  41  1   
 37  18  20  ar  
 38  18  42  1   
 39  19  21  1   
 40  19  22  ar  
 41  20  22  ar  
 42  20  43  1   
 43  21  23  1   
 44  22  24  1   
 45  23  44  1   
 46  23  45  1   
 47  23  46  1   
 48  24  25  1   
 49  25  47  1   
 50  25  48  1   
 51  25  49  1   
@<TRIPOS>SUBSTRUCTURE
  1 ****  14 GROUP 4 **** **** 0

# MOE 2024.06 (io_trps.svl 2023.06)
