@<TRIPOS>MOLECULE
NONAME
36 37 1 0 0 
SMALL
USER_CHARGES


@<TRIPOS>ATOM
  1 CL       0.1960    -0.7360    -1.1180 Cl    1 <1>  -0.1770 
  2 C       -0.9310     0.4200    -0.4310 C.ar  1 <1>   0.1770 
  3 C       -0.5600     1.6810     0.0680 C.ar  1 <1>   0.0820 
  4 C       -2.2540     0.0080    -0.4120 C.ar  1 <1>  -0.1500 
  5 O        0.6890     2.2240     0.1220 O.3   1 <1>  -0.3630 
  6 C       -1.5560     2.5030     0.5770 C.ar  1 <1>  -0.1500 
  7 C       -3.2350     0.8400     0.1010 C.ar  1 <1>  -0.1500 
  8 C        1.8630     1.5470    -0.2420 C.3   1 <1>   0.1200 
  9 C       -2.8710     2.0800     0.5900 C.ar  1 <1>   0.1770 
 10 C        3.0390     2.4750     0.0570 C.3   1 <1>  -0.1600 
 11 CL      -4.1020     3.1340     1.2370 Cl    1 <1>  -0.1770 
 12 C        4.3540     1.8060    -0.3350 C.3   1 <1>   0.3430 
 13 N        5.5090     2.6570     0.0620 N.4   1 <1>  -0.9590 
 14 C        5.6130     3.9580    -0.6880 C.3   1 <1>   0.3430 
 15 C        6.8170     1.9200     0.0000 C.3   1 <1>   0.3430 
 16 C        6.8610     4.7630    -0.2570 C.3   1 <1>   0.1200 
 17 C        7.9960     2.8210     0.4370 C.3   1 <1>   0.1200 
 18 O        7.5560     4.1100     0.7700 O.3   1 <1>  -0.5600 
 19 H       -2.5140    -0.9610    -0.8000 H     1 <1>   0.1500 
 20 H       -1.3070     3.4730     0.9650 H     1 <1>   0.1500 
 21 H       -4.2670     0.5350     0.1230 H     1 <1>   0.1500 
 22 H        1.8090     1.3230    -1.2940 H     1 <1>   0.0800 
 23 H        1.9270     0.6440     0.3410 H     1 <1>   0.0800 
 24 H        3.0410     2.6930     1.1100 H     1 <1>   0.0800 
 25 H        2.9000     3.3820    -0.5020 H     1 <1>   0.0800 
 26 H        4.3740     1.6270    -1.3990 H     1 <1>   0.0800 
 27 H        4.4220     0.8530     0.1670 H     1 <1>   0.0800 
 28 H        5.4090     2.9300     1.0520 H     1 <1>   0.4500 
 29 H        4.7360     4.5590    -0.5080 H     1 <1>   0.0800 
 30 H        5.6650     3.7720    -1.7480 H     1 <1>   0.0800 
 31 H        6.9970     1.5730    -1.0040 H     1 <1>   0.0800 
 32 H        6.7840     1.0530     0.6410 H     1 <1>   0.0800 
 33 H        6.5700     5.7330     0.1080 H     1 <1>   0.0800 
 34 H        7.5300     4.9060    -1.0890 H     1 <1>   0.0800 
 35 H        8.7290     2.8980    -0.3490 H     1 <1>   0.0800 
 36 H        8.4780     2.4050     1.3050 H     1 <1>   0.0800 
@<TRIPOS>BOND
  1   1   2  1   
  2   2   3  ar  
  3   2   4  ar  
  4   3   5  1   
  5   3   6  ar  
  6   4   7  ar  
  7   4  19  1   
  8   5   8  1   
  9   6   9  ar  
 10   6  20  1   
 11   7   9  ar  
 12   7  21  1   
 13   8  10  1   
 14   8  22  1   
 15   8  23  1   
 16   9  11  1   
 17  10  12  1   
 18  10  24  1   
 19  10  25  1   
 20  12  13  1   
 21  12  26  1   
 22  12  27  1   
 23  13  14  1   
 24  13  15  1   
 25  13  28  1   
 26  14  16  1   
 27  14  29  1   
 28  14  30  1   
 29  15  17  1   
 30  15  31  1   
 31  15  32  1   
 32  16  18  1   
 33  16  33  1   
 34  16  34  1   
 35  17  18  1   
 36  17  35  1   
 37  17  36  1   
@<TRIPOS>SUBSTRUCTURE
  1 ****   8 GROUP 4 **** **** 0

# MOE 2024.06 (io_trps.svl 2023.06)
