@<TRIPOS>MOLECULE
NONAME
43 44 1 0 0 
SMALL
USER_CHARGES


@<TRIPOS>ATOM
  1 O       -0.1840     0.1270    -1.4000 O.2   1 <1>  -0.5700 
  2 C       -0.6690    -0.6220    -0.5770 C.2   1 <1>   0.6900 
  3 N       -1.9740    -0.5400    -0.1920 N.am  1 <1>  -0.5470 
  4 N        0.0740    -1.6010    -0.0100 N.am  1 <1>  -0.7300 
  5 C       -3.0260     0.3330    -0.5080 C.ar  1 <1>   0.1170 
  6 C        1.4930    -1.8660    -0.2930 C.3   1 <1>   0.2200 
  7 C       -4.3630    -0.0580    -0.2760 C.ar  1 <1>   0.0860 
  8 C       -2.7690     1.5960    -1.0390 C.ar  1 <1>  -0.1500 
  9 C        1.6340    -3.3000    -0.8110 C.3   1 <1>  -0.1600 
 10 C        2.3010    -1.6560     0.9910 C.3   1 <1>  -0.1600 
 11 C       -4.7140    -1.3470     0.2940 C.2   1 <1>   0.6340 
 12 C       -5.3750     0.8490    -0.6150 C.ar  1 <1>  -0.1500 
 13 C       -3.7870     2.4670    -1.3610 C.ar  1 <1>  -0.1500 
 14 C        3.1100    -3.6710    -1.0200 C.3   1 <1>  -0.1600 
 15 C        3.7770    -2.0260     0.7830 C.3   1 <1>  -0.1600 
 16 O       -3.9280    -2.0840     0.8640 O.2   1 <1>  -0.5700 
 17 O       -5.9860    -1.7510     0.1920 O.3   1 <1>  -0.4300 
 18 C       -5.1000     2.0910    -1.1500 C.ar  1 <1>  -0.1500 
 19 C        3.9280    -3.4660     0.2660 C.3   1 <1>  -0.0800 
 20 C       -6.4290    -2.9900     0.7130 C.3   1 <1>   0.0400 
 21 C        5.4040    -3.7930     0.0190 C.3   1 <1>  -0.2400 
 22 H       -2.2750    -1.3480     0.3610 H     1 <1>   0.3700 
 23 H       -0.3430    -2.1960     0.7000 H     1 <1>   0.3700 
 24 H        1.8500    -1.1830    -1.0490 H     1 <1>   0.0800 
 25 H       -1.7550     1.9130    -1.2040 H     1 <1>   0.1500 
 26 H        1.1090    -3.3920    -1.7450 H     1 <1>   0.0800 
 27 H        1.1980    -3.9840    -0.1040 H     1 <1>   0.0800 
 28 H        1.8950    -2.2670     1.7770 H     1 <1>   0.0800 
 29 H        2.2310    -0.6240     1.2870 H     1 <1>   0.0800 
 30 H       -6.4060     0.5810    -0.4560 H     1 <1>   0.1500 
 31 H       -3.5610     3.4350    -1.7740 H     1 <1>   0.1500 
 32 H        3.5180    -3.0600    -1.8070 H     1 <1>   0.0800 
 33 H        3.1780    -4.6990    -1.3330 H     1 <1>   0.0800 
 34 H        4.3050    -1.9170     1.7150 H     1 <1>   0.0800 
 35 H        4.2140    -1.3410     0.0750 H     1 <1>   0.0800 
 36 H       -5.8990     2.7670    -1.4020 H     1 <1>   0.1500 
 37 H        3.5550    -4.1400     1.0200 H     1 <1>   0.0800 
 38 H       -7.4800    -3.0900     0.5080 H     1 <1>   0.0800 
 39 H       -6.2540    -3.0040     1.7750 H     1 <1>   0.0800 
 40 H       -5.8810    -3.7840     0.2350 H     1 <1>   0.0800 
 41 H        5.8180    -3.1410    -0.7300 H     1 <1>   0.0800 
 42 H        5.5100    -4.8100    -0.3160 H     1 <1>   0.0800 
 43 H        5.9690    -3.6760     0.9270 H     1 <1>   0.0800 
@<TRIPOS>BOND
  1   1   2  2   
  2   2   3  am  
  3   2   4  am  
  4   3   5  1   
  5   3  22  1   
  6   4   6  1   
  7   4  23  1   
  8   5   7  ar  
  9   5   8  ar  
 10   6   9  1   
 11   6  10  1   
 12   6  24  1   
 13   7  11  1   
 14   7  12  ar  
 15   8  13  ar  
 16   8  25  1   
 17   9  14  1   
 18   9  26  1   
 19   9  27  1   
 20  10  15  1   
 21  10  28  1   
 22  10  29  1   
 23  11  16  2   
 24  11  17  1   
 25  12  18  ar  
 26  12  30  1   
 27  13  18  ar  
 28  13  31  1   
 29  14  19  1   
 30  14  32  1   
 31  14  33  1   
 32  15  19  1   
 33  15  34  1   
 34  15  35  1   
 35  17  20  1   
 36  18  36  1   
 37  19  21  1   
 38  19  37  1   
 39  20  38  1   
 40  20  39  1   
 41  20  40  1   
 42  21  41  1   
 43  21  42  1   
 44  21  43  1   
@<TRIPOS>SUBSTRUCTURE
  1 ****   2 GROUP 4 **** **** 0

# MOE 2024.06 (io_trps.svl 2023.06)
