@<TRIPOS>MOLECULE
NONAME
59 60 1 0 0 
SMALL
USER_CHARGES


@<TRIPOS>ATOM
  1 S        0.4870     1.0510    -0.8380 S.o2  1 <1>   1.4470 
  2 O        0.5000     0.6620    -2.2330 O.2   1 <1>  -0.6500 
  3 O        1.4110     2.0780    -0.4030 O.2   1 <1>  -0.6500 
  4 N        0.7760    -0.3520     0.0890 N.am  1 <1>  -0.8490 
  5 C       -1.1790     1.5810    -0.3460 C.ar  1 <1>  -0.0090 
  6 C        2.2010    -0.5170     0.4120 C.3   1 <1>   0.1960 
  7 C        0.2300    -1.5800    -0.5150 C.3   1 <1>   0.1960 
  8 C       -1.5440     1.6400     0.9940 C.ar  1 <1>  -0.1500 
  9 C       -2.1270     1.9550    -1.2910 C.ar  1 <1>  -0.1500 
 10 C        2.3820    -1.4000     1.6480 C.3   1 <1>  -0.2400 
 11 C       -1.2940    -1.6150    -0.4410 C.3   1 <1>  -0.2400 
 12 C       -2.8100     2.0460     1.3790 C.ar  1 <1>  -0.1500 
 13 C       -3.3950     2.3620    -0.9140 C.ar  1 <1>  -0.1500 
 14 C       -3.7470     2.4100     0.4250 C.ar  1 <1>  -0.1430 
 15 C       -5.1440     2.8590     0.8360 C.3   1 <1>   0.1270 
 16 C       -5.4910     4.2260     0.2580 C.ar  1 <1>  -0.1430 
 17 C       -4.6580     5.3090     0.4800 C.ar  1 <1>  -0.1500 
 18 C       -6.6390     4.4050    -0.4970 C.ar  1 <1>  -0.1500 
 19 C       -4.9700     6.5510    -0.0440 C.ar  1 <1>  -0.1500 
 20 C       -6.9440     5.6510    -1.0190 C.ar  1 <1>  -0.1500 
 21 C       -6.1190     6.7480    -0.8000 C.ar  1 <1>  -0.0090 
 22 S       -6.5190     8.3810    -1.4820 S.o2  1 <1>   1.4470 
 23 O       -5.5270     8.7360    -2.4730 O.2   1 <1>  -0.6500 
 24 O       -7.9220     8.4410    -1.8380 O.2   1 <1>  -0.6500 
 25 N       -6.3170     9.4150    -0.1490 N.am  1 <1>  -0.8490 
 26 C       -7.3910     9.2630     0.8320 C.3   1 <1>   0.1960 
 27 C       -6.1270    10.8100    -0.5550 C.3   1 <1>   0.1960 
 28 C       -6.9020     9.7080     2.2090 C.3   1 <1>  -0.2400 
 29 C       -4.6420    11.1430    -0.4630 C.3   1 <1>  -0.2400 
 30 H        2.6430     0.4340     0.6540 H     1 <1>   0.0800 
 31 H        2.7340    -0.9200    -0.4340 H     1 <1>   0.0800 
 32 H        0.5850    -2.4410     0.0200 H     1 <1>   0.0800 
 33 H        0.5590    -1.6810    -1.5370 H     1 <1>   0.0800 
 34 H       -0.8230     1.3610     1.7440 H     1 <1>   0.1500 
 35 H       -1.8690     1.9280    -2.3360 H     1 <1>   0.1500 
 36 H        1.7650    -1.0380     2.4520 H     1 <1>   0.0800 
 37 H        3.4080    -1.3560     1.9650 H     1 <1>   0.0800 
 38 H        2.1460    -2.4270     1.4470 H     1 <1>   0.0800 
 39 H       -1.6290    -1.3820     0.5540 H     1 <1>   0.0800 
 40 H       -1.6380    -2.6020    -0.6910 H     1 <1>   0.0800 
 41 H       -1.7330    -0.9340    -1.1460 H     1 <1>   0.0800 
 42 H       -3.0570     2.0770     2.4260 H     1 <1>   0.1500 
 43 H       -4.1070     2.6490    -1.6690 H     1 <1>   0.1500 
 44 H       -5.2160     2.9120     1.9080 H     1 <1>   0.0800 
 45 H       -5.8530     2.1230     0.5010 H     1 <1>   0.0800 
 46 H       -3.7570     5.1880     1.0590 H     1 <1>   0.1500 
 47 H       -7.3020     3.5790    -0.6870 H     1 <1>   0.1500 
 48 H       -4.3110     7.3850     0.1340 H     1 <1>   0.1500 
 49 H       -7.8390     5.7740    -1.6060 H     1 <1>   0.1500 
 50 H       -7.6770     8.2260     0.9020 H     1 <1>   0.0800 
 51 H       -8.2610     9.8240     0.5290 H     1 <1>   0.0800 
 52 H       -6.6710    11.4790     0.0890 H     1 <1>   0.0800 
 53 H       -6.4840    10.9700    -1.5610 H     1 <1>   0.0800 
 54 H       -6.0290     9.1450     2.4860 H     1 <1>   0.0800 
 55 H       -7.6700     9.5250     2.9390 H     1 <1>   0.0800 
 56 H       -6.6680    10.7560     2.2220 H     1 <1>   0.0800 
 57 H       -4.2920    10.9960     0.5430 H     1 <1>   0.0800 
 58 H       -4.4830    12.1690    -0.7370 H     1 <1>   0.0800 
 59 H       -4.0750    10.5210    -1.1330 H     1 <1>   0.0800 
@<TRIPOS>BOND
  1   1   2  2   
  2   1   3  2   
  3   1   4  am  
  4   1   5  1   
  5   4   6  1   
  6   4   7  1   
  7   5   8  ar  
  8   5   9  ar  
  9   6  10  1   
 10   6  30  1   
 11   6  31  1   
 12   7  11  1   
 13   7  32  1   
 14   7  33  1   
 15   8  12  ar  
 16   8  34  1   
 17   9  13  ar  
 18   9  35  1   
 19  10  36  1   
 20  10  37  1   
 21  10  38  1   
 22  11  39  1   
 23  11  40  1   
 24  11  41  1   
 25  12  14  ar  
 26  12  42  1   
 27  13  14  ar  
 28  13  43  1   
 29  14  15  1   
 30  15  16  1   
 31  15  44  1   
 32  15  45  1   
 33  16  17  ar  
 34  16  18  ar  
 35  17  19  ar  
 36  17  46  1   
 37  18  20  ar  
 38  18  47  1   
 39  19  21  ar  
 40  19  48  1   
 41  20  21  ar  
 42  20  49  1   
 43  21  22  1   
 44  22  23  2   
 45  22  24  2   
 46  22  25  am  
 47  25  26  1   
 48  25  27  1   
 49  26  28  1   
 50  26  50  1   
 51  26  51  1   
 52  27  29  1   
 53  27  52  1   
 54  27  53  1   
 55  28  54  1   
 56  28  55  1   
 57  28  56  1   
 58  29  57  1   
 59  29  58  1   
 60  29  59  1   
@<TRIPOS>SUBSTRUCTURE
  1 ****  17 GROUP 4 **** **** 0

# MOE 2024.06 (io_trps.svl 2023.06)
