@<TRIPOS>MOLECULE
NONAME
36 37 1 0 0 
SMALL
USER_CHARGES


@<TRIPOS>ATOM
  1 S       -0.0870     0.6180    -1.0270 S.o2  1 <1>   1.4470 
  2 O       -0.8040     1.4960    -1.9260 O.2   1 <1>  -0.6500 
  3 O       -0.0480    -0.8000    -1.3070 O.2   1 <1>  -0.6500 
  4 N       -0.7860     0.8170     0.5050 N.am  1 <1>  -0.8490 
  5 C        1.6140     1.2200    -0.8170 C.ar  1 <1>  -0.0090 
  6 C       -2.0380     0.0450     0.6190 C.3   1 <1>   0.1960 
  7 C       -1.0070     2.2420     0.8240 C.3   1 <1>   0.1960 
  8 C        2.3020     1.0530     0.3750 C.ar  1 <1>  -0.1500 
  9 C        2.2780     1.8530    -1.8580 C.ar  1 <1>  -0.1500 
 10 C       -2.5440    -0.0450     2.0650 C.3   1 <1>   0.0700 
 11 C       -1.3430     2.4620     2.3030 C.3   1 <1>   0.0700 
 12 C        3.6080     1.5060     0.5800 C.ar  1 <1>   0.0860 
 13 C        3.5720     2.3090    -1.7050 C.ar  1 <1>  -0.1500 
 14 S       -2.9000     1.6190     2.6850 S.3   1 <1>  -0.4600 
 15 C        4.2460     2.1460    -0.4970 C.ar  1 <1>   0.0830 
 16 C        4.2190     1.2980     1.8850 C.2   1 <1>   0.5440 
 17 O        5.5140     2.6030    -0.3340 O.3   1 <1>  -0.3630 
 18 O        3.5400     1.1520     2.8790 O.2   1 <1>  -0.5700 
 19 N        5.5550     1.2420     2.0760 N.am  1 <1>  -0.8000 
 20 C        6.2140     3.3160    -1.3330 C.3   1 <1>   0.0400 
 21 H       -1.8730    -0.9630     0.2780 H     1 <1>   0.0800 
 22 H       -2.7990     0.4820    -0.0070 H     1 <1>   0.0800 
 23 H       -1.8000     2.6400     0.2110 H     1 <1>   0.0800 
 24 H       -0.1130     2.8010     0.6050 H     1 <1>   0.0800 
 25 H        1.8050     0.5490     1.1880 H     1 <1>   0.1500 
 26 H        1.7710     1.9900    -2.8000 H     1 <1>   0.1500 
 27 H       -1.8000    -0.4830     2.7070 H     1 <1>   0.0800 
 28 H       -3.4570    -0.6090     2.1250 H     1 <1>   0.0800 
 29 H       -1.4850     3.5050     2.5220 H     1 <1>   0.0800 
 30 H       -0.5800     2.0540     2.9420 H     1 <1>   0.0800 
 31 H        4.0370     2.7900    -2.5450 H     1 <1>   0.1500 
 32 H        5.9230     1.1600     3.0230 H     1 <1>   0.3700 
 33 H        6.1990     1.5400     1.3390 H     1 <1>   0.3700 
 34 H        7.1780     3.5850    -0.9390 H     1 <1>   0.0800 
 35 H        5.6620     4.2050    -1.5810 H     1 <1>   0.0800 
 36 H        6.3370     2.6840    -2.1950 H     1 <1>   0.0800 
@<TRIPOS>BOND
  1   1   2  2   
  2   1   3  2   
  3   1   4  am  
  4   1   5  1   
  5   4   6  1   
  6   4   7  1   
  7   5   8  ar  
  8   5   9  ar  
  9   6  10  1   
 10   6  21  1   
 11   6  22  1   
 12   7  11  1   
 13   7  23  1   
 14   7  24  1   
 15   8  12  ar  
 16   8  25  1   
 17   9  13  ar  
 18   9  26  1   
 19  10  14  1   
 20  10  27  1   
 21  10  28  1   
 22  11  14  1   
 23  11  29  1   
 24  11  30  1   
 25  12  15  ar  
 26  12  16  1   
 27  13  15  ar  
 28  13  31  1   
 29  15  17  1   
 30  16  18  2   
 31  16  19  am  
 32  17  20  1   
 33  19  32  1   
 34  19  33  1   
 35  20  34  1   
 36  20  35  1   
 37  20  36  1   
@<TRIPOS>SUBSTRUCTURE
  1 ****   8 GROUP 4 **** **** 0

# MOE 2024.06 (io_trps.svl 2023.06)
