@<TRIPOS>MOLECULE
NONAME
45 46 1 0 0 
SMALL
USER_CHARGES


@<TRIPOS>ATOM
  1 CL       0.7520    -1.3130     2.8110 Cl    1 <1>  -0.1770 
  2 C        0.8640    -2.0140     1.2130 C.ar  1 <1>   0.1770 
  3 C        1.5970    -1.3870     0.2150 C.ar  1 <1>  -0.1440 
  4 C        0.1900    -3.2020     0.9860 C.ar  1 <1>  -0.1500 
  5 C        1.6180    -1.9920    -1.0350 C.ar  1 <1>   0.1770 
  6 C        2.3420    -0.0870     0.4890 C.3   1 <1>   0.2140 
  7 C        0.2320    -3.7890    -0.2670 C.ar  1 <1>  -0.1500 
  8 CL       2.5040    -1.2710    -2.3580 Cl    1 <1>  -0.1770 
  9 C        0.9490    -3.1780    -1.2820 C.ar  1 <1>  -0.1500 
 10 S        3.9090    -0.4620     1.3290 S.3   1 <1>  -0.4600 
 11 C        4.8140    -1.5340     0.1500 C.3   1 <1>   0.1310 
 12 C        6.1480    -2.0120     0.7170 C.2   1 <1>   0.5690 
 13 O        6.2440    -3.1960     0.9480 O.2   1 <1>  -0.5700 
 14 N        7.2040    -1.1510     0.9210 N.am  1 <1>  -0.6600 
 15 C        8.4890    -1.6380     1.4930 C.3   1 <1>   0.1400 
 16 C        7.1680     0.3160     0.6710 C.3   1 <1>   0.1400 
 17 C        9.6410    -1.2740     0.5540 C.3   1 <1>  -0.1600 
 18 C        8.3080     0.7030    -0.2750 C.3   1 <1>  -0.1600 
 19 C        9.6800     0.2380     0.2590 C.3   1 <1>  -0.0190 
 20 C       10.8330     0.5860    -0.6810 C.2   1 <1>   0.6590 
 21 O       10.6610     0.9540    -1.8160 O.2   1 <1>  -0.5700 
 22 O       12.0480     0.4600    -0.1630 O.3   1 <1>  -0.4300 
 23 C       13.2020     0.7400    -0.9190 C.3   1 <1>   0.1200 
 24 C       14.4200     0.4820    -0.0380 C.3   1 <1>  -0.2400 
 25 H       -0.3630    -3.6590     1.7870 H     1 <1>   0.1500 
 26 H        1.7820     0.5560     1.1450 H     1 <1>   0.0800 
 27 H        2.5800     0.4540    -0.4080 H     1 <1>   0.0800 
 28 H       -0.2880    -4.7150    -0.4500 H     1 <1>   0.1500 
 29 H        0.9910    -3.6190    -2.2620 H     1 <1>   0.1500 
 30 H        4.9640    -0.9770    -0.7550 H     1 <1>   0.0800 
 31 H        4.1890    -2.3840    -0.0470 H     1 <1>   0.0800 
 32 H        8.4670    -2.7060     1.6340 H     1 <1>   0.0800 
 33 H        8.6380    -1.1820     2.4570 H     1 <1>   0.0800 
 34 H        7.2760     0.8320     1.6100 H     1 <1>   0.0800 
 35 H        6.2330     0.6190     0.2350 H     1 <1>   0.0800 
 36 H        9.5270    -1.8230    -0.3650 H     1 <1>   0.0800 
 37 H       10.5690    -1.5810     1.0040 H     1 <1>   0.0800 
 38 H        8.3150     1.7710    -0.4040 H     1 <1>   0.0800 
 39 H        8.1230     0.2600    -1.2390 H     1 <1>   0.0800 
 40 H        9.8670     0.7550     1.1830 H     1 <1>   0.0800 
 41 H       13.1620     1.7700    -1.2340 H     1 <1>   0.0800 
 42 H       13.2070     0.0980    -1.7850 H     1 <1>   0.0800 
 43 H       14.3960     1.1240     0.8250 H     1 <1>   0.0800 
 44 H       15.3180     0.6870    -0.5920 H     1 <1>   0.0800 
 45 H       14.4380    -0.5460     0.2770 H     1 <1>   0.0800 
@<TRIPOS>BOND
  1   1   2  1   
  2   2   3  ar  
  3   2   4  ar  
  4   3   5  ar  
  5   3   6  1   
  6   4   7  ar  
  7   4  25  1   
  8   5   8  1   
  9   5   9  ar  
 10   6  10  1   
 11   6  26  1   
 12   6  27  1   
 13   7   9  ar  
 14   7  28  1   
 15   9  29  1   
 16  10  11  1   
 17  11  12  1   
 18  11  30  1   
 19  11  31  1   
 20  12  13  2   
 21  12  14  am  
 22  14  15  1   
 23  14  16  1   
 24  15  17  1   
 25  15  32  1   
 26  15  33  1   
 27  16  18  1   
 28  16  34  1   
 29  16  35  1   
 30  17  19  1   
 31  17  36  1   
 32  17  37  1   
 33  18  19  1   
 34  18  38  1   
 35  18  39  1   
 36  19  20  1   
 37  19  40  1   
 38  20  21  2   
 39  20  22  1   
 40  22  23  1   
 41  23  24  1   
 42  23  41  1   
 43  23  42  1   
 44  24  43  1   
 45  24  44  1   
 46  24  45  1   
@<TRIPOS>SUBSTRUCTURE
  1 ****  12 GROUP 4 **** **** 0

# MOE 2024.06 (io_trps.svl 2023.06)
