@<TRIPOS>MOLECULE
NONAME
30 31 1 0 0 
SMALL
USER_CHARGES


@<TRIPOS>ATOM
  1 O        0.1350    -0.2560     0.1160 O.3   1 <1>  -0.5600 
  2 C        0.4060    -1.5740    -0.2680 C.3   1 <1>   0.1200 
  3 C        1.1980     0.6210    -0.1330 C.3   1 <1>   0.1200 
  4 C        1.6020    -2.1370     0.5190 C.3   1 <1>   0.2090 
  5 C        2.4720     0.2050     0.6270 C.3   1 <1>   0.2090 
  6 N        2.8010    -1.2460     0.4090 N.pl3 1 <1>  -0.8380 
  7 C        4.0600    -1.7960     0.1800 C.2   1 <1>  -0.0500 
  8 C        5.3140    -1.2790     0.3170 C.2   1 <1>   0.0370 
  9 C        5.5970     0.0420     0.7900 C.1   1 <1>   0.4920 
 10 C        6.4780    -2.0710     0.0050 C.ar  1 <1>   0.0280 
 11 N        5.8230     1.1030     1.1450 N.1   1 <1>  -0.5570 
 12 C        6.6300    -3.3570     0.5260 C.ar  1 <1>  -0.1500 
 13 C        7.4930    -1.5890    -0.8250 C.ar  1 <1>  -0.1500 
 14 C        7.7390    -4.1280     0.2310 C.ar  1 <1>  -0.1500 
 15 C        8.6040    -2.3560    -1.1220 C.ar  1 <1>  -0.1500 
 16 C        8.7290    -3.6290    -0.5950 C.ar  1 <1>  -0.1500 
 17 H       -0.4740    -2.1600    -0.0730 H     1 <1>   0.0800 
 18 H        0.6090    -1.5920    -1.3240 H     1 <1>   0.0800 
 19 H        1.3870     0.6350    -1.1920 H     1 <1>   0.0800 
 20 H        0.8910     1.6040     0.1740 H     1 <1>   0.0800 
 21 H        1.8360    -3.1200     0.1510 H     1 <1>   0.0800 
 22 H        1.3260    -2.2270     1.5550 H     1 <1>   0.0800 
 23 H        2.3350     0.3840     1.6790 H     1 <1>   0.0800 
 24 H        3.2670     0.8330     0.2790 H     1 <1>   0.0800 
 25 H        4.0140    -2.8190    -0.1580 H     1 <1>   0.1500 
 26 H        5.8710    -3.7560     1.1760 H     1 <1>   0.1500 
 27 H        7.4120    -0.6030    -1.2480 H     1 <1>   0.1500 
 28 H        7.8340    -5.1170     0.6440 H     1 <1>   0.1500 
 29 H        9.3740    -1.9640    -1.7640 H     1 <1>   0.1500 
 30 H        9.5940    -4.2270    -0.8260 H     1 <1>   0.1500 
@<TRIPOS>BOND
  1   1   2  1   
  2   1   3  1   
  3   2   4  1   
  4   2  17  1   
  5   2  18  1   
  6   3   5  1   
  7   3  19  1   
  8   3  20  1   
  9   4   6  1   
 10   4  21  1   
 11   4  22  1   
 12   5   6  1   
 13   5  23  1   
 14   5  24  1   
 15   6   7  1   
 16   7   8  2   
 17   7  25  1   
 18   8   9  1   
 19   8  10  1   
 20   9  11  3   
 21  10  12  ar  
 22  10  13  ar  
 23  12  14  ar  
 24  12  26  1   
 25  13  15  ar  
 26  13  27  1   
 27  14  16  ar  
 28  14  28  1   
 29  15  16  ar  
 30  15  29  1   
 31  16  30  1   
@<TRIPOS>SUBSTRUCTURE
  1 ****   8 GROUP 4 **** **** 0

# MOE 2024.06 (io_trps.svl 2023.06)
