@<TRIPOS>MOLECULE
NONAME
49 50 1 0 0 
SMALL
USER_CHARGES


@<TRIPOS>ATOM
  1 S       -0.0840     0.0070     0.2010 S.o2  1 <1>   1.3330 
  2 O        0.2900    -1.2350     0.8390 O.2   1 <1>  -0.6500 
  3 O       -1.0010     0.9080     0.8610 O.2   1 <1>  -0.6500 
  4 N        1.3400     0.8530    -0.1560 N.am  1 <1>  -0.8490 
  5 C       -0.7400    -0.3400    -1.4160 C.3   1 <1>  -0.1350 
  6 C        2.4670    -0.0450    -0.4310 C.3   1 <1>   0.1960 
  7 C        1.6680     1.8320     0.8860 C.3   1 <1>   0.1960 
  8 C        3.6810     0.7520    -0.9100 C.3   1 <1>  -0.1600 
  9 C        2.8710     2.6820     0.4650 C.3   1 <1>  -0.1600 
 10 C        4.0910     1.8100     0.1290 C.3   1 <1>  -0.0190 
 11 C        5.2690     2.6590    -0.3500 C.2   1 <1>   0.5690 
 12 O        5.2010     3.1930    -1.4290 O.2   1 <1>  -0.5700 
 13 N        6.3440     2.7770     0.4900 N.am  1 <1>  -0.5470 
 14 C        7.5670     3.4540     0.3480 C.ar  1 <1>   0.1170 
 15 C        8.0780     3.8660    -0.8780 C.ar  1 <1>  -0.1500 
 16 C        8.3170     3.7110     1.4900 C.ar  1 <1>  -0.1500 
 17 C        9.2950     4.5200    -0.9580 C.ar  1 <1>  -0.1500 
 18 C        9.5350     4.3630     1.4130 C.ar  1 <1>  -0.1500 
 19 C       10.0320     4.7750     0.1870 C.ar  1 <1>  -0.1440 
 20 C       11.3690     5.4930     0.0980 C.3   1 <1>  -0.0170 
 21 C       12.5100     4.4850    -0.0830 C.3   1 <1>  -0.1600 
 22 C       13.8710     5.1860    -0.1770 C.3   1 <1>  -0.1600 
 23 C       15.0020     4.1700    -0.3570 C.3   1 <1>  -0.2400 
 24 H       -0.0560    -0.9440    -1.9770 H     1 <1>   0.0800 
 25 H       -0.9080     0.5770    -1.9470 H     1 <1>   0.0800 
 26 H       -1.6720    -0.8630    -1.3290 H     1 <1>   0.0800 
 27 H        2.1900    -0.7530    -1.1940 H     1 <1>   0.0800 
 28 H        2.7210    -0.5980     0.4600 H     1 <1>   0.0800 
 29 H        1.8730     1.3220     1.8130 H     1 <1>   0.0800 
 30 H        0.8300     2.4910     1.0450 H     1 <1>   0.0800 
 31 H        3.4370     1.2280    -1.8440 H     1 <1>   0.0800 
 32 H        4.5030     0.0820    -1.0890 H     1 <1>   0.0800 
 33 H        3.1170     3.3660     1.2580 H     1 <1>   0.0800 
 34 H        2.5950     3.2670    -0.3960 H     1 <1>   0.0800 
 35 H        4.3870     1.2920     1.0230 H     1 <1>   0.0800 
 36 H        6.2310     2.3250     1.3930 H     1 <1>   0.3700 
 37 H        7.5320     3.6790    -1.7830 H     1 <1>   0.1500 
 38 H        7.9500     3.4040     2.4510 H     1 <1>   0.1500 
 39 H        9.6660     4.8290    -1.9190 H     1 <1>   0.1500 
 40 H       10.0970     4.5510     2.3110 H     1 <1>   0.1500 
 41 H       11.5280     6.0680     0.9930 H     1 <1>   0.0800 
 42 H       11.3530     6.1780    -0.7320 H     1 <1>   0.0800 
 43 H       12.3360     3.9130    -0.9780 H     1 <1>   0.0800 
 44 H       12.5120     3.8030     0.7500 H     1 <1>   0.0800 
 45 H       14.0480     5.7570     0.7190 H     1 <1>   0.0800 
 46 H       13.8710     5.8670    -1.0120 H     1 <1>   0.0800 
 47 H       15.0350     3.4920     0.4770 H     1 <1>   0.0800 
 48 H       15.9470     4.6780    -0.4220 H     1 <1>   0.0800 
 49 H       14.8560     3.6020    -1.2590 H     1 <1>   0.0800 
@<TRIPOS>BOND
  1   1   2  2   
  2   1   3  2   
  3   1   4  am  
  4   1   5  1   
  5   4   6  1   
  6   4   7  1   
  7   5  24  1   
  8   5  25  1   
  9   5  26  1   
 10   6   8  1   
 11   6  27  1   
 12   6  28  1   
 13   7   9  1   
 14   7  29  1   
 15   7  30  1   
 16   8  10  1   
 17   8  31  1   
 18   8  32  1   
 19   9  10  1   
 20   9  33  1   
 21   9  34  1   
 22  10  11  1   
 23  10  35  1   
 24  11  12  2   
 25  11  13  am  
 26  13  14  1   
 27  13  36  1   
 28  14  15  ar  
 29  14  16  ar  
 30  15  17  ar  
 31  15  37  1   
 32  16  18  ar  
 33  16  38  1   
 34  17  19  ar  
 35  17  39  1   
 36  18  19  ar  
 37  18  40  1   
 38  19  20  1   
 39  20  21  1   
 40  20  41  1   
 41  20  42  1   
 42  21  22  1   
 43  21  43  1   
 44  21  44  1   
 45  22  23  1   
 46  22  45  1   
 47  22  46  1   
 48  23  47  1   
 49  23  48  1   
 50  23  49  1   
@<TRIPOS>SUBSTRUCTURE
  1 ****  13 GROUP 4 **** **** 0

# MOE 2024.06 (io_trps.svl 2023.06)
