@<TRIPOS>MOLECULE
NONAME
54 56 1 0 0 
SMALL
USER_CHARGES


@<TRIPOS>ATOM
  1 O       -0.6300     0.0820    -0.9560 O.3   1 <1>  -0.3630 
  2 C       -1.7530    -0.6060    -0.6200 C.ar  1 <1>   0.0820 
  3 C       -0.0810     0.0320    -2.2540 C.3   1 <1>   0.0400 
  4 C       -2.1510    -0.5770     0.7110 C.ar  1 <1>  -0.1440 
  5 C       -2.5040    -1.3280    -1.5430 C.ar  1 <1>  -0.1500 
  6 C       -3.2900    -1.2590     1.0970 C.ar  1 <1>  -0.1500 
  7 C       -1.3370     0.1950     1.7420 C.3   1 <1>  -0.0960 
  8 C       -3.6450    -2.0130    -1.1580 C.ar  1 <1>  -0.1430 
  9 C       -4.0470    -1.9670     0.1740 C.ar  1 <1>  -0.1430 
 10 C       -4.4090    -2.7980    -2.2180 C.3   1 <1>  -0.0970 
 11 C       -5.3050    -2.6630     0.6590 C.3   1 <1>   0.4860 
 12 N       -6.4770    -1.8370     0.2680 N.4   1 <1>  -0.9590 
 13 C       -6.4550    -0.4780     0.9280 C.3   1 <1>   0.3430 
 14 C       -7.7830    -2.5410     0.5260 C.3   1 <1>   0.3430 
 15 C       -7.6650     0.3890     0.5270 C.3   1 <1>   0.2090 
 16 C       -9.0000    -1.6870     0.1170 C.3   1 <1>   0.2090 
 17 N       -8.9490    -0.3400     0.7560 N.pl3 1 <1>  -0.8380 
 18 C      -10.0980     0.4390     0.5580 C.ar  1 <1>   0.1000 
 19 C      -10.5030     0.9410    -0.6930 C.ar  1 <1>   0.0820 
 20 C      -10.8730     0.7210     1.6740 C.ar  1 <1>  -0.1500 
 21 O       -9.7300     0.6580    -1.7900 O.3   1 <1>  -0.3620 
 22 C      -11.6640     1.7040    -0.7830 C.ar  1 <1>  -0.1500 
 23 C      -12.0240     1.4810     1.5750 C.ar  1 <1>  -0.1500 
 24 C      -10.0580     1.1680    -3.0650 C.3   1 <1>   0.0400 
 25 C      -12.4200     1.9720     0.3460 C.ar  1 <1>  -0.1500 
 26 H        0.8200     0.6190    -2.2570 H     1 <1>   0.0800 
 27 H       -0.7880     0.4460    -2.9500 H     1 <1>   0.0800 
 28 H        0.1500    -0.9900    -2.4970 H     1 <1>   0.0800 
 29 H       -2.2000    -1.3610    -2.5720 H     1 <1>   0.1500 
 30 H       -3.5820    -1.2330     2.1330 H     1 <1>   0.1500 
 31 H       -0.3350    -0.1940     1.7770 H     1 <1>   0.0800 
 32 H       -1.7670     0.1180     2.7240 H     1 <1>   0.0800 
 33 H       -1.2900     1.2330     1.4660 H     1 <1>   0.0800 
 34 H       -3.8100    -2.9170    -3.1040 H     1 <1>   0.0800 
 35 H       -5.3090    -2.2810    -2.4960 H     1 <1>   0.0800 
 36 H       -4.6540    -3.7830    -1.8640 H     1 <1>   0.0800 
 37 H       -5.2720    -2.7800     1.7300 H     1 <1>   0.0800 
 38 H       -5.3690    -3.6400     0.2110 H     1 <1>   0.0800 
 39 H       -6.3900    -1.6630    -0.7400 H     1 <1>   0.4500 
 40 H       -5.5510     0.0460     0.6620 H     1 <1>   0.0800 
 41 H       -6.4680    -0.5950     1.9980 H     1 <1>   0.0800 
 42 H       -7.8730    -2.7630     1.5760 H     1 <1>   0.0800 
 43 H       -7.8140    -3.4720    -0.0150 H     1 <1>   0.0800 
 44 H       -7.5790     0.6690    -0.5080 H     1 <1>   0.0800 
 45 H       -7.6650     1.2930     1.1110 H     1 <1>   0.0800 
 46 H       -9.9060    -2.1840     0.4220 H     1 <1>   0.0800 
 47 H       -9.0270    -1.5860    -0.9540 H     1 <1>   0.0800 
 48 H      -10.5660     0.3390     2.6300 H     1 <1>   0.1500 
 49 H      -12.0060     2.1040    -1.7180 H     1 <1>   0.1500 
 50 H      -12.6110     1.6880     2.4530 H     1 <1>   0.1500 
 51 H       -9.3110     0.8370    -3.7630 H     1 <1>   0.0800 
 52 H      -10.0650     2.2430    -3.0210 H     1 <1>   0.0800 
 53 H      -11.0220     0.7880    -3.3560 H     1 <1>   0.0800 
 54 H      -13.3160     2.5630     0.2670 H     1 <1>   0.1500 
@<TRIPOS>BOND
  1   1   2  1   
  2   1   3  1   
  3   2   4  ar  
  4   2   5  ar  
  5   3  26  1   
  6   3  27  1   
  7   3  28  1   
  8   4   6  ar  
  9   4   7  1   
 10   5   8  ar  
 11   5  29  1   
 12   6   9  ar  
 13   6  30  1   
 14   7  31  1   
 15   7  32  1   
 16   7  33  1   
 17   8   9  ar  
 18   8  10  1   
 19   9  11  1   
 20  10  34  1   
 21  10  35  1   
 22  10  36  1   
 23  11  12  1   
 24  11  37  1   
 25  11  38  1   
 26  12  13  1   
 27  12  14  1   
 28  12  39  1   
 29  13  15  1   
 30  13  40  1   
 31  13  41  1   
 32  14  16  1   
 33  14  42  1   
 34  14  43  1   
 35  15  17  1   
 36  15  44  1   
 37  15  45  1   
 38  16  17  1   
 39  16  46  1   
 40  16  47  1   
 41  17  18  1   
 42  18  19  ar  
 43  18  20  ar  
 44  19  21  1   
 45  19  22  ar  
 46  20  23  ar  
 47  20  48  1   
 48  21  24  1   
 49  22  25  ar  
 50  22  49  1   
 51  23  25  ar  
 52  23  50  1   
 53  24  51  1   
 54  24  52  1   
 55  24  53  1   
 56  25  54  1   
@<TRIPOS>SUBSTRUCTURE
  1 ****  13 GROUP 4 **** **** 0

# MOE 2024.06 (io_trps.svl 2023.06)
