@<TRIPOS>MOLECULE
NONAME
41 44 1 0 0 
SMALL
USER_CHARGES


@<TRIPOS>ATOM
  1 O        0.0200     0.7790    -1.4250 O.2   1 <1>  -0.5700 
  2 C        0.2330     1.6750    -0.6500 C.2   1 <1>   0.5690 
  3 N        1.4360     2.0450    -0.0640 N.am  1 <1>  -0.2370 
  4 C       -0.8240     2.5840    -0.1030 C.3   1 <1>  -0.0190 
  5 C        2.6240     1.2750    -0.0520 C.ar  1 <1>   0.1170 
  6 C        1.2720     3.2950     0.5140 C.2   1 <1>   0.5690 
  7 C       -2.2010     3.1780    -0.4590 C.3   1 <1>   0.4180 
  8 C        0.0020     3.8610    -0.0340 C.3   1 <1>  -0.0190 
  9 C        2.5770    -0.1130     0.0480 C.ar  1 <1>  -0.1500 
 10 C        3.8730     1.8860    -0.1390 C.ar  1 <1>  -0.1500 
 11 O        1.9950     3.8720     1.2830 O.2   1 <1>  -0.5700 
 12 O       -1.8830     4.4720    -0.8560 O.3   1 <1>  -0.5600 
 13 C       -2.8000     3.5470     0.8810 C.2   1 <1>  -0.2880 
 14 C       -3.0920     2.4820    -1.4740 C.3   1 <1>  -0.2400 
 15 C       -1.0910     4.8950     0.2080 C.3   1 <1>   0.4180 
 16 C        3.7350    -0.8680     0.0630 C.ar  1 <1>  -0.1500 
 17 C        5.0340     1.1360    -0.1230 C.ar  1 <1>  -0.1500 
 18 C       -2.0700     4.5700     1.3210 C.2   1 <1>  -0.2880 
 19 C       -0.7350     6.3650     0.0390 C.3   1 <1>  -0.2400 
 20 C        4.9740    -0.2440    -0.0160 C.ar  1 <1>   0.0830 
 21 O        6.1530    -0.9230    -0.0150 O.3   1 <1>  -0.2330 
 22 C        6.4380    -2.0750     0.5890 C.2   1 <1>   0.6590 
 23 O        5.6760    -2.6740     1.3000 O.2   1 <1>  -0.5700 
 24 C        7.8250    -2.6060     0.3270 C.3   1 <1>  -0.1790 
 25 H       -0.9520     2.1680     0.8840 H     1 <1>   0.0800 
 26 H        0.3310     4.1230    -1.0300 H     1 <1>   0.0800 
 27 H        1.6280    -0.6160     0.1110 H     1 <1>   0.1500 
 28 H        3.9440     2.9570    -0.2160 H     1 <1>   0.1500 
 29 H       -3.6200     2.9950     1.3060 H     1 <1>   0.1500 
 30 H       -2.5690     2.3710    -2.4060 H     1 <1>   0.0800 
 31 H       -3.9870     3.0560    -1.6290 H     1 <1>   0.0800 
 32 H       -3.3620     1.5070    -1.1140 H     1 <1>   0.0800 
 33 H        3.6620    -1.9390     0.1310 H     1 <1>   0.1500 
 34 H        5.9910     1.6210    -0.1900 H     1 <1>   0.1500 
 35 H       -2.0860     5.1390     2.2340 H     1 <1>   0.1500 
 36 H       -0.0960     6.6750     0.8460 H     1 <1>   0.0800 
 37 H       -1.6300     6.9600     0.0600 H     1 <1>   0.0800 
 38 H       -0.2220     6.5250    -0.8910 H     1 <1>   0.0800 
 39 H        8.5530    -1.8960     0.6700 H     1 <1>   0.0800 
 40 H        7.9540    -2.7720    -0.7260 H     1 <1>   0.0800 
 41 H        7.9640    -3.5340     0.8500 H     1 <1>   0.0800 
@<TRIPOS>BOND
  1   1   2  2   
  2   2   3  am  
  3   2   4  1   
  4   3   5  1   
  5   3   6  am  
  6   4   7  1   
  7   4   8  1   
  8   4  25  1   
  9   5   9  ar  
 10   5  10  ar  
 11   6   8  1   
 12   6  11  2   
 13   7  12  1   
 14   7  13  1   
 15   7  14  1   
 16   8  15  1   
 17   8  26  1   
 18   9  16  ar  
 19   9  27  1   
 20  10  17  ar  
 21  10  28  1   
 22  12  15  1   
 23  13  18  2   
 24  13  29  1   
 25  14  30  1   
 26  14  31  1   
 27  14  32  1   
 28  15  18  1   
 29  15  19  1   
 30  16  20  ar  
 31  16  33  1   
 32  17  20  ar  
 33  17  34  1   
 34  18  35  1   
 35  19  36  1   
 36  19  37  1   
 37  19  38  1   
 38  20  21  1   
 39  21  22  1   
 40  22  23  2   
 41  22  24  1   
 42  24  39  1   
 43  24  40  1   
 44  24  41  1   
@<TRIPOS>SUBSTRUCTURE
  1 ****   3 GROUP 4 **** **** 0

# MOE 2024.06 (io_trps.svl 2023.06)
