@<TRIPOS>MOLECULE
NONAME
40 41 1 0 0 
SMALL
USER_CHARGES


@<TRIPOS>ATOM
  1 CL       0.2600    -0.4780     0.5130 Cl    1 <1>  -0.1770 
  2 C        1.9900    -0.3050     0.3910 C.ar  1 <1>   0.1770 
  3 C        2.5400     0.9540     0.2510 C.ar  1 <1>  -0.1500 
  4 C        2.7940    -1.4260     0.4350 C.ar  1 <1>  -0.1500 
  5 C        3.9140     1.0900     0.1540 C.ar  1 <1>  -0.1500 
  6 C        4.1660    -1.2790     0.3370 C.ar  1 <1>  -0.1500 
  7 C        4.7660    -0.0230     0.1930 C.ar  1 <1>   0.0860 
  8 C        6.2060     0.0890     0.0910 C.2   1 <1>   0.3030 
  9 N        7.0390    -0.8680     0.1740 N.2   1 <1>  -0.5120 
 10 C        6.8780     1.4240    -0.1440 C.3   1 <1>  -0.0990 
 11 N        8.3300    -0.4040     0.0410 N.am  1 <1>  -0.2980 
 12 C        8.3640     1.0500    -0.2450 C.3   1 <1>   0.5800 
 13 C        9.4940    -1.1330     0.2130 C.2   1 <1>   0.7800 
 14 O        9.0180     1.6560     0.8370 O.3   1 <1>  -0.6800 
 15 C        8.9740     1.4210    -1.6620 C.3   1 <1>   1.0200 
 16 O       10.5680    -0.5810     0.3680 O.2   1 <1>  -0.5700 
 17 O        9.3940    -2.4640     0.2150 O.3   1 <1>  -0.4300 
 18 F        8.4120     0.7390    -2.6580 F     1 <1>  -0.3400 
 19 F        8.7890     2.7050    -1.9690 F     1 <1>  -0.3400 
 20 F       10.2820     1.2160    -1.7750 F     1 <1>  -0.3400 
 21 C       10.4300    -3.4070     0.3750 C.3   1 <1>   0.2800 
 22 C       11.4440    -3.2770    -0.7680 C.3   1 <1>  -0.2400 
 23 C       11.0790    -3.2510     1.7550 C.3   1 <1>  -0.2400 
 24 C        9.7440    -4.7710     0.2890 C.3   1 <1>  -0.2400 
 25 H        1.8940     1.8140     0.2210 H     1 <1>   0.1500 
 26 H        2.3480    -2.3990     0.5460 H     1 <1>   0.1500 
 27 H        4.3170     2.0810     0.0500 H     1 <1>   0.1500 
 28 H        4.7890    -2.1570     0.3730 H     1 <1>   0.1500 
 29 H        6.6930     2.0950     0.6760 H     1 <1>   0.0800 
 30 H        6.5110     1.8580    -1.0560 H     1 <1>   0.0800 
 31 H        9.8760     1.1860     0.9610 H     1 <1>   0.4000 
 32 H       11.9940    -2.3570    -0.6980 H     1 <1>   0.0800 
 33 H       10.9430    -3.3190    -1.7180 H     1 <1>   0.0800 
 34 H       12.1530    -4.0830    -0.7210 H     1 <1>   0.0800 
 35 H       11.7680    -4.0580     1.9280 H     1 <1>   0.0800 
 36 H       10.3290    -3.2730     2.5250 H     1 <1>   0.0800 
 37 H       11.6320    -2.3330     1.8240 H     1 <1>   0.0800 
 38 H       10.4640    -5.5610     0.4020 H     1 <1>   0.0800 
 39 H        9.2600    -4.8850    -0.6640 H     1 <1>   0.0800 
 40 H        9.0090    -4.8660     1.0680 H     1 <1>   0.0800 
@<TRIPOS>BOND
  1   1   2  1   
  2   2   3  ar  
  3   2   4  ar  
  4   3   5  ar  
  5   3  25  1   
  6   4   6  ar  
  7   4  26  1   
  8   5   7  ar  
  9   5  27  1   
 10   6   7  ar  
 11   6  28  1   
 12   7   8  1   
 13   8   9  2   
 14   8  10  1   
 15   9  11  1   
 16  10  12  1   
 17  10  29  1   
 18  10  30  1   
 19  11  12  1   
 20  11  13  am  
 21  12  14  1   
 22  12  15  1   
 23  13  16  2   
 24  13  17  1   
 25  14  31  1   
 26  15  18  1   
 27  15  19  1   
 28  15  20  1   
 29  17  21  1   
 30  21  22  1   
 31  21  23  1   
 32  21  24  1   
 33  22  32  1   
 34  22  33  1   
 35  22  34  1   
 36  23  35  1   
 37  23  36  1   
 38  23  37  1   
 39  24  38  1   
 40  24  39  1   
 41  24  40  1   
@<TRIPOS>SUBSTRUCTURE
  1 ****   9 GROUP 4 **** **** 0

# MOE 2024.06 (io_trps.svl 2023.06)
