@<TRIPOS>MOLECULE
NONAME
48 50 1 0 0 
SMALL
USER_CHARGES


@<TRIPOS>ATOM
  1 O        0.0970     1.9230    -1.5070 O.co2 1 <1>  -0.9000 
  2 C       -1.1370     1.8230    -1.4700 C.2   1 <1>   0.9060 
  3 O       -1.7760     1.4680    -2.4710 O.co2 1 <1>  -0.9000 
  4 C       -1.8840     2.1540    -0.1480 C.3   1 <1>  -0.1060 
  5 C       -1.9080     3.6830     0.1850 C.3   1 <1>   0.0000 
  6 C       -3.3910     1.8040    -0.2060 C.3   1 <1>  -0.1600 
  7 C       -1.2680     1.2980     0.9960 C.3   1 <1>  -0.2400 
  8 C       -3.1000     3.8180     1.1730 C.3   1 <1>  -0.0190 
  9 C       -0.6100     4.2060     0.8340 C.3   1 <1>  -0.2400 
 10 C       -2.1230     4.5190    -1.1010 C.3   1 <1>  -0.2400 
 11 C       -4.0910     2.6870     0.8290 C.3   1 <1>  -0.1600 
 12 C       -3.7420     5.1990     1.3080 C.2   1 <1>   0.5690 
 13 O       -3.4720     5.8810     2.2760 O.2   1 <1>  -0.5700 
 14 N       -4.6040     5.6350     0.3490 N.am  1 <1>  -0.4300 
 15 N       -5.4570     6.8250     0.4480 N.am  1 <1>  -0.4300 
 16 C       -6.7600     6.8300     0.8310 C.2   1 <1>   0.6300 
 17 O       -7.4140     5.8170     0.9530 O.2   1 <1>  -0.5700 
 18 C       -7.4230     8.1700     1.1080 C.3   1 <1>  -0.1000 
 19 C       -8.4770     8.6850     0.1840 C.3   1 <1>  -0.1520 
 20 C       -7.1630     9.3940     0.2530 C.3   1 <1>  -0.2000 
 21 C       -9.0360     8.1710    -1.1630 C.3   1 <1>   0.0760 
 22 C       -9.7980     9.4590     0.3970 C.3   1 <1>   0.0760 
 23 C       -9.9560     9.4240    -1.1500 C.3   1 <1>   0.0000 
 24 H       -3.5720     0.7560    -0.0420 H     1 <1>   0.0800 
 25 H       -3.7820     2.0480    -1.1790 H     1 <1>   0.0800 
 26 H       -1.7390     1.4790     1.9430 H     1 <1>   0.0800 
 27 H       -1.3680     0.2550     0.7560 H     1 <1>   0.0800 
 28 H       -0.2150     1.5000     1.0850 H     1 <1>   0.0800 
 29 H       -2.7220     3.5820     2.1520 H     1 <1>   0.0800 
 30 H       -0.6720     5.2670     1.0010 H     1 <1>   0.0800 
 31 H       -0.4210     3.7350     1.7810 H     1 <1>   0.0800 
 32 H        0.2270     4.0090     0.1870 H     1 <1>   0.0800 
 33 H       -1.2890     4.3930    -1.7710 H     1 <1>   0.0800 
 34 H       -3.0070     4.2130    -1.6280 H     1 <1>   0.0800 
 35 H       -2.1860     5.5690    -0.8820 H     1 <1>   0.0800 
 36 H       -4.3030     2.1150     1.7160 H     1 <1>   0.0800 
 37 H       -5.0230     3.0470     0.4330 H     1 <1>   0.0800 
 38 H       -4.7450     5.0340    -0.4700 H     1 <1>   0.3700 
 39 H       -4.9690     7.7220     0.3860 H     1 <1>   0.3700 
 40 H       -7.5950     8.3100     2.1590 H     1 <1>   0.1000 
 41 H       -6.5080     9.3270    -0.5990 H     1 <1>   0.1000 
 42 H       -7.1100    10.3520     0.7400 H     1 <1>   0.1000 
 43 H       -9.5860     7.2520    -1.0550 H     1 <1>   0.0000 
 44 H       -8.3180     8.1540    -1.9650 H     1 <1>   0.0000 
 45 H       -9.6750    10.4440     0.8100 H     1 <1>   0.0000 
 46 H      -10.5430     8.8670     0.9020 H     1 <1>   0.0000 
 47 H      -10.9610     9.2290    -1.4800 H     1 <1>   0.0000 
 48 H       -9.5040    10.2750    -1.6310 H     1 <1>   0.0000 
@<TRIPOS>BOND
  1   1   2  ar  
  2   2   3  ar  
  3   2   4  1   
  4   4   5  1   
  5   4   6  1   
  6   4   7  1   
  7   5   8  1   
  8   5   9  1   
  9   5  10  1   
 10   6  11  1   
 11   6  24  1   
 12   6  25  1   
 13   7  26  1   
 14   7  27  1   
 15   7  28  1   
 16   8  11  1   
 17   8  12  1   
 18   8  29  1   
 19   9  30  1   
 20   9  31  1   
 21   9  32  1   
 22  10  33  1   
 23  10  34  1   
 24  10  35  1   
 25  11  36  1   
 26  11  37  1   
 27  12  13  2   
 28  12  14  am  
 29  14  15  1   
 30  14  38  1   
 31  15  16  am  
 32  15  39  1   
 33  16  17  2   
 34  16  18  1   
 35  18  19  1   
 36  18  20  1   
 37  18  40  1   
 38  19  20  1   
 39  19  21  1   
 40  19  22  1   
 41  20  41  1   
 42  20  42  1   
 43  21  23  1   
 44  21  43  1   
 45  21  44  1   
 46  22  23  1   
 47  22  45  1   
 48  22  46  1   
 49  23  47  1   
 50  23  48  1   
@<TRIPOS>SUBSTRUCTURE
  1 ****  14 GROUP 4 **** **** 0

# MOE 2024.06 (io_trps.svl 2023.06)
