@<TRIPOS>MOLECULE
NONAME
47 47 1 0 0 
SMALL
USER_CHARGES


@<TRIPOS>ATOM
  1 O       -0.1840     0.5330     0.0660 O.2   1 <1>  -0.5700 
  2 C       -0.0320     1.6820    -0.3210 C.2   1 <1>   0.5440 
  3 N       -1.1020     2.3430    -0.8530 N.am  1 <1>  -0.4300 
  4 C        1.2650     2.3260    -0.2490 C.ar  1 <1>   0.0860 
  5 N       -2.5010     1.9420    -0.6800 N.am  1 <1>  -0.4300 
  6 C        2.4390     1.6060    -0.4470 C.ar  1 <1>  -0.1500 
  7 C        1.3970     3.6880     0.0170 C.ar  1 <1>  -0.1500 
  8 C       -3.3520     2.4770     0.2360 C.2   1 <1>   0.5690 
  9 C        3.6780     2.2170    -0.4020 C.ar  1 <1>  -0.1500 
 10 C        2.6360     4.3010     0.0630 C.ar  1 <1>  -0.1500 
 11 O       -3.0980     3.5080     0.8220 O.2   1 <1>  -0.5700 
 12 C       -4.6740     1.7640     0.5270 C.3   1 <1>  -0.0190 
 13 C        3.8060     3.5780    -0.1490 C.ar  1 <1>  -0.1430 
 14 C       -4.3810     0.4190     1.2350 C.3   1 <1>  -0.1600 
 15 C       -5.5190     1.6200    -0.7640 C.3   1 <1>  -0.1600 
 16 C        5.2130     4.2160    -0.1090 C.3   1 <1>   0.1440 
 17 C       -5.6230    -0.3400     1.7180 C.3   1 <1>  -0.2400 
 18 C       -7.0280     1.7860    -0.5310 C.3   1 <1>  -0.2400 
 19 C        5.1860     5.7280     0.1740 C.3   1 <1>  -0.2400 
 20 C        6.0460     3.5520     0.9980 C.3   1 <1>  -0.2400 
 21 C        5.9100     4.0120    -1.4630 C.3   1 <1>  -0.2400 
 22 H       -0.9540     3.2660    -1.2720 H     1 <1>   0.3700 
 23 H       -2.7640     1.0670    -1.1440 H     1 <1>   0.3700 
 24 H        2.3730     0.5490    -0.6390 H     1 <1>   0.1500 
 25 H        0.5170     4.2790     0.2050 H     1 <1>   0.1500 
 26 H        4.5510     1.6110    -0.5650 H     1 <1>   0.1500 
 27 H        2.6610     5.3540     0.2720 H     1 <1>   0.1500 
 28 H       -5.2100     2.3950     1.2170 H     1 <1>   0.0800 
 29 H       -3.7620     0.6230     2.0930 H     1 <1>   0.0800 
 30 H       -3.8130    -0.2240     0.5850 H     1 <1>   0.0800 
 31 H       -5.3240     0.6700    -1.2310 H     1 <1>   0.0800 
 32 H       -5.2260     2.3870    -1.4620 H     1 <1>   0.0800 
 33 H       -6.2520     0.3010     2.3090 H     1 <1>   0.0800 
 34 H       -5.3230    -1.1760     2.3260 H     1 <1>   0.0800 
 35 H       -6.1850    -0.7220     0.8850 H     1 <1>   0.0800 
 36 H       -7.4140     1.0400     0.1370 H     1 <1>   0.0800 
 37 H       -7.5530     1.7010    -1.4660 H     1 <1>   0.0800 
 38 H       -7.2370     2.7570    -0.1150 H     1 <1>   0.0800 
 39 H        4.6320     6.2450    -0.5880 H     1 <1>   0.0800 
 40 H        6.1840     6.1280     0.1900 H     1 <1>   0.0800 
 41 H        4.7350     5.9240     1.1310 H     1 <1>   0.0800 
 42 H        5.5480     3.6590     1.9450 H     1 <1>   0.0800 
 43 H        7.0180     4.0070     1.0680 H     1 <1>   0.0800 
 44 H        6.1810     2.5040     0.8060 H     1 <1>   0.0800 
 45 H        5.3170     4.4440    -2.2500 H     1 <1>   0.0800 
 46 H        6.0440     2.9680    -1.6770 H     1 <1>   0.0800 
 47 H        6.8780     4.4800    -1.4670 H     1 <1>   0.0800 
@<TRIPOS>BOND
  1   1   2  2   
  2   2   3  am  
  3   2   4  1   
  4   3   5  1   
  5   3  22  1   
  6   4   6  ar  
  7   4   7  ar  
  8   5   8  am  
  9   5  23  1   
 10   6   9  ar  
 11   6  24  1   
 12   7  10  ar  
 13   7  25  1   
 14   8  11  2   
 15   8  12  1   
 16   9  13  ar  
 17   9  26  1   
 18  10  13  ar  
 19  10  27  1   
 20  12  14  1   
 21  12  15  1   
 22  12  28  1   
 23  13  16  1   
 24  14  17  1   
 25  14  29  1   
 26  14  30  1   
 27  15  18  1   
 28  15  31  1   
 29  15  32  1   
 30  16  19  1   
 31  16  20  1   
 32  16  21  1   
 33  17  33  1   
 34  17  34  1   
 35  17  35  1   
 36  18  36  1   
 37  18  37  1   
 38  18  38  1   
 39  19  39  1   
 40  19  40  1   
 41  19  41  1   
 42  20  42  1   
 43  20  43  1   
 44  20  44  1   
 45  21  45  1   
 46  21  46  1   
 47  21  47  1   
@<TRIPOS>SUBSTRUCTURE
  1 ****   2 GROUP 4 **** **** 0

# MOE 2024.06 (io_trps.svl 2023.06)
