@<TRIPOS>MOLECULE
NONAME
51 52 1 0 0 
SMALL
USER_CHARGES


@<TRIPOS>ATOM
  1 O       -6.7200     1.6110    -1.6510 O.3   1 <1>  -0.3630 
  2 C       -7.4100     1.1920    -0.5680 C.ar  1 <1>   0.0830 
  3 C       -5.6240     2.4890    -1.4550 C.3   1 <1>   0.1200 
  4 C       -8.3970     1.9550     0.0800 C.ar  1 <1>  -0.1440 
  5 C       -7.0580    -0.0680    -0.1030 C.ar  1 <1>  -0.1500 
  6 C       -4.4200     1.7730    -0.8200 C.3   1 <1>   0.2000 
  7 C       -8.8770     1.4420     1.2850 C.ar  1 <1>  -0.1500 
  8 C       -9.0180     3.2910    -0.4260 C.3   1 <1>   0.1440 
  9 C       -7.5830    -0.5600     1.0730 C.ar  1 <1>  -0.1500 
 10 O       -4.6550     1.5550     0.5410 O.3   1 <1>  -0.6800 
 11 C       -3.1230     2.5980    -0.9610 C.3   1 <1>   0.3430 
 12 C       -8.4810     0.2120     1.7790 C.ar  1 <1>  -0.1500 
 13 C       -8.4790     4.4560     0.4140 C.3   1 <1>  -0.2400 
 14 C      -10.5550     3.2530    -0.2760 C.3   1 <1>  -0.2400 
 15 C       -8.7750     3.6010    -1.9160 C.3   1 <1>  -0.2400 
 16 N       -2.1190     2.1830     0.0680 N.4   1 <1>  -0.9590 
 17 C       -1.1760     3.2790     0.4260 C.3   1 <1>   0.3430 
 18 C       -1.4270     0.9110    -0.2810 C.3   1 <1>   0.3430 
 19 C       -0.3180     2.8500     1.6180 C.3   1 <1>  -0.1600 
 20 C       -0.5740     0.4490     0.9010 C.3   1 <1>  -0.1600 
 21 C        0.4180     1.5310     1.3470 C.3   1 <1>  -0.1600 
 22 H       -5.9390     3.3170    -0.8470 H     1 <1>   0.0800 
 23 H       -5.3590     2.8590    -2.4300 H     1 <1>   0.0800 
 24 H       -6.3590    -0.6630    -0.6630 H     1 <1>   0.1500 
 25 H       -4.2880     0.8170    -1.2970 H     1 <1>   0.0800 
 26 H       -9.5860     1.9920     1.8740 H     1 <1>   0.1500 
 27 H       -7.2980    -1.5320     1.4380 H     1 <1>   0.1500 
 28 H       -5.5690     1.1950     0.6620 H     1 <1>   0.4000 
 29 H       -3.3740     3.6350    -0.8100 H     1 <1>   0.0800 
 30 H       -2.7180     2.4980    -1.9540 H     1 <1>   0.0800 
 31 H       -8.8860    -0.1500     2.7090 H     1 <1>   0.1500 
 32 H       -8.7170     4.3130     1.4530 H     1 <1>   0.0800 
 33 H       -8.9120     5.3860     0.0930 H     1 <1>   0.0800 
 34 H       -7.4120     4.5260     0.3240 H     1 <1>   0.0800 
 35 H      -11.0100     4.1180    -0.7270 H     1 <1>   0.0800 
 36 H      -10.8640     3.2460     0.7510 H     1 <1>   0.0800 
 37 H      -10.9480     2.3760    -0.7580 H     1 <1>   0.0800 
 38 H       -9.3840     4.4240    -2.2440 H     1 <1>   0.0800 
 39 H       -9.0200     2.7430    -2.5170 H     1 <1>   0.0800 
 40 H       -7.7600     3.8820    -2.1040 H     1 <1>   0.0800 
 41 H       -2.7080     1.9750     0.8980 H     1 <1>   0.4500 
 42 H       -1.7260     4.1700     0.6840 H     1 <1>   0.0800 
 43 H       -0.5390     3.5010    -0.4140 H     1 <1>   0.0800 
 44 H       -0.7960     1.0630    -1.1420 H     1 <1>   0.0800 
 45 H       -2.1520     0.1480    -0.5160 H     1 <1>   0.0800 
 46 H       -0.9440     2.7490     2.4880 H     1 <1>   0.0800 
 47 H        0.4020     3.6230     1.8290 H     1 <1>   0.0800 
 48 H       -0.0320    -0.4370     0.6190 H     1 <1>   0.0800 
 49 H       -1.2190     0.1830     1.7210 H     1 <1>   0.0800 
 50 H        0.9330     1.2110     2.2380 H     1 <1>   0.0800 
 51 H        1.1570     1.6820     0.5780 H     1 <1>   0.0800 
@<TRIPOS>BOND
  1   1   2  1   
  2   1   3  1   
  3   2   4  ar  
  4   2   5  ar  
  5   3   6  1   
  6   3  22  1   
  7   3  23  1   
  8   4   7  ar  
  9   4   8  1   
 10   5   9  ar  
 11   5  24  1   
 12   6  10  1   
 13   6  11  1   
 14   6  25  1   
 15   7  12  ar  
 16   7  26  1   
 17   8  13  1   
 18   8  14  1   
 19   8  15  1   
 20   9  12  ar  
 21   9  27  1   
 22  10  28  1   
 23  11  16  1   
 24  11  29  1   
 25  11  30  1   
 26  12  31  1   
 27  13  32  1   
 28  13  33  1   
 29  13  34  1   
 30  14  35  1   
 31  14  36  1   
 32  14  37  1   
 33  15  38  1   
 34  15  39  1   
 35  15  40  1   
 36  16  17  1   
 37  16  18  1   
 38  16  41  1   
 39  17  19  1   
 40  17  42  1   
 41  17  43  1   
 42  18  20  1   
 43  18  44  1   
 44  18  45  1   
 45  19  21  1   
 46  19  46  1   
 47  19  47  1   
 48  20  21  1   
 49  20  48  1   
 50  20  49  1   
 51  21  50  1   
 52  21  51  1   
@<TRIPOS>SUBSTRUCTURE
  1 ****  10 GROUP 4 **** **** 0

# MOE 2024.06 (io_trps.svl 2023.06)
