@<TRIPOS>MOLECULE
NONAME
41 42 1 0 0 
SMALL
USER_CHARGES


@<TRIPOS>ATOM
  1 CL      -0.4500    -0.4170    -1.6460 Cl    1 <1>  -0.1770 
  2 C       -1.9200    -1.0230    -0.9260 C.ar  1 <1>   0.1770 
  3 C       -2.4740    -2.1950    -1.4060 C.ar  1 <1>  -0.1500 
  4 C       -2.5020    -0.3240     0.1140 C.ar  1 <1>  -0.1500 
  5 C       -3.6430    -2.6820    -0.8440 C.ar  1 <1>  -0.1440 
  6 C       -3.6710    -0.7960     0.6890 C.ar  1 <1>  -0.1440 
  7 C       -4.2470    -1.9650     0.1900 C.ar  1 <1>   0.0820 
  8 C       -4.2220    -3.9900    -1.3650 C.3   1 <1>  -0.0960 
  9 C       -4.2810    -0.0280     1.8540 C.3   1 <1>  -0.0960 
 10 O       -5.4040    -2.4160     0.7240 O.3   1 <1>  -0.3630 
 11 C       -6.5790    -1.9420     0.1190 C.3   1 <1>   0.1200 
 12 C       -7.7580    -2.5670     0.8670 C.3   1 <1>   0.3430 
 13 N       -9.0670    -2.1270     0.3010 N.4   1 <1>  -0.9060 
 14 C      -10.2310    -2.7110     0.9990 C.3   1 <1>   0.4860 
 15 C      -11.4530    -2.1640     0.3020 C.ar  1 <1>  -0.1440 
 16 C      -12.0000    -2.8380    -0.7800 C.ar  1 <1>  -0.1500 
 17 C      -12.0290    -0.9760     0.7320 C.ar  1 <1>  -0.1500 
 18 C      -13.1070    -2.3230    -1.4320 C.ar  1 <1>  -0.1500 
 19 C      -13.1350    -0.4640     0.0770 C.ar  1 <1>  -0.1500 
 20 C      -13.6730    -1.1360    -1.0050 C.ar  1 <1>  -0.1500 
 21 H       -1.9820    -2.7130    -2.2090 H     1 <1>   0.1500 
 22 H       -2.0310     0.5770     0.4640 H     1 <1>   0.1500 
 23 H       -3.4650    -4.5630    -1.8700 H     1 <1>   0.0800 
 24 H       -5.0190    -3.7920    -2.0570 H     1 <1>   0.0800 
 25 H       -4.5970    -4.5840    -0.5510 H     1 <1>   0.0800 
 26 H       -3.5420     0.5980     2.3220 H     1 <1>   0.0800 
 27 H       -4.6540    -0.7100     2.5960 H     1 <1>   0.0800 
 28 H       -5.0850     0.5940     1.5070 H     1 <1>   0.0800 
 29 H       -6.5670    -2.2400    -0.9140 H     1 <1>   0.0800 
 30 H       -6.5870    -0.8690     0.1990 H     1 <1>   0.0800 
 31 H       -7.6960    -2.2810     1.9050 H     1 <1>   0.0800 
 32 H       -7.6760    -3.6400     0.8020 H     1 <1>   0.0800 
 33 H       -9.1520    -2.3770    -0.6920 H     1 <1>   0.4500 
 34 H       -9.1700    -1.1050     0.3410 H     1 <1>   0.4500 
 35 H      -10.2380    -2.4230     2.0390 H     1 <1>   0.0800 
 36 H      -10.2180    -3.7870     0.9320 H     1 <1>   0.0800 
 37 H      -11.5840    -3.7680    -1.1300 H     1 <1>   0.1500 
 38 H      -11.6350    -0.4350     1.5760 H     1 <1>   0.1500 
 39 H      -13.5350    -2.8460    -2.2720 H     1 <1>   0.1500 
 40 H      -13.5850     0.4570     0.4090 H     1 <1>   0.1500 
 41 H      -14.5360    -0.7370    -1.5120 H     1 <1>   0.1500 
@<TRIPOS>BOND
  1   1   2  1   
  2   2   3  ar  
  3   2   4  ar  
  4   3   5  ar  
  5   3  21  1   
  6   4   6  ar  
  7   4  22  1   
  8   5   7  ar  
  9   5   8  1   
 10   6   7  ar  
 11   6   9  1   
 12   7  10  1   
 13   8  23  1   
 14   8  24  1   
 15   8  25  1   
 16   9  26  1   
 17   9  27  1   
 18   9  28  1   
 19  10  11  1   
 20  11  12  1   
 21  11  29  1   
 22  11  30  1   
 23  12  13  1   
 24  12  31  1   
 25  12  32  1   
 26  13  14  1   
 27  13  33  1   
 28  13  34  1   
 29  14  15  1   
 30  14  35  1   
 31  14  36  1   
 32  15  16  ar  
 33  15  17  ar  
 34  16  18  ar  
 35  16  37  1   
 36  17  19  ar  
 37  17  38  1   
 38  18  20  ar  
 39  18  39  1   
 40  19  20  ar  
 41  19  40  1   
 42  20  41  1   
@<TRIPOS>SUBSTRUCTURE
  1 ****  11 GROUP 4 **** **** 0

# MOE 2024.06 (io_trps.svl 2023.06)
