@<TRIPOS>MOLECULE
NONAME
43 45 1 0 0 
SMALL
USER_CHARGES


@<TRIPOS>ATOM
  1 O       -0.2870     1.1310     2.3830 O.2   1 <1>  -0.5700 
  2 C       -0.3270     2.2780     1.9960 C.2   1 <1>   0.5690 
  3 N        0.7300     2.8100     1.2890 N.am  1 <1>  -0.6600 
  4 C       -1.6040     3.0640     2.3730 C.3   1 <1>   0.2610 
  5 C        1.8780     1.9420     0.8900 C.3   1 <1>   0.2840 
  6 C        0.8400     4.2110     0.7980 C.3   1 <1>   0.1400 
  7 O       -2.1210     3.8600     1.3150 O.3   1 <1>  -0.3630 
  8 C       -1.3920     3.9870     3.5790 C.3   1 <1>  -0.2400 
  9 C        2.4060     2.2460    -0.5130 C.ar  1 <1>  -0.1440 
 10 C        0.8280     4.2070    -0.7300 C.3   1 <1>  -0.0160 
 11 C       -2.6250     3.3240     0.1750 C.ar  1 <1>   0.0820 
 12 C        1.9230     3.3050    -1.2750 C.ar  1 <1>  -0.1440 
 13 C        3.4030     1.4350    -1.0350 C.ar  1 <1>  -0.1500 
 14 C       -3.0590     4.2220    -0.7870 C.ar  1 <1>  -0.1500 
 15 C       -2.7180     1.9570    -0.0750 C.ar  1 <1>  -0.1500 
 16 C        2.4370     3.5370    -2.5420 C.ar  1 <1>  -0.1500 
 17 C        3.9160     1.6720    -2.2980 C.ar  1 <1>  -0.1500 
 18 C       -3.5750     3.7780    -1.9930 C.ar  1 <1>  -0.1440 
 19 C       -3.2320     1.5100    -1.2790 C.ar  1 <1>  -0.1500 
 20 C        3.4320     2.7240    -3.0530 C.ar  1 <1>  -0.1500 
 21 C       -3.6580     2.4160    -2.2340 C.ar  1 <1>  -0.1500 
 22 C       -4.0470     4.7610    -3.0480 C.3   1 <1>  -0.0970 
 23 H       -2.3700     2.3540     2.6300 H     1 <1>   0.0800 
 24 H        1.5850     0.9070     0.9220 H     1 <1>   0.0800 
 25 H        2.6740     2.0810     1.6010 H     1 <1>   0.0800 
 26 H        1.7700     4.6280     1.1440 H     1 <1>   0.0800 
 27 H        0.0460     4.8300     1.1680 H     1 <1>   0.0800 
 28 H       -0.6430     4.7260     3.3660 H     1 <1>   0.0800 
 29 H       -1.0660     3.4040     4.4220 H     1 <1>   0.0800 
 30 H       -2.3160     4.4730     3.8360 H     1 <1>   0.0800 
 31 H        0.9670     5.2120    -1.0840 H     1 <1>   0.0800 
 32 H       -0.1270     3.8580    -1.0820 H     1 <1>   0.0800 
 33 H        3.7860     0.6120    -0.4580 H     1 <1>   0.1500 
 34 H       -2.9870     5.2740    -0.5790 H     1 <1>   0.1500 
 35 H       -2.3970     1.2260     0.6430 H     1 <1>   0.1500 
 36 H        2.0620     4.3520    -3.1360 H     1 <1>   0.1500 
 37 H        4.6880     1.0360    -2.6940 H     1 <1>   0.1500 
 38 H       -3.2990     0.4540    -1.4730 H     1 <1>   0.1500 
 39 H        3.8270     2.9090    -4.0360 H     1 <1>   0.1500 
 40 H       -4.0550     2.0570    -3.1680 H     1 <1>   0.1500 
 41 H       -3.9430     5.7740    -2.7040 H     1 <1>   0.0800 
 42 H       -5.0830     4.5820    -3.2770 H     1 <1>   0.0800 
 43 H       -3.4660     4.6420    -3.9450 H     1 <1>   0.0800 
@<TRIPOS>BOND
  1   1   2  2   
  2   2   3  am  
  3   2   4  1   
  4   3   5  1   
  5   3   6  1   
  6   4   7  1   
  7   4   8  1   
  8   4  23  1   
  9   5   9  1   
 10   5  24  1   
 11   5  25  1   
 12   6  10  1   
 13   6  26  1   
 14   6  27  1   
 15   7  11  1   
 16   8  28  1   
 17   8  29  1   
 18   8  30  1   
 19   9  12  ar  
 20   9  13  ar  
 21  10  12  1   
 22  10  31  1   
 23  10  32  1   
 24  11  14  ar  
 25  11  15  ar  
 26  12  16  ar  
 27  13  17  ar  
 28  13  33  1   
 29  14  18  ar  
 30  14  34  1   
 31  15  19  ar  
 32  15  35  1   
 33  16  20  ar  
 34  16  36  1   
 35  17  20  ar  
 36  17  37  1   
 37  18  21  ar  
 38  18  22  1   
 39  19  21  ar  
 40  19  38  1   
 41  20  39  1   
 42  21  40  1   
 43  22  41  1   
 44  22  42  1   
 45  22  43  1   
@<TRIPOS>SUBSTRUCTURE
  1 ****  10 GROUP 4 **** **** 0

# MOE 2024.06 (io_trps.svl 2023.06)
