@<TRIPOS>MOLECULE
21025
50 53 1 0 0 
SMALL
USER_CHARGES


@<TRIPOS>ATOM
  1 S       -0.3960     1.5620     2.5040 S.3   1 <1>  -0.0800 
  2 C        0.6510     2.9480     2.2610 C.2   1 <1>   0.1660 
  3 C       -0.3020     1.1590     0.7970 C.2   1 <1>  -0.1400 
  4 N        1.0160     3.7630     3.2840 N.2   1 <1>  -0.5760 
  5 C        1.0240     3.0680     0.9580 C.2   1 <1>  -0.0860 
  6 C        0.4600     2.0370     0.1260 C.2   1 <1>  -0.1810 
  7 C       -1.0300    -0.0480     0.2490 C.3   1 <1>   0.0200 
  8 C        1.7920     4.7350     2.9580 C.2   1 <1>   0.4500 
  9 C        1.8870     4.1570     0.6450 C.2   1 <1>   0.7160 
 10 C        0.6840     1.9120    -1.3730 C.3   1 <1>   0.0210 
 11 C       -0.4940    -0.3630    -1.1640 C.3   1 <1>  -0.0800 
 12 N        2.2480     4.9890     1.6860 N.am  1 <1>  -0.4200 
 13 O        2.3100     4.3750    -0.4830 O.2   1 <1>  -0.5700 
 14 C       -0.3200     0.9230    -2.0020 C.3   1 <1>  -0.1600 
 15 C       -1.4100    -1.3610    -1.8830 C.3   1 <1>  -0.2400 
 16 C        3.2120     6.1060     1.4580 C.3   1 <1>   0.2010 
 17 C        4.6420     5.6920     1.7690 C.2   1 <1>   0.6590 
 18 O        5.2660     6.2180     2.6540 O.2   1 <1>  -0.5700 
 19 O        5.1490     4.7150     1.0290 O.3   1 <1>  -0.4300 
 20 C        6.4520     4.2120     1.2440 C.3   1 <1>   0.1200 
 21 C        6.6860     3.0590     0.2750 C.3   1 <1>   0.1200 
 22 O        7.9850     2.5530     0.4910 O.3   1 <1>  -0.3630 
 23 C        8.4580     1.5050    -0.2290 C.ar  1 <1>   0.0820 
 24 C        9.7420     1.0750     0.0680 C.ar  1 <1>  -0.1500 
 25 C        7.7330     0.8580    -1.2260 C.ar  1 <1>  -0.1500 
 26 C       10.3030     0.0120    -0.6170 C.ar  1 <1>  -0.1500 
 27 C        8.2960    -0.2060    -1.9110 C.ar  1 <1>  -0.1500 
 28 C        9.5790    -0.6290    -1.6080 C.ar  1 <1>  -0.1500 
 29 H       -2.0820     0.1740     0.2140 H     1 <1>   0.0800 
 30 H       -0.8790    -0.8940     0.8960 H     1 <1>   0.0800 
 31 H        2.1220     5.4110     3.7280 H     1 <1>   0.0600 
 32 H        1.6900     1.5700    -1.5430 H     1 <1>   0.0800 
 33 H        0.5740     2.8730    -1.8430 H     1 <1>   0.0800 
 34 H        0.4770    -0.8180    -1.0540 H     1 <1>   0.0800 
 35 H        0.0110     0.6750    -2.9950 H     1 <1>   0.0800 
 36 H       -1.2750     1.4130    -2.0880 H     1 <1>   0.0800 
 37 H       -2.3890    -0.9390    -2.0290 H     1 <1>   0.0800 
 38 H       -1.5060    -2.2630    -1.3050 H     1 <1>   0.0800 
 39 H       -1.0010    -1.6170    -2.8440 H     1 <1>   0.0800 
 40 H        2.9500     6.9360     2.0880 H     1 <1>   0.0800 
 41 H        3.1630     6.4420     0.4380 H     1 <1>   0.0800 
 42 H        6.5210     3.8710     2.2630 H     1 <1>   0.0800 
 43 H        7.1560     5.0070     1.0690 H     1 <1>   0.0800 
 44 H        6.6230     3.4040    -0.7420 H     1 <1>   0.0800 
 45 H        5.9810     2.2670     0.4570 H     1 <1>   0.0800 
 46 H       10.2970     1.5780     0.8390 H     1 <1>   0.1500 
 47 H        6.7370     1.1630    -1.4840 H     1 <1>   0.1500 
 48 H       11.3000    -0.3150    -0.3800 H     1 <1>   0.1500 
 49 H        7.7360    -0.7060    -2.6820 H     1 <1>   0.1500 
 50 H       10.0140    -1.4560    -2.1420 H     1 <1>   0.1500 
@<TRIPOS>BOND
  1   1   2  1   
  2   1   3  1   
  3   2   4  1   
  4   2   5  2   
  5   3   6  2   
  6   3   7  1   
  7   4   8  2   
  8   5   6  1   
  9   5   9  1   
 10   6  10  1   
 11   7  11  1   
 12   7  29  1   
 13   7  30  1   
 14   8  12  1   
 15   8  31  1   
 16   9  12  am  
 17   9  13  2   
 18  10  14  1   
 19  10  32  1   
 20  10  33  1   
 21  11  14  1   
 22  11  15  1   
 23  11  34  1   
 24  12  16  1   
 25  14  35  1   
 26  14  36  1   
 27  15  37  1   
 28  15  38  1   
 29  15  39  1   
 30  16  17  1   
 31  16  40  1   
 32  16  41  1   
 33  17  18  2   
 34  17  19  1   
 35  19  20  1   
 36  20  21  1   
 37  20  42  1   
 38  20  43  1   
 39  21  22  1   
 40  21  44  1   
 41  21  45  1   
 42  22  23  1   
 43  23  24  ar  
 44  23  25  ar  
 45  24  26  ar  
 46  24  46  1   
 47  25  27  ar  
 48  25  47  1   
 49  26  28  ar  
 50  26  48  1   
 51  27  28  ar  
 52  27  49  1   
 53  28  50  1   
@<TRIPOS>SUBSTRUCTURE
  1 ****   9 GROUP 4 **** **** 0

# MOE 2024.06 (io_trps.svl 2023.06)
