@<TRIPOS>MOLECULE
NONAME
25 26 1 0 0 
SMALL
USER_CHARGES


@<TRIPOS>ATOM
  1 BR      -0.1420    -0.0810     1.8730 Br    1 <1>  -0.1110 
  2 C       -0.8580    -1.6030     0.9270 C.ar  1 <1>   0.1110 
  3 C       -0.0340    -2.3450     0.0780 C.ar  1 <1>  -0.1440 
  4 C       -2.1950    -1.9030     1.1400 C.ar  1 <1>  -0.1500 
  5 C       -0.5800    -3.4440    -0.5820 C.ar  1 <1>  -0.1500 
  6 C        1.4260    -1.9880    -0.1360 C.3   1 <1>   0.2840 
  7 C       -2.6970    -2.9960     0.4650 C.ar  1 <1>   0.0820 
  8 C       -1.9130    -3.7420    -0.3700 C.ar  1 <1>   0.0820 
  9 N        2.2210    -2.5470     0.9730 N.am  1 <1>  -0.7300 
 10 O       -3.9380    -3.4920     0.4950 O.3   1 <1>  -0.3630 
 11 O       -2.6280    -4.7400    -0.9000 O.3   1 <1>  -0.3630 
 12 C        3.1860    -3.4900     0.9470 C.2   1 <1>   0.5690 
 13 C       -3.9470    -4.6280    -0.3680 C.3   1 <1>   0.4000 
 14 O        3.7170    -3.8350     1.9690 O.2   1 <1>  -0.5700 
 15 C        3.6160    -4.1270    -0.3510 C.3   1 <1>  -0.1790 
 16 H       -2.8130    -1.3200     1.7970 H     1 <1>   0.1500 
 17 H        0.0030    -4.0600    -1.2430 H     1 <1>   0.1500 
 18 H        1.5530    -0.9200    -0.1650 H     1 <1>   0.0800 
 19 H        1.7640    -2.3820    -1.0780 H     1 <1>   0.0800 
 20 H        1.9620    -2.2110     1.9030 H     1 <1>   0.3700 
 21 H       -4.6470    -4.4680    -1.1680 H     1 <1>   0.0800 
 22 H       -4.1830    -5.5100     0.2000 H     1 <1>   0.0800 
 23 H        4.0060    -3.3780    -1.0140 H     1 <1>   0.0800 
 24 H        2.7810    -4.6220    -0.8080 H     1 <1>   0.0800 
 25 H        4.3850    -4.8520    -0.1580 H     1 <1>   0.0800 
@<TRIPOS>BOND
  1   1   2  1   
  2   2   3  ar  
  3   2   4  ar  
  4   3   5  ar  
  5   3   6  1   
  6   4   7  ar  
  7   4  16  1   
  8   5   8  ar  
  9   5  17  1   
 10   6   9  1   
 11   6  18  1   
 12   6  19  1   
 13   7   8  ar  
 14   7  10  1   
 15   8  11  1   
 16   9  12  am  
 17   9  20  1   
 18  10  13  1   
 19  11  13  1   
 20  12  14  2   
 21  12  15  1   
 22  13  21  1   
 23  13  22  1   
 24  15  23  1   
 25  15  24  1   
 26  15  25  1   
@<TRIPOS>SUBSTRUCTURE
  1 ****   3 GROUP 4 **** **** 0

# MOE 2024.06 (io_trps.svl 2023.06)
