@<TRIPOS>MOLECULE
NONAME
49 50 1 0 0 
SMALL
USER_CHARGES


@<TRIPOS>ATOM
  1 S        2.3630    -0.6000    -1.4290 S.3   1 <1>  -0.3320 
  2 C        1.7890    -1.8160    -0.2400 C.ar  1 <1>   0.1020 
  3 C        0.8610     0.4270    -1.7580 C.3   1 <1>   0.0700 
  4 C        2.0650    -1.6610     1.1180 C.ar  1 <1>   0.0860 
  5 C        1.0690    -2.8910    -0.7260 C.ar  1 <1>  -0.1500 
  6 C        0.5090     1.1960    -0.4880 C.3   1 <1>   0.1200 
  7 C        2.8070    -0.5330     1.6340 C.2   1 <1>   0.5440 
  8 C        1.5790    -2.6430     1.9810 C.ar  1 <1>  -0.1500 
  9 C        0.6020    -3.8530     0.1520 C.ar  1 <1>  -0.1500 
 10 O       -0.5780     2.0210    -0.7620 O.3   1 <1>  -0.5600 
 11 O        2.1880     0.4010     2.1120 O.2   1 <1>  -0.5700 
 12 N        4.1870    -0.4990     1.6270 N.am  1 <1>  -0.6600 
 13 C        0.8590    -3.7260     1.5070 C.ar  1 <1>  -0.1500 
 14 C       -0.9900     2.7650     0.3390 C.3   1 <1>   0.0400 
 15 C        5.0370    -1.6160     1.1280 C.3   1 <1>   0.1400 
 16 C        4.9430     0.6990     2.0830 C.3   1 <1>   0.1400 
 17 C        5.9320    -1.1190    -0.0090 C.3   1 <1>  -0.1600 
 18 C        5.8230     1.2130     0.9410 C.3   1 <1>  -0.1600 
 19 C        6.7620     0.1130     0.4080 C.3   1 <1>  -0.0190 
 20 C        7.6590     0.6380    -0.7140 C.2   1 <1>   0.6590 
 21 O        7.6480     0.1820    -1.8290 O.2   1 <1>  -0.5700 
 22 O        8.4740     1.6290    -0.3740 O.3   1 <1>  -0.4300 
 23 C        9.3590     2.2050    -1.3050 C.3   1 <1>   0.1200 
 24 C       10.1350     3.3120    -0.5990 C.3   1 <1>  -0.2400 
 25 H        0.0690    -0.2380    -2.0470 H     1 <1>   0.0800 
 26 H        1.1090     1.0990    -2.5600 H     1 <1>   0.0800 
 27 H        0.8780    -2.9760    -1.7820 H     1 <1>   0.1500 
 28 H        1.3400     1.8050    -0.1750 H     1 <1>   0.0800 
 29 H        0.2350     0.5170     0.3000 H     1 <1>   0.0800 
 30 H        1.7690    -2.5440     3.0360 H     1 <1>   0.1500 
 31 H        0.0410    -4.6950    -0.2160 H     1 <1>   0.1500 
 32 H        0.4930    -4.4720     2.1930 H     1 <1>   0.1500 
 33 H       -1.8280     3.3700     0.0410 H     1 <1>   0.0800 
 34 H       -0.1820     3.3960     0.6650 H     1 <1>   0.0800 
 35 H       -1.2870     2.0960     1.1290 H     1 <1>   0.0800 
 36 H        4.4350    -2.4350     0.7750 H     1 <1>   0.0800 
 37 H        5.6450    -1.9780     1.9390 H     1 <1>   0.0800 
 38 H        5.5530     0.4280     2.9280 H     1 <1>   0.0800 
 39 H        4.2730     1.4810     2.3960 H     1 <1>   0.0800 
 40 H        5.3150    -0.8700    -0.8550 H     1 <1>   0.0800 
 41 H        6.5910    -1.9130    -0.3130 H     1 <1>   0.0800 
 42 H        6.4010     2.0480     1.2970 H     1 <1>   0.0800 
 43 H        5.1880     1.5680     0.1470 H     1 <1>   0.0800 
 44 H        7.4160    -0.1840     1.2080 H     1 <1>   0.0800 
 45 H        8.7820     2.6000    -2.1250 H     1 <1>   0.0800 
 46 H       10.0210     1.4370    -1.6670 H     1 <1>   0.0800 
 47 H        9.4590     4.0640    -0.2340 H     1 <1>   0.0800 
 48 H       10.8190     3.7720    -1.2890 H     1 <1>   0.0800 
 49 H       10.6990     2.9040     0.2210 H     1 <1>   0.0800 
@<TRIPOS>BOND
  1   1   2  1   
  2   1   3  1   
  3   2   4  ar  
  4   2   5  ar  
  5   3   6  1   
  6   3  25  1   
  7   3  26  1   
  8   4   7  1   
  9   4   8  ar  
 10   5   9  ar  
 11   5  27  1   
 12   6  10  1   
 13   6  28  1   
 14   6  29  1   
 15   7  11  2   
 16   7  12  am  
 17   8  13  ar  
 18   8  30  1   
 19   9  13  ar  
 20   9  31  1   
 21  10  14  1   
 22  12  15  1   
 23  12  16  1   
 24  13  32  1   
 25  14  33  1   
 26  14  34  1   
 27  14  35  1   
 28  15  17  1   
 29  15  36  1   
 30  15  37  1   
 31  16  18  1   
 32  16  38  1   
 33  16  39  1   
 34  17  19  1   
 35  17  40  1   
 36  17  41  1   
 37  18  19  1   
 38  18  42  1   
 39  18  43  1   
 40  19  20  1   
 41  19  44  1   
 42  20  21  2   
 43  20  22  1   
 44  22  23  1   
 45  23  24  1   
 46  23  45  1   
 47  23  46  1   
 48  24  47  1   
 49  24  48  1   
 50  24  49  1   
@<TRIPOS>SUBSTRUCTURE
  1 ****  12 GROUP 4 **** **** 0

# MOE 2024.06 (io_trps.svl 2023.06)
