@<TRIPOS>MOLECULE
NONAME
26 26 1 0 0 
SMALL
USER_CHARGES


@<TRIPOS>ATOM
  1 F        0.0090     2.5980     2.9480 F     1 <1>  -0.1900 
  2 C       -0.0850     2.9680     1.6960 C.ar  1 <1>   0.1900 
  3 C        0.7530     2.4200     0.7400 C.ar  1 <1>   0.1900 
  4 C       -1.0330     3.9120     1.3520 C.ar  1 <1>  -0.1500 
  5 F        1.6500     1.5240     1.0750 F     1 <1>  -0.1900 
  6 C        0.6580     2.8090    -0.5820 C.ar  1 <1>  -0.1500 
  7 C       -1.1480     4.3170     0.0250 C.ar  1 <1>   0.1170 
  8 C       -0.2920     3.7570    -0.9290 C.ar  1 <1>  -0.1500 
  9 N       -2.1190     5.2800    -0.2890 N.am  1 <1>  -0.5470 
 10 C       -2.6240     5.7510    -1.4700 C.2   1 <1>   0.5690 
 11 O       -2.2750     5.3680    -2.5600 O.2   1 <1>  -0.5700 
 12 C       -3.7050     6.8240    -1.3830 C.3   1 <1>   0.1810 
 13 O       -4.0210     7.1260    -0.0430 O.3   1 <1>  -0.5600 
 14 C       -5.0030     8.0980     0.0980 C.3   1 <1>   0.1200 
 15 C       -5.2270     8.3080     1.5900 C.3   1 <1>  -0.2400 
 16 H       -1.6720     4.3220     2.1100 H     1 <1>   0.1500 
 17 H        1.3120     2.3800    -1.3210 H     1 <1>   0.1500 
 18 H       -0.3620     4.0610    -1.9580 H     1 <1>   0.1500 
 19 H       -2.5850     5.7280     0.5070 H     1 <1>   0.3700 
 20 H       -4.5920     6.4710    -1.8770 H     1 <1>   0.0800 
 21 H       -3.3530     7.7180    -1.8660 H     1 <1>   0.0800 
 22 H       -5.9070     7.7540    -0.3770 H     1 <1>   0.0800 
 23 H       -4.6640     9.0090    -0.3670 H     1 <1>   0.0800 
 24 H       -5.5550     7.3930     2.0480 H     1 <1>   0.0800 
 25 H       -5.9830     9.0570     1.7420 H     1 <1>   0.0800 
 26 H       -4.3180     8.6410     2.0580 H     1 <1>   0.0800 
@<TRIPOS>BOND
  1   1   2  1   
  2   2   3  ar  
  3   2   4  ar  
  4   3   5  1   
  5   3   6  ar  
  6   4   7  ar  
  7   4  16  1   
  8   6   8  ar  
  9   6  17  1   
 10   7   8  ar  
 11   7   9  1   
 12   8  18  1   
 13   9  10  am  
 14   9  19  1   
 15  10  11  2   
 16  10  12  1   
 17  12  13  1   
 18  12  20  1   
 19  12  21  1   
 20  13  14  1   
 21  14  15  1   
 22  14  22  1   
 23  14  23  1   
 24  15  24  1   
 25  15  25  1   
 26  15  26  1   
@<TRIPOS>SUBSTRUCTURE
  1 ****   7 GROUP 4 **** **** 0

# MOE 2024.06 (io_trps.svl 2023.06)
