@<TRIPOS>MOLECULE
NONAME
46 47 1 0 0 
SMALL
USER_CHARGES


@<TRIPOS>ATOM
  1 O        0.1410     0.8260     1.1210 O.2   1 <1>  -0.5700 
  2 C       -0.0330     1.7590     0.3820 C.2   1 <1>   0.6590 
  3 O       -1.1770     1.9720    -0.2490 O.3   1 <1>  -0.4300 
  4 C        1.0760     2.7750     0.1200 C.3   1 <1>  -0.0190 
  5 C       -2.2760     1.1040    -0.0890 C.3   1 <1>   0.1200 
  6 C        2.2960     2.1020    -0.5370 C.3   1 <1>  -0.1600 
  7 C        1.4940     3.4830     1.4230 C.3   1 <1>  -0.1600 
  8 C       -3.4230     1.6300    -0.9450 C.3   1 <1>  -0.2400 
  9 C        3.4640     3.0710    -0.7040 C.3   1 <1>   0.3430 
 10 C        2.6820     4.4200     1.2100 C.3   1 <1>   0.3430 
 11 N        3.8210     3.6580     0.6240 N.4   1 <1>  -0.9590 
 12 C        5.0700     4.4740     0.6230 C.3   1 <1>   0.4230 
 13 C        5.0420     5.6050    -0.4190 C.3   1 <1>  -0.1600 
 14 C        6.2910     3.5700     0.4190 C.3   1 <1>  -0.1600 
 15 C        6.3370     6.4280    -0.3560 C.3   1 <1>  -0.1600 
 16 C        7.5890     4.3890     0.4830 C.3   1 <1>  -0.1600 
 17 C        7.5790     5.5390    -0.5370 C.3   1 <1>  -0.0800 
 18 C        8.8550     6.3760    -0.4070 C.3   1 <1>  -0.2400 
 19 H        0.6880     3.5140    -0.5600 H     1 <1>   0.0800 
 20 H       -2.5480     1.0850     0.9530 H     1 <1>   0.0800 
 21 H       -1.9810     0.1160    -0.4020 H     1 <1>   0.0800 
 22 H        2.0140     1.7230    -1.5040 H     1 <1>   0.0800 
 23 H        2.6160     1.2610     0.0540 H     1 <1>   0.0800 
 24 H        1.7490     2.7550     2.1740 H     1 <1>   0.0800 
 25 H        0.6620     4.0520     1.8010 H     1 <1>   0.0800 
 26 H       -3.7020     2.6190    -0.6270 H     1 <1>   0.0800 
 27 H       -4.2770     0.9850    -0.8410 H     1 <1>   0.0800 
 28 H       -3.1350     1.6520    -1.9810 H     1 <1>   0.0800 
 29 H        3.1880     3.8560    -1.3890 H     1 <1>   0.0800 
 30 H        4.3080     2.5420    -1.1180 H     1 <1>   0.0800 
 31 H        2.9710     4.8500     2.1560 H     1 <1>   0.0800 
 32 H        2.3970     5.2210     0.5470 H     1 <1>   0.0800 
 33 H        3.9970     2.8660     1.2550 H     1 <1>   0.4500 
 34 H        5.1760     4.9320     1.5940 H     1 <1>   0.0800 
 35 H        4.2130     6.2640    -0.2380 H     1 <1>   0.0800 
 36 H        4.9540     5.2030    -1.4130 H     1 <1>   0.0800 
 37 H        6.2480     3.0860    -0.5410 H     1 <1>   0.0800 
 38 H        6.3230     2.8160     1.1850 H     1 <1>   0.0800 
 39 H        6.3950     6.9360     0.5930 H     1 <1>   0.0800 
 40 H        6.3210     7.1820    -1.1260 H     1 <1>   0.0800 
 41 H        8.4290     3.7430     0.2860 H     1 <1>   0.0800 
 42 H        7.7140     4.7890     1.4750 H     1 <1>   0.0800 
 43 H        7.5590     5.1190    -1.5300 H     1 <1>   0.0800 
 44 H        8.9260     6.8210     0.5700 H     1 <1>   0.0800 
 45 H        8.8640     7.1630    -1.1410 H     1 <1>   0.0800 
 46 H        9.7240     5.7610    -0.5650 H     1 <1>   0.0800 
@<TRIPOS>BOND
  1   1   2  2   
  2   2   3  1   
  3   2   4  1   
  4   3   5  1   
  5   4   6  1   
  6   4   7  1   
  7   4  19  1   
  8   5   8  1   
  9   5  20  1   
 10   5  21  1   
 11   6   9  1   
 12   6  22  1   
 13   6  23  1   
 14   7  10  1   
 15   7  24  1   
 16   7  25  1   
 17   8  26  1   
 18   8  27  1   
 19   8  28  1   
 20   9  11  1   
 21   9  29  1   
 22   9  30  1   
 23  10  11  1   
 24  10  31  1   
 25  10  32  1   
 26  11  12  1   
 27  11  33  1   
 28  12  13  1   
 29  12  14  1   
 30  12  34  1   
 31  13  15  1   
 32  13  35  1   
 33  13  36  1   
 34  14  16  1   
 35  14  37  1   
 36  14  38  1   
 37  15  17  1   
 38  15  39  1   
 39  15  40  1   
 40  16  17  1   
 41  16  41  1   
 42  16  42  1   
 43  17  18  1   
 44  17  43  1   
 45  18  44  1   
 46  18  45  1   
 47  18  46  1   
@<TRIPOS>SUBSTRUCTURE
  1 ****  11 GROUP 4 **** **** 0

# MOE 2024.06 (io_trps.svl 2023.06)
