@<TRIPOS>MOLECULE
NONAME
40 42 1 0 0 
SMALL
USER_CHARGES


@<TRIPOS>ATOM
  1 F       -1.8480     0.9740     1.6100 F     1 <1>  -0.1900 
  2 C       -1.0520     1.8700     1.0900 C.ar  1 <1>   0.1900 
  3 C       -1.3480     2.3680    -0.1660 C.ar  1 <1>  -0.1440 
  4 C        0.0430     2.2920     1.8240 C.ar  1 <1>  -0.1500 
  5 C       -0.4920     3.3320    -0.6660 C.ar  1 <1>   0.1900 
  6 C       -2.5430     1.8800    -0.9540 C.3   1 <1>   0.4860 
  7 C        0.8830     3.2580     1.2870 C.ar  1 <1>  -0.1500 
  8 F       -0.7450     3.8440    -1.8400 F     1 <1>  -0.1900 
  9 C        0.6150     3.7850     0.0320 C.ar  1 <1>  -0.1500 
 10 N       -3.7900     2.3700    -0.3070 N.4   1 <1>  -0.9590 
 11 C       -5.0140     1.7100    -0.8930 C.3   1 <1>   0.3430 
 12 C       -3.9000     3.8770    -0.3790 C.3   1 <1>   0.3430 
 13 C       -6.3240     2.2220    -0.2560 C.3   1 <1>   0.2090 
 14 C       -5.2030     4.4090     0.2550 C.3   1 <1>   0.2090 
 15 N       -6.3930     3.7110    -0.3140 N.pl3 1 <1>  -0.8380 
 16 C       -7.6300     4.2800    -0.0370 C.ar  1 <1>   0.1000 
 17 C       -8.1660     4.2590     1.2500 C.ar  1 <1>  -0.1500 
 18 C       -8.3480     4.8830    -1.0650 C.ar  1 <1>  -0.1500 
 19 C       -9.4000     4.8300     1.5080 C.ar  1 <1>  -0.1500 
 20 C       -9.5830     5.4590    -0.8230 C.ar  1 <1>  -0.1500 
 21 C      -10.0870     5.4200     0.4640 C.ar  1 <1>   0.1900 
 22 F      -11.2540     5.9620     0.7020 F     1 <1>  -0.1900 
 23 H        0.2380     1.8740     2.7980 H     1 <1>   0.1500 
 24 H       -2.5350     0.8010    -0.9670 H     1 <1>   0.0800 
 25 H       -2.4870     2.2310    -1.9720 H     1 <1>   0.0800 
 26 H        1.7420     3.5970     1.8440 H     1 <1>   0.1500 
 27 H        1.2570     4.5350    -0.3990 H     1 <1>   0.1500 
 28 H       -3.7320     2.1060     0.6860 H     1 <1>   0.4500 
 29 H       -4.9560     0.6420    -0.7610 H     1 <1>   0.0800 
 30 H       -5.0610     1.9110    -1.9510 H     1 <1>   0.0800 
 31 H       -3.8810     4.1900    -1.4100 H     1 <1>   0.0800 
 32 H       -3.0600     4.3340     0.1170 H     1 <1>   0.0800 
 33 H       -6.3880     1.8940     0.7670 H     1 <1>   0.0800 
 34 H       -7.1650     1.8090    -0.7890 H     1 <1>   0.0800 
 35 H       -5.2880     5.4650     0.0630 H     1 <1>   0.0800 
 36 H       -5.1750     4.2680     1.3220 H     1 <1>   0.0800 
 37 H       -7.6180     3.7960     2.0490 H     1 <1>   0.1500 
 38 H       -7.9300     4.8980    -2.0550 H     1 <1>   0.1500 
 39 H       -9.8280     4.8220     2.4950 H     1 <1>   0.1500 
 40 H      -10.1470     5.9270    -1.6090 H     1 <1>   0.1500 
@<TRIPOS>BOND
  1   1   2  1   
  2   2   3  ar  
  3   2   4  ar  
  4   3   5  ar  
  5   3   6  1   
  6   4   7  ar  
  7   4  23  1   
  8   5   8  1   
  9   5   9  ar  
 10   6  10  1   
 11   6  24  1   
 12   6  25  1   
 13   7   9  ar  
 14   7  26  1   
 15   9  27  1   
 16  10  11  1   
 17  10  12  1   
 18  10  28  1   
 19  11  13  1   
 20  11  29  1   
 21  11  30  1   
 22  12  14  1   
 23  12  31  1   
 24  12  32  1   
 25  13  15  1   
 26  13  33  1   
 27  13  34  1   
 28  14  15  1   
 29  14  35  1   
 30  14  36  1   
 31  15  16  1   
 32  16  17  ar  
 33  16  18  ar  
 34  17  19  ar  
 35  17  37  1   
 36  18  20  ar  
 37  18  38  1   
 38  19  21  ar  
 39  19  39  1   
 40  20  21  ar  
 41  20  40  1   
 42  21  22  1   
@<TRIPOS>SUBSTRUCTURE
  1 ****  12 GROUP 4 **** **** 0

# MOE 2024.06 (io_trps.svl 2023.06)
