@<TRIPOS>MOLECULE
NONAME
41 42 1 0 0 
SMALL
USER_CHARGES


@<TRIPOS>ATOM
  1 F        0.6080    -0.4250    -1.2620 F     1 <1>  -0.1900 
  2 C        0.3940    -1.6230    -0.7760 C.ar  1 <1>   0.1900 
  3 C        1.4690    -2.3790    -0.3170 C.ar  1 <1>   0.0830 
  4 C       -0.9080    -2.0840    -0.7430 C.ar  1 <1>  -0.1500 
  5 O        2.7200    -1.8460    -0.3870 O.3   1 <1>  -0.3630 
  6 C        1.2010    -3.6490     0.1930 C.ar  1 <1>  -0.1500 
  7 C       -1.1540    -3.3480    -0.2330 C.ar  1 <1>  -0.1500 
  8 C        3.8500    -2.5410     0.0720 C.3   1 <1>   0.1200 
  9 C       -0.1020    -4.1230     0.2320 C.ar  1 <1>  -0.1500 
 10 C        5.0540    -1.6280    -0.1590 C.3   1 <1>  -0.1600 
 11 C        6.3440    -2.2850     0.3260 C.3   1 <1>   0.3430 
 12 N        7.5160    -1.4290    -0.0040 N.4   1 <1>  -0.9590 
 13 C        8.7950    -2.2090     0.0890 C.3   1 <1>   0.3430 
 14 C        7.5900    -0.1850     0.8140 C.3   1 <1>   0.3430 
 15 C       10.0470    -1.3090     0.0050 C.3   1 <1>  -0.0800 
 16 C        8.6130     0.7750     0.1930 C.3   1 <1>  -0.1600 
 17 C        9.7370     0.0730    -0.5940 C.3   1 <1>  -0.1600 
 18 C       11.1560    -2.0000    -0.7980 C.3   1 <1>  -0.2400 
 19 H       -1.7080    -1.4660    -1.1080 H     1 <1>   0.1500 
 20 H        1.9840    -4.2820     0.5630 H     1 <1>   0.1500 
 21 H       -2.1610    -3.7270    -0.1970 H     1 <1>   0.1500 
 22 H        3.9360    -3.4550    -0.4910 H     1 <1>   0.0800 
 23 H        3.7130    -2.7520     1.1190 H     1 <1>   0.0800 
 24 H       -0.3020    -5.1050     0.6270 H     1 <1>   0.1500 
 25 H        4.8800    -0.7090     0.3720 H     1 <1>   0.0800 
 26 H        5.1260    -1.4240    -1.2130 H     1 <1>   0.0800 
 27 H        6.4490    -3.2410    -0.1620 H     1 <1>   0.0800 
 28 H        6.2970    -2.4530     1.3910 H     1 <1>   0.0800 
 29 H        7.4270    -1.1240    -0.9830 H     1 <1>   0.4500 
 30 H        8.8260    -2.9250    -0.7170 H     1 <1>   0.0800 
 31 H        8.8260    -2.7570     1.0160 H     1 <1>   0.0800 
 32 H        7.8940    -0.4360     1.8180 H     1 <1>   0.0800 
 33 H        6.6300     0.3030     0.8640 H     1 <1>   0.0800 
 34 H       10.4140    -1.1650     1.0080 H     1 <1>   0.0800 
 35 H        9.0450     1.3560     0.9900 H     1 <1>   0.0800 
 36 H        8.1060     1.4680    -0.4550 H     1 <1>   0.0800 
 37 H        9.4330    -0.0450    -1.6210 H     1 <1>   0.0800 
 38 H       10.6200     0.6910    -0.5890 H     1 <1>   0.0800 
 39 H       10.8500    -2.1660    -1.8170 H     1 <1>   0.0800 
 40 H       11.4110    -2.9490    -0.3570 H     1 <1>   0.0800 
 41 H       12.0440    -1.3910    -0.8080 H     1 <1>   0.0800 
@<TRIPOS>BOND
  1   1   2  1   
  2   2   3  ar  
  3   2   4  ar  
  4   3   5  1   
  5   3   6  ar  
  6   4   7  ar  
  7   4  19  1   
  8   5   8  1   
  9   6   9  ar  
 10   6  20  1   
 11   7   9  ar  
 12   7  21  1   
 13   8  10  1   
 14   8  22  1   
 15   8  23  1   
 16   9  24  1   
 17  10  11  1   
 18  10  25  1   
 19  10  26  1   
 20  11  12  1   
 21  11  27  1   
 22  11  28  1   
 23  12  13  1   
 24  12  14  1   
 25  12  29  1   
 26  13  15  1   
 27  13  30  1   
 28  13  31  1   
 29  14  16  1   
 30  14  32  1   
 31  14  33  1   
 32  15  17  1   
 33  15  18  1   
 34  15  34  1   
 35  16  17  1   
 36  16  35  1   
 37  16  36  1   
 38  17  37  1   
 39  17  38  1   
 40  18  39  1   
 41  18  40  1   
 42  18  41  1   
@<TRIPOS>SUBSTRUCTURE
  1 ****  10 GROUP 4 **** **** 0

# MOE 2024.06 (io_trps.svl 2023.06)
