@<TRIPOS>MOLECULE
NONAME
49 50 1 0 0 
SMALL
USER_CHARGES


@<TRIPOS>ATOM
  1 O       -1.7130     0.0000     0.5950 O.2   1 <1>  -0.5700 
  2 C       -1.2140    -0.9390     1.1830 C.2   1 <1>   0.5440 
  3 N       -1.6850    -1.2240     2.4340 N.am  1 <1>  -0.7300 
  4 C       -0.1950    -1.7570     0.5540 C.ar  1 <1>   0.0860 
  5 C       -2.9480    -0.6390     2.9990 C.3   1 <1>   0.2010 
  6 C        0.7490    -1.1980    -0.3010 C.ar  1 <1>  -0.1500 
  7 C       -0.1290    -3.1350     0.7540 C.ar  1 <1>  -0.1500 
  8 C       -4.2020    -1.2950     2.4190 C.2   1 <1>   0.5690 
  9 C        1.7180    -1.9710    -0.9130 C.ar  1 <1>  -0.1500 
 10 C        0.8410    -3.9100     0.1430 C.ar  1 <1>  -0.1500 
 11 O       -5.0470    -1.7130     3.1750 O.2   1 <1>  -0.5700 
 12 N       -4.2730    -1.4080     1.0610 N.am  1 <1>  -0.5470 
 13 C        1.7880    -3.3440    -0.7040 C.ar  1 <1>  -0.1430 
 14 C       -5.0390    -2.2570     0.2470 C.ar  1 <1>   0.1170 
 15 C        2.8910    -4.1650    -1.4090 C.3   1 <1>   0.1440 
 16 C       -4.4480    -2.8000    -0.8990 C.ar  1 <1>   0.0830 
 17 C       -6.3590    -2.5710     0.5420 C.ar  1 <1>  -0.1500 
 18 C        2.7400    -4.0270    -2.9320 C.3   1 <1>  -0.2400 
 19 C        2.8380    -5.6650    -1.0710 C.3   1 <1>  -0.2400 
 20 C        4.2710    -3.6430    -0.9840 C.3   1 <1>  -0.2400 
 21 O       -3.1420    -2.4780    -1.1380 O.3   1 <1>  -0.3630 
 22 C       -5.1860    -3.6360    -1.7300 C.ar  1 <1>  -0.1500 
 23 C       -7.0870    -3.4060    -0.2860 C.ar  1 <1>  -0.1500 
 24 C       -2.4140    -3.0600    -2.1960 C.3   1 <1>   0.0400 
 25 C       -6.5020    -3.9370    -1.4220 C.ar  1 <1>  -0.1500 
 26 H       -1.3170    -2.0390     2.9270 H     1 <1>   0.3700 
 27 H       -2.9830     0.4140     2.7820 H     1 <1>   0.0800 
 28 H       -2.9510    -0.7610     4.0670 H     1 <1>   0.0800 
 29 H        0.7160    -0.1380    -0.4870 H     1 <1>   0.1500 
 30 H       -0.8550    -3.6120     1.3870 H     1 <1>   0.1500 
 31 H        2.4240    -1.4830    -1.5610 H     1 <1>   0.1500 
 32 H        0.8320    -4.9650     0.3450 H     1 <1>   0.1500 
 33 H       -3.4590    -1.0110     0.5690 H     1 <1>   0.3700 
 34 H       -6.8170    -2.1580     1.4230 H     1 <1>   0.1500 
 35 H        2.8570    -3.0060    -3.2430 H     1 <1>   0.0800 
 36 H        1.7650    -4.3630    -3.2370 H     1 <1>   0.0800 
 37 H        3.4800    -4.6180    -3.4420 H     1 <1>   0.0800 
 38 H        1.8990    -6.0900    -1.3780 H     1 <1>   0.0800 
 39 H        2.9660    -5.8190    -0.0150 H     1 <1>   0.0800 
 40 H        3.6240    -6.1940    -1.5810 H     1 <1>   0.0800 
 41 H        4.3740    -3.7030     0.0840 H     1 <1>   0.0800 
 42 H        4.4080    -2.6190    -1.2790 H     1 <1>   0.0800 
 43 H        5.0540    -4.2260    -1.4370 H     1 <1>   0.0800 
 44 H       -4.7580    -4.0610    -2.6170 H     1 <1>   0.1500 
 45 H       -8.1100    -3.6410    -0.0430 H     1 <1>   0.1500 
 46 H       -1.4050    -2.6890    -2.1490 H     1 <1>   0.0800 
 47 H       -2.8650    -2.7740    -3.1290 H     1 <1>   0.0800 
 48 H       -2.4150    -4.1280    -2.0750 H     1 <1>   0.0800 
 49 H       -7.0720    -4.5850    -2.0650 H     1 <1>   0.1500 
@<TRIPOS>BOND
  1   1   2  2   
  2   2   3  am  
  3   2   4  1   
  4   3   5  1   
  5   3  26  1   
  6   4   6  ar  
  7   4   7  ar  
  8   5   8  1   
  9   5  27  1   
 10   5  28  1   
 11   6   9  ar  
 12   6  29  1   
 13   7  10  ar  
 14   7  30  1   
 15   8  11  2   
 16   8  12  am  
 17   9  13  ar  
 18   9  31  1   
 19  10  13  ar  
 20  10  32  1   
 21  12  14  1   
 22  12  33  1   
 23  13  15  1   
 24  14  16  ar  
 25  14  17  ar  
 26  15  18  1   
 27  15  19  1   
 28  15  20  1   
 29  16  21  1   
 30  16  22  ar  
 31  17  23  ar  
 32  17  34  1   
 33  18  35  1   
 34  18  36  1   
 35  18  37  1   
 36  19  38  1   
 37  19  39  1   
 38  19  40  1   
 39  20  41  1   
 40  20  42  1   
 41  20  43  1   
 42  21  24  1   
 43  22  25  ar  
 44  22  44  1   
 45  23  25  ar  
 46  23  45  1   
 47  24  46  1   
 48  24  47  1   
 49  24  48  1   
 50  25  49  1   
@<TRIPOS>SUBSTRUCTURE
  1 ****  21 GROUP 4 **** **** 0

# MOE 2024.06 (io_trps.svl 2023.06)
