@<TRIPOS>MOLECULE
NONAME
41 42 1 0 0 
SMALL
USER_CHARGES


@<TRIPOS>ATOM
  1 CL      -3.3400     1.1570    -1.2410 Cl    1 <1>  -0.1770 
  2 C       -1.8810     1.9140    -0.6500 C.ar  1 <1>   0.1770 
  3 C       -0.7100     1.1820    -0.6060 C.ar  1 <1>  -0.1500 
  4 C       -1.9260     3.2300    -0.2310 C.ar  1 <1>  -0.1500 
  5 C        0.4520     1.7750    -0.1420 C.ar  1 <1>  -0.1440 
  6 C       -0.7720     3.8390     0.2360 C.ar  1 <1>  -0.1440 
  7 C        0.4180     3.1110     0.2590 C.ar  1 <1>   0.0830 
  8 C        1.7300     0.9510    -0.0740 C.3   1 <1>  -0.0960 
  9 C       -0.8390     5.2810     0.7200 C.3   1 <1>  -0.0960 
 10 O        1.5540     3.7070     0.6860 O.3   1 <1>  -0.3630 
 11 C        2.3180     4.3410    -0.3060 C.3   1 <1>   0.1200 
 12 C        3.5460     4.9390     0.3790 C.3   1 <1>  -0.1600 
 13 C        4.4440     5.6370    -0.6390 C.3   1 <1>   0.3430 
 14 N        5.5930     6.2850     0.0490 N.4   1 <1>  -0.9590 
 15 C        6.3850     7.1600    -0.8500 C.3   1 <1>   0.3430 
 16 C        6.5670     5.3350     0.6450 C.3   1 <1>   0.3430 
 17 C        7.7110     7.3440    -0.1260 C.3   1 <1>  -0.1600 
 18 C        7.8350     6.1570     0.8330 C.3   1 <1>  -0.1600 
 19 H       -0.7220     0.1570    -0.9320 H     1 <1>   0.1500 
 20 H       -2.8590     3.7600    -0.2710 H     1 <1>   0.1500 
 21 H        1.5040    -0.1010    -0.0660 H     1 <1>   0.0800 
 22 H        2.2740     1.1800     0.8250 H     1 <1>   0.0800 
 23 H        2.3510     1.1620    -0.9250 H     1 <1>   0.0800 
 24 H       -1.8500     5.5530     0.9670 H     1 <1>   0.0800 
 25 H       -0.4830     5.9440    -0.0460 H     1 <1>   0.0800 
 26 H       -0.2360     5.4060     1.6020 H     1 <1>   0.0800 
 27 H        1.7110     5.1020    -0.7650 H     1 <1>   0.0800 
 28 H        2.5940     3.6050    -1.0410 H     1 <1>   0.0800 
 29 H        4.0810     4.1420     0.8630 H     1 <1>   0.0800 
 30 H        3.2120     5.6480     1.1160 H     1 <1>   0.0800 
 31 H        3.8680     6.3860    -1.1600 H     1 <1>   0.0800 
 32 H        4.8020     4.9230    -1.3640 H     1 <1>   0.0800 
 33 H        5.2370     6.8760     0.8130 H     1 <1>   0.4500 
 34 H        5.8930     8.1030    -1.0300 H     1 <1>   0.0800 
 35 H        6.5570     6.6590    -1.7900 H     1 <1>   0.0800 
 36 H        6.7600     4.5280    -0.0440 H     1 <1>   0.0800 
 37 H        6.2110     4.9300     1.5800 H     1 <1>   0.0800 
 38 H        7.7010     8.2710     0.4230 H     1 <1>   0.0800 
 39 H        8.5240     7.3760    -0.8320 H     1 <1>   0.0800 
 40 H        8.7040     5.5590     0.6190 H     1 <1>   0.0800 
 41 H        7.9000     6.5000     1.8510 H     1 <1>   0.0800 
@<TRIPOS>BOND
  1   1   2  1   
  2   2   3  ar  
  3   2   4  ar  
  4   3   5  ar  
  5   3  19  1   
  6   4   6  ar  
  7   4  20  1   
  8   5   7  ar  
  9   5   8  1   
 10   6   7  ar  
 11   6   9  1   
 12   7  10  1   
 13   8  21  1   
 14   8  22  1   
 15   8  23  1   
 16   9  24  1   
 17   9  25  1   
 18   9  26  1   
 19  10  11  1   
 20  11  12  1   
 21  11  27  1   
 22  11  28  1   
 23  12  13  1   
 24  12  29  1   
 25  12  30  1   
 26  13  14  1   
 27  13  31  1   
 28  13  32  1   
 29  14  15  1   
 30  14  16  1   
 31  14  33  1   
 32  15  17  1   
 33  15  34  1   
 34  15  35  1   
 35  16  18  1   
 36  16  36  1   
 37  16  37  1   
 38  17  18  1   
 39  17  38  1   
 40  17  39  1   
 41  18  40  1   
 42  18  41  1   
@<TRIPOS>SUBSTRUCTURE
  1 ****  11 GROUP 4 **** **** 0

# MOE 2024.06 (io_trps.svl 2023.06)
