@<TRIPOS>MOLECULE
NONAME
34 35 1 0 0 
SMALL
USER_CHARGES


@<TRIPOS>ATOM
  1 CL      -1.4750     0.7340    -1.4220 Cl    1 <1>  -0.1770 
  2 C       -0.7800     2.1170    -0.6060 C.ar  1 <1>   0.1770 
  3 C       -1.4240     2.6940     0.4790 C.ar  1 <1>  -0.1440 
  4 C        0.4300     2.6010    -1.0770 C.ar  1 <1>  -0.1500 
  5 C       -0.7900     3.7740     1.0780 C.ar  1 <1>   0.1900 
  6 C       -2.7560     2.1630     0.9880 C.3   1 <1>   0.2540 
  7 C        1.0330     3.6850    -0.4590 C.ar  1 <1>  -0.1500 
  8 F       -1.3440     4.3540     2.1100 F     1 <1>  -0.1900 
  9 C        0.4180     4.2780     0.6310 C.ar  1 <1>  -0.1500 
 10 N       -3.8580     2.6070     0.1200 N.3   1 <1>  -0.8100 
 11 C       -5.0870     1.8390     0.3960 C.3   1 <1>   0.1100 
 12 C       -4.1150     4.0600     0.2510 C.3   1 <1>   0.1100 
 13 C       -6.2360     2.2510    -0.5400 C.3   1 <1>   0.1400 
 14 C       -5.2510     4.5260    -0.6740 C.3   1 <1>   0.1400 
 15 N       -6.4890     3.7200    -0.4500 N.am  1 <1>  -0.6600 
 16 C       -7.6880     4.3140    -0.1610 C.2   1 <1>   0.5690 
 17 O       -7.8080     5.5120    -0.0620 O.2   1 <1>  -0.5700 
 18 C       -8.9270     3.4770     0.0490 C.3   1 <1>  -0.1790 
 19 H        0.8940     2.1270    -1.9240 H     1 <1>   0.1500 
 20 H       -2.9370     2.4810     2.0010 H     1 <1>   0.0800 
 21 H       -2.7140     1.0870     0.9890 H     1 <1>   0.0800 
 22 H        1.9730     4.0630    -0.8240 H     1 <1>   0.1500 
 23 H        0.8670     5.1190     1.1300 H     1 <1>   0.1500 
 24 H       -5.3930     1.9900     1.4170 H     1 <1>   0.0800 
 25 H       -4.8890     0.7900     0.2540 H     1 <1>   0.0800 
 26 H       -3.2280     4.6100    -0.0060 H     1 <1>   0.0800 
 27 H       -4.3730     4.2990     1.2690 H     1 <1>   0.0800 
 28 H       -7.1150     1.6890    -0.2850 H     1 <1>   0.0800 
 29 H       -5.9660     2.0040    -1.5520 H     1 <1>   0.0800 
 30 H       -4.9390     4.4150    -1.6980 H     1 <1>   0.0800 
 31 H       -5.4420     5.5710    -0.5000 H     1 <1>   0.0800 
 32 H       -8.8010     2.8490     0.9100 H     1 <1>   0.0800 
 33 H       -9.1140     2.8770    -0.8210 H     1 <1>   0.0800 
 34 H       -9.7730     4.1190     0.2120 H     1 <1>   0.0800 
@<TRIPOS>BOND
  1   1   2  1   
  2   2   3  ar  
  3   2   4  ar  
  4   3   5  ar  
  5   3   6  1   
  6   4   7  ar  
  7   4  19  1   
  8   5   8  1   
  9   5   9  ar  
 10   6  10  1   
 11   6  20  1   
 12   6  21  1   
 13   7   9  ar  
 14   7  22  1   
 15   9  23  1   
 16  10  11  1   
 17  10  12  1   
 18  11  13  1   
 19  11  24  1   
 20  11  25  1   
 21  12  14  1   
 22  12  26  1   
 23  12  27  1   
 24  13  15  1   
 25  13  28  1   
 26  13  29  1   
 27  14  15  1   
 28  14  30  1   
 29  14  31  1   
 30  15  16  am  
 31  16  17  2   
 32  16  18  1   
 33  18  32  1   
 34  18  33  1   
 35  18  34  1   
@<TRIPOS>SUBSTRUCTURE
  1 ****  10 GROUP 4 **** **** 0

# MOE 2024.06 (io_trps.svl 2023.06)
