@<TRIPOS>MOLECULE
NONAME
48 51 1 0 0 
SMALL
USER_CHARGES


@<TRIPOS>ATOM
  1 O       -0.0300     0.6350     1.6990 O.2   1 <1>  -0.5700 
  2 C        0.1310     1.5050     0.8650 C.2   1 <1>   0.5440 
  3 N        1.3830     1.6990     0.3530 N.am  1 <1>  -0.7300 
  4 C       -0.9870     2.3090     0.4070 C.ar  1 <1>   0.0860 
  5 C        2.6030     0.9540     0.7320 C.3   1 <1>   0.2200 
  6 C       -2.2920     1.8190     0.4670 C.ar  1 <1>  -0.1500 
  7 C       -0.8120     3.5930    -0.1080 C.ar  1 <1>  -0.1500 
  8 C        3.7250     1.9380     1.1280 C.3   1 <1>  -0.0800 
  9 C        3.0800     0.0780    -0.4460 C.3   1 <1>  -0.0800 
 10 C       -3.3890     2.5540     0.0280 C.ar  1 <1>   0.0830 
 11 C       -1.8860     4.3370    -0.5540 C.ar  1 <1>  -0.1500 
 12 C        4.9490     1.1200     1.5900 C.3   1 <1>  -0.1600 
 13 C        4.1450     2.8110    -0.0770 C.3   1 <1>  -0.1600 
 14 C        4.3050    -0.7380     0.0190 C.3   1 <1>  -0.1600 
 15 C        3.5000     0.9520    -1.6500 C.3   1 <1>  -0.1600 
 16 O       -4.6520     2.0380     0.1080 O.3   1 <1>  -0.3630 
 17 C       -3.1780     3.8420    -0.5000 C.ar  1 <1>   0.0830 
 18 C        5.4420     0.2130     0.4450 C.3   1 <1>  -0.0800 
 19 C        4.6290     1.9150    -1.2340 C.3   1 <1>  -0.0800 
 20 C       -4.9320     0.8230     0.7710 C.3   1 <1>   0.0400 
 21 O       -4.1200     4.6990    -0.9830 O.3   1 <1>  -0.3630 
 22 C        5.8400     1.0910    -0.7560 C.3   1 <1>  -0.1600 
 23 C       -5.4980     4.4080    -1.0440 C.3   1 <1>   0.0400 
 24 H        1.5150     2.3320    -0.4330 H     1 <1>   0.3700 
 25 H        2.3800     0.3200     1.5740 H     1 <1>   0.0800 
 26 H       -2.4130     0.8320     0.8700 H     1 <1>   0.1500 
 27 H        0.1730     4.0220    -0.1540 H     1 <1>   0.1500 
 28 H        3.3860     2.5570     1.9390 H     1 <1>   0.0800 
 29 H        2.2910    -0.5970    -0.7300 H     1 <1>   0.0800 
 30 H       -1.7300     5.3250    -0.9500 H     1 <1>   0.1500 
 31 H        4.6840     0.5180     2.4430 H     1 <1>   0.0800 
 32 H        5.7390     1.7840     1.8950 H     1 <1>   0.0800 
 33 H        4.9370     3.4760     0.2200 H     1 <1>   0.0800 
 34 H        3.3230     3.4210    -0.4040 H     1 <1>   0.0800 
 35 H        4.6420    -1.3760    -0.7790 H     1 <1>   0.0800 
 36 H        4.0290    -1.3700     0.8450 H     1 <1>   0.0800 
 37 H        2.6580     1.5090    -2.0210 H     1 <1>   0.0800 
 38 H        3.8410     0.3200    -2.4520 H     1 <1>   0.0800 
 39 H        6.2920    -0.3610     0.7740 H     1 <1>   0.0800 
 40 H        4.9160     2.5260    -2.0740 H     1 <1>   0.0800 
 41 H       -5.9970     0.6750     0.7600 H     1 <1>   0.0800 
 42 H       -4.5830     0.8890     1.7870 H     1 <1>   0.0800 
 43 H       -4.4480     0.0190     0.2470 H     1 <1>   0.0800 
 44 H        6.1970     0.4690    -1.5590 H     1 <1>   0.0800 
 45 H        6.6420     1.7510    -0.4750 H     1 <1>   0.0800 
 46 H       -6.0000     5.2520    -1.4780 H     1 <1>   0.0800 
 47 H       -5.8620     4.2380    -0.0460 H     1 <1>   0.0800 
 48 H       -5.6430     3.5380    -1.6600 H     1 <1>   0.0800 
@<TRIPOS>BOND
  1   1   2  2   
  2   2   3  am  
  3   2   4  1   
  4   3   5  1   
  5   3  24  1   
  6   4   6  ar  
  7   4   7  ar  
  8   5   8  1   
  9   5   9  1   
 10   5  25  1   
 11   6  10  ar  
 12   6  26  1   
 13   7  11  ar  
 14   7  27  1   
 15   8  12  1   
 16   8  13  1   
 17   8  28  1   
 18   9  14  1   
 19   9  15  1   
 20   9  29  1   
 21  10  16  1   
 22  10  17  ar  
 23  11  17  ar  
 24  11  30  1   
 25  12  18  1   
 26  12  31  1   
 27  12  32  1   
 28  13  19  1   
 29  13  33  1   
 30  13  34  1   
 31  14  18  1   
 32  14  35  1   
 33  14  36  1   
 34  15  19  1   
 35  15  37  1   
 36  15  38  1   
 37  16  20  1   
 38  17  21  1   
 39  18  22  1   
 40  18  39  1   
 41  19  22  1   
 42  19  40  1   
 43  20  41  1   
 44  20  42  1   
 45  20  43  1   
 46  21  23  1   
 47  22  44  1   
 48  22  45  1   
 49  23  46  1   
 50  23  47  1   
 51  23  48  1   
@<TRIPOS>SUBSTRUCTURE
  1 ****   3 GROUP 4 **** **** 0

# MOE 2024.06 (io_trps.svl 2023.06)
