@<TRIPOS>MOLECULE
NONAME
47 47 1 0 0 
SMALL
USER_CHARGES


@<TRIPOS>ATOM
  1 O       -3.0360     2.5290    -1.1130 O.2   1 <1>  -0.5700 
  2 C       -2.2360     2.0730    -0.3280 C.2   1 <1>   0.5690 
  3 N       -2.2590     0.7610     0.0590 N.am  1 <1>  -0.5470 
  4 C       -1.1550     3.0130     0.2660 C.3   1 <1>   0.0610 
  5 C       -3.0510    -0.3490    -0.3240 C.ar  1 <1>   0.1170 
  6 C       -0.1530     2.2810     1.1870 C.3   1 <1>  -0.2400 
  7 C       -0.3510     3.6700    -0.8720 C.3   1 <1>  -0.2400 
  8 C       -1.8320     4.1220     1.0920 C.3   1 <1>  -0.2400 
  9 C       -4.4510    -0.2850    -0.4700 C.ar  1 <1>   0.1170 
 10 C       -2.4030    -1.5730    -0.5110 C.ar  1 <1>  -0.1430 
 11 N       -5.1330     0.9340    -0.3170 N.am  1 <1>  -0.5470 
 12 C       -5.1550    -1.4380    -0.7890 C.ar  1 <1>  -0.1500 
 13 C       -3.1320    -2.7080    -0.8290 C.ar  1 <1>  -0.1500 
 14 C       -0.8890    -1.7030    -0.3780 C.3   1 <1>  -0.0970 
 15 C       -6.3780     1.2390     0.1550 C.2   1 <1>   0.5690 
 16 C       -4.5050    -2.6430    -0.9660 C.ar  1 <1>  -0.1500 
 17 O       -7.1340     0.3930     0.5750 O.2   1 <1>  -0.5700 
 18 C       -6.7980     2.7320     0.1550 C.3   1 <1>   0.0610 
 19 C       -8.2520     2.9190     0.6350 C.3   1 <1>  -0.2400 
 20 C       -5.8820     3.5410     1.0930 C.3   1 <1>  -0.2400 
 21 C       -6.6930     3.3230    -1.2650 C.3   1 <1>  -0.2400 
 22 H       -1.4960     0.5050     0.6810 H     1 <1>   0.3700 
 23 H       -0.6570     1.8430     2.0310 H     1 <1>   0.0800 
 24 H        0.5800     2.9730     1.5660 H     1 <1>   0.0800 
 25 H        0.3690     1.5110     0.6470 H     1 <1>   0.0800 
 26 H        0.1330     2.9200    -1.4710 H     1 <1>   0.0800 
 27 H        0.3980     4.3350    -0.4810 H     1 <1>   0.0800 
 28 H       -1.0040     4.2370    -1.5130 H     1 <1>   0.0800 
 29 H       -2.4010     3.6950     1.8990 H     1 <1>   0.0800 
 30 H       -2.5020     4.6920     0.4720 H     1 <1>   0.0800 
 31 H       -1.1010     4.7940     1.5060 H     1 <1>   0.0800 
 32 H       -4.5630     1.7390    -0.6040 H     1 <1>   0.3700 
 33 H       -6.2230    -1.3960    -0.9010 H     1 <1>   0.1500 
 34 H       -2.6390    -3.6530    -0.9730 H     1 <1>   0.1500 
 35 H       -0.3990    -0.9770    -1.0020 H     1 <1>   0.0800 
 36 H       -0.5580    -2.6790    -0.6850 H     1 <1>   0.0800 
 37 H       -0.5930    -1.5530     0.6440 H     1 <1>   0.0800 
 38 H       -5.0680    -3.5270    -1.2110 H     1 <1>   0.1500 
 39 H       -8.3650     2.5410     1.6360 H     1 <1>   0.0800 
 40 H       -8.9270     2.3770    -0.0030 H     1 <1>   0.0800 
 41 H       -8.5320     3.9570     0.6280 H     1 <1>   0.0800 
 42 H       -5.9280     3.1390     2.0900 H     1 <1>   0.0800 
 43 H       -6.1860     4.5720     1.1260 H     1 <1>   0.0800 
 44 H       -4.8620     3.5010     0.7590 H     1 <1>   0.0800 
 45 H       -7.3090     2.7620    -1.9450 H     1 <1>   0.0800 
 46 H       -5.6790     3.2910    -1.6240 H     1 <1>   0.0800 
 47 H       -7.0190     4.3480    -1.2760 H     1 <1>   0.0800 
@<TRIPOS>BOND
  1   1   2  2   
  2   2   3  am  
  3   2   4  1   
  4   3   5  1   
  5   3  22  1   
  6   4   6  1   
  7   4   7  1   
  8   4   8  1   
  9   5   9  ar  
 10   5  10  ar  
 11   6  23  1   
 12   6  24  1   
 13   6  25  1   
 14   7  26  1   
 15   7  27  1   
 16   7  28  1   
 17   8  29  1   
 18   8  30  1   
 19   8  31  1   
 20   9  11  1   
 21   9  12  ar  
 22  10  13  ar  
 23  10  14  1   
 24  11  15  am  
 25  11  32  1   
 26  12  16  ar  
 27  12  33  1   
 28  13  16  ar  
 29  13  34  1   
 30  14  35  1   
 31  14  36  1   
 32  14  37  1   
 33  15  17  2   
 34  15  18  1   
 35  16  38  1   
 36  18  19  1   
 37  18  20  1   
 38  18  21  1   
 39  19  39  1   
 40  19  40  1   
 41  19  41  1   
 42  20  42  1   
 43  20  43  1   
 44  20  44  1   
 45  21  45  1   
 46  21  46  1   
 47  21  47  1   
@<TRIPOS>SUBSTRUCTURE
  1 ****  11 GROUP 4 **** **** 0

# MOE 2024.06 (io_trps.svl 2023.06)
