@<TRIPOS>MOLECULE
NONAME
47 48 1 0 0 
SMALL
USER_CHARGES


@<TRIPOS>ATOM
  1 S        0.0560     0.2760     0.0540 S.o2  1 <1>   1.3330 
  2 O        1.2320     1.1050     0.1500 O.2   1 <1>  -0.6500 
  3 O       -1.2100     0.7130     0.5920 O.2   1 <1>  -0.6500 
  4 N        0.4050    -1.2680     0.7690 N.am  1 <1>  -0.6930 
  5 C       -0.1970    -0.1740    -1.6480 C.3   1 <1>  -0.1350 
  6 C        1.5890    -1.9510     0.5390 C.ar  1 <1>   0.1990 
  7 C       -0.6600    -1.8910     1.5930 C.3   1 <1>   0.1160 
  8 C        1.5780    -3.2240    -0.0210 C.ar  1 <1>  -0.1500 
  9 C        2.8210    -1.3940     0.8610 C.ar  1 <1>  -0.1500 
 10 C        2.7550    -3.9040    -0.2630 C.ar  1 <1>  -0.1500 
 11 C        3.9980    -2.0760     0.6190 C.ar  1 <1>  -0.1500 
 12 C        4.0000    -3.3480     0.0400 C.ar  1 <1>   0.0860 
 13 C        5.2270    -4.0700    -0.2360 C.2   1 <1>   0.5440 
 14 O        5.2320    -5.2840    -0.3020 O.2   1 <1>  -0.5700 
 15 N        6.4040    -3.4000    -0.4390 N.am  1 <1>  -0.7300 
 16 C        7.7180    -4.0330    -0.7070 C.3   1 <1>   0.1400 
 17 C        8.6160    -3.9000     0.5230 C.3   1 <1>  -0.0220 
 18 C       10.0070    -4.4660     0.2610 C.2   1 <1>  -0.2760 
 19 C       11.1000    -3.6980     0.1960 C.2   1 <1>  -0.2880 
 20 C       10.0550    -5.9820     0.0850 C.3   1 <1>  -0.0220 
 21 C       12.5010    -4.2210    -0.0800 C.3   1 <1>  -0.0220 
 22 C       11.4880    -6.5220     0.2020 C.3   1 <1>  -0.1600 
 23 C       12.4710    -5.6630    -0.6040 C.3   1 <1>  -0.1600 
 24 H       -0.4410     0.6960    -2.2240 H     1 <1>   0.0800 
 25 H       -0.9990    -0.8800    -1.7300 H     1 <1>   0.0800 
 26 H        0.6950    -0.6130    -2.0500 H     1 <1>   0.0800 
 27 H       -0.9380    -1.2200     2.3880 H     1 <1>   0.0800 
 28 H       -0.3120    -2.8120     2.0260 H     1 <1>   0.0800 
 29 H       -1.5260    -2.0870     0.9850 H     1 <1>   0.0800 
 30 H        0.6370    -3.6790    -0.2710 H     1 <1>   0.1500 
 31 H        2.8510    -0.4180     1.3130 H     1 <1>   0.1500 
 32 H        2.7230    -4.8900    -0.6970 H     1 <1>   0.1500 
 33 H        4.9280    -1.6130     0.8930 H     1 <1>   0.1500 
 34 H        6.3960    -2.3810    -0.4650 H     1 <1>   0.3700 
 35 H        8.1810    -3.5510    -1.5510 H     1 <1>   0.0800 
 36 H        7.5810    -5.0730    -0.9490 H     1 <1>   0.0800 
 37 H        8.1680    -4.4160     1.3530 H     1 <1>   0.0800 
 38 H        8.7010    -2.8600     0.7810 H     1 <1>   0.0800 
 39 H       11.0780    -2.6310     0.3390 H     1 <1>   0.1500 
 40 H        9.6580    -6.2370    -0.8820 H     1 <1>   0.0800 
 41 H        9.4450    -6.4590     0.8320 H     1 <1>   0.0800 
 42 H       13.0710    -4.1770     0.8320 H     1 <1>   0.0800 
 43 H       12.9850    -3.5930    -0.8080 H     1 <1>   0.0800 
 44 H       11.5180    -7.5400    -0.1430 H     1 <1>   0.0800 
 45 H       11.7820    -6.5130     1.2380 H     1 <1>   0.0800 
 46 H       13.4590    -6.0860    -0.5540 H     1 <1>   0.0800 
 47 H       12.1630    -5.6560    -1.6360 H     1 <1>   0.0800 
@<TRIPOS>BOND
  1   1   2  2   
  2   1   3  2   
  3   1   4  am  
  4   1   5  1   
  5   4   6  1   
  6   4   7  1   
  7   5  24  1   
  8   5  25  1   
  9   5  26  1   
 10   6   8  ar  
 11   6   9  ar  
 12   7  27  1   
 13   7  28  1   
 14   7  29  1   
 15   8  10  ar  
 16   8  30  1   
 17   9  11  ar  
 18   9  31  1   
 19  10  12  ar  
 20  10  32  1   
 21  11  12  ar  
 22  11  33  1   
 23  12  13  1   
 24  13  14  2   
 25  13  15  am  
 26  15  16  1   
 27  15  34  1   
 28  16  17  1   
 29  16  35  1   
 30  16  36  1   
 31  17  18  1   
 32  17  37  1   
 33  17  38  1   
 34  18  19  2   
 35  18  20  1   
 36  19  21  1   
 37  19  39  1   
 38  20  22  1   
 39  20  40  1   
 40  20  41  1   
 41  21  23  1   
 42  21  42  1   
 43  21  43  1   
 44  22  23  1   
 45  22  44  1   
 46  22  45  1   
 47  23  46  1   
 48  23  47  1   
@<TRIPOS>SUBSTRUCTURE
  1 ****  13 GROUP 4 **** **** 0

# MOE 2024.06 (io_trps.svl 2023.06)
