@<TRIPOS>MOLECULE
NONAME
39 42 1 0 0 
SMALL
USER_CHARGES


@<TRIPOS>ATOM
  1 F       -0.5050     1.6280     0.7510 F     1 <1>  -0.3400 
  2 C       -1.1890     1.0780    -0.2450 C.3   1 <1>   1.1640 
  3 F       -0.4810     1.2960    -1.3450 F     1 <1>  -0.3400 
  4 F       -1.1590    -0.2340    -0.0350 F     1 <1>  -0.3400 
  5 C       -2.6110     1.6470    -0.3580 C.ar  1 <1>  -0.1440 
  6 C       -2.8190     3.0190    -0.2790 C.ar  1 <1>  -0.1500 
  7 C       -3.7140     0.8170    -0.5450 C.ar  1 <1>  -0.1500 
  8 C       -4.0890     3.5750    -0.3740 C.ar  1 <1>   0.1000 
  9 C       -4.9840     1.3540    -0.6470 C.ar  1 <1>  -0.1500 
 10 N       -4.2240     4.9660    -0.2950 N.pl3 1 <1>  -0.6000 
 11 C       -5.1690     2.7210    -0.5650 C.ar  1 <1>  -0.1500 
 12 C       -5.2340     5.7950     0.1770 C.ar  1 <1>   0.4100 
 13 N       -6.3200     5.2810     0.6670 N.ar  1 <1>  -0.5660 
 14 C       -4.9890     7.2400     0.0890 C.ar  1 <1>   0.4100 
 15 C       -7.2250     6.2310     1.0500 C.ar  1 <1>   0.5450 
 16 N       -5.8550     8.1380     0.4440 N.ar  1 <1>  -0.5660 
 17 N       -3.7560     7.6940    -0.3740 N.pl3 1 <1>  -0.8380 
 18 N       -8.3900     6.0640     1.5540 N.2   1 <1>  -0.4100 
 19 C       -7.0080     7.5890     0.9370 C.ar  1 <1>   0.5450 
 20 C       -2.6660     7.8430     0.6420 C.3   1 <1>   0.2090 
 21 C       -3.7390     8.7980    -1.3910 C.3   1 <1>   0.2090 
 22 O       -8.8890     7.2580     1.7500 O.3   1 <1>   0.2420 
 23 N       -8.0500     8.1900     1.3750 N.2   1 <1>  -0.4100 
 24 C       -2.5840     9.2850     1.1780 C.3   1 <1>   0.1200 
 25 C       -3.5680    10.1840    -0.7390 C.3   1 <1>   0.1200 
 26 O       -2.4670    10.1980     0.1250 O.3   1 <1>  -0.5600 
 27 H       -1.9800     3.6780    -0.1370 H     1 <1>   0.1500 
 28 H       -3.5960    -0.2520    -0.6140 H     1 <1>   0.1500 
 29 H       -5.8330     0.7080    -0.7920 H     1 <1>   0.1500 
 30 H       -3.4360     5.5220    -0.6440 H     1 <1>   0.4000 
 31 H       -6.1610     3.1220    -0.6550 H     1 <1>   0.1500 
 32 H       -1.7230     7.5850     0.1920 H     1 <1>   0.0800 
 33 H       -2.8360     7.1700     1.4650 H     1 <1>   0.0800 
 34 H       -4.6540     8.7850    -1.9590 H     1 <1>   0.0800 
 35 H       -2.9260     8.6320    -2.0770 H     1 <1>   0.0800 
 36 H       -1.7210     9.3990     1.8100 H     1 <1>   0.0800 
 37 H       -3.4650     9.5260     1.7480 H     1 <1>   0.0800 
 38 H       -4.4490    10.4480    -0.1800 H     1 <1>   0.0800 
 39 H       -3.4030    10.9310    -1.4940 H     1 <1>   0.0800 
@<TRIPOS>BOND
  1   1   2  1   
  2   2   3  1   
  3   2   4  1   
  4   2   5  1   
  5   5   6  ar  
  6   5   7  ar  
  7   6   8  ar  
  8   6  27  1   
  9   7   9  ar  
 10   7  28  1   
 11   8  10  1   
 12   8  11  ar  
 13   9  11  ar  
 14   9  29  1   
 15  10  12  1   
 16  10  30  1   
 17  11  31  1   
 18  12  13  ar  
 19  12  14  ar  
 20  13  15  ar  
 21  14  16  ar  
 22  14  17  1   
 23  15  18  2   
 24  15  19  ar  
 25  16  19  ar  
 26  17  20  1   
 27  17  21  1   
 28  18  22  1   
 29  19  23  2   
 30  20  24  1   
 31  20  32  1   
 32  20  33  1   
 33  21  25  1   
 34  21  34  1   
 35  21  35  1   
 36  22  23  1   
 37  24  26  1   
 38  24  36  1   
 39  24  37  1   
 40  25  26  1   
 41  25  38  1   
 42  25  39  1   
@<TRIPOS>SUBSTRUCTURE
  1 ****  10 GROUP 4 **** **** 0

# MOE 2024.06 (io_trps.svl 2023.06)
