@<TRIPOS>MOLECULE
NONAME
40 41 1 0 0 
SMALL
USER_CHARGES


@<TRIPOS>ATOM
  1 CL      -0.2930     0.3930     0.2850 Cl    1 <1>  -0.1770 
  2 C        1.3410     1.0270     0.2110 C.ar  1 <1>   0.1770 
  3 C        1.5380     2.3450    -0.1800 C.ar  1 <1>  -0.1440 
  4 C        2.4040     0.1980     0.5450 C.ar  1 <1>  -0.1440 
  5 C        2.8330     2.8330    -0.2340 C.ar  1 <1>  -0.1500 
  6 C        0.3660     3.2460    -0.5430 C.3   1 <1>  -0.0960 
  7 C        3.6930     0.7060     0.4840 C.ar  1 <1>  -0.1500 
  8 C        2.1710    -1.2440     0.9740 C.3   1 <1>  -0.0960 
  9 C        3.9110     2.0250     0.0930 C.ar  1 <1>   0.0830 
 10 O        5.1410     2.5920     0.0060 O.3   1 <1>  -0.3630 
 11 C        6.3110     1.8450     0.2500 C.3   1 <1>   0.1200 
 12 C        7.5120     2.7740     0.0570 C.3   1 <1>   0.1100 
 13 N        8.7950     2.0650     0.2690 N.3   1 <1>  -0.8100 
 14 C        9.1600     1.2150    -0.8850 C.3   1 <1>   0.1100 
 15 C        9.8700     3.0230     0.5980 C.3   1 <1>   0.1100 
 16 C       10.4860     0.4660    -0.6340 C.3   1 <1>   0.3430 
 17 C       11.2040     2.3000     0.8730 C.3   1 <1>   0.3430 
 18 N       11.5940     1.4110    -0.2710 N.4   1 <1>  -0.9060 
 19 H        3.0240     3.8480    -0.5320 H     1 <1>   0.1500 
 20 H       -0.2990     3.3380     0.2960 H     1 <1>   0.0800 
 21 H       -0.1760     2.8260    -1.3720 H     1 <1>   0.0800 
 22 H        0.7060     4.2280    -0.8190 H     1 <1>   0.0800 
 23 H        4.5130     0.0660     0.7450 H     1 <1>   0.1500 
 24 H        1.5540    -1.2690     1.8540 H     1 <1>   0.0800 
 25 H        3.0980    -1.7400     1.1940 H     1 <1>   0.0800 
 26 H        1.6740    -1.7840     0.1880 H     1 <1>   0.0800 
 27 H        6.3320     1.0290    -0.4480 H     1 <1>   0.0800 
 28 H        6.2780     1.4840     1.2630 H     1 <1>   0.0800 
 29 H        7.4180     3.5690     0.7780 H     1 <1>   0.0800 
 30 H        7.4840     3.2050    -0.9290 H     1 <1>   0.0800 
 31 H        9.2460     1.8170    -1.7750 H     1 <1>   0.0800 
 32 H        8.3870     0.4860    -1.0560 H     1 <1>   0.0800 
 33 H        9.5930     3.5760     1.4800 H     1 <1>   0.0800 
 34 H        9.9950     3.7290    -0.2070 H     1 <1>   0.0800 
 35 H       10.7510    -0.0950    -1.5150 H     1 <1>   0.0800 
 36 H       10.3290    -0.2330     0.1710 H     1 <1>   0.0800 
 37 H       11.0880     1.7100     1.7680 H     1 <1>   0.0800 
 38 H       11.9760     3.0300     1.0550 H     1 <1>   0.0800 
 39 H       11.8100     1.9960    -1.0860 H     1 <1>   0.4500 
 40 H       12.4420     0.8830    -0.0330 H     1 <1>   0.4500 
@<TRIPOS>BOND
  1   1   2  1   
  2   2   3  ar  
  3   2   4  ar  
  4   3   5  ar  
  5   3   6  1   
  6   4   7  ar  
  7   4   8  1   
  8   5   9  ar  
  9   5  19  1   
 10   6  20  1   
 11   6  21  1   
 12   6  22  1   
 13   7   9  ar  
 14   7  23  1   
 15   8  24  1   
 16   8  25  1   
 17   8  26  1   
 18   9  10  1   
 19  10  11  1   
 20  11  12  1   
 21  11  27  1   
 22  11  28  1   
 23  12  13  1   
 24  12  29  1   
 25  12  30  1   
 26  13  14  1   
 27  13  15  1   
 28  14  16  1   
 29  14  31  1   
 30  14  32  1   
 31  15  17  1   
 32  15  33  1   
 33  15  34  1   
 34  16  18  1   
 35  16  35  1   
 36  16  36  1   
 37  17  18  1   
 38  17  37  1   
 39  17  38  1   
 40  18  39  1   
 41  18  40  1   
@<TRIPOS>SUBSTRUCTURE
  1 ****  11 GROUP 4 **** **** 0

# MOE 2024.06 (io_trps.svl 2023.06)
