@<TRIPOS>MOLECULE
NONAME
51 52 1 0 0 
SMALL
USER_CHARGES


@<TRIPOS>ATOM
  1 O       -1.3840    -9.3140    -0.4140 O.3   1 <1>  -0.5600 
  2 C       -0.0640    -9.7150    -0.6380 C.3   1 <1>   0.1200 
  3 C       -1.5660    -8.4710     0.6860 C.3   1 <1>   0.1200 
  4 C        0.8360    -8.4860    -0.8710 C.3   1 <1>   0.3430 
  5 C       -0.7380    -7.1830     0.5120 C.3   1 <1>   0.3430 
  6 N        0.7140    -7.4860     0.2510 N.4   1 <1>  -0.9590 
  7 C        1.4710    -6.2310    -0.0160 C.3   1 <1>   0.3430 
  8 C        2.9800    -6.4820     0.0610 C.3   1 <1>  -0.1600 
  9 C        3.7480    -5.1640    -0.1170 C.3   1 <1>  -0.1600 
 10 C        5.2620    -5.3670    -0.0380 C.3   1 <1>   0.1200 
 11 O        5.8650    -4.1100    -0.2160 O.3   1 <1>  -0.3630 
 12 C        7.2160    -3.9500    -0.1980 C.ar  1 <1>   0.0820 
 13 C        7.7130    -2.6640    -0.3870 C.ar  1 <1>  -0.1430 
 14 C        8.1010    -5.0090    -0.0020 C.ar  1 <1>  -0.1500 
 15 C        9.0810    -2.4550    -0.3770 C.ar  1 <1>  -0.1500 
 16 C        6.7710    -1.4890    -0.6040 C.3   1 <1>  -0.0970 
 17 C        9.4720    -4.7980     0.0080 C.ar  1 <1>  -0.1430 
 18 C        9.9520    -3.5110    -0.1810 C.ar  1 <1>  -0.1500 
 19 C       10.4250    -5.9720     0.2250 C.3   1 <1>   0.0630 
 20 C       11.2550    -5.7750     1.4980 C.3   1 <1>  -0.2400 
 21 C       11.3350    -6.1710    -0.9920 C.3   1 <1>  -0.2400 
 22 H       -0.0590   -10.3490    -1.5080 H     1 <1>   0.0800 
 23 H        0.2720   -10.2920     0.2070 H     1 <1>   0.0800 
 24 H       -1.2850    -9.0000     1.5800 H     1 <1>   0.0800 
 25 H       -2.6140    -8.2330     0.7440 H     1 <1>   0.0800 
 26 H        0.5440    -8.0260    -1.8010 H     1 <1>   0.0800 
 27 H        1.8580    -8.8110    -0.9690 H     1 <1>   0.0800 
 28 H       -0.8360    -6.5760     1.3970 H     1 <1>   0.0800 
 29 H       -1.1500    -6.6280    -0.3160 H     1 <1>   0.0800 
 30 H        1.0940    -7.9200     1.1020 H     1 <1>   0.4500 
 31 H        1.2090    -5.4880     0.7200 H     1 <1>   0.0800 
 32 H        1.2130    -5.8420    -0.9890 H     1 <1>   0.0800 
 33 H        3.2850    -7.1630    -0.7130 H     1 <1>   0.0800 
 34 H        3.2290    -6.9030     1.0190 H     1 <1>   0.0800 
 35 H        3.4590    -4.4670     0.6530 H     1 <1>   0.0800 
 36 H        3.5130    -4.7320    -1.0750 H     1 <1>   0.0800 
 37 H        5.6090    -6.0200    -0.8210 H     1 <1>   0.0800 
 38 H        5.5540    -5.7460     0.9270 H     1 <1>   0.0800 
 39 H        7.7380    -6.0050     0.1450 H     1 <1>   0.1500 
 40 H        9.4790    -1.4660    -0.5220 H     1 <1>   0.1500 
 41 H        6.1750    -1.6580    -1.4830 H     1 <1>   0.0800 
 42 H        7.3160    -0.5710    -0.7290 H     1 <1>   0.0800 
 43 H        6.1170    -1.3870     0.2430 H     1 <1>   0.0800 
 44 H       11.0110    -3.3220    -0.1780 H     1 <1>   0.1500 
 45 H        9.8460    -6.8710     0.3490 H     1 <1>   0.0800 
 46 H       11.8950    -4.9160     1.4100 H     1 <1>   0.0800 
 47 H       11.8650    -6.6410     1.6840 H     1 <1>   0.0800 
 48 H       10.6010    -5.6290     2.3400 H     1 <1>   0.0800 
 49 H       11.9770    -5.3200    -1.1340 H     1 <1>   0.0800 
 50 H       10.7370    -6.2990    -1.8760 H     1 <1>   0.0800 
 51 H       11.9460    -7.0450    -0.8620 H     1 <1>   0.0800 
@<TRIPOS>BOND
  1   1   2  1   
  2   1   3  1   
  3   2   4  1   
  4   2  22  1   
  5   2  23  1   
  6   3   5  1   
  7   3  24  1   
  8   3  25  1   
  9   4   6  1   
 10   4  26  1   
 11   4  27  1   
 12   5   6  1   
 13   5  28  1   
 14   5  29  1   
 15   6   7  1   
 16   6  30  1   
 17   7   8  1   
 18   7  31  1   
 19   7  32  1   
 20   8   9  1   
 21   8  33  1   
 22   8  34  1   
 23   9  10  1   
 24   9  35  1   
 25   9  36  1   
 26  10  11  1   
 27  10  37  1   
 28  10  38  1   
 29  11  12  1   
 30  12  13  ar  
 31  12  14  ar  
 32  13  15  ar  
 33  13  16  1   
 34  14  17  ar  
 35  14  39  1   
 36  15  18  ar  
 37  15  40  1   
 38  16  41  1   
 39  16  42  1   
 40  16  43  1   
 41  17  18  ar  
 42  17  19  1   
 43  18  44  1   
 44  19  20  1   
 45  19  21  1   
 46  19  45  1   
 47  20  46  1   
 48  20  47  1   
 49  20  48  1   
 50  21  49  1   
 51  21  50  1   
 52  21  51  1   
@<TRIPOS>SUBSTRUCTURE
  1 ****  10 GROUP 4 **** **** 0

# MOE 2024.06 (io_trps.svl 2023.06)
