@<TRIPOS>MOLECULE
NONAME
40 41 1 0 0 
SMALL
USER_CHARGES


@<TRIPOS>ATOM
  1 O       -1.6500     1.6740    -0.6270 O.2   1 <1>  -0.5700 
  2 C       -2.0700     0.8500     0.1420 C.2   1 <1>   0.4230 
  3 C       -3.4050     0.2950     0.0470 C.ar  1 <1>   0.0860 
  4 C       -1.1240     0.4070     1.2410 C.3   1 <1>  -0.1790 
  5 C       -3.8240    -0.8320     0.7650 C.ar  1 <1>  -0.1500 
  6 C       -4.3480     0.8850    -0.7960 C.ar  1 <1>  -0.1500 
  7 C       -5.1100    -1.3390     0.6510 C.ar  1 <1>  -0.1430 
  8 C       -5.6330     0.3970    -0.9180 C.ar  1 <1>  -0.1500 
  9 C       -6.0280    -0.7220    -0.1930 C.ar  1 <1>   0.0830 
 10 C       -5.5220    -2.5660     1.4470 C.3   1 <1>   0.4870 
 11 O       -7.2740    -1.2510    -0.2740 O.3   1 <1>  -0.3630 
 12 N       -5.9490    -3.6290     0.5040 N.4   1 <1>  -0.9590 
 13 C       -8.3120    -0.6030    -0.9840 C.3   1 <1>   0.0400 
 14 C       -6.6520    -4.7440     1.1930 C.3   1 <1>   0.3430 
 15 C       -4.8400    -4.0950    -0.3770 C.3   1 <1>   0.3430 
 16 C       -7.2360    -5.7010     0.1530 C.3   1 <1>  -0.1600 
 17 C       -5.3970    -5.0430    -1.4410 C.3   1 <1>  -0.1600 
 18 C       -6.1630    -6.2160    -0.8160 C.3   1 <1>  -0.1600 
 19 H       -0.7820    -0.5930     1.0510 H     1 <1>   0.0800 
 20 H       -1.6120     0.4540     2.1960 H     1 <1>   0.0800 
 21 H       -0.2690     1.0590     1.2660 H     1 <1>   0.0800 
 22 H       -3.1260    -1.3170     1.4230 H     1 <1>   0.1500 
 23 H       -4.0590     1.7530    -1.3680 H     1 <1>   0.1500 
 24 H       -6.3080     0.9030    -1.5850 H     1 <1>   0.1500 
 25 H       -6.3440    -2.2980     2.0910 H     1 <1>   0.0800 
 26 H       -4.7050    -2.9120     2.0560 H     1 <1>   0.0800 
 27 H       -6.6330    -3.1500    -0.1070 H     1 <1>   0.4500 
 28 H       -9.2180    -1.1680    -0.8510 H     1 <1>   0.0800 
 29 H       -8.0570    -0.5660    -2.0280 H     1 <1>   0.0800 
 30 H       -8.4440     0.3890    -0.5870 H     1 <1>   0.0800 
 31 H       -7.4480    -4.3560     1.8090 H     1 <1>   0.0800 
 32 H       -5.9600    -5.2780     1.8240 H     1 <1>   0.0800 
 33 H       -4.0970    -4.6100     0.2100 H     1 <1>   0.0800 
 34 H       -4.3710    -3.2530    -0.8610 H     1 <1>   0.0800 
 35 H       -8.0140    -5.1990    -0.3950 H     1 <1>   0.0800 
 36 H       -7.6890    -6.5360     0.6590 H     1 <1>   0.0800 
 37 H       -4.5830    -5.4240    -2.0340 H     1 <1>   0.0800 
 38 H       -6.0440    -4.4920    -2.1020 H     1 <1>   0.0800 
 39 H       -6.6240    -6.8060    -1.5910 H     1 <1>   0.0800 
 40 H       -5.4760    -6.8540    -0.2850 H     1 <1>   0.0800 
@<TRIPOS>BOND
  1   1   2  2   
  2   2   3  1   
  3   2   4  1   
  4   3   5  ar  
  5   3   6  ar  
  6   4  19  1   
  7   4  20  1   
  8   4  21  1   
  9   5   7  ar  
 10   5  22  1   
 11   6   8  ar  
 12   6  23  1   
 13   7   9  ar  
 14   7  10  1   
 15   8   9  ar  
 16   8  24  1   
 17   9  11  1   
 18  10  12  1   
 19  10  25  1   
 20  10  26  1   
 21  11  13  1   
 22  12  14  1   
 23  12  15  1   
 24  12  27  1   
 25  13  28  1   
 26  13  29  1   
 27  13  30  1   
 28  14  16  1   
 29  14  31  1   
 30  14  32  1   
 31  15  17  1   
 32  15  33  1   
 33  15  34  1   
 34  16  18  1   
 35  16  35  1   
 36  16  36  1   
 37  17  18  1   
 38  17  37  1   
 39  17  38  1   
 40  18  39  1   
 41  18  40  1   
@<TRIPOS>SUBSTRUCTURE
  1 ****   7 GROUP 4 **** **** 0

# MOE 2024.06 (io_trps.svl 2023.06)
