@<TRIPOS>MOLECULE
NONAME
48 49 1 0 0 
SMALL
USER_CHARGES


@<TRIPOS>ATOM
  1 O       -1.3530     1.5100     2.0870 O.2   1 <1>  -0.5700 
  2 C       -0.9910     1.8730     0.9830 C.2   1 <1>   0.5440 
  3 N       -1.8860     1.8140    -0.0680 N.am  1 <1>  -0.6600 
  4 C        0.3610     2.3730     0.8220 C.ar  1 <1>   0.0860 
  5 C       -3.2100     1.1460     0.1080 C.3   1 <1>   0.2840 
  6 C       -1.7240     2.6200    -1.3120 C.3   1 <1>   0.1400 
  7 C        1.2290     1.8470    -0.1310 C.ar  1 <1>  -0.1500 
  8 C        0.8450     3.4010     1.6270 C.ar  1 <1>  -0.1500 
  9 C       -4.3130     2.1840     0.2540 C.ar  1 <1>  -0.1430 
 10 C       -1.5700     1.7090    -2.5280 C.3   1 <1>  -0.2400 
 11 C        2.5130     2.3280    -0.3060 C.ar  1 <1>   0.0830 
 12 C        2.1240     3.9030     1.4690 C.ar  1 <1>  -0.1500 
 13 C       -5.2650     2.3970    -0.7230 C.ar  1 <1>  -0.1500 
 14 C       -4.4130     2.9690     1.3850 C.ar  1 <1>  -0.1500 
 15 O        3.2270     1.7060    -1.2840 O.3   1 <1>  -0.3630 
 16 C        2.9760     3.3850     0.4960 C.ar  1 <1>   0.0830 
 17 C       -6.2410     3.3610    -0.5270 C.ar  1 <1>   0.1600 
 18 C       -5.4280     3.9050     1.4820 C.ar  1 <1>   0.1600 
 19 C        4.6210     1.5310    -1.1700 C.3   1 <1>   0.1200 
 20 O        4.2240     3.8900     0.3020 O.3   1 <1>  -0.3630 
 21 N       -6.3450     4.1210     0.5510 N.ar  1 <1>  -0.6200 
 22 C        5.0270     0.3750    -2.0780 C.3   1 <1>  -0.2400 
 23 C        4.7310     4.9800     1.0370 C.3   1 <1>   0.1200 
 24 C        6.1400     5.2720     0.5310 C.3   1 <1>  -0.2400 
 25 H       -3.2010     0.5150     0.9800 H     1 <1>   0.0800 
 26 H       -3.4060     0.5120    -0.7370 H     1 <1>   0.0800 
 27 H       -0.8610     3.2590    -1.2350 H     1 <1>   0.0800 
 28 H       -2.5800     3.2610    -1.4410 H     1 <1>   0.0800 
 29 H        0.8960     1.0340    -0.7490 H     1 <1>   0.1500 
 30 H        0.1980     3.8070     2.3860 H     1 <1>   0.1500 
 31 H       -0.7520     1.0260    -2.3910 H     1 <1>   0.0800 
 32 H       -1.3670     2.3070    -3.3980 H     1 <1>   0.0800 
 33 H       -2.4720     1.1550    -2.7090 H     1 <1>   0.0800 
 34 H        2.4340     4.6990     2.1180 H     1 <1>   0.1500 
 35 H       -5.2570     1.8270    -1.6330 H     1 <1>   0.1500 
 36 H       -3.7030     2.8570     2.1860 H     1 <1>   0.1500 
 37 H       -6.9760     3.5150    -1.2980 H     1 <1>   0.1500 
 38 H       -5.4880     4.5080     2.3720 H     1 <1>   0.1500 
 39 H        4.8590     1.3140    -0.1420 H     1 <1>   0.0800 
 40 H        5.1030     2.4420    -1.4770 H     1 <1>   0.0800 
 41 H        4.5270    -0.5270    -1.7730 H     1 <1>   0.0800 
 42 H        6.0890     0.2190    -2.0130 H     1 <1>   0.0800 
 43 H        4.7740     0.6010    -3.0980 H     1 <1>   0.0800 
 44 H        4.7500     4.7100     2.0790 H     1 <1>   0.0800 
 45 H        4.0870     5.8270     0.8790 H     1 <1>   0.0800 
 46 H        6.7720     4.4140     0.6790 H     1 <1>   0.0800 
 47 H        6.5570     6.1030     1.0700 H     1 <1>   0.0800 
 48 H        6.1120     5.5210    -0.5150 H     1 <1>   0.0800 
@<TRIPOS>BOND
  1   1   2  2   
  2   2   3  am  
  3   2   4  1   
  4   3   5  1   
  5   3   6  1   
  6   4   7  ar  
  7   4   8  ar  
  8   5   9  1   
  9   5  25  1   
 10   5  26  1   
 11   6  10  1   
 12   6  27  1   
 13   6  28  1   
 14   7  11  ar  
 15   7  29  1   
 16   8  12  ar  
 17   8  30  1   
 18   9  13  ar  
 19   9  14  ar  
 20  10  31  1   
 21  10  32  1   
 22  10  33  1   
 23  11  15  1   
 24  11  16  ar  
 25  12  16  ar  
 26  12  34  1   
 27  13  17  ar  
 28  13  35  1   
 29  14  18  ar  
 30  14  36  1   
 31  15  19  1   
 32  16  20  1   
 33  17  21  ar  
 34  17  37  1   
 35  18  21  ar  
 36  18  38  1   
 37  19  22  1   
 38  19  39  1   
 39  19  40  1   
 40  20  23  1   
 41  22  41  1   
 42  22  42  1   
 43  22  43  1   
 44  23  24  1   
 45  23  44  1   
 46  23  45  1   
 47  24  46  1   
 48  24  47  1   
 49  24  48  1   
@<TRIPOS>SUBSTRUCTURE
  1 ****   4 GROUP 4 **** **** 0

# MOE 2024.06 (io_trps.svl 2023.06)
