@<TRIPOS>MOLECULE
NONAME
60 62 1 0 0 
SMALL
USER_CHARGES


@<TRIPOS>ATOM
  1 O       -0.2360     1.1880    -0.5000 O.2   1 <1>  -0.5700 
  2 C       -0.0170     0.0080    -0.6350 C.2   1 <1>   0.5690 
  3 N       -0.9610    -0.9050    -0.9970 N.am  1 <1>  -0.5470 
  4 C        1.3780    -0.5280    -0.3480 C.3   1 <1>   0.1810 
  5 C       -2.3610    -0.8800    -0.9660 C.ar  1 <1>   0.1170 
  6 O        1.2910    -1.8910     0.0600 O.3   1 <1>  -0.3630 
  7 C       -3.0190    -2.0880    -0.6790 C.ar  1 <1>   0.1000 
  8 C       -3.0940     0.2710    -1.2130 C.ar  1 <1>  -0.1500 
  9 C        2.4370    -2.5910     0.1910 C.ar  1 <1>   0.0830 
 10 N       -2.2730    -3.2560    -0.3980 N.pl3 1 <1>  -0.8380 
 11 C       -4.4100    -2.0970    -0.6570 C.ar  1 <1>  -0.1500 
 12 C       -4.4770     0.2410    -1.1850 C.ar  1 <1>  -0.1500 
 13 C        2.6300    -3.7490    -0.5590 C.ar  1 <1>  -0.1430 
 14 C        3.4020    -2.1560     1.0900 C.ar  1 <1>  -0.1500 
 15 C       -1.5580    -3.3120     0.9200 C.3   1 <1>   0.2090 
 16 C       -2.6910    -4.5680    -0.9850 C.3   1 <1>   0.2090 
 17 C       -5.1340    -0.9440    -0.9080 C.ar  1 <1>  -0.1500 
 18 C        3.8200    -4.4460    -0.3920 C.ar  1 <1>  -0.1500 
 19 C        1.5830    -4.2540    -1.5590 C.3   1 <1>   0.0630 
 20 C        4.5810    -2.8610     1.2460 C.ar  1 <1>  -0.1430 
 21 C       -2.2500    -4.2640     1.9150 C.3   1 <1>   0.3430 
 22 C       -3.3290    -5.5050     0.0660 C.3   1 <1>   0.3430 
 23 C        4.7840    -4.0090     0.5000 C.ar  1 <1>  -0.1500 
 24 C        1.1390    -5.6820    -1.2240 C.3   1 <1>  -0.2400 
 25 C        2.1260    -4.1780    -2.9890 C.3   1 <1>  -0.2400 
 26 C        5.6420    -2.3930     2.2260 C.3   1 <1>  -0.0970 
 27 N       -2.5040    -5.6280     1.3230 N.4   1 <1>  -0.9590 
 28 C       -3.1520    -6.5360     2.3170 C.3   1 <1>   0.2630 
 29 H       -0.6230    -1.8700    -1.0150 H     1 <1>   0.3700 
 30 H        1.8310     0.0450     0.4390 H     1 <1>   0.0800 
 31 H        1.9820    -0.4730    -1.2360 H     1 <1>   0.0800 
 32 H       -2.5840     1.1920    -1.4310 H     1 <1>   0.1500 
 33 H       -4.9420    -3.0000    -0.4380 H     1 <1>   0.1500 
 34 H       -5.0370     1.1400    -1.3790 H     1 <1>   0.1500 
 35 H        3.2300    -1.2710     1.6750 H     1 <1>   0.1500 
 36 H       -1.5160    -2.3260     1.3530 H     1 <1>   0.0800 
 37 H       -0.5440    -3.6360     0.7610 H     1 <1>   0.0800 
 38 H       -1.8270    -5.0460    -1.4130 H     1 <1>   0.0800 
 39 H       -3.3890    -4.3990    -1.7880 H     1 <1>   0.0800 
 40 H       -6.2100    -0.9640    -0.8880 H     1 <1>   0.1500 
 41 H        4.0120    -5.3380    -0.9610 H     1 <1>   0.1500 
 42 H        0.7080    -3.6300    -1.5190 H     1 <1>   0.0800 
 43 H       -3.1850    -3.8170     2.2090 H     1 <1>   0.0800 
 44 H       -1.6350    -4.3530     2.7960 H     1 <1>   0.0800 
 45 H       -3.4710    -6.4770    -0.3760 H     1 <1>   0.0800 
 46 H       -4.3010    -5.1130     0.3150 H     1 <1>   0.0800 
 47 H        5.6960    -4.5690     0.6090 H     1 <1>   0.1500 
 48 H        1.9590    -6.3710    -1.3250 H     1 <1>   0.0800 
 49 H        0.3560    -5.9930    -1.8910 H     1 <1>   0.0800 
 50 H        0.7810    -5.7260    -0.2120 H     1 <1>   0.0800 
 51 H        1.3680    -4.4680    -3.6950 H     1 <1>   0.0800 
 52 H        2.9750    -4.8250    -3.1130 H     1 <1>   0.0800 
 53 H        2.4310    -3.1710    -3.2110 H     1 <1>   0.0800 
 54 H        5.5340    -1.3430     2.4310 H     1 <1>   0.0800 
 55 H        6.6240    -2.5590     1.8200 H     1 <1>   0.0800 
 56 H        5.5510    -2.9370     3.1480 H     1 <1>   0.0800 
 57 H       -1.5880    -6.0190     1.0570 H     1 <1>   0.4500 
 58 H       -4.1120    -6.1430     2.6140 H     1 <1>   0.0800 
 59 H       -2.5340    -6.6330     3.1950 H     1 <1>   0.0800 
 60 H       -3.2980    -7.5160     1.8910 H     1 <1>   0.0800 
@<TRIPOS>BOND
  1   1   2  2   
  2   2   3  am  
  3   2   4  1   
  4   3   5  1   
  5   3  29  1   
  6   4   6  1   
  7   4  30  1   
  8   4  31  1   
  9   5   7  ar  
 10   5   8  ar  
 11   6   9  1   
 12   7  10  1   
 13   7  11  ar  
 14   8  12  ar  
 15   8  32  1   
 16   9  13  ar  
 17   9  14  ar  
 18  10  15  1   
 19  10  16  1   
 20  11  17  ar  
 21  11  33  1   
 22  12  17  ar  
 23  12  34  1   
 24  13  18  ar  
 25  13  19  1   
 26  14  20  ar  
 27  14  35  1   
 28  15  21  1   
 29  15  36  1   
 30  15  37  1   
 31  16  22  1   
 32  16  38  1   
 33  16  39  1   
 34  17  40  1   
 35  18  23  ar  
 36  18  41  1   
 37  19  24  1   
 38  19  25  1   
 39  19  42  1   
 40  20  23  ar  
 41  20  26  1   
 42  21  27  1   
 43  21  43  1   
 44  21  44  1   
 45  22  27  1   
 46  22  45  1   
 47  22  46  1   
 48  23  47  1   
 49  24  48  1   
 50  24  49  1   
 51  24  50  1   
 52  25  51  1   
 53  25  52  1   
 54  25  53  1   
 55  26  54  1   
 56  26  55  1   
 57  26  56  1   
 58  27  28  1   
 59  27  57  1   
 60  28  58  1   
 61  28  59  1   
 62  28  60  1   
@<TRIPOS>SUBSTRUCTURE
  1 ****   6 GROUP 4 **** **** 0

# MOE 2024.06 (io_trps.svl 2023.06)
