@<TRIPOS>MOLECULE
NONAME
42 43 1 0 0 
SMALL
USER_CHARGES


@<TRIPOS>ATOM
  1 S        0.3990    -1.0960    -0.3570 S.o2  1 <1>   1.4470 
  2 O        1.1700    -2.0610     0.4000 O.2   1 <1>  -0.6500 
  3 O        0.7790    -0.8020    -1.7210 O.2   1 <1>  -0.6500 
  4 N        0.4620     0.3660     0.5090 N.am  1 <1>  -0.8490 
  5 C       -1.3600    -1.5360    -0.3120 C.ar  1 <1>  -0.0090 
  6 C        1.7140     1.0880     0.2740 C.3   1 <1>   0.1160 
  7 C        0.2440     0.1910     1.9480 C.3   1 <1>   0.1160 
  8 C       -1.7790    -2.8140     0.0410 C.ar  1 <1>  -0.1500 
  9 C       -2.3400    -0.6060    -0.6380 C.ar  1 <1>  -0.1500 
 10 C       -3.1210    -3.1470     0.0750 C.ar  1 <1>  -0.1500 
 11 C       -3.6830    -0.9330    -0.6050 C.ar  1 <1>  -0.1500 
 12 C       -4.0970    -2.2110    -0.2440 C.ar  1 <1>   0.1170 
 13 N       -5.4430    -2.5930    -0.2120 N.am  1 <1>  -0.5470 
 14 C       -6.5850    -1.8550    -0.0340 C.2   1 <1>   0.7160 
 15 O       -6.5210    -0.6900     0.3010 O.2   1 <1>  -0.5700 
 16 C       -7.8570    -2.5050    -0.2140 C.2   1 <1>  -0.0860 
 17 C       -9.0060    -2.3190     0.5420 C.2   1 <1>   0.1080 
 18 C       -8.2760    -3.4280    -1.1090 C.2   1 <1>  -0.0400 
 19 N       -9.9450    -3.0790     0.1140 N.2   1 <1>  -0.4100 
 20 C       -9.1360    -1.3470     1.7110 C.3   1 <1>   0.0210 
 21 O       -9.5200    -3.7830    -0.9070 O.3   1 <1>  -0.0190 
 22 C       -7.5560    -4.0700    -2.2810 C.3   1 <1>  -0.0600 
 23 C      -10.3820    -1.5850     2.5750 C.3   1 <1>  -0.2400 
 24 H        1.8220     1.3050    -0.7760 H     1 <1>   0.0800 
 25 H        2.5550     0.4950     0.5930 H     1 <1>   0.0800 
 26 H        1.7120     2.0210     0.8110 H     1 <1>   0.0800 
 27 H       -0.6980    -0.3010     2.1240 H     1 <1>   0.0800 
 28 H        0.2190     1.1500     2.4370 H     1 <1>   0.0800 
 29 H        1.0320    -0.4030     2.3810 H     1 <1>   0.0800 
 30 H       -1.0400    -3.5570     0.2940 H     1 <1>   0.1500 
 31 H       -2.0420     0.3910    -0.9200 H     1 <1>   0.1500 
 32 H       -3.4090    -4.1440     0.3560 H     1 <1>   0.1500 
 33 H       -4.4100    -0.1850    -0.8670 H     1 <1>   0.1500 
 34 H       -5.6130    -3.5950    -0.2620 H     1 <1>   0.3700 
 35 H       -9.1620    -0.3450     1.3200 H     1 <1>   0.0800 
 36 H       -8.2630    -1.4320     2.3340 H     1 <1>   0.0800 
 37 H       -6.5890    -3.6300    -2.4380 H     1 <1>   0.0800 
 38 H       -8.1380    -3.9310    -3.1750 H     1 <1>   0.0800 
 39 H       -7.4430    -5.1250    -2.1080 H     1 <1>   0.0800 
 40 H      -11.2720    -1.4600     1.9830 H     1 <1>   0.0800 
 41 H      -10.4080    -0.8840     3.3900 H     1 <1>   0.0800 
 42 H      -10.3720    -2.5840     2.9730 H     1 <1>   0.0800 
@<TRIPOS>BOND
  1   1   2  2   
  2   1   3  2   
  3   1   4  am  
  4   1   5  1   
  5   4   6  1   
  6   4   7  1   
  7   5   8  ar  
  8   5   9  ar  
  9   6  24  1   
 10   6  25  1   
 11   6  26  1   
 12   7  27  1   
 13   7  28  1   
 14   7  29  1   
 15   8  10  ar  
 16   8  30  1   
 17   9  11  ar  
 18   9  31  1   
 19  10  12  ar  
 20  10  32  1   
 21  11  12  ar  
 22  11  33  1   
 23  12  13  1   
 24  13  14  am  
 25  13  34  1   
 26  14  15  2   
 27  14  16  1   
 28  16  17  1   
 29  16  18  2   
 30  17  19  2   
 31  17  20  1   
 32  18  21  1   
 33  18  22  1   
 34  19  21  1   
 35  20  23  1   
 36  20  35  1   
 37  20  36  1   
 38  22  37  1   
 39  22  38  1   
 40  22  39  1   
 41  23  40  1   
 42  23  41  1   
 43  23  42  1   
@<TRIPOS>SUBSTRUCTURE
  1 ****  12 GROUP 4 **** **** 0

# MOE 2024.06 (io_trps.svl 2023.06)
