@<TRIPOS>MOLECULE
NONAME
47 48 1 0 0 
SMALL
USER_CHARGES


@<TRIPOS>ATOM
  1 O       -0.4940    -2.0270    -2.4540 O.2   1 <1>  -0.5700 
  2 C       -0.0760    -1.7690    -1.3490 C.2   1 <1>   0.5690 
  3 N       -0.8530    -1.2200    -0.3630 N.am  1 <1>  -0.5470 
  4 C        1.3890    -2.0960    -1.0320 C.3   1 <1>   0.1250 
  5 C       -2.1960    -0.8060    -0.3300 C.ar  1 <1>   0.1170 
  6 C        1.7190    -1.8630     0.4510 C.ar  1 <1>  -0.1440 
  7 C        2.3570    -1.3470    -1.9770 C.3   1 <1>  -0.1600 
  8 C       -2.9520    -0.5780    -1.4730 C.ar  1 <1>  -0.1500 
  9 C       -2.7880    -0.6060     0.9090 C.ar  1 <1>  -0.1500 
 10 C        1.8330    -2.9490     1.3080 C.ar  1 <1>  -0.1500 
 11 C        1.8870    -0.5830     0.9650 C.ar  1 <1>  -0.1500 
 12 C        3.8310    -1.7080    -1.7430 C.3   1 <1>  -0.2400 
 13 C       -4.2770    -0.1610    -1.3890 C.ar  1 <1>   0.0830 
 14 C       -4.1040    -0.1950     1.0210 C.ar  1 <1>   0.0830 
 15 C        2.1070    -2.7610     2.6510 C.ar  1 <1>  -0.1500 
 16 C        2.1610    -0.3930     2.3080 C.ar  1 <1>  -0.1500 
 17 O       -5.0410     0.0580    -2.5000 O.3   1 <1>  -0.3630 
 18 C       -4.8540     0.0480    -0.1350 C.ar  1 <1>   0.0830 
 19 O       -4.5740    -0.0460     2.2900 O.3   1 <1>  -0.3630 
 20 C        2.2700    -1.4830     3.1530 C.ar  1 <1>  -0.1500 
 21 C       -4.6360    -0.4120    -3.7670 C.3   1 <1>   0.0400 
 22 O       -6.1410     0.4920    -0.0510 O.3   1 <1>  -0.3630 
 23 C       -5.8490    -0.5600     2.6110 C.3   1 <1>   0.0400 
 24 C       -6.3030     1.8780    -0.2380 C.3   1 <1>   0.0400 
 25 H       -0.3630    -1.1430     0.5330 H     1 <1>   0.3700 
 26 H        1.5050    -3.1440    -1.2390 H     1 <1>   0.0800 
 27 H        2.2260    -0.2840    -1.8690 H     1 <1>   0.0800 
 28 H        2.1030    -1.5950    -2.9940 H     1 <1>   0.0800 
 29 H       -2.4910    -0.7210    -2.4280 H     1 <1>   0.1500 
 30 H       -2.2260    -0.7760     1.8080 H     1 <1>   0.1500 
 31 H        1.7070    -3.9520     0.9380 H     1 <1>   0.1500 
 32 H        1.8060     0.2800     0.3260 H     1 <1>   0.1500 
 33 H        4.1460    -1.4190    -0.7550 H     1 <1>   0.0800 
 34 H        4.4520    -1.1970    -2.4580 H     1 <1>   0.0800 
 35 H        3.9820    -2.7670    -1.8570 H     1 <1>   0.0800 
 36 H        2.1940    -3.6100     3.3070 H     1 <1>   0.1500 
 37 H        2.2910     0.6020     2.6960 H     1 <1>   0.1500 
 38 H        2.4850    -1.3360     4.1970 H     1 <1>   0.1500 
 39 H       -5.4440    -0.2510    -4.4570 H     1 <1>   0.0800 
 40 H       -4.4180    -1.4630    -3.6970 H     1 <1>   0.0800 
 41 H       -3.7700     0.1400    -4.0850 H     1 <1>   0.0800 
 42 H       -5.8780    -0.7480     3.6690 H     1 <1>   0.0800 
 43 H       -6.0100    -1.4750     2.0690 H     1 <1>   0.0800 
 44 H       -6.5950     0.1690     2.3520 H     1 <1>   0.0800 
 45 H       -7.3450     2.1140    -0.1240 H     1 <1>   0.0800 
 46 H       -5.9730     2.1390    -1.2280 H     1 <1>   0.0800 
 47 H       -5.7200     2.3980     0.5020 H     1 <1>   0.0800 
@<TRIPOS>BOND
  1   1   2  2   
  2   2   3  am  
  3   2   4  1   
  4   3   5  1   
  5   3  25  1   
  6   4   6  1   
  7   4   7  1   
  8   4  26  1   
  9   5   8  ar  
 10   5   9  ar  
 11   6  10  ar  
 12   6  11  ar  
 13   7  12  1   
 14   7  27  1   
 15   7  28  1   
 16   8  13  ar  
 17   8  29  1   
 18   9  14  ar  
 19   9  30  1   
 20  10  15  ar  
 21  10  31  1   
 22  11  16  ar  
 23  11  32  1   
 24  12  33  1   
 25  12  34  1   
 26  12  35  1   
 27  13  17  1   
 28  13  18  ar  
 29  14  18  ar  
 30  14  19  1   
 31  15  20  ar  
 32  15  36  1   
 33  16  20  ar  
 34  16  37  1   
 35  17  21  1   
 36  18  22  1   
 37  19  23  1   
 38  20  38  1   
 39  21  39  1   
 40  21  40  1   
 41  21  41  1   
 42  22  24  1   
 43  23  42  1   
 44  23  43  1   
 45  23  44  1   
 46  24  45  1   
 47  24  46  1   
 48  24  47  1   
@<TRIPOS>SUBSTRUCTURE
  1 ****   5 GROUP 4 **** **** 0

# MOE 2024.06 (io_trps.svl 2023.06)
