@<TRIPOS>MOLECULE
Structure602
18 18 1 0 0 
SMALL
USER_CHARGES


@<TRIPOS>ATOM
  1 CL      -0.1570    -0.1710    -0.6800 Cl    1 <1>  -0.1770 
  2 C        0.8340    -1.5350    -0.2510 C.ar  1 <1>   0.4870 
  3 N        0.2100    -2.6010     0.1990 N.ar  1 <1>  -0.6200 
  4 C        2.1860    -1.4430    -0.3980 C.ar  1 <1>  -0.1500 
  5 C        1.0220    -3.5960     0.4990 C.ar  1 <1>   0.4700 
  6 C        2.9310    -2.5480    -0.0430 C.ar  1 <1>   0.4100 
  7 N        2.3370    -3.6390     0.4040 N.ar  1 <1>  -0.6200 
  8 N        4.3080    -2.5530    -0.1450 N.pl3 1 <1>  -0.8380 
  9 C        5.0600    -3.8360    -0.2420 C.3   1 <1>   0.1290 
 10 C        5.1280    -1.3730     0.2420 C.3   1 <1>   0.1290 
 11 H        2.6470    -0.5580    -0.7800 H     1 <1>   0.1500 
 12 H        0.5500    -4.4920     0.8690 H     1 <1>   0.1500 
 13 H        4.4670    -4.5760    -0.7520 H     1 <1>   0.0800 
 14 H        5.2920    -4.1960     0.7450 H     1 <1>   0.0800 
 15 H        5.9710    -3.6890    -0.7940 H     1 <1>   0.0800 
 16 H        4.5100    -0.6020     0.6690 H     1 <1>   0.0800 
 17 H        5.6320    -0.9820    -0.6240 H     1 <1>   0.0800 
 18 H        5.8610    -1.6610     0.9760 H     1 <1>   0.0800 
@<TRIPOS>BOND
  1   1   2  1   
  2   2   3  ar  
  3   2   4  ar  
  4   3   5  ar  
  5   4   6  ar  
  6   4  11  1   
  7   5   7  ar  
  8   5  12  1   
  9   6   7  ar  
 10   6   8  1   
 11   8   9  1   
 12   8  10  1   
 13   9  13  1   
 14   9  14  1   
 15   9  15  1   
 16  10  16  1   
 17  10  17  1   
 18  10  18  1   
@<TRIPOS>SUBSTRUCTURE
  1 ****   6 GROUP 4 **** **** 0

# MOE 2024.06 (io_trps.svl 2023.06)
