@<TRIPOS>MOLECULE
NONAME
30 30 1 0 0 
SMALL
USER_CHARGES


@<TRIPOS>ATOM
  1 O        0.4340     0.0150     0.6930 O.3   1 <1>  -0.3630 
  2 C        1.4150     0.9130     0.5370 C.ar  1 <1>   0.7020 
  3 C       -0.8730     0.3580     1.1140 C.3   1 <1>   0.0400 
  4 N        1.1440     2.1790     0.7380 N.ar  1 <1>  -0.6200 
  5 N        2.5650     0.4230     0.1880 N.ar  1 <1>  -0.6200 
  6 C        2.1810     2.9440     0.5670 C.ar  1 <1>   0.9310 
  7 C        3.5220     1.3010     0.0520 C.ar  1 <1>   0.7200 
  8 N        3.3810     2.5900     0.2290 N.ar  1 <1>  -0.6200 
  9 N        1.9770     4.2700     0.7360 N.pl3 1 <1>  -0.6160 
 10 N        4.7610     0.8550    -0.3280 N.pl3 1 <1>  -0.8380 
 11 C        1.7160     4.6800     2.0300 C.1   1 <1>   0.7950 
 12 C        1.9740     5.1220    -0.2610 C.cat 1 <1>   1.2000 
 13 C        6.0300     1.5520     0.0350 C.3   1 <1>   0.1290 
 14 C        4.9590    -0.5160    -0.8900 C.3   1 <1>   0.1290 
 15 N        1.4720     5.0860     3.0600 N.1   1 <1>  -0.5570 
 16 N        1.2400     6.1960    -0.2530 N.pl3 1 <1>  -0.9670 
 17 N        2.7090     4.9460    -1.3160 N.pl3 1 <1>  -0.9670 
 18 H       -1.4540    -0.5450     1.1710 H     1 <1>   0.0800 
 19 H       -1.3090     1.0300     0.3970 H     1 <1>   0.0800 
 20 H       -0.8190     0.8200     2.0850 H     1 <1>   0.0800 
 21 H        5.8480     2.3730     0.7060 H     1 <1>   0.0800 
 22 H        6.5060     1.9260    -0.8550 H     1 <1>   0.0800 
 23 H        6.6980     0.8630     0.5240 H     1 <1>   0.0800 
 24 H        4.0840    -0.8380    -1.4290 H     1 <1>   0.0800 
 25 H        5.1490    -1.2120    -0.0910 H     1 <1>   0.0800 
 26 H        5.7940    -0.5210    -1.5690 H     1 <1>   0.0800 
 27 H        1.2360     6.8630    -1.0210 H     1 <1>   0.4500 
 28 H        0.6080     6.4430     0.5100 H     1 <1>   0.4500 
 29 H        2.7350     5.5770    -2.1130 H     1 <1>   0.4500 
 30 H        3.3570     4.1530    -1.3760 H     1 <1>   0.4500 
@<TRIPOS>BOND
  1   1   2  1   
  2   1   3  1   
  3   2   4  ar  
  4   2   5  ar  
  5   3  18  1   
  6   3  19  1   
  7   3  20  1   
  8   4   6  ar  
  9   5   7  ar  
 10   6   8  ar  
 11   6   9  1   
 12   7   8  ar  
 13   7  10  1   
 14   9  11  1   
 15   9  12  ar  
 16  10  13  1   
 17  10  14  1   
 18  11  15  3   
 19  12  16  ar  
 20  12  17  ar  
 21  13  21  1   
 22  13  22  1   
 23  13  23  1   
 24  14  24  1   
 25  14  25  1   
 26  14  26  1   
 27  16  27  1   
 28  16  28  1   
 29  17  29  1   
 30  17  30  1   
@<TRIPOS>SUBSTRUCTURE
  1 ****   6 GROUP 4 **** **** 0

# MOE 2024.06 (io_trps.svl 2023.06)
