@<TRIPOS>MOLECULE
NONAME
44 45 1 0 0 
SMALL
USER_CHARGES


@<TRIPOS>ATOM
  1 O        0.8460     0.8720    -1.7510 O.2   1 <1>  -0.5700 
  2 C        1.8590     0.7560    -1.1020 C.2   1 <1>   0.5690 
  3 N        2.5880     1.8550    -0.8040 N.am  1 <1>  -0.7300 
  4 C        2.2590    -0.6810    -0.6840 C.3   1 <1>   0.4840 
  5 C        3.9380     1.9490    -0.2110 C.3   1 <1>   0.1400 
  6 N        1.1920    -1.6780    -1.1020 N.4   1 <1>  -0.9060 
  7 C        2.6120    -0.8430     0.8070 C.3   1 <1>  -0.1600 
  8 C        3.9780     1.3190     1.1830 C.3   1 <1>  -0.1600 
  9 C        0.0950    -2.0220    -0.1550 C.3   1 <1>   0.4230 
 10 C        3.9610    -0.2180     1.1920 C.3   1 <1>  -0.1600 
 11 C       -0.6600    -3.2280    -0.7150 C.3   1 <1>  -0.1600 
 12 C       -0.8720    -0.8480     0.0410 C.3   1 <1>  -0.1600 
 13 C       -1.8530    -3.6000     0.1700 C.3   1 <1>   0.3430 
 14 C       -2.0630    -1.2390     0.9150 C.3   1 <1>   0.3430 
 15 N       -2.7560    -2.4250     0.3310 N.4   1 <1>  -0.9590 
 16 C       -3.9490    -2.8120     1.1400 C.3   1 <1>   0.3430 
 17 C       -5.0620    -1.7890     0.9390 C.3   1 <1>  -0.2400 
 18 H        2.2160     2.7440    -1.1600 H     1 <1>   0.3700 
 19 H        3.1500    -0.9050    -1.2470 H     1 <1>   0.0800 
 20 H        4.1990     2.9920    -0.1270 H     1 <1>   0.0800 
 21 H        4.6610     1.4830    -0.8600 H     1 <1>   0.0800 
 22 H        1.6580    -2.5250    -1.4440 H     1 <1>   0.4500 
 23 H        0.7610    -1.2170    -1.9240 H     1 <1>   0.4500 
 24 H        2.6850    -1.8920     1.0360 H     1 <1>   0.0800 
 25 H        1.8460    -0.4080     1.4240 H     1 <1>   0.0800 
 26 H        3.1810     1.7170     1.7890 H     1 <1>   0.0800 
 27 H        4.8990     1.6330     1.6450 H     1 <1>   0.0800 
 28 H        0.5150    -2.2970     0.8000 H     1 <1>   0.0800 
 29 H        4.7460    -0.5940     0.5560 H     1 <1>   0.0800 
 30 H        4.1980    -0.5350     2.1950 H     1 <1>   0.0800 
 31 H       -0.0030    -4.0790    -0.7610 H     1 <1>   0.0800 
 32 H       -1.0190    -3.0250    -1.7090 H     1 <1>   0.0800 
 33 H       -1.2440    -0.5000    -0.9070 H     1 <1>   0.0800 
 34 H       -0.3710    -0.0280     0.5220 H     1 <1>   0.0800 
 35 H       -1.5030    -3.9250     1.1380 H     1 <1>   0.0800 
 36 H       -2.3930    -4.4190    -0.2800 H     1 <1>   0.0800 
 37 H       -2.7440    -0.4050     0.9770 H     1 <1>   0.0800 
 38 H       -1.7260    -1.4680     1.9140 H     1 <1>   0.0800 
 39 H       -3.1230    -2.1620    -0.5970 H     1 <1>   0.4500 
 40 H       -3.6920    -2.8800     2.1850 H     1 <1>   0.0800 
 41 H       -4.3100    -3.7770     0.8190 H     1 <1>   0.0800 
 42 H       -4.7960    -0.8260     1.3370 H     1 <1>   0.0800 
 43 H       -5.9400    -2.1210     1.4640 H     1 <1>   0.0800 
 44 H       -5.3190    -1.6960    -0.1010 H     1 <1>   0.0800 
@<TRIPOS>BOND
  1   1   2  2   
  2   2   3  am  
  3   2   4  1   
  4   3   5  1   
  5   3  18  1   
  6   4   6  1   
  7   4   7  1   
  8   4  19  1   
  9   5   8  1   
 10   5  20  1   
 11   5  21  1   
 12   6   9  1   
 13   6  22  1   
 14   6  23  1   
 15   7  10  1   
 16   7  24  1   
 17   7  25  1   
 18   8  10  1   
 19   8  26  1   
 20   8  27  1   
 21   9  11  1   
 22   9  12  1   
 23   9  28  1   
 24  10  29  1   
 25  10  30  1   
 26  11  13  1   
 27  11  31  1   
 28  11  32  1   
 29  12  14  1   
 30  12  33  1   
 31  12  34  1   
 32  13  15  1   
 33  13  35  1   
 34  13  36  1   
 35  14  15  1   
 36  14  37  1   
 37  14  38  1   
 38  15  16  1   
 39  15  39  1   
 40  16  17  1   
 41  16  40  1   
 42  16  41  1   
 43  17  42  1   
 44  17  43  1   
 45  17  44  1   
@<TRIPOS>SUBSTRUCTURE
  1 ****   9 GROUP 4 **** **** 0

# MOE 2024.06 (io_trps.svl 2023.06)
