@<TRIPOS>MOLECULE
NONAME
44 45 1 0 0 
SMALL
USER_CHARGES


@<TRIPOS>ATOM
  1 CL      -2.4140    -1.8030     3.6460 Cl    1 <1>  -0.1770 
  2 C       -2.3260    -1.8620     1.9010 C.ar  1 <1>   0.1770 
  3 C       -2.2110    -0.6990     1.1570 C.ar  1 <1>   0.1770 
  4 C       -2.3740    -3.0920     1.2720 C.ar  1 <1>  -0.1500 
  5 CL      -2.1510     0.8640     1.9380 Cl    1 <1>  -0.1770 
  6 C       -2.1390    -0.7600    -0.2220 C.ar  1 <1>  -0.1500 
  7 C       -2.3050    -3.1670    -0.1160 C.ar  1 <1>  -0.1440 
  8 C       -2.1850    -1.9940    -0.8540 C.ar  1 <1>  -0.1500 
  9 C       -2.3510    -4.5210    -0.8260 C.3   1 <1>   0.5020 
 10 N       -3.6010    -5.1930    -0.4210 N.am  1 <1>  -0.7300 
 11 C       -1.1030    -5.3470    -0.4990 C.2   1 <1>  -0.1240 
 12 C       -3.6390    -6.2840     0.3580 C.2   1 <1>   0.6900 
 13 C       -1.2320    -6.4960     0.2230 C.2   1 <1>  -0.0290 
 14 C        0.0810    -4.7430    -1.0280 C.2   1 <1>   0.7060 
 15 O       -4.6880    -6.6950     0.7960 O.2   1 <1>  -0.5700 
 16 N       -2.4750    -6.9080     0.6600 N.am  1 <1>  -0.5390 
 17 C       -0.1100    -7.4440     0.6160 C.3   1 <1>  -0.1020 
 18 O        0.0700    -4.0070    -1.9970 O.2   1 <1>  -0.5700 
 19 O        1.2490    -4.9770    -0.4240 O.3   1 <1>  -0.4300 
 20 C        2.4490    -4.3890    -0.8790 C.3   1 <1>   0.1200 
 21 C        3.5880    -4.8720     0.0220 C.3   1 <1>  -0.1600 
 22 C        4.9720    -4.3930    -0.4520 C.3   1 <1>  -0.0800 
 23 C        6.0640    -5.0220     0.4200 C.3   1 <1>  -0.2400 
 24 C        5.1000    -2.8640    -0.4070 C.3   1 <1>  -0.2400 
 25 H       -2.4640    -3.9830     1.8700 H     1 <1>   0.1500 
 26 H       -2.0450     0.1470    -0.7920 H     1 <1>   0.1500 
 27 H       -2.1180    -2.0340    -1.9290 H     1 <1>   0.1500 
 28 H       -2.3980    -4.3700    -1.8910 H     1 <1>   0.0800 
 29 H       -4.4650    -4.6670    -0.5230 H     1 <1>   0.3700 
 30 H       -2.5960    -7.7460     1.2290 H     1 <1>   0.3700 
 31 H       -0.4360    -8.4650     0.5210 H     1 <1>   0.0800 
 32 H        0.1770    -7.2680     1.6380 H     1 <1>   0.0800 
 33 H        0.7540    -7.3290    -0.0100 H     1 <1>   0.0800 
 34 H        2.3380    -3.3190    -0.8310 H     1 <1>   0.0800 
 35 H        2.6100    -4.6910    -1.9000 H     1 <1>   0.0800 
 36 H        3.5790    -5.9480     0.0270 H     1 <1>   0.0800 
 37 H        3.4130    -4.5270     1.0260 H     1 <1>   0.0800 
 38 H        5.1250    -4.7210    -1.4680 H     1 <1>   0.0800 
 39 H        5.9530    -4.7180     1.4460 H     1 <1>   0.0800 
 40 H        7.0380    -4.7190     0.0760 H     1 <1>   0.0800 
 41 H        6.0120    -6.0950     0.3710 H     1 <1>   0.0800 
 42 H        4.9020    -2.4960     0.5840 H     1 <1>   0.0800 
 43 H        4.4140    -2.3990    -1.0920 H     1 <1>   0.0800 
 44 H        6.0950    -2.5660    -0.6880 H     1 <1>   0.0800 
@<TRIPOS>BOND
  1   1   2  1   
  2   2   3  ar  
  3   2   4  ar  
  4   3   5  1   
  5   3   6  ar  
  6   4   7  ar  
  7   4  25  1   
  8   6   8  ar  
  9   6  26  1   
 10   7   8  ar  
 11   7   9  1   
 12   8  27  1   
 13   9  10  1   
 14   9  11  1   
 15   9  28  1   
 16  10  12  am  
 17  10  29  1   
 18  11  13  2   
 19  11  14  1   
 20  12  15  2   
 21  12  16  am  
 22  13  16  1   
 23  13  17  1   
 24  14  18  2   
 25  14  19  1   
 26  16  30  1   
 27  17  31  1   
 28  17  32  1   
 29  17  33  1   
 30  19  20  1   
 31  20  21  1   
 32  20  34  1   
 33  20  35  1   
 34  21  22  1   
 35  21  36  1   
 36  21  37  1   
 37  22  23  1   
 38  22  24  1   
 39  22  38  1   
 40  23  39  1   
 41  23  40  1   
 42  23  41  1   
 43  24  42  1   
 44  24  43  1   
 45  24  44  1   
@<TRIPOS>SUBSTRUCTURE
  1 ****  14 GROUP 4 **** **** 0

# MOE 2024.06 (io_trps.svl 2023.06)
