@<TRIPOS>MOLECULE
NONAME
46 48 1 0 0 
SMALL
USER_CHARGES


@<TRIPOS>ATOM
  1 O        0.4060    -0.1080    -0.5010 O.2   1 <1>  -0.5700 
  2 C        0.8860    -1.1300    -0.0490 C.2   1 <1>   0.6900 
  3 N        2.2490    -1.2800     0.0130 N.am  1 <1>  -0.6600 
  4 N        0.0890    -2.1560     0.3740 N.am  1 <1>  -0.5470 
  5 C        3.1650    -0.3140    -0.6720 C.3   1 <1>   0.1400 
  6 C        2.9750    -2.2550     0.8870 C.3   1 <1>   0.1400 
  7 C       -1.2980    -2.2370     0.5600 C.ar  1 <1>   0.1170 
  8 C        4.2800    -1.0360    -1.4500 C.3   1 <1>   0.2090 
  9 C        4.0690    -3.0080     0.1090 C.3   1 <1>   0.2090 
 10 C       -1.9090    -3.4850     0.5180 C.ar  1 <1>  -0.1500 
 11 C       -2.0920    -1.1210     0.8090 C.ar  1 <1>  -0.1500 
 12 N        4.9710    -2.0820    -0.6360 N.pl3 1 <1>  -0.8380 
 13 C       -3.2730    -3.6180     0.7140 C.ar  1 <1>  -0.1500 
 14 C       -3.4550    -1.2480     1.0050 C.ar  1 <1>  -0.1500 
 15 C        6.2070    -1.7750    -0.0690 C.ar  1 <1>   0.1000 
 16 C       -4.0480    -2.4980     0.9580 C.ar  1 <1>  -0.1500 
 17 C        7.3790    -2.3700    -0.5390 C.ar  1 <1>  -0.1430 
 18 C        6.2930    -0.8690     0.9820 C.ar  1 <1>  -0.1500 
 19 C        8.5960    -2.0550     0.0440 C.ar  1 <1>  -0.1500 
 20 C        7.3300    -3.3620    -1.6910 C.3   1 <1>  -0.0970 
 21 C        7.5100    -0.5590     1.5590 C.ar  1 <1>  -0.1500 
 22 C        8.6710    -1.1530     1.0930 C.ar  1 <1>  -0.1430 
 23 C       10.0120    -0.8180     1.7200 C.3   1 <1>  -0.0970 
 24 H        0.5880    -3.0330     0.4450 H     1 <1>   0.3700 
 25 H        3.6070     0.3320     0.0640 H     1 <1>   0.0800 
 26 H        2.6140     0.3060    -1.3570 H     1 <1>   0.0800 
 27 H        2.2980    -2.9660     1.3220 H     1 <1>   0.0800 
 28 H        3.4370    -1.7160     1.6940 H     1 <1>   0.0800 
 29 H        5.0020    -0.3130    -1.7890 H     1 <1>   0.0800 
 30 H        3.8520    -1.5020    -2.3210 H     1 <1>   0.0800 
 31 H        3.6090    -3.6810    -0.5930 H     1 <1>   0.0800 
 32 H        4.6540    -3.5960     0.7940 H     1 <1>   0.0800 
 33 H       -1.3190    -4.3610     0.3260 H     1 <1>   0.1500 
 34 H       -1.6440    -0.1450     0.8520 H     1 <1>   0.1500 
 35 H       -3.7330    -4.5900     0.6760 H     1 <1>   0.1500 
 36 H       -4.0540    -0.3740     1.1930 H     1 <1>   0.1500 
 37 H       -5.1090    -2.5970     1.1090 H     1 <1>   0.1500 
 38 H        5.3990    -0.4060     1.3490 H     1 <1>   0.1500 
 39 H        9.4970    -2.5140    -0.3210 H     1 <1>   0.1500 
 40 H        6.8930    -2.8920    -2.5530 H     1 <1>   0.0800 
 41 H        6.7240    -4.2060    -1.4150 H     1 <1>   0.0800 
 42 H        8.3130    -3.7110    -1.9480 H     1 <1>   0.0800 
 43 H        7.5500     0.1460     2.3700 H     1 <1>   0.1500 
 44 H       10.6520    -1.6810     1.7150 H     1 <1>   0.0800 
 45 H        9.8830    -0.4960     2.7370 H     1 <1>   0.0800 
 46 H       10.4850    -0.0300     1.1620 H     1 <1>   0.0800 
@<TRIPOS>BOND
  1   1   2  2   
  2   2   3  am  
  3   2   4  am  
  4   3   5  1   
  5   3   6  1   
  6   4   7  1   
  7   4  24  1   
  8   5   8  1   
  9   5  25  1   
 10   5  26  1   
 11   6   9  1   
 12   6  27  1   
 13   6  28  1   
 14   7  10  ar  
 15   7  11  ar  
 16   8  12  1   
 17   8  29  1   
 18   8  30  1   
 19   9  12  1   
 20   9  31  1   
 21   9  32  1   
 22  10  13  ar  
 23  10  33  1   
 24  11  14  ar  
 25  11  34  1   
 26  12  15  1   
 27  13  16  ar  
 28  13  35  1   
 29  14  16  ar  
 30  14  36  1   
 31  15  17  ar  
 32  15  18  ar  
 33  16  37  1   
 34  17  19  ar  
 35  17  20  1   
 36  18  21  ar  
 37  18  38  1   
 38  19  22  ar  
 39  19  39  1   
 40  20  40  1   
 41  20  41  1   
 42  20  42  1   
 43  21  22  ar  
 44  21  43  1   
 45  22  23  1   
 46  23  44  1   
 47  23  45  1   
 48  23  46  1   
@<TRIPOS>SUBSTRUCTURE
  1 ****   6 GROUP 4 **** **** 0

# MOE 2024.06 (io_trps.svl 2023.06)
