@<TRIPOS>MOLECULE
NONAME
42 43 1 0 0 
SMALL
USER_CHARGES


@<TRIPOS>ATOM
  1 O        4.3820    -1.1610     1.6170 O.3   1 <1>  -0.6800 
  2 C        5.1270    -1.2230     0.4280 C.3   1 <1>   0.1200 
  3 C        4.7960    -2.5320    -0.3370 C.3   1 <1>   0.5030 
  4 N        3.3350    -2.7340    -0.1970 N.4   1 <1>  -0.9060 
  5 C        5.6010    -3.7080     0.2940 C.3   1 <1>   0.1200 
  6 C        5.0960    -2.3850    -1.8330 C.3   1 <1>  -0.2400 
  7 C        2.7520    -4.0550    -0.4940 C.3   1 <1>   0.4860 
  8 O        6.9710    -3.5090     0.1460 O.3   1 <1>  -0.6800 
  9 C        1.2540    -3.8950    -0.3820 C.ar  1 <1>  -0.1440 
 10 C        0.6250    -4.0110     0.8490 C.ar  1 <1>  -0.1500 
 11 C        0.4940    -3.6190    -1.5080 C.ar  1 <1>  -0.1500 
 12 C       -0.7440    -3.8460     0.9480 C.ar  1 <1>  -0.1500 
 13 C       -0.8740    -3.4550    -1.4000 C.ar  1 <1>  -0.1500 
 14 C       -1.5190    -3.5640    -0.1720 C.ar  1 <1>   0.0000 
 15 C       -2.9490    -3.3920    -0.0650 C.ar  1 <1>   0.0000 
 16 C       -3.8250    -4.2090    -0.7750 C.ar  1 <1>  -0.1500 
 17 C       -3.4940    -2.4050     0.7520 C.ar  1 <1>  -0.1500 
 18 C       -5.1950    -4.0460    -0.6750 C.ar  1 <1>  -0.1500 
 19 C       -4.8630    -2.2380     0.8560 C.ar  1 <1>  -0.1500 
 20 C       -5.7160    -3.0590     0.1420 C.ar  1 <1>  -0.1500 
 21 H        4.6740    -0.4010     2.1700 H     1 <1>   0.4000 
 22 H        6.1750    -1.1690     0.6710 H     1 <1>   0.0800 
 23 H        4.8740    -0.3610    -0.1650 H     1 <1>   0.0800 
 24 H        2.8400    -2.0310    -0.7510 H     1 <1>   0.4500 
 25 H        3.1320    -2.4640     0.7800 H     1 <1>   0.4500 
 26 H        5.3660    -4.6400    -0.1870 H     1 <1>   0.0800 
 27 H        5.3940    -3.7780     1.3490 H     1 <1>   0.0800 
 28 H        4.5150    -1.5940    -2.2720 H     1 <1>   0.0800 
 29 H        4.9060    -3.3030    -2.3590 H     1 <1>   0.0800 
 30 H        6.1360    -2.1420    -1.9730 H     1 <1>   0.0800 
 31 H        3.0980    -4.7940     0.2100 H     1 <1>   0.0800 
 32 H        3.0120    -4.3690    -1.4920 H     1 <1>   0.0800 
 33 H        7.4930    -4.2280     0.5640 H     1 <1>   0.4000 
 34 H        1.1840    -4.2320     1.7430 H     1 <1>   0.1500 
 35 H        0.9490    -3.5300    -2.4810 H     1 <1>   0.1500 
 36 H       -1.2300    -3.9410     1.9040 H     1 <1>   0.1500 
 37 H       -1.4620    -3.2380    -2.2760 H     1 <1>   0.1500 
 38 H       -3.4270    -4.9810    -1.4080 H     1 <1>   0.1500 
 39 H       -2.8370    -1.7600     1.3080 H     1 <1>   0.1500 
 40 H       -5.8560    -4.6880    -1.2320 H     1 <1>   0.1500 
 41 H       -5.2660    -1.4690     1.4920 H     1 <1>   0.1500 
 42 H       -6.7820    -2.9310     0.2210 H     1 <1>   0.1500 
@<TRIPOS>BOND
  1   1   2  1   
  2   1  21  1   
  3   2   3  1   
  4   2  22  1   
  5   2  23  1   
  6   3   4  1   
  7   3   5  1   
  8   3   6  1   
  9   4   7  1   
 10   4  24  1   
 11   4  25  1   
 12   5   8  1   
 13   5  26  1   
 14   5  27  1   
 15   6  28  1   
 16   6  29  1   
 17   6  30  1   
 18   7   9  1   
 19   7  31  1   
 20   7  32  1   
 21   8  33  1   
 22   9  10  ar  
 23   9  11  ar  
 24  10  12  ar  
 25  10  34  1   
 26  11  13  ar  
 27  11  35  1   
 28  12  14  ar  
 29  12  36  1   
 30  13  14  ar  
 31  13  37  1   
 32  14  15  1   
 33  15  16  ar  
 34  15  17  ar  
 35  16  18  ar  
 36  16  38  1   
 37  17  19  ar  
 38  17  39  1   
 39  18  20  ar  
 40  18  40  1   
 41  19  20  ar  
 42  19  41  1   
 43  20  42  1   
@<TRIPOS>SUBSTRUCTURE
  1 ****   9 GROUP 4 **** **** 0

# MOE 2024.06 (io_trps.svl 2023.06)
