@<TRIPOS>MOLECULE
NONAME
44 45 1 0 0 
SMALL
USER_CHARGES


@<TRIPOS>ATOM
  1 O       -0.0620    -6.5940     1.6830 O.3   1 <1>  -0.3630 
  2 C       -0.9490    -6.8950     0.6950 C.ar  1 <1>   0.0830 
  3 C        0.5440    -7.5850     2.4940 C.3   1 <1>   0.1200 
  4 C       -1.2540    -5.9030    -0.2360 C.ar  1 <1>  -0.1440 
  5 C       -1.5460    -8.1510     0.5840 C.ar  1 <1>  -0.1500 
  6 C        1.4820    -8.4550     1.6390 C.3   1 <1>   0.3430 
  7 C       -2.1210    -6.1940    -1.2780 C.ar  1 <1>  -0.1500 
  8 C       -0.6880    -4.4880    -0.1480 C.3   1 <1>  -0.0170 
  9 C       -2.4060    -8.4260    -0.4630 C.ar  1 <1>  -0.1500 
 10 N        2.2530    -7.6160     0.6720 N.4   1 <1>  -0.9590 
 11 C       -2.6900    -7.4490    -1.3970 C.ar  1 <1>  -0.1500 
 12 C        0.3680    -4.2490    -1.2300 C.3   1 <1>  -0.2400 
 13 C        2.6470    -8.4150    -0.5170 C.3   1 <1>   0.3430 
 14 C        3.3950    -6.9270     1.3320 C.3   1 <1>   0.3430 
 15 C        3.0910    -7.5300    -1.6810 C.3   1 <1>  -0.1600 
 16 C        3.5660    -5.5210     0.7610 C.3   1 <1>  -0.1600 
 17 C        4.3780    -6.7320    -1.4220 C.3   1 <1>  -0.1600 
 18 C        4.1520    -5.4170    -0.6620 C.3   1 <1>  -0.1600 
 19 H       -0.2200    -8.1680     2.9780 H     1 <1>   0.0800 
 20 H        1.1050    -7.0740     3.2560 H     1 <1>   0.0800 
 21 H       -1.3730    -8.9290     1.3000 H     1 <1>   0.1500 
 22 H        0.8750    -9.1590     1.0940 H     1 <1>   0.0800 
 23 H        2.1490    -9.0190     2.2710 H     1 <1>   0.0800 
 24 H       -2.3650    -5.4380    -2.0040 H     1 <1>   0.1500 
 25 H       -0.2600    -4.3010     0.8200 H     1 <1>   0.0800 
 26 H       -1.4900    -3.7820    -0.2760 H     1 <1>   0.0800 
 27 H       -2.8660    -9.3960    -0.5500 H     1 <1>   0.1500 
 28 H        1.5860    -6.8880     0.3590 H     1 <1>   0.4500 
 29 H       -3.3620    -7.6590    -2.2120 H     1 <1>   0.1500 
 30 H        1.1510    -4.9760    -1.1490 H     1 <1>   0.0800 
 31 H        0.7900    -3.2660    -1.1240 H     1 <1>   0.0800 
 32 H       -0.0740    -4.3270    -2.2080 H     1 <1>   0.0800 
 33 H        1.8040    -9.0010    -0.8450 H     1 <1>   0.0800 
 34 H        3.4430    -9.0930    -0.2550 H     1 <1>   0.0800 
 35 H        4.3030    -7.4950     1.2120 H     1 <1>   0.0800 
 36 H        3.1960    -6.8340     2.3870 H     1 <1>   0.0800 
 37 H        2.2900    -6.8790    -1.9820 H     1 <1>   0.0800 
 38 H        3.2800    -8.1860    -2.5130 H     1 <1>   0.0800 
 39 H        4.2300    -4.9900     1.4210 H     1 <1>   0.0800 
 40 H        2.6240    -5.0040     0.8090 H     1 <1>   0.0800 
 41 H        4.8060    -6.4760    -2.3780 H     1 <1>   0.0800 
 42 H        5.1070    -7.3420    -0.9150 H     1 <1>   0.0800 
 43 H        5.1030    -4.9140    -0.5960 H     1 <1>   0.0800 
 44 H        3.5200    -4.7770    -1.2540 H     1 <1>   0.0800 
@<TRIPOS>BOND
  1   1   2  1   
  2   1   3  1   
  3   2   4  ar  
  4   2   5  ar  
  5   3   6  1   
  6   3  19  1   
  7   3  20  1   
  8   4   7  ar  
  9   4   8  1   
 10   5   9  ar  
 11   5  21  1   
 12   6  10  1   
 13   6  22  1   
 14   6  23  1   
 15   7  11  ar  
 16   7  24  1   
 17   8  12  1   
 18   8  25  1   
 19   8  26  1   
 20   9  11  ar  
 21   9  27  1   
 22  10  13  1   
 23  10  14  1   
 24  10  28  1   
 25  11  29  1   
 26  12  30  1   
 27  12  31  1   
 28  12  32  1   
 29  13  15  1   
 30  13  33  1   
 31  13  34  1   
 32  14  16  1   
 33  14  35  1   
 34  14  36  1   
 35  15  17  1   
 36  15  37  1   
 37  15  38  1   
 38  16  18  1   
 39  16  39  1   
 40  16  40  1   
 41  17  18  1   
 42  17  41  1   
 43  17  42  1   
 44  18  43  1   
 45  18  44  1   
@<TRIPOS>SUBSTRUCTURE
  1 ****  10 GROUP 4 **** **** 0

# MOE 2024.06 (io_trps.svl 2023.06)
