@<TRIPOS>MOLECULE
NONAME
51 52 1 0 0 
SMALL
USER_CHARGES


@<TRIPOS>ATOM
  1 S        1.1670     2.1380     1.5790 S.o2  1 <1>   1.3330 
  2 O        2.0140     1.2840     0.7860 O.2   1 <1>  -0.6500 
  3 O        1.7490     3.1350     2.4460 O.2   1 <1>  -0.6500 
  4 N        0.1090     2.9900     0.5130 N.am  1 <1>  -0.6930 
  5 C        0.0440     1.1470     2.5430 C.3   1 <1>  -0.1350 
  6 C       -0.8700     2.3110    -0.2070 C.ar  1 <1>   0.1990 
  7 C        0.6610     4.2360    -0.1040 C.3   1 <1>   0.2570 
  8 C       -2.2270     2.5470     0.0290 C.ar  1 <1>  -0.1440 
  9 C       -0.5060     1.3740    -1.1680 C.ar  1 <1>  -0.1500 
 10 C        1.6700     3.9990    -1.2420 C.2   1 <1>   0.5690 
 11 C       -3.1820     1.8410    -0.6850 C.ar  1 <1>  -0.1500 
 12 C       -2.6800     3.5760     1.0580 C.3   1 <1>  -0.0970 
 13 C       -1.4630     0.6730    -1.8760 C.ar  1 <1>  -0.1500 
 14 O        1.2140     3.9370    -2.3620 O.2   1 <1>  -0.5700 
 15 N        3.0260     3.8810    -1.0320 N.am  1 <1>  -0.6600 
 16 C       -2.8040     0.9050    -1.6330 C.ar  1 <1>  -0.1500 
 17 C        3.7440     4.1010     0.2650 C.3   1 <1>   0.1400 
 18 C        3.9230     3.3710    -2.1180 C.3   1 <1>   0.1400 
 19 C        4.9820     4.9950     0.0810 C.3   1 <1>   0.1400 
 20 C        5.1430     4.2830    -2.3120 C.3   1 <1>   0.1400 
 21 N        5.8540     4.4860    -1.0170 N.am  1 <1>  -0.6600 
 22 C        7.1500     4.0880    -0.8330 C.2   1 <1>   0.7800 
 23 O        7.8300     3.6260    -1.7300 O.2   1 <1>  -0.5700 
 24 O        7.6680     4.2120     0.3910 O.3   1 <1>  -0.4300 
 25 C        8.9820     3.7910     0.6670 C.3   1 <1>   0.1200 
 26 C        9.2490     4.0250     2.1500 C.3   1 <1>  -0.2400 
 27 H        0.5890     0.5790     3.2700 H     1 <1>   0.0800 
 28 H       -0.4910     0.4690     1.9080 H     1 <1>   0.0800 
 29 H       -0.6600     1.7740     3.0530 H     1 <1>   0.0800 
 30 H        1.0930     4.8550     0.6570 H     1 <1>   0.0800 
 31 H       -0.1590     4.7900    -0.5220 H     1 <1>   0.0800 
 32 H        0.5370     1.1990    -1.3670 H     1 <1>   0.1500 
 33 H       -4.2290     2.0150    -0.5130 H     1 <1>   0.1500 
 34 H       -2.2220     3.3780     2.0100 H     1 <1>   0.0800 
 35 H       -3.7470     3.5540     1.1850 H     1 <1>   0.0800 
 36 H       -2.3960     4.5610     0.7360 H     1 <1>   0.0800 
 37 H       -1.1640    -0.0470    -2.6180 H     1 <1>   0.1500 
 38 H       -3.5530     0.3630    -2.1840 H     1 <1>   0.1500 
 39 H        4.0520     3.1490     0.6620 H     1 <1>   0.0800 
 40 H        3.1060     4.5700     0.9870 H     1 <1>   0.0800 
 41 H        3.3920     3.2950    -3.0510 H     1 <1>   0.0800 
 42 H        4.2600     2.3830    -1.8550 H     1 <1>   0.0800 
 43 H        5.5210     5.0410     1.0110 H     1 <1>   0.0800 
 44 H        4.6630     5.9930    -0.1610 H     1 <1>   0.0800 
 45 H        4.8180     5.2350    -2.6930 H     1 <1>   0.0800 
 46 H        5.8010     3.8420    -3.0410 H     1 <1>   0.0800 
 47 H        9.6590     4.3620     0.0540 H     1 <1>   0.0800 
 48 H        9.0640     2.7450     0.4200 H     1 <1>   0.0800 
 49 H        9.1630     5.0720     2.3810 H     1 <1>   0.0800 
 50 H       10.2440     3.7010     2.3940 H     1 <1>   0.0800 
 51 H        8.5500     3.4650     2.7450 H     1 <1>   0.0800 
@<TRIPOS>BOND
  1   1   2  2   
  2   1   3  2   
  3   1   4  am  
  4   1   5  1   
  5   4   6  1   
  6   4   7  1   
  7   5  27  1   
  8   5  28  1   
  9   5  29  1   
 10   6   8  ar  
 11   6   9  ar  
 12   7  10  1   
 13   7  30  1   
 14   7  31  1   
 15   8  11  ar  
 16   8  12  1   
 17   9  13  ar  
 18   9  32  1   
 19  10  14  2   
 20  10  15  am  
 21  11  16  ar  
 22  11  33  1   
 23  12  34  1   
 24  12  35  1   
 25  12  36  1   
 26  13  16  ar  
 27  13  37  1   
 28  15  17  1   
 29  15  18  1   
 30  16  38  1   
 31  17  19  1   
 32  17  39  1   
 33  17  40  1   
 34  18  20  1   
 35  18  41  1   
 36  18  42  1   
 37  19  21  1   
 38  19  43  1   
 39  19  44  1   
 40  20  21  1   
 41  20  45  1   
 42  20  46  1   
 43  21  22  am  
 44  22  23  2   
 45  22  24  1   
 46  24  25  1   
 47  25  26  1   
 48  25  47  1   
 49  25  48  1   
 50  26  49  1   
 51  26  50  1   
 52  26  51  1   
@<TRIPOS>SUBSTRUCTURE
  1 ****  15 GROUP 4 **** **** 0

# MOE 2024.06 (io_trps.svl 2023.06)
