@<TRIPOS>MOLECULE
NONAME
45 46 1 0 0 
SMALL
USER_CHARGES


@<TRIPOS>ATOM
  1 CL       0.0540    -0.8140     0.6070 Cl    1 <1>  -0.1770 
  2 C        1.7070    -1.3340     0.3950 C.ar  1 <1>   0.1770 
  3 C        2.0130    -2.6780     0.4920 C.ar  1 <1>  -0.1500 
  4 C        2.6840    -0.3940     0.1350 C.ar  1 <1>  -0.1500 
  5 C        3.3230    -3.0990     0.3250 C.ar  1 <1>  -0.1440 
  6 C        3.9950    -0.8060    -0.0330 C.ar  1 <1>  -0.1500 
  7 C        4.3210    -2.1600     0.0610 C.ar  1 <1>   0.0830 
  8 C        3.6510    -4.5820     0.4320 C.3   1 <1>  -0.0960 
  9 O        5.5890    -2.6240    -0.0940 O.3   1 <1>  -0.3630 
 10 C        6.6640    -1.7640    -0.4090 C.3   1 <1>   0.1200 
 11 C        7.9380    -2.6110    -0.5260 C.3   1 <1>   0.2000 
 12 O        8.0580    -3.4110     0.6130 O.3   1 <1>  -0.6800 
 13 C        9.2160    -1.7590    -0.6610 C.3   1 <1>   0.3430 
 14 N       10.3930    -2.5630    -0.2280 N.4   1 <1>  -0.9060 
 15 C       11.5540    -1.8290     0.2730 C.3   1 <1>   0.5660 
 16 C       12.7080    -2.8150     0.2960 C.ar  1 <1>  -0.1430 
 17 C       11.2510    -1.2570     1.6550 C.3   1 <1>  -0.2400 
 18 C       12.6980    -3.9380     1.1160 C.ar  1 <1>  -0.1500 
 19 C       13.7970    -2.5970    -0.5360 C.ar  1 <1>  -0.1500 
 20 C       13.7590    -4.8270     1.0980 C.ar  1 <1>  -0.1500 
 21 C       14.8570    -3.4870    -0.5530 C.ar  1 <1>  -0.1500 
 22 C       14.8370    -4.6020     0.2630 C.ar  1 <1>  -0.1500 
 23 H        1.2240    -3.3790     0.6970 H     1 <1>   0.1500 
 24 H        2.4160     0.6450     0.0650 H     1 <1>   0.1500 
 25 H        4.7360    -0.0570    -0.2340 H     1 <1>   0.1500 
 26 H        2.7630    -5.1650     0.5950 H     1 <1>   0.0800 
 27 H        4.3240    -4.7500     1.2530 H     1 <1>   0.0800 
 28 H        4.1170    -4.9210    -0.4760 H     1 <1>   0.0800 
 29 H        6.7580    -1.0370     0.3790 H     1 <1>   0.0800 
 30 H        6.4440    -1.2730    -1.3420 H     1 <1>   0.0800 
 31 H        7.8460    -3.2640    -1.3770 H     1 <1>   0.0800 
 32 H        7.1650    -3.7720     0.8310 H     1 <1>   0.4000 
 33 H        9.1130    -0.8970    -0.0230 H     1 <1>   0.0800 
 34 H        9.3350    -1.4140    -1.6750 H     1 <1>   0.0800 
 35 H       10.7130    -3.2090    -0.9570 H     1 <1>   0.4500 
 36 H       10.0370    -3.1710     0.5280 H     1 <1>   0.4500 
 37 H       11.8000    -1.0260    -0.4040 H     1 <1>   0.0800 
 38 H       10.9230    -2.0220     2.3350 H     1 <1>   0.0800 
 39 H       10.5060    -0.4850     1.5980 H     1 <1>   0.0800 
 40 H       12.1470    -0.8170     2.0570 H     1 <1>   0.0800 
 41 H       11.8770    -4.1420     1.7820 H     1 <1>   0.1500 
 42 H       13.8420    -1.7350    -1.1810 H     1 <1>   0.1500 
 43 H       13.7500    -5.6960     1.7350 H     1 <1>   0.1500 
 44 H       15.7010    -3.3130    -1.2000 H     1 <1>   0.1500 
 45 H       15.6630    -5.2940     0.2500 H     1 <1>   0.1500 
@<TRIPOS>BOND
  1   1   2  1   
  2   2   3  ar  
  3   2   4  ar  
  4   3   5  ar  
  5   3  23  1   
  6   4   6  ar  
  7   4  24  1   
  8   5   7  ar  
  9   5   8  1   
 10   6   7  ar  
 11   6  25  1   
 12   7   9  1   
 13   8  26  1   
 14   8  27  1   
 15   8  28  1   
 16   9  10  1   
 17  10  11  1   
 18  10  29  1   
 19  10  30  1   
 20  11  12  1   
 21  11  13  1   
 22  11  31  1   
 23  12  32  1   
 24  13  14  1   
 25  13  33  1   
 26  13  34  1   
 27  14  15  1   
 28  14  35  1   
 29  14  36  1   
 30  15  16  1   
 31  15  17  1   
 32  15  37  1   
 33  16  18  ar  
 34  16  19  ar  
 35  17  38  1   
 36  17  39  1   
 37  17  40  1   
 38  18  20  ar  
 39  18  41  1   
 40  19  21  ar  
 41  19  42  1   
 42  20  22  ar  
 43  20  43  1   
 44  21  22  ar  
 45  21  44  1   
 46  22  45  1   
@<TRIPOS>SUBSTRUCTURE
  1 ****  11 GROUP 4 **** **** 0

# MOE 2024.06 (io_trps.svl 2023.06)
