@<TRIPOS>MOLECULE
NONAME
36 36 1 0 0 
SMALL
USER_CHARGES


@<TRIPOS>ATOM
  1 BR      -0.8220    -0.0520     0.3060 Br    1 <1>  -0.1110 
  2 C       -0.4520    -1.8510    -0.2810 C.ar  1 <1>   0.1110 
  3 C       -1.4590    -2.5840    -0.8840 C.ar  1 <1>  -0.1440 
  4 C        0.8150    -2.3550    -0.0680 C.ar  1 <1>  -0.1500 
  5 C       -1.1630    -3.8790    -1.2760 C.ar  1 <1>  -0.1500 
  6 C       -2.8360    -2.0040    -1.1070 C.3   1 <1>   0.4870 
  7 C        1.1080    -3.6580    -0.4650 C.ar  1 <1>   0.0820 
  8 C        0.0950    -4.4280    -1.0740 C.ar  1 <1>   0.0820 
  9 N       -3.5870    -2.1580     0.1570 N.4   1 <1>  -0.9060 
 10 O        2.3500    -4.1850    -0.2700 O.3   1 <1>  -0.3620 
 11 O        0.1950    -5.7170    -1.5130 O.3   1 <1>  -0.3620 
 12 C       -4.9720    -1.6530     0.0850 C.3   1 <1>   0.3430 
 13 C        3.4110    -3.4620     0.3120 C.3   1 <1>   0.2580 
 14 C        1.3650    -6.4980    -1.4060 C.3   1 <1>   0.0400 
 15 C       -5.6200    -1.8590     1.4460 C.3   1 <1>  -0.2400 
 16 C        4.6250    -4.3680     0.3450 C.2   1 <1>  -0.2880 
 17 C        5.2960    -4.7270     1.4450 C.2   1 <1>  -0.3000 
 18 H        1.5410    -1.7200     0.4030 H     1 <1>   0.1500 
 19 H       -1.9040    -4.4970    -1.7550 H     1 <1>   0.1500 
 20 H       -3.3300    -2.5340    -1.9050 H     1 <1>   0.0800 
 21 H       -2.7590    -0.9630    -1.3770 H     1 <1>   0.0800 
 22 H       -3.0710    -1.6630     0.8950 H     1 <1>   0.4500 
 23 H       -3.5800    -3.1510     0.4200 H     1 <1>   0.4500 
 24 H       -5.5280    -2.1890    -0.6690 H     1 <1>   0.0800 
 25 H       -4.9750    -0.6030    -0.1650 H     1 <1>   0.0800 
 26 H        3.1240    -3.1720     1.3080 H     1 <1>   0.0800 
 27 H        3.6070    -2.5930    -0.2920 H     1 <1>   0.0800 
 28 H        1.1590    -7.4700    -1.8170 H     1 <1>   0.0800 
 29 H        1.6320    -6.5900    -0.3680 H     1 <1>   0.0800 
 30 H        2.1540    -6.0260    -1.9640 H     1 <1>   0.0800 
 31 H       -5.6510    -2.9030     1.7050 H     1 <1>   0.0800 
 32 H       -6.6330    -1.4970     1.4150 H     1 <1>   0.0800 
 33 H       -5.0970    -1.3110     2.2090 H     1 <1>   0.0800 
 34 H        4.9010    -4.7090    -0.6380 H     1 <1>   0.1500 
 35 H        6.1560    -5.3750     1.4360 H     1 <1>   0.1500 
 36 H        5.0470    -4.4090     2.4430 H     1 <1>   0.1500 
@<TRIPOS>BOND
  1   1   2  1   
  2   2   3  ar  
  3   2   4  ar  
  4   3   5  ar  
  5   3   6  1   
  6   4   7  ar  
  7   4  18  1   
  8   5   8  ar  
  9   5  19  1   
 10   6   9  1   
 11   6  20  1   
 12   6  21  1   
 13   7   8  ar  
 14   7  10  1   
 15   8  11  1   
 16   9  12  1   
 17   9  22  1   
 18   9  23  1   
 19  10  13  1   
 20  11  14  1   
 21  12  15  1   
 22  12  24  1   
 23  12  25  1   
 24  13  16  1   
 25  13  26  1   
 26  13  27  1   
 27  14  28  1   
 28  14  29  1   
 29  14  30  1   
 30  15  31  1   
 31  15  32  1   
 32  15  33  1   
 33  16  17  2   
 34  16  34  1   
 35  17  35  1   
 36  17  36  1   
@<TRIPOS>SUBSTRUCTURE
  1 ****   7 GROUP 4 **** **** 0

# MOE 2024.06 (io_trps.svl 2023.06)
