@<TRIPOS>MOLECULE
NONAME
27 26 1 0 0 
SMALL
USER_CHARGES


@<TRIPOS>ATOM
  1 O       -0.0980     0.4370    -0.4370 O.2   1 <1>  -0.5700 
  2 C       -0.0550    -0.6830     0.0270 C.2   1 <1>   0.7060 
  3 O        1.1390    -1.2050     0.3260 O.3   1 <1>  -0.4300 
  4 C       -1.2420    -1.4610     0.2940 C.2   1 <1>   0.0290 
  5 C        2.3450    -0.5000     0.1050 C.3   1 <1>   0.0400 
  6 C       -0.9810    -2.8710     0.4160 C.2   1 <1>   0.7060 
  7 C       -2.4740    -0.8960     0.4110 C.2   1 <1>  -0.2880 
  8 O       -1.2570    -3.5150     1.4050 O.2   1 <1>  -0.5700 
  9 O       -0.4360    -3.4900    -0.6350 O.3   1 <1>  -0.4300 
 10 C       -3.7950    -1.6040     0.6780 C.3   1 <1>  -0.0220 
 11 C       -0.1420    -4.8730    -0.6170 C.3   1 <1>   0.0400 
 12 C       -4.7410    -1.4120    -0.5110 C.3   1 <1>  -0.1600 
 13 C       -6.0840    -2.1120    -0.2770 C.3   1 <1>  -0.2400 
 14 H        3.1650    -1.1200     0.4200 H     1 <1>   0.0800 
 15 H        2.3260     0.4110     0.6780 H     1 <1>   0.0800 
 16 H        2.4300    -0.2770    -0.9450 H     1 <1>   0.0800 
 17 H       -2.6020     0.1700     0.3090 H     1 <1>   0.1500 
 18 H       -3.6450    -2.6560     0.8450 H     1 <1>   0.0800 
 19 H       -4.2400    -1.1930     1.5680 H     1 <1>   0.0800 
 20 H       -1.0550    -5.4210    -0.4560 H     1 <1>   0.0800 
 21 H        0.5550    -5.0700     0.1790 H     1 <1>   0.0800 
 22 H        0.2900    -5.1420    -1.5640 H     1 <1>   0.0800 
 23 H       -4.9120    -0.3610    -0.6690 H     1 <1>   0.0800 
 24 H       -4.2820    -1.8120    -1.3990 H     1 <1>   0.0800 
 25 H       -6.5700    -1.7130     0.5960 H     1 <1>   0.0800 
 26 H       -5.9390    -3.1700    -0.1400 H     1 <1>   0.0800 
 27 H       -6.7290    -1.9630    -1.1250 H     1 <1>   0.0800 
@<TRIPOS>BOND
  1   1   2  2   
  2   2   3  1   
  3   2   4  1   
  4   3   5  1   
  5   4   6  1   
  6   4   7  2   
  7   5  14  1   
  8   5  15  1   
  9   5  16  1   
 10   6   8  2   
 11   6   9  1   
 12   7  10  1   
 13   7  17  1   
 14   9  11  1   
 15  10  12  1   
 16  10  18  1   
 17  10  19  1   
 18  11  20  1   
 19  11  21  1   
 20  11  22  1   
 21  12  13  1   
 22  12  23  1   
 23  12  24  1   
 24  13  25  1   
 25  13  26  1   
 26  13  27  1   
@<TRIPOS>SUBSTRUCTURE
  1 ****   4 GROUP 4 **** **** 0

# MOE 2024.06 (io_trps.svl 2023.06)
