@<TRIPOS>MOLECULE
NONAME
31 31 1 0 0 
SMALL
USER_CHARGES


@<TRIPOS>ATOM
  1 O       -2.5370     1.2010     2.7900 O.2   1 <1>  -0.5700 
  2 C       -3.1610     1.3150     1.7580 C.2   1 <1>   0.5440 
  3 N       -3.4280     2.5870     1.3620 N.am  1 <1>  -0.7300 
  4 C       -3.5660     0.1520     0.9900 C.ar  1 <1>   0.0860 
  5 C       -3.5660     3.0570    -0.0460 C.3   1 <1>   0.2810 
  6 C       -2.6690    -0.8860     0.7420 C.ar  1 <1>  -0.1500 
  7 C       -4.8560     0.0290     0.4740 C.ar  1 <1>  -0.1500 
  8 C       -2.3350     3.8450    -0.5320 C.2   1 <1>   0.6590 
  9 C       -4.8460     3.8940    -0.1270 C.3   1 <1>  -0.2400 
 10 C       -3.0290    -1.9950    -0.0050 C.ar  1 <1>  -0.1440 
 11 C       -5.2260    -1.0730    -0.2750 C.ar  1 <1>  -0.1500 
 12 O       -1.8220     3.6240    -1.6000 O.2   1 <1>  -0.5700 
 13 O       -1.8710     4.7860     0.2890 O.3   1 <1>  -0.4300 
 14 C       -4.3120    -2.0830    -0.5170 C.ar  1 <1>  -0.1500 
 15 C       -2.0310    -3.1080    -0.2670 C.3   1 <1>  -0.0970 
 16 C       -0.7350     5.5600    -0.0370 C.3   1 <1>   0.0400 
 17 H       -3.0730     3.3020     2.0020 H     1 <1>   0.3700 
 18 H       -3.6710     2.2080    -0.6980 H     1 <1>   0.0800 
 19 H       -1.6760    -0.8080     1.1480 H     1 <1>   0.1500 
 20 H       -5.5740     0.8050     0.6690 H     1 <1>   0.1500 
 21 H       -4.7670     4.7620     0.5030 H     1 <1>   0.0800 
 22 H       -5.0020     4.2210    -1.1400 H     1 <1>   0.0800 
 23 H       -5.6940     3.3090     0.1770 H     1 <1>   0.0800 
 24 H       -6.2260    -1.1490    -0.6670 H     1 <1>   0.1500 
 25 H       -4.6040    -2.9380    -1.1010 H     1 <1>   0.1500 
 26 H       -1.1920    -3.0350     0.4020 H     1 <1>   0.0800 
 27 H       -1.6720    -3.0450    -1.2790 H     1 <1>   0.0800 
 28 H       -2.4980    -4.0660    -0.1220 H     1 <1>   0.0800 
 29 H       -0.5480     6.2480     0.7680 H     1 <1>   0.0800 
 30 H       -0.9290     6.0970    -0.9490 H     1 <1>   0.0800 
 31 H        0.1070     4.9020    -0.1660 H     1 <1>   0.0800 
@<TRIPOS>BOND
  1   1   2  2   
  2   2   3  am  
  3   2   4  1   
  4   3   5  1   
  5   3  17  1   
  6   4   6  ar  
  7   4   7  ar  
  8   5   8  1   
  9   5   9  1   
 10   5  18  1   
 11   6  10  ar  
 12   6  19  1   
 13   7  11  ar  
 14   7  20  1   
 15   8  12  2   
 16   8  13  1   
 17   9  21  1   
 18   9  22  1   
 19   9  23  1   
 20  10  14  ar  
 21  10  15  1   
 22  11  14  ar  
 23  11  24  1   
 24  13  16  1   
 25  14  25  1   
 26  15  26  1   
 27  15  27  1   
 28  15  28  1   
 29  16  29  1   
 30  16  30  1   
 31  16  31  1   
@<TRIPOS>SUBSTRUCTURE
  1 ****   4 GROUP 4 **** **** 0

# MOE 2024.06 (io_trps.svl 2023.06)
