@<TRIPOS>MOLECULE
NONAME
29 29 1 0 0 
SMALL
USER_CHARGES


@<TRIPOS>ATOM
  1 O       -9.7550    -3.8980     0.6430 O.3   1 <1>  -0.3630 
  2 C       -8.5270    -3.3390     0.5090 C.ar  1 <1>   0.0830 
  3 C      -10.0750    -5.1280     0.0330 C.3   1 <1>   0.0400 
  4 C       -8.3110    -2.1430     1.1670 C.ar  1 <1>  -0.1500 
  5 C       -7.4980    -3.8950    -0.2410 C.ar  1 <1>  -0.1500 
  6 C       -7.0880    -1.5050     1.0820 C.ar  1 <1>  -0.1500 
  7 C       -6.2740    -3.2550    -0.3250 C.ar  1 <1>  -0.1500 
  8 C       -6.0470    -2.0500     0.3360 C.ar  1 <1>  -0.1430 
  9 C       -4.7090    -1.3070     0.2390 C.3   1 <1>   0.4240 
 10 O       -4.4170    -0.7760     1.4860 O.3   1 <1>  -0.6800 
 11 C       -4.8480    -0.1170    -0.7460 C.3   1 <1>   0.3430 
 12 C       -3.5090    -2.1970    -0.1050 C.3   1 <1>  -0.2400 
 13 N       -3.8840     0.9840    -0.4220 N.4   1 <1>  -0.8530 
 14 H      -11.0900    -5.3720     0.2870 H     1 <1>   0.0800 
 15 H       -9.4120    -5.8870     0.4090 H     1 <1>   0.0800 
 16 H       -9.9800    -5.0250    -1.0330 H     1 <1>   0.0800 
 17 H       -9.1120    -1.7190     1.7480 H     1 <1>   0.1500 
 18 H       -7.6330    -4.8240    -0.7630 H     1 <1>   0.1500 
 19 H       -6.9670    -0.5750     1.6130 H     1 <1>   0.1500 
 20 H       -5.5110    -3.7260    -0.9200 H     1 <1>   0.1500 
 21 H       -4.5710    -1.4770     2.1570 H     1 <1>   0.4000 
 22 H       -5.8550     0.2560    -0.6600 H     1 <1>   0.0800 
 23 H       -4.7160    -0.4620    -1.7580 H     1 <1>   0.0800 
 24 H       -2.5850    -1.6560    -0.0090 H     1 <1>   0.0800 
 25 H       -3.5800    -2.5560    -1.1160 H     1 <1>   0.0800 
 26 H       -3.4800    -3.0500     0.5510 H     1 <1>   0.0800 
 27 H       -3.8440     1.0150     0.6120 H     1 <1>   0.4500 
 28 H       -4.1860     1.8960    -0.7770 H     1 <1>   0.4500 
 29 H       -2.9370     0.7720    -0.7490 H     1 <1>   0.4500 
@<TRIPOS>BOND
  1   1   2  1   
  2   1   3  1   
  3   2   4  ar  
  4   2   5  ar  
  5   3  14  1   
  6   3  15  1   
  7   3  16  1   
  8   4   6  ar  
  9   4  17  1   
 10   5   7  ar  
 11   5  18  1   
 12   6   8  ar  
 13   6  19  1   
 14   7   8  ar  
 15   7  20  1   
 16   8   9  1   
 17   9  10  1   
 18   9  11  1   
 19   9  12  1   
 20  10  21  1   
 21  11  13  1   
 22  11  22  1   
 23  11  23  1   
 24  12  24  1   
 25  12  25  1   
 26  12  26  1   
 27  13  27  1   
 28  13  28  1   
 29  13  29  1   
@<TRIPOS>SUBSTRUCTURE
  1 ****   8 GROUP 4 **** **** 0

# MOE 2024.06 (io_trps.svl 2023.06)
