@<TRIPOS>MOLECULE
NONAME
47 49 1 0 0 
SMALL
USER_CHARGES


@<TRIPOS>ATOM
  1 O       -0.2640    -0.1410     1.0940 O.2   1 <1>  -0.5700 
  2 C       -0.8330    -0.8950     0.3280 C.2   1 <1>   0.6900 
  3 N       -2.1240    -0.6340    -0.0590 N.am  1 <1>  -0.6600 
  4 N       -0.2170    -2.0220    -0.1350 N.am  1 <1>  -0.5470 
  5 C       -2.8790    -1.3380    -1.1440 C.3   1 <1>   0.1400 
  6 C       -2.9180     0.4710     0.5690 C.3   1 <1>   0.1400 
  7 C        1.0990    -2.4920     0.0000 C.ar  1 <1>   0.1170 
  8 C       -4.2340    -1.8570    -0.6290 C.3   1 <1>   0.2090 
  9 C       -4.2750    -0.0430     1.0790 C.3   1 <1>   0.2090 
 10 C        1.3560    -3.8640    -0.0650 C.ar  1 <1>  -0.1440 
 11 C        2.1700    -1.6190     0.1730 C.ar  1 <1>  -0.1500 
 12 N       -5.0240    -0.7610     0.0020 N.pl3 1 <1>  -0.8380 
 13 C        2.6570    -4.3290     0.0450 C.ar  1 <1>  -0.1500 
 14 C        0.2290    -4.8730    -0.2480 C.3   1 <1>  -0.0970 
 15 C        3.4640    -2.0900     0.2840 C.ar  1 <1>  -0.1500 
 16 C       -6.3600    -1.0470     0.2540 C.ar  1 <1>   0.1000 
 17 C        3.7100    -3.4480     0.2190 C.ar  1 <1>  -0.1500 
 18 C       -7.3420    -0.5160    -0.5680 C.ar  1 <1>  -0.1500 
 19 C       -6.7430    -1.8640     1.3120 C.ar  1 <1>  -0.1500 
 20 C       -8.6810    -0.7860    -0.3500 C.ar  1 <1>   0.0820 
 21 C       -8.0790    -2.1410     1.5420 C.ar  1 <1>  -0.1500 
 22 O       -9.5670    -0.2200    -1.2100 O.3   1 <1>  -0.3620 
 23 C       -9.0510    -1.6050     0.7140 C.ar  1 <1>  -0.1500 
 24 C      -10.9550    -0.4270    -1.0700 C.3   1 <1>   0.0400 
 25 H       -0.8590    -2.6840    -0.5450 H     1 <1>   0.3700 
 26 H       -2.3140    -2.1560    -1.5480 H     1 <1>   0.0800 
 27 H       -3.0630    -0.6420    -1.9440 H     1 <1>   0.0800 
 28 H       -3.0870     1.2420    -0.1610 H     1 <1>   0.0800 
 29 H       -2.3810     0.9090     1.3920 H     1 <1>   0.0800 
 30 H       -4.0690    -2.6400     0.0910 H     1 <1>   0.0800 
 31 H       -4.7960    -2.2680    -1.4500 H     1 <1>   0.0800 
 32 H       -4.8650     0.7890     1.4250 H     1 <1>   0.0800 
 33 H       -4.1110    -0.7050     1.9100 H     1 <1>   0.0800 
 34 H        1.9920    -0.5600     0.2200 H     1 <1>   0.1500 
 35 H        2.8650    -5.3840    -0.0030 H     1 <1>   0.1500 
 36 H       -0.5090    -4.7440     0.5230 H     1 <1>   0.0800 
 37 H        0.6010    -5.8800    -0.1880 H     1 <1>   0.0800 
 38 H       -0.2320    -4.7410    -1.2100 H     1 <1>   0.0800 
 39 H        4.2780    -1.3990     0.4200 H     1 <1>   0.1500 
 40 H        4.7160    -3.8190     0.3050 H     1 <1>   0.1500 
 41 H       -7.0530     0.1160    -1.3850 H     1 <1>   0.1500 
 42 H       -5.9900    -2.2820     1.9530 H     1 <1>   0.1500 
 43 H       -8.3620    -2.7740     2.3640 H     1 <1>   0.1500 
 44 H      -10.0800    -1.8350     0.9110 H     1 <1>   0.1500 
 45 H      -11.4540     0.1150    -1.8530 H     1 <1>   0.0800 
 46 H      -11.2680    -0.0540    -0.1100 H     1 <1>   0.0800 
 47 H      -11.1620    -1.4780    -1.1630 H     1 <1>   0.0800 
@<TRIPOS>BOND
  1   1   2  2   
  2   2   3  am  
  3   2   4  am  
  4   3   5  1   
  5   3   6  1   
  6   4   7  1   
  7   4  25  1   
  8   5   8  1   
  9   5  26  1   
 10   5  27  1   
 11   6   9  1   
 12   6  28  1   
 13   6  29  1   
 14   7  10  ar  
 15   7  11  ar  
 16   8  12  1   
 17   8  30  1   
 18   8  31  1   
 19   9  12  1   
 20   9  32  1   
 21   9  33  1   
 22  10  13  ar  
 23  10  14  1   
 24  11  15  ar  
 25  11  34  1   
 26  12  16  1   
 27  13  17  ar  
 28  13  35  1   
 29  14  36  1   
 30  14  37  1   
 31  14  38  1   
 32  15  17  ar  
 33  15  39  1   
 34  16  18  ar  
 35  16  19  ar  
 36  17  40  1   
 37  18  20  ar  
 38  18  41  1   
 39  19  21  ar  
 40  19  42  1   
 41  20  22  1   
 42  20  23  ar  
 43  21  23  ar  
 44  21  43  1   
 45  22  24  1   
 46  23  44  1   
 47  24  45  1   
 48  24  46  1   
 49  24  47  1   
@<TRIPOS>SUBSTRUCTURE
  1 ****   5 GROUP 4 **** **** 0

# MOE 2024.06 (io_trps.svl 2023.06)
