@<TRIPOS>MOLECULE
NONAME
50 52 1 0 0 
SMALL
USER_CHARGES


@<TRIPOS>ATOM
  1 S       -0.4290    -0.3810     0.4630 S.3   1 <1>  -0.0800 
  2 C        0.6010     0.9860     0.0190 C.2   1 <1>   0.1040 
  3 C       -1.8600     0.6290     0.4380 C.2   1 <1>  -0.1400 
  4 N        1.9840     0.8110    -0.1080 N.am  1 <1>  -0.4940 
  5 C       -0.1530     2.1130    -0.1190 C.2   1 <1>   0.0190 
  6 C       -1.5520     1.8880     0.1130 C.2   1 <1>  -0.1810 
  7 C       -3.2370     0.0830     0.7470 C.3   1 <1>   0.3000 
  8 C        2.7480    -0.3220    -0.2680 C.2   1 <1>   0.6160 
  9 C        0.3690     3.3990    -0.4570 C.1   1 <1>   0.5380 
 10 C       -2.6720     2.9130     0.0350 C.3   1 <1>   0.0210 
 11 O       -4.1420     1.1570     0.8690 O.3   1 <1>  -0.5600 
 12 O        2.2320    -1.3870    -0.5340 O.2   1 <1>  -0.5700 
 13 C        4.1750    -0.2160    -0.1470 C.2   1 <1>  -0.1360 
 14 N        0.8190     4.4140    -0.7200 N.1   1 <1>  -0.5570 
 15 C       -4.0600     2.2180    -0.0500 C.3   1 <1>   0.2800 
 16 C        5.0830    -1.2060    -0.3190 C.2   1 <1>  -0.1780 
 17 C       -5.1660     3.1930     0.3530 C.3   1 <1>  -0.2400 
 18 C       -4.3560     1.6820    -1.4610 C.3   1 <1>  -0.2400 
 19 C        6.5180    -1.1460    -0.2090 C.ar  1 <1>   0.0280 
 20 C        7.2150     0.0390     0.0200 C.ar  1 <1>  -0.1500 
 21 C        7.2730    -2.3090    -0.3330 C.ar  1 <1>  -0.1500 
 22 C        8.5940     0.0810     0.1220 C.ar  1 <1>   0.0830 
 23 C        8.6510    -2.2960    -0.2260 C.ar  1 <1>  -0.1500 
 24 O        9.1120     1.3250     0.3330 O.3   1 <1>  -0.3630 
 25 C        9.3370    -1.1070     0.0120 C.ar  1 <1>   0.0830 
 26 C       10.3760     1.6860    -0.1780 C.3   1 <1>   0.0400 
 27 O       10.6910    -1.0850     0.1540 O.3   1 <1>  -0.3630 
 28 C       11.4700    -2.2600     0.1860 C.3   1 <1>   0.0400 
 29 H        2.5290     1.6710    -0.1240 H     1 <1>   0.3700 
 30 H       -3.2330    -0.4510     1.6810 H     1 <1>   0.0800 
 31 H       -3.5770    -0.5720    -0.0360 H     1 <1>   0.0800 
 32 H       -2.5410     3.5480    -0.8230 H     1 <1>   0.0800 
 33 H       -2.6310     3.5330     0.9120 H     1 <1>   0.0800 
 34 H        4.5100     0.7680     0.1120 H     1 <1>   0.1500 
 35 H        4.7080    -2.1840    -0.5720 H     1 <1>   0.1500 
 36 H       -5.0120     3.5350     1.3610 H     1 <1>   0.0800 
 37 H       -6.1260     2.7110     0.2950 H     1 <1>   0.0800 
 38 H       -5.1730     4.0460    -0.3000 H     1 <1>   0.0800 
 39 H       -4.4480     2.5000    -2.1520 H     1 <1>   0.0800 
 40 H       -5.2810     1.1340    -1.4630 H     1 <1>   0.0800 
 41 H       -3.5640     1.0470    -1.8140 H     1 <1>   0.0800 
 42 H        6.6860     0.9660     0.1180 H     1 <1>   0.1500 
 43 H        6.7720    -3.2430    -0.5150 H     1 <1>   0.1500 
 44 H        9.1710    -3.2280    -0.3280 H     1 <1>   0.1500 
 45 H       10.4270     2.7590    -0.2200 H     1 <1>   0.0800 
 46 H       10.4900     1.2720    -1.1640 H     1 <1>   0.0800 
 47 H       11.1380     1.3140     0.4840 H     1 <1>   0.0800 
 48 H       12.4920    -1.9780     0.3620 H     1 <1>   0.0800 
 49 H       11.3890    -2.7600    -0.7630 H     1 <1>   0.0800 
 50 H       11.1220    -2.8880     0.9870 H     1 <1>   0.0800 
@<TRIPOS>BOND
  1   1   2  1   
  2   1   3  1   
  3   2   4  1   
  4   2   5  2   
  5   3   6  2   
  6   3   7  1   
  7   4   8  am  
  8   4  29  1   
  9   5   6  1   
 10   5   9  1   
 11   6  10  1   
 12   7  11  1   
 13   7  30  1   
 14   7  31  1   
 15   8  12  2   
 16   8  13  1   
 17   9  14  3   
 18  10  15  1   
 19  10  32  1   
 20  10  33  1   
 21  11  15  1   
 22  13  16  2   
 23  13  34  1   
 24  15  17  1   
 25  15  18  1   
 26  16  19  1   
 27  16  35  1   
 28  17  36  1   
 29  17  37  1   
 30  17  38  1   
 31  18  39  1   
 32  18  40  1   
 33  18  41  1   
 34  19  20  ar  
 35  19  21  ar  
 36  20  22  ar  
 37  20  42  1   
 38  21  23  ar  
 39  21  43  1   
 40  22  24  1   
 41  22  25  ar  
 42  23  25  ar  
 43  23  44  1   
 44  24  26  1   
 45  25  27  1   
 46  26  45  1   
 47  26  46  1   
 48  26  47  1   
 49  27  28  1   
 50  28  48  1   
 51  28  49  1   
 52  28  50  1   
@<TRIPOS>SUBSTRUCTURE
  1 ****   8 GROUP 4 **** **** 0

# MOE 2024.06 (io_trps.svl 2023.06)
