@<TRIPOS>MOLECULE
NONAME
51 53 1 0 0 
SMALL
USER_CHARGES


@<TRIPOS>ATOM
  1 O       -0.2370     3.4680     1.8060 O.2   1 <1>  -0.5700 
  2 C       -0.5140     3.0150     0.7200 C.2   1 <1>   0.5690 
  3 N        0.0790     1.8760     0.2340 N.am  1 <1>  -0.5470 
  4 C       -1.6030     3.6680    -0.1720 C.3   1 <1>   0.2050 
  5 C        1.1460     1.1110     0.7240 C.ar  1 <1>   0.1170 
  6 C       -2.6140     2.5620    -0.5560 C.ar  1 <1>  -0.1440 
  7 C       -2.3830     4.8050     0.5450 C.3   1 <1>  -0.1600 
  8 C       -0.9210     4.3040    -1.4080 C.3   1 <1>  -0.1600 
  9 C        2.1340     1.6350     1.5500 C.ar  1 <1>  -0.1500 
 10 C        1.2380    -0.2250     0.3530 C.ar  1 <1>  -0.1500 
 11 C       -3.2560     1.8770     0.4720 C.ar  1 <1>  -0.1500 
 12 C       -2.9180     2.2060    -1.8690 C.ar  1 <1>  -0.1500 
 13 C       -1.7610     6.2000     0.3600 C.3   1 <1>   0.1200 
 14 C        0.0210     5.4540    -1.0160 C.3   1 <1>   0.1200 
 15 C        3.1810     0.8470     1.9930 C.ar  1 <1>  -0.1500 
 16 C        2.2850    -1.0150     0.7930 C.ar  1 <1>  -0.1500 
 17 C       -4.1700     0.8720     0.2110 C.ar  1 <1>   0.0830 
 18 C       -3.8190     1.1900    -2.1400 C.ar  1 <1>  -0.1500 
 19 O       -0.3900     6.0860     0.1590 O.3   1 <1>  -0.5600 
 20 C        3.2650    -0.4830     1.6150 C.ar  1 <1>  -0.1430 
 21 O       -4.7750     0.2860     1.2720 O.3   1 <1>  -0.3630 
 22 C       -4.4380     0.5050    -1.1110 C.ar  1 <1>   0.0830 
 23 C        4.4130    -1.3480     2.1030 C.3   1 <1>  -0.0970 
 24 C       -6.1570     0.5340     1.4140 C.3   1 <1>   0.0400 
 25 O       -5.2810    -0.5020    -1.4490 O.3   1 <1>  -0.3630 
 26 C       -4.9290    -1.7990    -1.0190 C.3   1 <1>   0.0400 
 27 H       -0.4160     1.4610    -0.5540 H     1 <1>   0.3700 
 28 H       -2.4660     4.5930     1.5960 H     1 <1>   0.0800 
 29 H       -3.3870     4.8510     0.1640 H     1 <1>   0.0800 
 30 H       -1.6720     4.7080    -2.0630 H     1 <1>   0.0800 
 31 H       -0.3640     3.5710    -1.9630 H     1 <1>   0.0800 
 32 H        2.0870     2.6660     1.8510 H     1 <1>   0.1500 
 33 H        0.4850    -0.6540    -0.2810 H     1 <1>   0.1500 
 34 H       -3.0540     2.1190     1.5010 H     1 <1>   0.1500 
 35 H       -2.4690     2.7000    -2.7110 H     1 <1>   0.1500 
 36 H       -1.9190     6.8030     1.2370 H     1 <1>   0.0800 
 37 H       -2.1830     6.7060    -0.4920 H     1 <1>   0.0800 
 38 H        0.0710     6.1920    -1.7970 H     1 <1>   0.0800 
 39 H        1.0130     5.0780    -0.8320 H     1 <1>   0.0800 
 40 H        3.9290     1.2770     2.6350 H     1 <1>   0.1500 
 41 H        2.3330    -2.0480     0.4950 H     1 <1>   0.1500 
 42 H       -4.0450     0.9200    -3.1550 H     1 <1>   0.1500 
 43 H        5.2930    -0.7510     2.2580 H     1 <1>   0.0800 
 44 H        4.6440    -2.1100     1.3800 H     1 <1>   0.0800 
 45 H        4.1440    -1.8190     3.0310 H     1 <1>   0.0800 
 46 H       -6.4890     0.0730     2.3270 H     1 <1>   0.0800 
 47 H       -6.6820     0.1110     0.5770 H     1 <1>   0.0800 
 48 H       -6.3160     1.5960     1.4580 H     1 <1>   0.0800 
 49 H       -5.5970    -2.5000    -1.4850 H     1 <1>   0.0800 
 50 H       -5.0240    -1.8600     0.0500 H     1 <1>   0.0800 
 51 H       -3.9150    -2.0010    -1.3160 H     1 <1>   0.0800 
@<TRIPOS>BOND
  1   1   2  2   
  2   2   3  am  
  3   2   4  1   
  4   3   5  1   
  5   3  27  1   
  6   4   6  1   
  7   4   7  1   
  8   4   8  1   
  9   5   9  ar  
 10   5  10  ar  
 11   6  11  ar  
 12   6  12  ar  
 13   7  13  1   
 14   7  28  1   
 15   7  29  1   
 16   8  14  1   
 17   8  30  1   
 18   8  31  1   
 19   9  15  ar  
 20   9  32  1   
 21  10  16  ar  
 22  10  33  1   
 23  11  17  ar  
 24  11  34  1   
 25  12  18  ar  
 26  12  35  1   
 27  13  19  1   
 28  13  36  1   
 29  13  37  1   
 30  14  19  1   
 31  14  38  1   
 32  14  39  1   
 33  15  20  ar  
 34  15  40  1   
 35  16  20  ar  
 36  16  41  1   
 37  17  21  1   
 38  17  22  ar  
 39  18  22  ar  
 40  18  42  1   
 41  20  23  1   
 42  21  24  1   
 43  22  25  1   
 44  23  43  1   
 45  23  44  1   
 46  23  45  1   
 47  24  46  1   
 48  24  47  1   
 49  24  48  1   
 50  25  26  1   
 51  26  49  1   
 52  26  50  1   
 53  26  51  1   
@<TRIPOS>SUBSTRUCTURE
  1 ****   3 GROUP 4 **** **** 0

# MOE 2024.06 (io_trps.svl 2023.06)
