@<TRIPOS>MOLECULE
NONAME
44 45 1 0 0 
SMALL
USER_CHARGES


@<TRIPOS>ATOM
  1 CL       0.0840    -0.3270     0.2990 Cl    1 <1>  -0.1770 
  2 C       -1.5320    -0.9860     0.1750 C.ar  1 <1>   0.1770 
  3 C       -1.7340    -2.2480    -0.3680 C.ar  1 <1>  -0.1440 
  4 C       -2.5880    -0.2180     0.6290 C.ar  1 <1>  -0.1500 
  5 C       -3.0310    -2.7300    -0.4470 C.ar  1 <1>  -0.1500 
  6 C       -0.5680    -3.0880    -0.8660 C.3   1 <1>  -0.0960 
  7 C       -3.8790    -0.7090     0.5450 C.ar  1 <1>  -0.1500 
  8 C       -4.1040    -1.9740     0.0040 C.ar  1 <1>   0.0830 
  9 O       -5.3330    -2.5340    -0.1160 O.3   1 <1>  -0.3630 
 10 C       -6.4910    -1.8630     0.3100 C.3   1 <1>   0.1200 
 11 C       -7.6750    -2.7880     0.0280 C.3   1 <1>  -0.1600 
 12 C       -8.9860    -2.1410     0.4710 C.3   1 <1>   0.3430 
 13 N      -10.1450    -2.9950     0.0890 N.4   1 <1>  -0.9590 
 14 C      -11.3980    -2.1850     0.0970 C.3   1 <1>   0.3430 
 15 C      -10.2300    -4.2180     0.9430 C.3   1 <1>   0.3430 
 16 C      -12.3770    -2.7350    -0.9390 C.3   1 <1>  -0.1600 
 17 C      -11.2600    -5.2230     0.4220 C.3   1 <1>  -0.1600 
 18 C      -13.2830    -3.8770    -0.4470 C.3   1 <1>  -0.1600 
 19 C      -12.7110    -4.7810     0.6540 C.3   1 <1>  -0.1600 
 20 H       -2.3940     0.7550     1.0430 H     1 <1>   0.1500 
 21 H       -3.2250    -3.7030    -0.8610 H     1 <1>   0.1500 
 22 H       -0.0480    -2.5660    -1.6500 H     1 <1>   0.0800 
 23 H       -0.9080    -4.0320    -1.2520 H     1 <1>   0.0800 
 24 H        0.1200    -3.2760    -0.0610 H     1 <1>   0.0800 
 25 H       -4.6830    -0.0960     0.9040 H     1 <1>   0.1500 
 26 H       -6.5700    -0.9440    -0.2450 H     1 <1>   0.0800 
 27 H       -6.3940    -1.6610     1.3630 H     1 <1>   0.0800 
 28 H       -7.5110    -3.7080     0.5590 H     1 <1>   0.0800 
 29 H       -7.7070    -2.9830    -1.0300 H     1 <1>   0.0800 
 30 H       -9.0740    -1.1810    -0.0120 H     1 <1>   0.0800 
 31 H       -8.9790    -1.9800     1.5380 H     1 <1>   0.0800 
 32 H      -10.0000    -3.3100    -0.8790 H     1 <1>   0.4500 
 33 H      -11.1630    -1.1690    -0.1760 H     1 <1>   0.0800 
 34 H      -11.8460    -2.1740     1.0770 H     1 <1>   0.0800 
 35 H      -10.4770    -3.9440     1.9560 H     1 <1>   0.0800 
 36 H       -9.2700    -4.7080     0.9610 H     1 <1>   0.0800 
 37 H      -11.8400    -3.0480    -1.8180 H     1 <1>   0.0800 
 38 H      -13.0200    -1.9290    -1.2490 H     1 <1>   0.0800 
 39 H      -11.1110    -6.1340     0.9750 H     1 <1>   0.0800 
 40 H      -11.0840    -5.4570    -0.6140 H     1 <1>   0.0800 
 41 H      -13.5480    -4.4860    -1.2960 H     1 <1>   0.0800 
 42 H      -14.2030    -3.4550    -0.0770 H     1 <1>   0.0800 
 43 H      -12.7960    -4.2930     1.6110 H     1 <1>   0.0800 
 44 H      -13.3330    -5.6600     0.7040 H     1 <1>   0.0800 
@<TRIPOS>BOND
  1   1   2  1   
  2   2   3  ar  
  3   2   4  ar  
  4   3   5  ar  
  5   3   6  1   
  6   4   7  ar  
  7   4  20  1   
  8   5   8  ar  
  9   5  21  1   
 10   6  22  1   
 11   6  23  1   
 12   6  24  1   
 13   7   8  ar  
 14   7  25  1   
 15   8   9  1   
 16   9  10  1   
 17  10  11  1   
 18  10  26  1   
 19  10  27  1   
 20  11  12  1   
 21  11  28  1   
 22  11  29  1   
 23  12  13  1   
 24  12  30  1   
 25  12  31  1   
 26  13  14  1   
 27  13  15  1   
 28  13  32  1   
 29  14  16  1   
 30  14  33  1   
 31  14  34  1   
 32  15  17  1   
 33  15  35  1   
 34  15  36  1   
 35  16  18  1   
 36  16  37  1   
 37  16  38  1   
 38  17  19  1   
 39  17  39  1   
 40  17  40  1   
 41  18  19  1   
 42  18  41  1   
 43  18  42  1   
 44  19  43  1   
 45  19  44  1   
@<TRIPOS>SUBSTRUCTURE
  1 ****  10 GROUP 4 **** **** 0

# MOE 2024.06 (io_trps.svl 2023.06)
