@<TRIPOS>MOLECULE
NONAME
39 40 1 0 0 
SMALL
USER_CHARGES


@<TRIPOS>ATOM
  1 CL       0.6960    -0.7460     0.9920 Cl    1 <1>  -0.1770 
  2 C       -0.4880     0.4520     0.5010 C.ar  1 <1>   0.1770 
  3 C       -0.1630     1.7200    -0.0140 C.ar  1 <1>   0.0820 
  4 C       -1.8090     0.0630     0.6510 C.ar  1 <1>  -0.1500 
  5 O        1.0770     2.2460    -0.2190 O.3   1 <1>  -0.3630 
  6 C       -1.2030     2.5680    -0.3690 C.ar  1 <1>  -0.1500 
  7 C       -2.8340     0.9230     0.2930 C.ar  1 <1>  -0.1500 
  8 C        2.2780     1.5970     0.1120 C.3   1 <1>   0.1200 
  9 C       -2.5150     2.1680    -0.2140 C.ar  1 <1>   0.1770 
 10 C        3.4300     2.5430    -0.2320 C.3   1 <1>  -0.1600 
 11 CL      -3.8010     3.2560    -0.6670 Cl    1 <1>  -0.1770 
 12 C        4.7900     1.9100     0.0970 C.3   1 <1>  -0.1600 
 13 C        5.9300     2.8690    -0.2550 C.3   1 <1>   0.3430 
 14 N        7.2410     2.2980     0.1620 N.4   1 <1>  -0.9590 
 15 C        8.3140     3.3530     0.1280 C.3   1 <1>   0.3430 
 16 C        7.6530     1.1180    -0.6820 C.3   1 <1>   0.3430 
 17 C        9.7000     2.7640     0.4540 C.3   1 <1>   0.1200 
 18 C        9.0680     0.6290    -0.3210 C.3   1 <1>   0.1200 
 19 O        9.9790     1.6870    -0.3930 O.3   1 <1>  -0.5600 
 20 H       -2.0340    -0.9120     1.0480 H     1 <1>   0.1500 
 21 H       -0.9860     3.5430    -0.7660 H     1 <1>   0.1500 
 22 H       -3.8650     0.6360     0.4040 H     1 <1>   0.1500 
 23 H        2.3440     0.6920    -0.4670 H     1 <1>   0.0800 
 24 H        2.2660     1.3790     1.1660 H     1 <1>   0.0800 
 25 H        3.3050     3.4530     0.3300 H     1 <1>   0.0800 
 26 H        3.3800     2.7760    -1.2820 H     1 <1>   0.0800 
 27 H        4.8860     0.9970    -0.4640 H     1 <1>   0.0800 
 28 H        4.8210     1.6810     1.1480 H     1 <1>   0.0800 
 29 H        5.7650     3.8030     0.2590 H     1 <1>   0.0800 
 30 H        5.9310     3.0660    -1.3150 H     1 <1>   0.0800 
 31 H        7.1580     1.9750     1.1340 H     1 <1>   0.4500 
 32 H        8.0860     4.1350     0.8340 H     1 <1>   0.0800 
 33 H        8.3600     3.7960    -0.8540 H     1 <1>   0.0800 
 34 H        7.6460     1.3950    -1.7230 H     1 <1>   0.0800 
 35 H        6.9560     0.3070    -0.5510 H     1 <1>   0.0800 
 36 H        9.7530     2.4270     1.4750 H     1 <1>   0.0800 
 37 H       10.4650     3.5060     0.2990 H     1 <1>   0.0800 
 38 H        9.3890    -0.1250    -1.0190 H     1 <1>   0.0800 
 39 H        9.0970     0.2110     0.6710 H     1 <1>   0.0800 
@<TRIPOS>BOND
  1   1   2  1   
  2   2   3  ar  
  3   2   4  ar  
  4   3   5  1   
  5   3   6  ar  
  6   4   7  ar  
  7   4  20  1   
  8   5   8  1   
  9   6   9  ar  
 10   6  21  1   
 11   7   9  ar  
 12   7  22  1   
 13   8  10  1   
 14   8  23  1   
 15   8  24  1   
 16   9  11  1   
 17  10  12  1   
 18  10  25  1   
 19  10  26  1   
 20  12  13  1   
 21  12  27  1   
 22  12  28  1   
 23  13  14  1   
 24  13  29  1   
 25  13  30  1   
 26  14  15  1   
 27  14  16  1   
 28  14  31  1   
 29  15  17  1   
 30  15  32  1   
 31  15  33  1   
 32  16  18  1   
 33  16  34  1   
 34  16  35  1   
 35  17  19  1   
 36  17  36  1   
 37  17  37  1   
 38  18  19  1   
 39  18  38  1   
 40  18  39  1   
@<TRIPOS>SUBSTRUCTURE
  1 ****   8 GROUP 4 **** **** 0

# MOE 2024.06 (io_trps.svl 2023.06)
