@<TRIPOS>MOLECULE
NONAME
35 37 1 0 0 
SMALL
USER_CHARGES


@<TRIPOS>ATOM
  1 O        0.8790     1.9480     1.4520 O.2   1 <1>  -0.5700 
  2 C        0.5570     2.0160     0.2910 C.2   1 <1>   0.6300 
  3 N        1.3700     1.6020    -0.7120 N.am  1 <1>  -0.7300 
  4 C       -0.8030     2.5870    -0.0760 C.3   1 <1>  -0.1000 
  5 C        2.7130     0.9940    -0.5290 C.3   1 <1>   0.1400 
  6 C       -0.9760     3.5610    -1.2080 C.3   1 <1>  -0.2000 
  7 C       -1.1260     4.0250     0.2070 C.3   1 <1>  -0.2000 
  8 C        3.6990     2.0150     0.0370 C.3   1 <1>   0.1200 
  9 O        4.9990     1.4800    -0.0710 O.3   1 <1>  -0.3630 
 10 C        6.1110     2.1840     0.2800 C.ar  1 <1>   0.0820 
 11 C        7.3740     1.6550    -0.1020 C.ar  1 <1>   0.3100 
 12 C        6.0290     3.3690     0.9820 C.ar  1 <1>  -0.1500 
 13 N        7.4550     0.4840    -0.8000 N.ar  1 <1>  -0.6200 
 14 C        8.5370     2.3790     0.2590 C.ar  1 <1>   0.0000 
 15 C        7.1840     4.0710     1.3270 C.ar  1 <1>  -0.1500 
 16 C        8.6310     0.0440    -1.1240 C.ar  1 <1>   0.1600 
 17 C        9.7910     1.8640    -0.1130 C.ar  1 <1>  -0.1500 
 18 C        8.4110     3.5860     0.9720 C.ar  1 <1>  -0.1500 
 19 C        9.8300     0.6930    -0.8060 C.ar  1 <1>  -0.1500 
 20 H        1.0390     1.6830    -1.6740 H     1 <1>   0.3700 
 21 H       -1.5860     1.8720     0.1010 H     1 <1>   0.1000 
 22 H        3.0710     0.6410    -1.4810 H     1 <1>   0.0800 
 23 H        2.6370     0.1610     0.1490 H     1 <1>   0.0800 
 24 H       -1.8570     3.4910    -1.8220 H     1 <1>   0.1000 
 25 H       -0.1150     3.9010    -1.7570 H     1 <1>   0.1000 
 26 H       -0.3580     4.6400     0.6440 H     1 <1>   0.1000 
 27 H       -2.1060     4.2650     0.5810 H     1 <1>   0.1000 
 28 H        3.4880     2.2000     1.0750 H     1 <1>   0.0800 
 29 H        3.6660     2.9280    -0.5310 H     1 <1>   0.0800 
 30 H        5.0870     3.7850     1.2870 H     1 <1>   0.1500 
 31 H        7.0930     4.9940     1.8750 H     1 <1>   0.1500 
 32 H        8.6900    -0.8810    -1.6730 H     1 <1>   0.1500 
 33 H       10.6870     2.3960     0.1510 H     1 <1>   0.1500 
 34 H        9.3040     4.1240     1.2370 H     1 <1>   0.1500 
 35 H       10.7600     0.2530    -1.1160 H     1 <1>   0.1500 
@<TRIPOS>BOND
  1   1   2  2   
  2   2   3  am  
  3   2   4  1   
  4   3   5  1   
  5   3  20  1   
  6   4   6  1   
  7   4   7  1   
  8   4  21  1   
  9   5   8  1   
 10   5  22  1   
 11   5  23  1   
 12   6   7  1   
 13   6  24  1   
 14   6  25  1   
 15   7  26  1   
 16   7  27  1   
 17   8   9  1   
 18   8  28  1   
 19   8  29  1   
 20   9  10  1   
 21  10  11  ar  
 22  10  12  ar  
 23  11  13  ar  
 24  11  14  ar  
 25  12  15  ar  
 26  12  30  1   
 27  13  16  ar  
 28  14  17  ar  
 29  14  18  ar  
 30  15  18  ar  
 31  15  31  1   
 32  16  19  ar  
 33  16  32  1   
 34  17  19  ar  
 35  17  33  1   
 36  18  34  1   
 37  19  35  1   
@<TRIPOS>SUBSTRUCTURE
  1 ****   9 GROUP 4 **** **** 0

# MOE 2024.06 (io_trps.svl 2023.06)
