@<TRIPOS>MOLECULE
NONAME
54 56 1 0 0 
SMALL
USER_CHARGES


@<TRIPOS>ATOM
  1 O        0.3780     0.7490    -1.0570 O.2   1 <1>  -0.5700 
  2 C        0.2730     1.9550    -0.9340 C.2   1 <1>   0.5440 
  3 N        1.3960     2.7460    -1.0850 N.am  1 <1>  -0.6600 
  4 C       -1.0290     2.5130    -0.6210 C.ar  1 <1>   0.0860 
  5 C        1.4880     4.1530    -0.6010 C.3   1 <1>   0.1400 
  6 C        2.6680     2.1930    -1.6290 C.3   1 <1>   0.1400 
  7 C       -1.5830     3.5420    -1.3790 C.ar  1 <1>  -0.1500 
  8 C       -1.7700     2.0250     0.4520 C.ar  1 <1>  -0.1500 
  9 C        2.5900     4.2660     0.4550 C.3   1 <1>  -0.1600 
 10 C        3.7700     2.2900    -0.5710 C.3   1 <1>  -0.1600 
 11 C       -2.8160     4.0880    -1.0710 C.ar  1 <1>   0.0820 
 12 C       -3.0140     2.5580     0.7710 C.ar  1 <1>   0.0820 
 13 C        3.9410     3.7340    -0.0650 C.3   1 <1>  -0.0190 
 14 O       -3.2510     5.0960    -1.8670 O.3   1 <1>  -0.3630 
 15 C       -3.5330     3.5920     0.0110 C.ar  1 <1>  -0.1500 
 16 O       -3.7760     2.1220     1.8050 O.3   1 <1>  -0.3630 
 17 C        5.0540     3.8180     0.9790 C.2   1 <1>   0.5690 
 18 C       -4.5200     5.6810    -1.6720 C.3   1 <1>   0.0400 
 19 C       -3.3730     1.0280     2.6000 C.3   1 <1>   0.0400 
 20 O        4.7940     3.7960     2.1580 O.2   1 <1>  -0.5700 
 21 N        6.3330     3.9090     0.5450 N.am  1 <1>  -0.7300 
 22 C        7.5100     3.9040     1.4250 C.3   1 <1>   0.2840 
 23 C        8.6960     3.4330     0.6040 C.ar  1 <1>  -0.1440 
 24 C        9.5410     4.3500    -0.0020 C.ar  1 <1>  -0.1500 
 25 C        8.9370     2.0760     0.4460 C.ar  1 <1>  -0.1500 
 26 C       10.6170     3.9160    -0.7560 C.ar  1 <1>  -0.1500 
 27 C       10.0140     1.6410    -0.3080 C.ar  1 <1>  -0.1500 
 28 C       10.8540     2.5610    -0.9090 C.ar  1 <1>  -0.1500 
 29 H        0.5590     4.4740    -0.1640 H     1 <1>   0.0800 
 30 H        1.7070     4.7970    -1.4350 H     1 <1>   0.0800 
 31 H        2.9460     2.7560    -2.5030 H     1 <1>   0.0800 
 32 H        2.5440     1.1650    -1.9260 H     1 <1>   0.0800 
 33 H       -1.0430     3.9240    -2.2260 H     1 <1>   0.1500 
 34 H       -1.3440     1.2210     1.0220 H     1 <1>   0.1500 
 35 H        2.2900     3.7080     1.3260 H     1 <1>   0.0800 
 36 H        2.6970     5.2940     0.7510 H     1 <1>   0.0800 
 37 H        4.6940     1.9370    -0.9920 H     1 <1>   0.0800 
 38 H        3.5180     1.6430     0.2520 H     1 <1>   0.0800 
 39 H        4.2350     4.3490    -0.8960 H     1 <1>   0.0800 
 40 H       -4.4920     3.9850     0.2850 H     1 <1>   0.1500 
 41 H       -4.6590     6.4360    -2.4250 H     1 <1>   0.0800 
 42 H       -4.5520     6.1300    -0.6950 H     1 <1>   0.0800 
 43 H       -5.2750     4.9210    -1.7720 H     1 <1>   0.0800 
 44 H       -4.1420     0.8430     3.3290 H     1 <1>   0.0800 
 45 H       -2.4510     1.2750     3.0950 H     1 <1>   0.0800 
 46 H       -3.2530     0.1640     1.9690 H     1 <1>   0.0800 
 47 H        6.5600     3.8710    -0.4490 H     1 <1>   0.3700 
 48 H        7.3420     3.2440     2.2600 H     1 <1>   0.0800 
 49 H        7.6800     4.8970     1.8030 H     1 <1>   0.0800 
 50 H        9.3650     5.4060     0.1100 H     1 <1>   0.1500 
 51 H        8.2860     1.3550     0.9090 H     1 <1>   0.1500 
 52 H       11.2710     4.6320    -1.2230 H     1 <1>   0.1500 
 53 H       10.1970     0.5880    -0.4260 H     1 <1>   0.1500 
 54 H       11.6920     2.2240    -1.4950 H     1 <1>   0.1500 
@<TRIPOS>BOND
  1   1   2  2   
  2   2   3  am  
  3   2   4  1   
  4   3   5  1   
  5   3   6  1   
  6   4   7  ar  
  7   4   8  ar  
  8   5   9  1   
  9   5  29  1   
 10   5  30  1   
 11   6  10  1   
 12   6  31  1   
 13   6  32  1   
 14   7  11  ar  
 15   7  33  1   
 16   8  12  ar  
 17   8  34  1   
 18   9  13  1   
 19   9  35  1   
 20   9  36  1   
 21  10  13  1   
 22  10  37  1   
 23  10  38  1   
 24  11  14  1   
 25  11  15  ar  
 26  12  15  ar  
 27  12  16  1   
 28  13  17  1   
 29  13  39  1   
 30  14  18  1   
 31  15  40  1   
 32  16  19  1   
 33  17  20  2   
 34  17  21  am  
 35  18  41  1   
 36  18  42  1   
 37  18  43  1   
 38  19  44  1   
 39  19  45  1   
 40  19  46  1   
 41  21  22  1   
 42  21  47  1   
 43  22  23  1   
 44  22  48  1   
 45  22  49  1   
 46  23  24  ar  
 47  23  25  ar  
 48  24  26  ar  
 49  24  50  1   
 50  25  27  ar  
 51  25  51  1   
 52  26  28  ar  
 53  26  52  1   
 54  27  28  ar  
 55  27  53  1   
 56  28  54  1   
@<TRIPOS>SUBSTRUCTURE
  1 ****   9 GROUP 4 **** **** 0

# MOE 2024.06 (io_trps.svl 2023.06)
