@<TRIPOS>MOLECULE
NONAME
46 47 1 0 0 
SMALL
USER_CHARGES


@<TRIPOS>ATOM
  1 S       -4.5690     2.4690    -1.0120 S.o2  1 <1>   1.2040 
  2 O       -4.2320     2.6710    -2.4040 O.2   1 <1>  -0.6500 
  3 O       -3.7930     1.4980    -0.2700 O.2   1 <1>  -0.6500 
  4 C       -6.3370     2.1640    -0.8090 C.ar  1 <1>  -0.0090 
  5 C       -4.3490     4.0590    -0.2080 C.3   1 <1>  -0.0550 
  6 C       -6.8300     1.5320     0.3250 C.ar  1 <1>  -0.1500 
  7 C       -7.2520     2.5860    -1.7660 C.ar  1 <1>  -0.1500 
  8 C       -3.0040     4.7340    -0.5380 C.3   1 <1>  -0.0160 
  9 C       -8.1880     1.3320     0.5010 C.ar  1 <1>  -0.1500 
 10 C       -8.6110     2.3880    -1.5940 C.ar  1 <1>  -0.1500 
 11 C       -1.8160     3.8820    -0.1050 C.ar  1 <1>  -0.1440 
 12 C       -9.0940     1.7600    -0.4570 C.ar  1 <1>  -0.1430 
 13 C       -1.2790     2.9320    -0.9570 C.ar  1 <1>   0.2110 
 14 C       -1.2740     4.0290     1.1610 C.ar  1 <1>  -0.1500 
 15 C      -10.5960     1.5470    -0.2820 C.3   1 <1>   0.0630 
 16 N       -0.2630     2.1270    -0.5740 N.ar  1 <1>  -0.2100 
 17 C       -0.2230     3.2110     1.5360 C.ar  1 <1>  -0.1500 
 18 C      -11.1120     2.2820     0.9590 C.3   1 <1>  -0.2400 
 19 C      -10.9310     0.0540    -0.2080 C.3   1 <1>  -0.2400 
 20 C        0.2740     2.2560     0.6660 C.ar  1 <1>   0.2180 
 21 C        0.2070     1.0860    -1.5310 C.3   1 <1>   0.2480 
 22 C        1.4200     1.3590     1.1200 C.3   1 <1>  -0.0970 
 23 H       -4.4340     3.9380     0.8550 H     1 <1>   0.0800 
 24 H       -5.1340     4.7200    -0.5220 H     1 <1>   0.0800 
 25 H       -6.1480     1.1850     1.0820 H     1 <1>   0.1500 
 26 H       -6.9030     3.0720    -2.6610 H     1 <1>   0.1500 
 27 H       -2.9600     5.6900    -0.0440 H     1 <1>   0.0800 
 28 H       -2.9500     4.9240    -1.5970 H     1 <1>   0.0800 
 29 H       -8.5360     0.8370     1.3900 H     1 <1>   0.1500 
 30 H       -9.2930     2.7250    -2.3570 H     1 <1>   0.1500 
 31 H       -1.6920     2.8110    -1.9460 H     1 <1>   0.1500 
 32 H       -1.6620     4.7620     1.8510 H     1 <1>   0.1500 
 33 H      -11.1060     1.9540    -1.1390 H     1 <1>   0.0800 
 34 H        0.1980     3.3230     2.5210 H     1 <1>   0.1500 
 35 H      -10.6730     1.8800     1.8540 H     1 <1>   0.0800 
 36 H      -12.1810     2.1880     1.0290 H     1 <1>   0.0800 
 37 H      -10.8650     3.3270     0.8940 H     1 <1>   0.0800 
 38 H      -10.4880    -0.3970     0.6610 H     1 <1>   0.0800 
 39 H      -10.5560    -0.4480    -1.0830 H     1 <1>   0.0800 
 40 H      -11.9960    -0.0870    -0.1630 H     1 <1>   0.0800 
 41 H        0.0700     0.1090    -1.1010 H     1 <1>   0.0800 
 42 H        1.2490     1.2360    -1.7540 H     1 <1>   0.0800 
 43 H       -0.3510     1.1320    -2.4500 H     1 <1>   0.0800 
 44 H        1.1140     0.3280     1.1160 H     1 <1>   0.0800 
 45 H        1.7240     1.6080     2.1210 H     1 <1>   0.0800 
 46 H        2.2730     1.4810     0.4770 H     1 <1>   0.0800 
@<TRIPOS>BOND
  1   1   2  2   
  2   1   3  2   
  3   1   4  1   
  4   1   5  1   
  5   4   6  ar  
  6   4   7  ar  
  7   5   8  1   
  8   5  23  1   
  9   5  24  1   
 10   6   9  ar  
 11   6  25  1   
 12   7  10  ar  
 13   7  26  1   
 14   8  11  1   
 15   8  27  1   
 16   8  28  1   
 17   9  12  ar  
 18   9  29  1   
 19  10  12  ar  
 20  10  30  1   
 21  11  13  ar  
 22  11  14  ar  
 23  12  15  1   
 24  13  16  ar  
 25  13  31  1   
 26  14  17  ar  
 27  14  32  1   
 28  15  18  1   
 29  15  19  1   
 30  15  33  1   
 31  16  20  ar  
 32  16  21  1   
 33  17  20  ar  
 34  17  34  1   
 35  18  35  1   
 36  18  36  1   
 37  18  37  1   
 38  19  38  1   
 39  19  39  1   
 40  19  40  1   
 41  20  22  1   
 42  21  41  1   
 43  21  42  1   
 44  21  43  1   
 45  22  44  1   
 46  22  45  1   
 47  22  46  1   
@<TRIPOS>SUBSTRUCTURE
  1 ****   1 GROUP 4 **** **** 0

# MOE 2024.06 (io_trps.svl 2023.06)
