@<TRIPOS>MOLECULE
NONAME
40 41 1 0 0 
SMALL
USER_CHARGES


@<TRIPOS>ATOM
  1 S       -0.0070    -0.1310     0.1940 S.o2  1 <1>   1.3330 
  2 O        0.1460    -0.3490     1.6160 O.2   1 <1>  -0.6500 
  3 O        0.5570    -1.0810    -0.7390 O.2   1 <1>  -0.6500 
  4 N       -1.6690    -0.0010    -0.1210 N.am  1 <1>  -0.8490 
  5 C        0.6050     1.5050    -0.2370 C.3   1 <1>  -0.0550 
  6 C       -2.4050     0.5820     1.0070 C.3   1 <1>   0.1960 
  7 C       -2.2470    -1.2820    -0.5410 C.3   1 <1>   0.1960 
  8 C        2.1210     1.6880    -0.0490 C.3   1 <1>  -0.2400 
  9 C       -3.8630     0.8360     0.6200 C.3   1 <1>  -0.1600 
 10 C       -3.7090    -1.1010    -0.9600 C.3   1 <1>  -0.1600 
 11 C       -4.5450    -0.4640     0.1610 C.3   1 <1>  -0.0190 
 12 C       -5.9890    -0.2300    -0.2830 C.2   1 <1>   0.5690 
 13 O       -6.2180     0.6350    -1.0920 O.2   1 <1>  -0.5700 
 14 N       -6.9540    -1.0370     0.2590 N.am  1 <1>  -0.5470 
 15 C       -8.3470    -1.0710     0.0780 C.ar  1 <1>   0.1170 
 16 C       -9.0340    -2.2220     0.4480 C.ar  1 <1>  -0.1500 
 17 C       -9.0790    -0.0040    -0.4360 C.ar  1 <1>  -0.1500 
 18 C      -10.4080    -2.3100     0.3060 C.ar  1 <1>  -0.1500 
 19 C      -10.4520    -0.0880    -0.5810 C.ar  1 <1>  -0.1500 
 20 C      -11.1190    -1.2420    -0.2100 C.ar  1 <1>  -0.1500 
 21 H        0.0980     2.2370     0.3610 H     1 <1>   0.0800 
 22 H        0.3610     1.7010    -1.2630 H     1 <1>   0.0800 
 23 H       -1.9510     1.5160     1.2930 H     1 <1>   0.0800 
 24 H       -2.3620    -0.0830     1.8550 H     1 <1>   0.0800 
 25 H       -2.1710    -1.9960     0.2630 H     1 <1>   0.0800 
 26 H       -1.7010    -1.6690    -1.3860 H     1 <1>   0.0800 
 27 H        2.3900     1.5190     0.9790 H     1 <1>   0.0800 
 28 H        2.4150     2.6840    -0.3270 H     1 <1>   0.0800 
 29 H        2.6560     0.9840    -0.6630 H     1 <1>   0.0800 
 30 H       -3.8900     1.5660    -0.1720 H     1 <1>   0.0800 
 31 H       -4.3910     1.2460     1.4620 H     1 <1>   0.0800 
 32 H       -4.1230    -2.0570    -1.2270 H     1 <1>   0.0800 
 33 H       -3.7410    -0.4760    -1.8370 H     1 <1>   0.0800 
 34 H       -4.5520    -1.1410     0.9960 H     1 <1>   0.0800 
 35 H       -6.6040    -1.7660     0.8740 H     1 <1>   0.3700 
 36 H       -8.4960    -3.0610     0.8480 H     1 <1>   0.1500 
 37 H       -8.5830     0.9040    -0.7260 H     1 <1>   0.1500 
 38 H      -10.9250    -3.2090     0.5950 H     1 <1>   0.1500 
 39 H      -11.0000     0.7460    -0.9840 H     1 <1>   0.1500 
 40 H      -12.1880    -1.3080    -0.3240 H     1 <1>   0.1500 
@<TRIPOS>BOND
  1   1   2  2   
  2   1   3  2   
  3   1   4  am  
  4   1   5  1   
  5   4   6  1   
  6   4   7  1   
  7   5   8  1   
  8   5  21  1   
  9   5  22  1   
 10   6   9  1   
 11   6  23  1   
 12   6  24  1   
 13   7  10  1   
 14   7  25  1   
 15   7  26  1   
 16   8  27  1   
 17   8  28  1   
 18   8  29  1   
 19   9  11  1   
 20   9  30  1   
 21   9  31  1   
 22  10  11  1   
 23  10  32  1   
 24  10  33  1   
 25  11  12  1   
 26  11  34  1   
 27  12  13  2   
 28  12  14  am  
 29  14  15  1   
 30  14  35  1   
 31  15  16  ar  
 32  15  17  ar  
 33  16  18  ar  
 34  16  36  1   
 35  17  19  ar  
 36  17  37  1   
 37  18  20  ar  
 38  18  38  1   
 39  19  20  ar  
 40  19  39  1   
 41  20  40  1   
@<TRIPOS>SUBSTRUCTURE
  1 ****  11 GROUP 4 **** **** 0

# MOE 2024.06 (io_trps.svl 2023.06)
