@<TRIPOS>MOLECULE
NONAME
48 50 1 0 0 
SMALL
USER_CHARGES


@<TRIPOS>ATOM
  1 S        0.3310    -0.7060    -0.1750 S.o2  1 <1>   1.4470 
  2 O        0.9560    -0.0990    -1.3290 O.2   1 <1>  -0.6500 
  3 O        1.0240    -1.7540     0.5360 O.2   1 <1>  -0.6500 
  4 N        0.1530     0.5840     0.9640 N.am  1 <1>  -0.6930 
  5 C       -1.3830    -1.1940    -0.5040 C.ar  1 <1>  -0.0090 
  6 C       -0.7070     1.6440     0.7150 C.ar  1 <1>   0.1990 
  7 C        1.2620     0.7840     1.9500 C.3   1 <1>   0.2570 
  8 C       -1.9660    -2.2710     0.1570 C.ar  1 <1>  -0.1500 
  9 C       -2.1710    -0.4840    -1.4040 C.ar  1 <1>  -0.1500 
 10 C       -0.4300     2.5950    -0.2600 C.ar  1 <1>  -0.1500 
 11 C       -1.8850     1.7570     1.4400 C.ar  1 <1>  -0.1500 
 12 C        2.4950     1.5360     1.4310 C.2   1 <1>   0.5690 
 13 C       -3.2840    -2.6310    -0.0700 C.ar  1 <1>  -0.1500 
 14 C       -3.4880    -0.8340    -1.6360 C.ar  1 <1>  -0.1500 
 15 C       -1.3130     3.6300    -0.5060 C.ar  1 <1>  -0.1500 
 16 C       -2.7700     2.7900     1.1950 C.ar  1 <1>  -0.1500 
 17 O        3.1430     2.1660     2.2350 O.2   1 <1>  -0.5700 
 18 N        2.8440     1.4840     0.1140 N.am  1 <1>  -0.5790 
 19 C       -4.0560    -1.9080    -0.9730 C.ar  1 <1>   0.0830 
 20 C       -2.4890     3.7340     0.2210 C.ar  1 <1>  -0.1430 
 21 C        3.9850     2.1640    -0.5060 C.3   1 <1>   0.0490 
 22 O       -5.3510    -2.1860    -1.2540 O.3   1 <1>  -0.3630 
 23 C       -3.4630     4.8670    -0.0490 C.3   1 <1>  -0.0970 
 24 C        3.8130     2.6780    -1.8960 C.3   1 <1>  -0.2000 
 25 C        4.6730     1.4770    -1.6380 C.3   1 <1>  -0.2000 
 26 C       -6.0230    -3.2630    -0.6400 C.3   1 <1>   0.0400 
 27 H        1.5850    -0.1670     2.3320 H     1 <1>   0.0800 
 28 H        0.8740     1.3410     2.7840 H     1 <1>   0.0800 
 29 H       -1.3790    -2.8380     0.8610 H     1 <1>   0.1500 
 30 H       -1.7500     0.3590    -1.9280 H     1 <1>   0.1500 
 31 H        0.4770     2.5270    -0.8320 H     1 <1>   0.1500 
 32 H       -2.1100     1.0250     2.1950 H     1 <1>   0.1500 
 33 H       -3.6900    -3.4700     0.4630 H     1 <1>   0.1500 
 34 H       -4.0870    -0.2750    -2.3330 H     1 <1>   0.1500 
 35 H       -1.0820     4.3570    -1.2660 H     1 <1>   0.1500 
 36 H       -3.6810     2.8580     1.7650 H     1 <1>   0.1500 
 37 H        2.2640     0.9490    -0.5470 H     1 <1>   0.3700 
 38 H        4.5770     2.7360     0.1920 H     1 <1>   0.1000 
 39 H       -3.9330     5.1810     0.8660 H     1 <1>   0.0800 
 40 H       -4.2220     4.5370    -0.7350 H     1 <1>   0.0800 
 41 H       -2.9530     5.7120    -0.4750 H     1 <1>   0.0800 
 42 H        4.2960     3.6000    -2.1690 H     1 <1>   0.1000 
 43 H        2.8670     2.5410    -2.3900 H     1 <1>   0.1000 
 44 H        4.3220     0.5070    -1.9430 H     1 <1>   0.1000 
 45 H        5.7390     1.5830    -1.7340 H     1 <1>   0.1000 
 46 H       -7.0290    -3.2880    -1.0190 H     1 <1>   0.0800 
 47 H       -6.0370    -3.1050     0.4240 H     1 <1>   0.0800 
 48 H       -5.5160    -4.1780    -0.8880 H     1 <1>   0.0800 
@<TRIPOS>BOND
  1   1   2  2   
  2   1   3  2   
  3   1   4  am  
  4   1   5  1   
  5   4   6  1   
  6   4   7  1   
  7   5   8  ar  
  8   5   9  ar  
  9   6  10  ar  
 10   6  11  ar  
 11   7  12  1   
 12   7  27  1   
 13   7  28  1   
 14   8  13  ar  
 15   8  29  1   
 16   9  14  ar  
 17   9  30  1   
 18  10  15  ar  
 19  10  31  1   
 20  11  16  ar  
 21  11  32  1   
 22  12  17  2   
 23  12  18  am  
 24  13  19  ar  
 25  13  33  1   
 26  14  19  ar  
 27  14  34  1   
 28  15  20  ar  
 29  15  35  1   
 30  16  20  ar  
 31  16  36  1   
 32  18  21  1   
 33  18  37  1   
 34  19  22  1   
 35  20  23  1   
 36  21  24  1   
 37  21  25  1   
 38  21  38  1   
 39  22  26  1   
 40  23  39  1   
 41  23  40  1   
 42  23  41  1   
 43  24  25  1   
 44  24  42  1   
 45  24  43  1   
 46  25  44  1   
 47  25  45  1   
 48  26  46  1   
 49  26  47  1   
 50  26  48  1   
@<TRIPOS>SUBSTRUCTURE
  1 ****   6 GROUP 4 **** **** 0

# MOE 2024.06 (io_trps.svl 2023.06)
