@<TRIPOS>MOLECULE
NONAME
50 52 1 0 0 
SMALL
USER_CHARGES


@<TRIPOS>ATOM
  1 S       -0.3990    -0.2150     0.1180 S.o2  1 <1>   1.5010 
  2 O        0.0380    -0.9020     1.3120 O.2   1 <1>  -0.6500 
  3 O       -0.0100    -0.6950    -1.1870 O.2   1 <1>  -0.6500 
  4 N       -2.0940    -0.3240     0.1560 N.am  1 <1>  -0.8490 
  5 C       -0.1250     1.5530     0.2610 C.2   1 <1>  -0.0630 
  6 C       -2.5480    -1.6670    -0.2680 C.3   1 <1>   0.1960 
  7 C       -2.6590     0.0140     1.4810 C.3   1 <1>   0.1960 
  8 C        0.4640     2.1610     1.3610 C.2   1 <1>   0.1390 
  9 C       -0.4310     2.5930    -0.5560 C.2   1 <1>  -0.3020 
 10 C       -4.0900    -1.8220    -0.2200 C.3   1 <1>   0.3430 
 11 C       -4.2090    -0.0250     1.4870 C.3   1 <1>   0.3430 
 12 N        0.5070     3.4530     1.2560 N.2   1 <1>  -0.7070 
 13 N       -0.0390     3.7230     0.0590 N.pl3 1 <1>   0.3140 
 14 N       -4.7660    -0.5430     0.1880 N.4   1 <1>  -0.9590 
 15 C       -0.1580     5.1040    -0.4550 C.3   1 <1>   0.0960 
 16 C       -6.2420    -0.6020     0.1330 C.3   1 <1>   0.4810 
 17 C       -1.5970     5.6210    -0.3270 C.3   1 <1>  -0.2400 
 18 C       -6.7380     0.8220     0.1670 C.2   1 <1>  -0.2880 
 19 C       -7.1310     1.5220    -0.9110 C.2   1 <1>  -0.1780 
 20 C       -7.6040     2.8890    -0.9540 C.ar  1 <1>   0.0280 
 21 C       -7.6520     3.5700    -2.1690 C.ar  1 <1>  -0.1500 
 22 C       -8.0230     3.5730     0.1860 C.ar  1 <1>  -0.1500 
 23 C       -8.0890     4.8790    -2.2440 C.ar  1 <1>  -0.1500 
 24 C       -8.4610     4.8830     0.1170 C.ar  1 <1>  -0.1500 
 25 C       -8.4940     5.5400    -1.0990 C.ar  1 <1>  -0.1500 
 26 H       -2.2200    -1.8530    -1.2780 H     1 <1>   0.0800 
 27 H       -2.0960    -2.4220     0.3550 H     1 <1>   0.0800 
 28 H       -2.2920    -0.6740     2.2260 H     1 <1>   0.0800 
 29 H       -2.3410     1.0010     1.7750 H     1 <1>   0.0800 
 30 H        0.8450     1.6260     2.2180 H     1 <1>   0.1500 
 31 H       -0.8980     2.5820    -1.5240 H     1 <1>   0.1500 
 32 H       -4.3400    -2.6070     0.4750 H     1 <1>   0.0800 
 33 H       -4.4370    -2.1280    -1.1940 H     1 <1>   0.0800 
 34 H       -4.5740     0.9740     1.6650 H     1 <1>   0.0800 
 35 H       -4.5400    -0.6420     2.3060 H     1 <1>   0.0800 
 36 H       -4.4690     0.1550    -0.5130 H     1 <1>   0.4500 
 37 H        0.5080     5.7310     0.1100 H     1 <1>   0.0800 
 38 H        0.1530     5.1140    -1.4830 H     1 <1>   0.0800 
 39 H       -6.5530    -1.0620    -0.7920 H     1 <1>   0.0800 
 40 H       -6.6430    -1.1710     0.9560 H     1 <1>   0.0800 
 41 H       -1.9010     5.6150     0.7050 H     1 <1>   0.0800 
 42 H       -2.2710     5.0140    -0.9040 H     1 <1>   0.0800 
 43 H       -1.6520     6.6320    -0.6900 H     1 <1>   0.0800 
 44 H       -6.7470     1.2370     1.1580 H     1 <1>   0.1500 
 45 H       -7.1040     1.0630    -1.8860 H     1 <1>   0.1500 
 46 H       -7.3430     3.0750    -3.0720 H     1 <1>   0.1500 
 47 H       -8.0210     3.0850     1.1410 H     1 <1>   0.1500 
 48 H       -8.1170     5.3860    -3.1930 H     1 <1>   0.1500 
 49 H       -8.7810     5.3940     1.0090 H     1 <1>   0.1500 
 50 H       -8.8360     6.5600    -1.1550 H     1 <1>   0.1500 
@<TRIPOS>BOND
  1   1   2  2   
  2   1   3  2   
  3   1   4  am  
  4   1   5  1   
  5   4   6  1   
  6   4   7  1   
  7   5   8  1   
  8   5   9  2   
  9   6  10  1   
 10   6  26  1   
 11   6  27  1   
 12   7  11  1   
 13   7  28  1   
 14   7  29  1   
 15   8  12  2   
 16   8  30  1   
 17   9  13  1   
 18   9  31  1   
 19  10  14  1   
 20  10  32  1   
 21  10  33  1   
 22  11  14  1   
 23  11  34  1   
 24  11  35  1   
 25  12  13  1   
 26  13  15  1   
 27  14  16  1   
 28  14  36  1   
 29  15  17  1   
 30  15  37  1   
 31  15  38  1   
 32  16  18  1   
 33  16  39  1   
 34  16  40  1   
 35  17  41  1   
 36  17  42  1   
 37  17  43  1   
 38  18  19  2   
 39  18  44  1   
 40  19  20  1   
 41  19  45  1   
 42  20  21  ar  
 43  20  22  ar  
 44  21  23  ar  
 45  21  46  1   
 46  22  24  ar  
 47  22  47  1   
 48  23  25  ar  
 49  23  48  1   
 50  24  25  ar  
 51  24  49  1   
 52  25  50  1   
@<TRIPOS>SUBSTRUCTURE
  1 ****  11 GROUP 4 **** **** 0

# MOE 2024.06 (io_trps.svl 2023.06)
