@<TRIPOS>MOLECULE
NONAME
48 52 1 0 0 
SMALL
USER_CHARGES


@<TRIPOS>ATOM
  1 O       -0.7000     0.1080    -1.5370 O.2   1 <1>  -0.5700 
  2 C       -1.0250    -1.0080    -1.2280 C.2   1 <1>   0.5690 
  3 N       -0.1570    -2.0210    -0.7740 N.am  1 <1>  -0.4200 
  4 C       -2.4320    -1.5180    -1.3360 C.3   1 <1>  -0.0190 
  5 C       -0.6300    -3.1500    -0.0740 C.2   1 <1>   0.5690 
  6 C        1.2970    -1.8980    -1.0650 C.3   1 <1>   0.1400 
  7 C       -4.7560    -1.2320    -1.4620 C.3   1 <1>   0.2070 
  8 C       -1.9960    -2.8960     0.4930 C.3   1 <1>  -0.0190 
  9 O       -0.0200    -4.1690     0.1200 O.2   1 <1>  -0.5700 
 10 C        1.9820    -1.0200    -0.0190 C.3   1 <1>   0.1200 
 11 C       -4.9130    -1.5860    -0.0850 C.ar  1 <1>  -0.1440 
 12 C       -6.2960    -2.0360    -0.4480 C.ar  1 <1>  -0.1440 
 13 C       -4.0610    -3.6030     1.3490 C.3   1 <1>   0.2070 
 14 O        3.3370    -0.9570    -0.3280 O.3   1 <1>  -0.5600 
 15 C       -4.7140    -3.3260     0.1070 C.ar  1 <1>  -0.1440 
 16 C       -4.6870    -0.7160     0.8420 C.ar  1 <1>  -0.1500 
 17 C       -5.9660    -3.1290     0.9080 C.ar  1 <1>  -0.1440 
 18 C       -7.6340    -1.7980    -0.7080 C.ar  1 <1>  -0.1500 
 19 C        4.0780    -0.1490     0.5250 C.3   1 <1>   0.2580 
 20 C       -4.6410    -4.1670    -0.8700 C.ar  1 <1>  -0.1500 
 21 C       -3.7220    -1.4870     0.4700 C.ar  1 <1>  -0.1500 
 22 C       -7.0810    -3.6020     1.5760 C.ar  1 <1>  -0.1500 
 23 C       -8.6120    -2.3860     0.0830 C.ar  1 <1>  -0.1500 
 24 C        5.5230    -0.2230     0.0810 C.2   1 <1>  -0.2880 
 25 C       -3.7680    -3.2200    -0.8040 C.ar  1 <1>  -0.1500 
 26 C       -8.3520    -3.2300     1.1590 C.ar  1 <1>  -0.1500 
 27 C        6.5550    -0.5870     0.8490 C.2   1 <1>  -0.3000 
 28 H       -2.2730    -1.9960    -2.2910 H     1 <1>   0.0800 
 29 H        1.4280    -1.4560    -2.0370 H     1 <1>   0.0800 
 30 H        1.7540    -2.8730    -1.0670 H     1 <1>   0.0800 
 31 H       -4.9750    -0.1920    -1.6360 H     1 <1>   0.0800 
 32 H       -1.6290    -2.3670     1.3600 H     1 <1>   0.0800 
 33 H        1.8750    -1.4510     0.9620 H     1 <1>   0.0800 
 34 H        1.5770    -0.0220    -0.0440 H     1 <1>   0.0800 
 35 H       -4.0170    -4.6590     1.5520 H     1 <1>   0.0800 
 36 H       -4.5010     0.0660     1.5600 H     1 <1>   0.1500 
 37 H       -7.9110    -1.1510    -1.5200 H     1 <1>   0.1500 
 38 H        3.9690    -0.5080     1.5340 H     1 <1>   0.0800 
 39 H        3.7130     0.8620     0.4500 H     1 <1>   0.0800 
 40 H       -4.5540    -4.9230    -1.6330 H     1 <1>   0.1500 
 41 H       -2.8740    -0.8940     0.8480 H     1 <1>   0.1500 
 42 H       -6.9580    -4.2630     2.4130 H     1 <1>   0.1500 
 43 H       -9.6390    -2.1720    -0.1510 H     1 <1>   0.1500 
 44 H        5.6370     0.0520    -0.9540 H     1 <1>   0.1500 
 45 H       -2.9920    -3.6580    -1.4520 H     1 <1>   0.1500 
 46 H       -9.1920    -3.6220     1.7030 H     1 <1>   0.1500 
 47 H        7.5730    -0.6320     0.5000 H     1 <1>   0.1500 
 48 H        6.4730    -0.8720     1.8830 H     1 <1>   0.1500 
@<TRIPOS>BOND
  1   1   2  2   
  2   2   3  am  
  3   2   4  1   
  4   3   5  am  
  5   3   6  1   
  6   4   7  1   
  7   4   8  1   
  8   4  28  1   
  9   5   8  1   
 10   5   9  2   
 11   6  10  1   
 12   6  29  1   
 13   6  30  1   
 14   7  11  1   
 15   7  12  1   
 16   7  31  1   
 17   8  13  1   
 18   8  32  1   
 19  10  14  1   
 20  10  33  1   
 21  10  34  1   
 22  11  15  ar  
 23  11  16  ar  
 24  12  17  ar  
 25  12  18  ar  
 26  13  15  1   
 27  13  17  1   
 28  13  35  1   
 29  14  19  1   
 30  15  20  ar  
 31  16  21  ar  
 32  16  36  1   
 33  17  22  ar  
 34  18  23  ar  
 35  18  37  1   
 36  19  24  1   
 37  19  38  1   
 38  19  39  1   
 39  20  25  ar  
 40  20  40  1   
 41  21  25  ar  
 42  21  41  1   
 43  22  26  ar  
 44  22  42  1   
 45  23  26  ar  
 46  23  43  1   
 47  24  27  2   
 48  24  44  1   
 49  25  45  1   
 50  26  46  1   
 51  27  47  1   
 52  27  48  1   
@<TRIPOS>SUBSTRUCTURE
  1 ****   8 GROUP 4 **** **** 0

# MOE 2024.06 (io_trps.svl 2023.06)
