@<TRIPOS>MOLECULE
NONAME
41 43 1 0 0 
SMALL
USER_CHARGES


@<TRIPOS>ATOM
  1 O        3.5230     5.4160     0.9260 O.3   1 <1>  -0.5600 
  2 C        3.3780     6.4460    -0.0100 C.3   1 <1>   0.1200 
  3 C        2.6560     4.3410     0.7000 C.3   1 <1>   0.1200 
  4 C        1.9330     6.9790    -0.0090 C.3   1 <1>   0.1100 
  5 C        1.1900     4.8130     0.7220 C.3   1 <1>   0.1100 
  6 N        0.9650     5.8950    -0.2610 N.3   1 <1>  -0.8100 
  7 C       -0.4180     6.4160    -0.1980 C.3   1 <1>   0.1100 
  8 C       -1.4030     5.5040    -0.9390 C.3   1 <1>   0.2090 
  9 N       -2.8120     5.9170    -0.6890 N.pl3 1 <1>  -0.4270 
 10 N       -3.1510     7.2370    -0.6930 N.2   1 <1>  -0.4920 
 11 C       -3.8670     5.1540    -0.3450 C.2   1 <1>   0.2000 
 12 C       -4.3750     7.2560    -0.3280 C.2   1 <1>   0.4390 
 13 N       -4.8480     6.0140    -0.0970 N.pl3 1 <1>  -0.5500 
 14 C       -3.9790     3.7360    -0.2490 C.2   1 <1>   0.0140 
 15 C       -5.2300     8.4840    -0.1520 C.3   1 <1>  -0.1790 
 16 C       -4.8230     3.1250     0.7170 C.2   1 <1>   0.5410 
 17 C       -3.2870     2.8840    -1.1260 C.2   1 <1>  -0.1500 
 18 O       -5.5510     3.7880     1.4920 O.2   1 <1>  -0.5700 
 19 C       -4.8710     1.7200     0.8060 C.2   1 <1>  -0.1360 
 20 C       -3.3580     1.5140    -1.0280 C.2   1 <1>  -0.1500 
 21 C       -4.1520     0.9240    -0.0440 C.2   1 <1>  -0.1500 
 22 H        3.6380     6.0680    -0.9830 H     1 <1>   0.0800 
 23 H        4.0640     7.2300     0.2550 H     1 <1>   0.0800 
 24 H        2.8260     3.6150     1.4740 H     1 <1>   0.0800 
 25 H        2.8950     3.8990    -0.2520 H     1 <1>   0.0800 
 26 H        1.8370     7.7280    -0.7760 H     1 <1>   0.0800 
 27 H        1.7310     7.4420     0.9420 H     1 <1>   0.0800 
 28 H        0.9520     5.1580     1.7140 H     1 <1>   0.0800 
 29 H        0.5550     3.9750     0.4970 H     1 <1>   0.0800 
 30 H       -0.4590     7.3850    -0.6670 H     1 <1>   0.0800 
 31 H       -0.7260     6.5260     0.8280 H     1 <1>   0.0800 
 32 H       -1.2690     4.4980    -0.5960 H     1 <1>   0.0800 
 33 H       -1.2090     5.5510    -1.9950 H     1 <1>   0.0800 
 34 H       -5.7610     5.7650     0.2850 H     1 <1>   0.4000 
 35 H       -6.0770     8.4330    -0.8100 H     1 <1>   0.0800 
 36 H       -4.6540     9.3600    -0.3870 H     1 <1>   0.0800 
 37 H       -5.5670     8.5470     0.8650 H     1 <1>   0.0800 
 38 H       -2.6920     3.3210    -1.9080 H     1 <1>   0.1500 
 39 H       -5.5010     1.3000     1.5680 H     1 <1>   0.1500 
 40 H       -2.8090     0.8860    -1.7100 H     1 <1>   0.1500 
 41 H       -4.1960    -0.1500     0.0280 H     1 <1>   0.1500 
@<TRIPOS>BOND
  1   1   2  1   
  2   1   3  1   
  3   2   4  1   
  4   2  22  1   
  5   2  23  1   
  6   3   5  1   
  7   3  24  1   
  8   3  25  1   
  9   4   6  1   
 10   4  26  1   
 11   4  27  1   
 12   5   6  1   
 13   5  28  1   
 14   5  29  1   
 15   6   7  1   
 16   7   8  1   
 17   7  30  1   
 18   7  31  1   
 19   8   9  1   
 20   8  32  1   
 21   8  33  1   
 22   9  10  1   
 23   9  11  1   
 24  10  12  2   
 25  11  13  1   
 26  11  14  2   
 27  12  13  1   
 28  12  15  1   
 29  13  34  1   
 30  14  16  1   
 31  14  17  1   
 32  15  35  1   
 33  15  36  1   
 34  15  37  1   
 35  16  18  2   
 36  16  19  1   
 37  17  20  2   
 38  17  38  1   
 39  19  21  2   
 40  19  39  1   
 41  20  21  1   
 42  20  40  1   
 43  21  41  1   
@<TRIPOS>SUBSTRUCTURE
  1 ****   8 GROUP 4 **** **** 0

# MOE 2024.06 (io_trps.svl 2023.06)
