@<TRIPOS>MOLECULE
NONAME
42 43 1 0 0 
SMALL
USER_CHARGES


@<TRIPOS>ATOM
  1 O       -3.0560    -2.3130    -3.7150 O.2   1 <1>  -0.5700 
  2 C       -3.5700    -2.3690    -2.6170 C.2   1 <1>   0.7060 
  3 O       -4.2580    -1.3170    -2.1800 O.3   1 <1>  -0.2320 
  4 C       -3.4800    -3.5050    -1.7660 C.2   1 <1>  -0.1360 
  5 C       -4.8860    -1.2970    -0.9820 C.ar  1 <1>   0.0830 
  6 C       -4.0790    -3.5510    -0.5550 C.2   1 <1>  -0.1670 
  7 C       -4.8440    -2.4030    -0.1120 C.ar  1 <1>   0.0280 
  8 C       -5.5770    -0.1390    -0.6640 C.ar  1 <1>  -0.1500 
  9 C       -3.9210    -4.8060     0.2940 C.3   1 <1>  -0.1020 
 10 C       -5.5670    -2.2760     1.0930 C.ar  1 <1>   0.0830 
 11 C       -6.2580    -0.0320     0.5300 C.ar  1 <1>  -0.1440 
 12 O       -5.6320    -3.3070     1.9650 O.3   1 <1>  -0.3630 
 13 C       -6.2440    -1.1040     1.4030 C.ar  1 <1>  -0.1500 
 14 C       -7.0180     1.2320     0.8920 C.3   1 <1>  -0.0970 
 15 C       -6.9020    -3.7480     2.4400 C.3   1 <1>   0.1810 
 16 C       -7.9290    -3.8810     1.3210 C.2   1 <1>   0.6590 
 17 O       -9.0010    -3.3380     1.4040 O.2   1 <1>  -0.5700 
 18 O       -7.5480    -4.6020     0.2700 O.3   1 <1>  -0.4300 
 19 C       -8.2150    -4.7510    -0.9620 C.3   1 <1>   0.2800 
 20 C       -9.5500    -5.4730    -0.7510 C.3   1 <1>  -0.2400 
 21 C       -8.3900    -3.3800    -1.6250 C.3   1 <1>  -0.2400 
 22 C       -7.2920    -5.6150    -1.8200 C.3   1 <1>  -0.2400 
 23 H       -2.9000    -4.3180    -2.1600 H     1 <1>   0.1500 
 24 H       -5.5740     0.6770    -1.3660 H     1 <1>   0.1500 
 25 H       -3.4860    -4.5560     1.2460 H     1 <1>   0.0800 
 26 H       -3.2800    -5.5230    -0.1860 H     1 <1>   0.0800 
 27 H       -4.8770    -5.2700     0.4530 H     1 <1>   0.0800 
 28 H       -6.7710    -1.0170     2.3350 H     1 <1>   0.1500 
 29 H       -6.9360     1.9670     0.1120 H     1 <1>   0.0800 
 30 H       -6.6230     1.6500     1.8000 H     1 <1>   0.0800 
 31 H       -8.0580     1.0030     1.0380 H     1 <1>   0.0800 
 32 H       -7.2520    -3.0510     3.1780 H     1 <1>   0.0800 
 33 H       -6.7590    -4.7040     2.9040 H     1 <1>   0.0800 
 34 H      -10.2380    -4.8610    -0.1980 H     1 <1>   0.0800 
 35 H       -9.3970    -6.3980    -0.2260 H     1 <1>   0.0800 
 36 H      -10.0010    -5.6920    -1.7020 H     1 <1>   0.0800 
 37 H       -7.4440    -2.8740    -1.6960 H     1 <1>   0.0800 
 38 H       -9.0770    -2.7660    -1.0730 H     1 <1>   0.0800 
 39 H       -8.7860    -3.5000    -2.6170 H     1 <1>   0.0800 
 40 H       -6.3440    -5.1250    -1.9560 H     1 <1>   0.0800 
 41 H       -7.7290    -5.7810    -2.7880 H     1 <1>   0.0800 
 42 H       -7.1300    -6.5690    -1.3510 H     1 <1>   0.0800 
@<TRIPOS>BOND
  1   1   2  2   
  2   2   3  1   
  3   2   4  1   
  4   3   5  1   
  5   4   6  2   
  6   4  23  1   
  7   5   7  ar  
  8   5   8  ar  
  9   6   7  1   
 10   6   9  1   
 11   7  10  ar  
 12   8  11  ar  
 13   8  24  1   
 14   9  25  1   
 15   9  26  1   
 16   9  27  1   
 17  10  12  1   
 18  10  13  ar  
 19  11  13  ar  
 20  11  14  1   
 21  12  15  1   
 22  13  28  1   
 23  14  29  1   
 24  14  30  1   
 25  14  31  1   
 26  15  16  1   
 27  15  32  1   
 28  15  33  1   
 29  16  17  2   
 30  16  18  1   
 31  18  19  1   
 32  19  20  1   
 33  19  21  1   
 34  19  22  1   
 35  20  34  1   
 36  20  35  1   
 37  20  36  1   
 38  21  37  1   
 39  21  38  1   
 40  21  39  1   
 41  22  40  1   
 42  22  41  1   
 43  22  42  1   
@<TRIPOS>SUBSTRUCTURE
  1 ****   7 GROUP 4 **** **** 0

# MOE 2024.06 (io_trps.svl 2023.06)
