@<TRIPOS>MOLECULE
NONAME
37 39 1 0 0 
SMALL
USER_CHARGES


@<TRIPOS>ATOM
  1 S       -0.1290     0.0880     1.1440 S.3   1 <1>  -0.0800 
  2 C        0.9300    -1.1620     0.4700 C.2   1 <1>  -0.0450 
  3 C       -1.5610    -0.7210     0.5560 C.2   1 <1>  -0.1400 
  4 C        2.3550    -1.0400     0.6470 C.2   1 <1>   0.7150 
  5 C        0.1590    -2.0990    -0.1470 C.2   1 <1>  -0.1500 
  6 C       -1.2430    -1.8510    -0.0900 C.2   1 <1>  -0.1810 
  7 C       -2.9380    -0.1450     0.7980 C.3   1 <1>   0.0200 
  8 O        2.8540    -0.0460     1.1370 O.2   1 <1>  -0.5700 
  9 N        3.1310    -2.1050     0.2950 N.am  1 <1>  -0.5470 
 10 C       -2.3050    -2.7510    -0.6980 C.3   1 <1>   0.0210 
 11 C       -3.9560    -0.8820    -0.0920 C.3   1 <1>  -0.1600 
 12 C        4.4730    -2.2230     0.1380 C.ar  1 <1>   0.7370 
 13 C       -3.6990    -2.4040    -0.1340 C.3   1 <1>  -0.1600 
 14 N        5.1840    -1.1670    -0.2340 N.ar  1 <1>  -0.6200 
 15 N        4.9190    -3.4570     0.3330 N.ar  1 <1>  -0.6200 
 16 C        6.4700    -1.3600    -0.3800 C.ar  1 <1>   0.1670 
 17 C        6.2090    -3.6300     0.1780 C.ar  1 <1>   0.1670 
 18 C        7.0400    -2.5950    -0.1810 C.ar  1 <1>  -0.1500 
 19 C        7.3000    -0.1590    -0.7810 C.3   1 <1>  -0.0970 
 20 C        6.7490    -5.0250     0.4120 C.3   1 <1>  -0.0970 
 21 H        0.5330    -2.9710    -0.6530 H     1 <1>   0.1500 
 22 H       -2.9440     0.9070     0.5720 H     1 <1>   0.0800 
 23 H       -3.1890    -0.2750     1.8360 H     1 <1>   0.0800 
 24 H        2.6740    -3.0030     0.2830 H     1 <1>   0.3700 
 25 H       -2.0780    -3.7810    -0.4860 H     1 <1>   0.0800 
 26 H       -2.3000    -2.6150    -1.7650 H     1 <1>   0.0800 
 27 H       -3.8840    -0.4930    -1.0930 H     1 <1>   0.0800 
 28 H       -4.9510    -0.6870     0.2660 H     1 <1>   0.0800 
 29 H       -3.7740    -2.7940     0.8660 H     1 <1>   0.0800 
 30 H       -4.4540    -2.8850    -0.7320 H     1 <1>   0.0800 
 31 H        8.0960    -2.7440    -0.3020 H     1 <1>   0.1500 
 32 H        6.9550     0.2160    -1.7270 H     1 <1>   0.0800 
 33 H        8.3400    -0.4150    -0.8620 H     1 <1>   0.0800 
 34 H        7.1870     0.6140    -0.0430 H     1 <1>   0.0800 
 35 H        6.2800    -5.7120    -0.2690 H     1 <1>   0.0800 
 36 H        6.5280    -5.3320     1.4190 H     1 <1>   0.0800 
 37 H        7.8120    -5.0590     0.2640 H     1 <1>   0.0800 
@<TRIPOS>BOND
  1   1   2  1   
  2   1   3  1   
  3   2   4  1   
  4   2   5  2   
  5   3   6  2   
  6   3   7  1   
  7   4   8  2   
  8   4   9  am  
  9   5   6  1   
 10   5  21  1   
 11   6  10  1   
 12   7  11  1   
 13   7  22  1   
 14   7  23  1   
 15   9  12  1   
 16   9  24  1   
 17  10  13  1   
 18  10  25  1   
 19  10  26  1   
 20  11  13  1   
 21  11  27  1   
 22  11  28  1   
 23  12  14  ar  
 24  12  15  ar  
 25  13  29  1   
 26  13  30  1   
 27  14  16  ar  
 28  15  17  ar  
 29  16  18  ar  
 30  16  19  1   
 31  17  18  ar  
 32  17  20  1   
 33  18  31  1   
 34  19  32  1   
 35  19  33  1   
 36  19  34  1   
 37  20  35  1   
 38  20  36  1   
 39  20  37  1   
@<TRIPOS>SUBSTRUCTURE
  1 ****   4 GROUP 4 **** **** 0

# MOE 2024.06 (io_trps.svl 2023.06)
