@<TRIPOS>MOLECULE
NONAME
42 44 1 0 0 
SMALL
USER_CHARGES


@<TRIPOS>ATOM
  1 S       -0.3870    -1.2940    -2.6430 S.3   1 <1>  -0.3320 
  2 C        1.0830    -1.6580    -1.7020 C.ar  1 <1>   0.4120 
  3 C       -1.6040    -2.5510    -2.0190 C.3   1 <1>   0.1310 
  4 N        1.4800    -0.7420    -0.8820 N.ar  1 <1>  -0.6200 
  5 C        1.6810    -2.9080    -1.8850 C.ar  1 <1>  -0.1500 
  6 C       -2.8290    -1.8760    -1.4100 C.2   1 <1>   0.5690 
  7 C        2.5740    -1.0310    -0.1280 C.ar  1 <1>   0.3100 
  8 C        2.7780    -3.2340    -1.1470 C.ar  1 <1>  -0.1440 
  9 O       -3.8850    -2.0620    -1.9700 O.2   1 <1>  -0.5700 
 10 N       -2.7490    -1.1170    -0.2670 N.am  1 <1>  -0.6600 
 11 C        3.2560    -2.2730    -0.2230 C.ar  1 <1>   0.0000 
 12 C        3.0400    -0.0620     0.7920 C.ar  1 <1>  -0.1430 
 13 C        3.4560    -4.5860    -1.3230 C.3   1 <1>  -0.0970 
 14 C       -1.4950    -0.8440     0.5030 C.3   1 <1>   0.1400 
 15 C       -3.9220    -0.3310     0.2200 C.3   1 <1>   0.1400 
 16 C        4.3750    -2.4870     0.6100 C.ar  1 <1>  -0.1500 
 17 C        4.1310    -0.3140     1.5820 C.ar  1 <1>  -0.1500 
 18 C        2.3260     1.2810     0.9100 C.3   1 <1>  -0.0970 
 19 C       -1.7500    -0.8390     2.0200 C.3   1 <1>   0.1200 
 20 C       -4.0330    -0.3890     1.7520 C.3   1 <1>   0.1200 
 21 C        4.8020    -1.5340     1.4910 C.ar  1 <1>  -0.1500 
 22 O       -2.8260    -0.0080     2.3480 O.3   1 <1>  -0.5600 
 23 H       -1.1100    -3.1640    -1.2920 H     1 <1>   0.0800 
 24 H       -1.8930    -3.1480    -2.8640 H     1 <1>   0.0800 
 25 H        1.2590    -3.5760    -2.6110 H     1 <1>   0.1500 
 26 H        2.9550    -5.1730    -2.0720 H     1 <1>   0.0800 
 27 H        3.4380    -5.1320    -0.3970 H     1 <1>   0.0800 
 28 H        4.4770    -4.4480    -1.6320 H     1 <1>   0.0800 
 29 H       -1.0960     0.1100     0.2050 H     1 <1>   0.0800 
 30 H       -0.7550    -1.5920     0.2960 H     1 <1>   0.0800 
 31 H       -4.8340    -0.7060    -0.2120 H     1 <1>   0.0800 
 32 H       -3.8090     0.6940    -0.0860 H     1 <1>   0.0800 
 33 H        4.9050    -3.4200     0.5530 H     1 <1>   0.1500 
 34 H        4.4920     0.4180     2.2840 H     1 <1>   0.1500 
 35 H        2.3330     1.7820    -0.0420 H     1 <1>   0.0800 
 36 H        2.8030     1.9170     1.6330 H     1 <1>   0.0800 
 37 H        1.3040     1.1290     1.2090 H     1 <1>   0.0800 
 38 H       -0.8810    -0.4720     2.5370 H     1 <1>   0.0800 
 39 H       -1.9650    -1.8330     2.3690 H     1 <1>   0.0800 
 40 H       -4.2810    -1.3850     2.0750 H     1 <1>   0.0800 
 41 H       -4.7960     0.2860     2.0930 H     1 <1>   0.0800 
 42 H        5.6570    -1.7090     2.1220 H     1 <1>   0.1500 
@<TRIPOS>BOND
  1   1   2  1   
  2   1   3  1   
  3   2   4  ar  
  4   2   5  ar  
  5   3   6  1   
  6   3  23  1   
  7   3  24  1   
  8   4   7  ar  
  9   5   8  ar  
 10   5  25  1   
 11   6   9  2   
 12   6  10  am  
 13   7  11  ar  
 14   7  12  ar  
 15   8  11  ar  
 16   8  13  1   
 17  10  14  1   
 18  10  15  1   
 19  11  16  ar  
 20  12  17  ar  
 21  12  18  1   
 22  13  26  1   
 23  13  27  1   
 24  13  28  1   
 25  14  19  1   
 26  14  29  1   
 27  14  30  1   
 28  15  20  1   
 29  15  31  1   
 30  15  32  1   
 31  16  21  ar  
 32  16  33  1   
 33  17  21  ar  
 34  17  34  1   
 35  18  35  1   
 36  18  36  1   
 37  18  37  1   
 38  19  22  1   
 39  19  38  1   
 40  19  39  1   
 41  20  22  1   
 42  20  40  1   
 43  20  41  1   
 44  21  42  1   
@<TRIPOS>SUBSTRUCTURE
  1 ****   4 GROUP 4 **** **** 0

# MOE 2024.06 (io_trps.svl 2023.06)
