@<TRIPOS>MOLECULE
NONAME
45 48 1 0 0 
SMALL
USER_CHARGES


@<TRIPOS>ATOM
  1 O       -1.3830    -0.2560    -1.2010 O.2   1 <1>  -0.5700 
  2 C       -2.2930    -0.0730    -0.4190 C.2   1 <1>   0.6900 
  3 N       -3.4640     0.5850    -0.7810 N.am  1 <1>  -0.4240 
  4 N       -2.1550    -0.5320     0.8570 N.am  1 <1>  -0.4900 
  5 C       -4.4630     0.7470     0.1870 C.2   1 <1>  -0.0880 
  6 C       -3.6610     1.1160    -2.1560 C.3   1 <1>   0.0600 
  7 C       -3.1070    -0.3960     1.8290 C.2   1 <1>   0.7160 
  8 N       -5.6700     1.3240     0.1030 N.pl3 1 <1>   0.0330 
  9 C       -4.3260     0.2800     1.4620 C.2   1 <1>   0.1410 
 10 O       -2.8510    -0.8600     2.9250 O.2   1 <1>  -0.5700 
 11 C       -6.2230     1.1760     1.3320 C.2   1 <1>   0.0060 
 12 N       -5.4590     0.5640     2.1760 N.2   1 <1>  -0.5650 
 13 C       -7.6240     1.6930     1.6110 C.3   1 <1>   0.2900 
 14 N       -8.4790     1.5050     0.4200 N.3   1 <1>  -0.8100 
 15 C       -8.8020     0.0670     0.2340 C.3   1 <1>   0.1100 
 16 C       -9.7410     2.2650     0.5530 C.3   1 <1>   0.1100 
 17 C       -9.6620    -0.1790    -1.0190 C.3   1 <1>   0.2090 
 18 C      -10.6680     2.0910    -0.6690 C.3   1 <1>   0.2090 
 19 N      -10.8980     0.6540    -1.0060 N.pl3 1 <1>  -0.8380 
 20 C      -12.1040     0.0300    -0.6930 C.ar  1 <1>   0.1000 
 21 C      -12.6890    -0.8250    -1.6180 C.ar  1 <1>  -0.1500 
 22 C      -12.7460     0.2240     0.5270 C.ar  1 <1>  -0.1500 
 23 C      -13.8810    -1.4690    -1.3400 C.ar  1 <1>  -0.1500 
 24 C      -13.9390    -0.4170     0.8100 C.ar  1 <1>  -0.1500 
 25 C      -14.5090    -1.2650    -0.1230 C.ar  1 <1>  -0.1500 
 26 H       -1.2950    -1.0040     1.1030 H     1 <1>   0.3700 
 27 H       -2.8340     0.8510    -2.7910 H     1 <1>   0.0800 
 28 H       -3.7370     2.1880    -2.1190 H     1 <1>   0.0800 
 29 H       -4.5610     0.7050    -2.5760 H     1 <1>   0.0800 
 30 H       -6.1510     1.7390    -0.7000 H     1 <1>   0.2700 
 31 H       -7.5540     2.7400     1.8450 H     1 <1>   0.0800 
 32 H       -8.0400     1.1810     2.4620 H     1 <1>   0.0800 
 33 H       -9.3360    -0.3040     1.0920 H     1 <1>   0.0800 
 34 H       -7.8950    -0.5050     0.1410 H     1 <1>   0.0800 
 35 H       -9.5180     3.3120     0.6640 H     1 <1>   0.0800 
 36 H      -10.2670     1.9430     1.4350 H     1 <1>   0.0800 
 37 H       -9.9280    -1.2210    -1.0660 H     1 <1>   0.0800 
 38 H       -9.0880     0.0580    -1.8970 H     1 <1>   0.0800 
 39 H      -10.2220     2.5760    -1.5190 H     1 <1>   0.0800 
 40 H      -11.6120     2.5720    -0.4790 H     1 <1>   0.0800 
 41 H      -12.2000    -0.9730    -2.5630 H     1 <1>   0.1500 
 42 H      -12.3070     0.8730     1.2580 H     1 <1>   0.1500 
 43 H      -14.3200    -2.1260    -2.0700 H     1 <1>   0.1500 
 44 H      -14.4240    -0.2580     1.7570 H     1 <1>   0.1500 
 45 H      -15.4360    -1.7650     0.0950 H     1 <1>   0.1500 
@<TRIPOS>BOND
  1   1   2  2   
  2   2   3  am  
  3   2   4  am  
  4   3   5  1   
  5   3   6  1   
  6   4   7  am  
  7   4  26  1   
  8   5   8  1   
  9   5   9  2   
 10   6  27  1   
 11   6  28  1   
 12   6  29  1   
 13   7   9  1   
 14   7  10  2   
 15   8  11  1   
 16   8  30  1   
 17   9  12  1   
 18  11  12  2   
 19  11  13  1   
 20  13  14  1   
 21  13  31  1   
 22  13  32  1   
 23  14  15  1   
 24  14  16  1   
 25  15  17  1   
 26  15  33  1   
 27  15  34  1   
 28  16  18  1   
 29  16  35  1   
 30  16  36  1   
 31  17  19  1   
 32  17  37  1   
 33  17  38  1   
 34  18  19  1   
 35  18  39  1   
 36  18  40  1   
 37  19  20  1   
 38  20  21  ar  
 39  20  22  ar  
 40  21  23  ar  
 41  21  41  1   
 42  22  24  ar  
 43  22  42  1   
 44  23  25  ar  
 45  23  43  1   
 46  24  25  ar  
 47  24  44  1   
 48  25  45  1   
@<TRIPOS>SUBSTRUCTURE
  1 ****  15 GROUP 4 **** **** 0

# MOE 2024.06 (io_trps.svl 2023.06)
