@<TRIPOS>MOLECULE
NONAME
36 38 1 0 0 
SMALL
USER_CHARGES


@<TRIPOS>ATOM
  1 O       -1.1850     0.4230     0.4490 O.3   1 <1>  -0.6800 
  2 C       -1.7170     1.2550    -0.5280 C.3   1 <1>   0.3380 
  3 C       -3.1140     1.7620    -0.1060 C.2   1 <1>  -0.0380 
  4 C       -0.7930     2.4850    -0.7210 C.3   1 <1>  -0.0800 
  5 N       -3.1990     3.1560    -0.0990 N.pl3 1 <1>  -0.8380 
  6 C       -4.1000     0.8950     0.2320 C.2   1 <1>  -0.1780 
  7 C       -0.8230     3.3400     0.5720 C.3   1 <1>  -0.1600 
  8 C       -1.4360     3.3550    -1.8270 C.3   1 <1>  -0.1600 
  9 C       -2.2800     3.7250     0.9300 C.3   1 <1>   0.2090 
 10 C       -2.8780     3.7520    -1.4290 C.3   1 <1>   0.2090 
 11 C       -5.4660     1.0950     0.6540 C.ar  1 <1>   0.0280 
 12 C       -6.1550     2.3000     0.5130 C.ar  1 <1>  -0.1500 
 13 C       -6.1640     0.0340     1.2310 C.ar  1 <1>  -0.1500 
 14 C       -7.4680     2.4500     0.9250 C.ar  1 <1>  -0.1430 
 15 C       -7.4760     0.1670     1.6450 C.ar  1 <1>  -0.1500 
 16 C       -8.1300     1.3760     1.4930 C.ar  1 <1>  -0.1500 
 17 C       -8.1810     3.7790     0.7550 C.3   1 <1>  -0.0970 
 18 H       -0.2710     0.1890     0.2160 H     1 <1>   0.4000 
 19 H       -1.7950     0.6890    -1.4400 H     1 <1>   0.0800 
 20 H        0.2050     2.1930    -0.9940 H     1 <1>   0.0800 
 21 H       -3.8370    -0.1460     0.1960 H     1 <1>   0.1500 
 22 H       -0.2380     4.2330     0.4470 H     1 <1>   0.0800 
 23 H       -0.3980     2.7900     1.3930 H     1 <1>   0.0800 
 24 H       -1.4640     2.8140    -2.7560 H     1 <1>   0.0800 
 25 H       -0.8540     4.2440    -1.9900 H     1 <1>   0.0800 
 26 H       -2.3960     4.7940     0.9720 H     1 <1>   0.0800 
 27 H       -2.5430     3.3170     1.8930 H     1 <1>   0.0800 
 28 H       -3.5820     3.3820    -2.1560 H     1 <1>   0.0800 
 29 H       -2.9780     4.8230    -1.3790 H     1 <1>   0.0800 
 30 H       -5.6480     3.1340     0.0670 H     1 <1>   0.1500 
 31 H       -5.6670    -0.9100     1.3600 H     1 <1>   0.1500 
 32 H       -7.9880    -0.6690     2.0870 H     1 <1>   0.1500 
 33 H       -9.1510     1.4760     1.8160 H     1 <1>   0.1500 
 34 H       -8.7500     4.0090     1.6380 H     1 <1>   0.0800 
 35 H       -8.8460     3.7290    -0.0880 H     1 <1>   0.0800 
 36 H       -7.4720     4.5710     0.5920 H     1 <1>   0.0800 
@<TRIPOS>BOND
  1   1   2  1   
  2   1  18  1   
  3   2   3  1   
  4   2   4  1   
  5   2  19  1   
  6   3   5  1   
  7   3   6  2   
  8   4   7  1   
  9   4   8  1   
 10   4  20  1   
 11   5   9  1   
 12   5  10  1   
 13   6  11  1   
 14   6  21  1   
 15   7   9  1   
 16   7  22  1   
 17   7  23  1   
 18   8  10  1   
 19   8  24  1   
 20   8  25  1   
 21   9  26  1   
 22   9  27  1   
 23  10  28  1   
 24  10  29  1   
 25  11  12  ar  
 26  11  13  ar  
 27  12  14  ar  
 28  12  30  1   
 29  13  15  ar  
 30  13  31  1   
 31  14  16  ar  
 32  14  17  1   
 33  15  16  ar  
 34  15  32  1   
 35  16  33  1   
 36  17  34  1   
 37  17  35  1   
 38  17  36  1   
@<TRIPOS>SUBSTRUCTURE
  1 ****   3 GROUP 4 **** **** 0

# MOE 2024.06 (io_trps.svl 2023.06)
