@<TRIPOS>MOLECULE
NONAME
43 44 1 0 0 
SMALL
USER_CHARGES


@<TRIPOS>ATOM
  1 S       -0.4470    -0.5980     1.7820 S.o2  1 <1>   1.3720 
  2 O       -0.1240     0.1850     2.9570 O.2   1 <1>  -0.6500 
  3 O       -1.3230    -1.7470     1.9030 O.2   1 <1>  -0.6500 
  4 C       -1.1760     0.5130     0.5480 C.ar  1 <1>  -0.0090 
  5 C        1.0660    -1.0800     0.9460 C.2   1 <1>  -0.0630 
  6 C       -1.4200     0.0780    -0.7500 C.ar  1 <1>  -0.1500 
  7 C       -1.5060     1.8280     0.8630 C.ar  1 <1>  -0.1500 
  8 C        1.5070    -2.3100     0.5840 C.2   1 <1>  -0.0890 
  9 C        2.0650    -0.2320     0.4770 C.2   1 <1>   0.1080 
 10 C       -1.9610     0.9240    -1.7030 C.ar  1 <1>  -0.1500 
 11 C       -2.0480     2.6800    -0.0830 C.ar  1 <1>  -0.1500 
 12 O        0.8870    -3.5010     0.8150 O.3   1 <1>  -0.2130 
 13 N        2.6860    -2.1790    -0.0720 N.pl3 1 <1>   0.3140 
 14 N        3.0160    -0.8630    -0.1350 N.2   1 <1>  -0.7070 
 15 C        2.1000     1.2760     0.6260 C.3   1 <1>  -0.0590 
 16 C       -2.2740     2.2290    -1.3690 C.ar  1 <1>  -0.1500 
 17 C        0.7150    -3.9940     2.0410 C.2   1 <1>   0.6590 
 18 C        3.5600    -3.2740    -0.6530 C.3   1 <1>   0.2560 
 19 O        1.2340    -3.5140     3.0140 O.2   1 <1>  -0.5700 
 20 C       -0.1830    -5.2000     2.1430 C.3   1 <1>  -0.1790 
 21 C        4.8040    -2.6820    -1.3460 C.3   1 <1>  -0.2400 
 22 C        2.7740    -4.0800    -1.7020 C.3   1 <1>  -0.2400 
 23 C        4.0440    -4.2100     0.4690 C.3   1 <1>  -0.2400 
 24 H       -1.1850    -0.9370    -1.0240 H     1 <1>   0.1500 
 25 H       -1.3370     2.1920     1.8640 H     1 <1>   0.1500 
 26 H       -2.1390     0.5680    -2.7030 H     1 <1>   0.1500 
 27 H       -2.2940     3.6950     0.1830 H     1 <1>   0.1500 
 28 H        1.7920     1.5660     1.6130 H     1 <1>   0.0800 
 29 H        1.4560     1.7320    -0.1030 H     1 <1>   0.0800 
 30 H        3.1030     1.6300     0.4660 H     1 <1>   0.0800 
 31 H       -2.6950     2.8890    -2.1080 H     1 <1>   0.1500 
 32 H       -1.1740    -4.9300     1.8300 H     1 <1>   0.0800 
 33 H       -0.2170    -5.5410     3.1610 H     1 <1>   0.0800 
 34 H        0.1920    -5.9870     1.5160 H     1 <1>   0.0800 
 35 H        4.5110    -2.0240    -2.1440 H     1 <1>   0.0800 
 36 H        5.4190    -3.4610    -1.7580 H     1 <1>   0.0800 
 37 H        5.3960    -2.1250    -0.6400 H     1 <1>   0.0800 
 38 H        2.4140    -3.4260    -2.4770 H     1 <1>   0.0800 
 39 H        1.9390    -4.5890    -1.2590 H     1 <1>   0.0800 
 40 H        3.4080    -4.8210    -2.1550 H     1 <1>   0.0800 
 41 H        4.5590    -3.6440     1.2260 H     1 <1>   0.0800 
 42 H        4.7230    -4.9450     0.0770 H     1 <1>   0.0800 
 43 H        3.2230    -4.7300     0.9250 H     1 <1>   0.0800 
@<TRIPOS>BOND
  1   1   2  2   
  2   1   3  2   
  3   1   4  1   
  4   1   5  1   
  5   4   6  ar  
  6   4   7  ar  
  7   5   8  2   
  8   5   9  1   
  9   6  10  ar  
 10   6  24  1   
 11   7  11  ar  
 12   7  25  1   
 13   8  12  1   
 14   8  13  1   
 15   9  14  2   
 16   9  15  1   
 17  10  16  ar  
 18  10  26  1   
 19  11  16  ar  
 20  11  27  1   
 21  12  17  1   
 22  13  14  1   
 23  13  18  1   
 24  15  28  1   
 25  15  29  1   
 26  15  30  1   
 27  16  31  1   
 28  17  19  2   
 29  17  20  1   
 30  18  21  1   
 31  18  22  1   
 32  18  23  1   
 33  20  32  1   
 34  20  33  1   
 35  20  34  1   
 36  21  35  1   
 37  21  36  1   
 38  21  37  1   
 39  22  38  1   
 40  22  39  1   
 41  22  40  1   
 42  23  41  1   
 43  23  42  1   
 44  23  43  1   
@<TRIPOS>SUBSTRUCTURE
  1 ****   5 GROUP 4 **** **** 0

# MOE 2024.06 (io_trps.svl 2023.06)
