@<TRIPOS>MOLECULE
NONAME
50 51 1 0 0 
SMALL
USER_CHARGES


@<TRIPOS>ATOM
  1 BR       0.3090    -0.0830     2.0190 Br    1 <1>  -0.1110 
  2 C        1.7590    -0.8160     0.9770 C.ar  1 <1>   0.1110 
  3 C        1.6210    -2.0570     0.3680 C.ar  1 <1>   0.0820 
  4 C        2.9190    -0.0760     0.8720 C.ar  1 <1>  -0.1500 
  5 O        0.4970    -2.7890     0.4750 O.3   1 <1>  -0.3630 
  6 C        2.6910    -2.5580    -0.3540 C.ar  1 <1>  -0.1500 
  7 C        4.0060    -0.5700     0.1480 C.ar  1 <1>   0.0860 
  8 C       -0.5520    -2.4770    -0.4110 C.3   1 <1>   0.1200 
  9 C        3.8590    -1.8210    -0.4650 C.ar  1 <1>  -0.1500 
 10 C        5.2310     0.1980     0.0480 C.2   1 <1>   0.5440 
 11 C       -1.7300    -3.3910    -0.0900 C.3   1 <1>  -0.2400 
 12 O        5.1840     1.4090    -0.0180 O.2   1 <1>  -0.5700 
 13 N        6.4450    -0.4510     0.0340 N.am  1 <1>  -0.5470 
 14 C        7.7550     0.0550    -0.0330 C.ar  1 <1>   0.1170 
 15 C        8.7420    -0.7130    -0.6370 C.ar  1 <1>  -0.1500 
 16 C        8.1120     1.2860     0.5020 C.ar  1 <1>  -0.1500 
 17 C       10.0570    -0.2640    -0.7090 C.ar  1 <1>   0.0830 
 18 C        9.4160     1.7400     0.4370 C.ar  1 <1>  -0.1500 
 19 O       11.0560    -0.9870    -1.3030 O.3   1 <1>  -0.3630 
 20 C       10.4080     0.9750    -0.1630 C.ar  1 <1>   0.1170 
 21 C       10.7940    -2.2160    -1.9470 C.3   1 <1>   0.0400 
 22 N       11.7540     1.3830    -0.2590 N.am  1 <1>  -0.5470 
 23 C       12.4520     2.4450     0.2430 C.2   1 <1>   0.5690 
 24 O       11.9600     3.3010     0.9400 O.2   1 <1>  -0.5700 
 25 C       13.9430     2.5360    -0.1020 C.3   1 <1>  -0.0190 
 26 C       14.8200     2.4320     1.1560 C.3   1 <1>  -0.2400 
 27 C       14.2680     3.8310    -0.8660 C.3   1 <1>  -0.2400 
 28 H        2.9880     0.8850     1.3510 H     1 <1>   0.1500 
 29 H        2.5980    -3.5200    -0.8260 H     1 <1>   0.1500 
 30 H       -0.2050    -2.6360    -1.4180 H     1 <1>   0.0800 
 31 H       -0.8230    -1.4440    -0.2780 H     1 <1>   0.0800 
 32 H        4.6680    -2.2250    -1.0480 H     1 <1>   0.1500 
 33 H       -1.4460    -4.4200    -0.2140 H     1 <1>   0.0800 
 34 H       -2.5490    -3.1770    -0.7530 H     1 <1>   0.0800 
 35 H       -2.0570    -3.2280     0.9220 H     1 <1>   0.0800 
 36 H        6.3860    -1.4650     0.1030 H     1 <1>   0.3700 
 37 H        8.4600    -1.6600    -1.0500 H     1 <1>   0.1500 
 38 H        7.3690     1.9010     0.9780 H     1 <1>   0.1500 
 39 H        9.6500     2.6990     0.8600 H     1 <1>   0.1500 
 40 H       11.7170    -2.5800    -2.3610 H     1 <1>   0.0800 
 41 H       10.0800    -2.0530    -2.7350 H     1 <1>   0.0800 
 42 H       10.4190    -2.9170    -1.2220 H     1 <1>   0.0800 
 43 H       12.3030     0.7100    -0.7940 H     1 <1>   0.3700 
 44 H       14.1920     1.7090    -0.7440 H     1 <1>   0.0800 
 45 H       14.6130     3.2530     1.8220 H     1 <1>   0.0800 
 46 H       15.8630     2.4530     0.8940 H     1 <1>   0.0800 
 47 H       14.6130     1.5140     1.6770 H     1 <1>   0.0800 
 48 H       14.0510     4.6890    -0.2520 H     1 <1>   0.0800 
 49 H       13.6710     3.8930    -1.7580 H     1 <1>   0.0800 
 50 H       15.3070     3.8570    -1.1430 H     1 <1>   0.0800 
@<TRIPOS>BOND
  1   1   2  1   
  2   2   3  ar  
  3   2   4  ar  
  4   3   5  1   
  5   3   6  ar  
  6   4   7  ar  
  7   4  28  1   
  8   5   8  1   
  9   6   9  ar  
 10   6  29  1   
 11   7   9  ar  
 12   7  10  1   
 13   8  11  1   
 14   8  30  1   
 15   8  31  1   
 16   9  32  1   
 17  10  12  2   
 18  10  13  am  
 19  11  33  1   
 20  11  34  1   
 21  11  35  1   
 22  13  14  1   
 23  13  36  1   
 24  14  15  ar  
 25  14  16  ar  
 26  15  17  ar  
 27  15  37  1   
 28  16  18  ar  
 29  16  38  1   
 30  17  19  1   
 31  17  20  ar  
 32  18  20  ar  
 33  18  39  1   
 34  19  21  1   
 35  20  22  1   
 36  21  40  1   
 37  21  41  1   
 38  21  42  1   
 39  22  23  am  
 40  22  43  1   
 41  23  24  2   
 42  23  25  1   
 43  25  26  1   
 44  25  27  1   
 45  25  44  1   
 46  26  45  1   
 47  26  46  1   
 48  26  47  1   
 49  27  48  1   
 50  27  49  1   
 51  27  50  1   
@<TRIPOS>SUBSTRUCTURE
  1 ****  13 GROUP 4 **** **** 0

# MOE 2024.06 (io_trps.svl 2023.06)
