@<TRIPOS>MOLECULE
NONAME
40 41 1 0 0 
SMALL
USER_CHARGES


@<TRIPOS>ATOM
  1 O       -0.0630     0.4680    -0.7230 O.2   1 <1>  -0.5700 
  2 C        0.0210     1.6210    -0.3430 C.2   1 <1>   0.5440 
  3 N       -1.1140     2.2500     0.1250 N.am  1 <1>  -0.6600 
  4 C        1.3070     2.2870    -0.3850 C.ar  1 <1>   0.0860 
  5 C       -2.4690     1.6380    -0.0130 C.3   1 <1>   0.1400 
  6 C       -1.1230     3.5060     0.9320 C.3   1 <1>   0.1400 
  7 C        2.4140     1.7480     0.2710 C.ar  1 <1>  -0.1500 
  8 C        1.4900     3.4790    -1.0870 C.ar  1 <1>  -0.1500 
  9 C       -3.4960     2.6950    -0.4540 C.3   1 <1>   0.1200 
 10 C       -2.2190     4.4600     0.4270 C.3   1 <1>   0.1200 
 11 C        3.6450     2.3770     0.2490 C.ar  1 <1>  -0.1500 
 12 C        2.7170     4.1150    -1.1120 C.ar  1 <1>  -0.1500 
 13 O       -3.4600     3.8120     0.3910 O.3   1 <1>  -0.5600 
 14 C        3.8030     3.5740    -0.4440 C.ar  1 <1>   0.0830 
 15 O        4.9670     4.2560    -0.5150 O.3   1 <1>  -0.3630 
 16 C        6.1480     3.7810     0.0950 C.3   1 <1>   0.1200 
 17 C        7.2930     4.7730    -0.1640 C.3   1 <1>  -0.0800 
 18 C        8.6040     4.2300     0.4180 C.3   1 <1>  -0.2400 
 19 C        6.9940     6.1560     0.4320 C.3   1 <1>  -0.2400 
 20 H       -2.7680     1.2210     0.9320 H     1 <1>   0.0800 
 21 H       -2.4510     0.8410    -0.7370 H     1 <1>   0.0800 
 22 H       -0.1700     4.0010     0.8940 H     1 <1>   0.0800 
 23 H       -1.3240     3.2600     1.9600 H     1 <1>   0.0800 
 24 H        2.2940     0.8190     0.8000 H     1 <1>   0.1500 
 25 H        0.6570     3.9040    -1.6180 H     1 <1>   0.1500 
 26 H       -4.4890     2.2850    -0.4150 H     1 <1>   0.0800 
 27 H       -3.2940     3.0170    -1.4610 H     1 <1>   0.0800 
 28 H       -1.9870     4.8160    -0.5620 H     1 <1>   0.0800 
 29 H       -2.3100     5.3040     1.0870 H     1 <1>   0.0800 
 30 H        4.4660     1.9230     0.7720 H     1 <1>   0.1500 
 31 H        2.8460     5.0350    -1.6540 H     1 <1>   0.1500 
 32 H        6.3800     2.8200    -0.3310 H     1 <1>   0.0800 
 33 H        5.9680     3.6830     1.1510 H     1 <1>   0.0800 
 34 H        7.4140     4.8710    -1.2300 H     1 <1>   0.0800 
 35 H        8.5280     4.1150     1.4850 H     1 <1>   0.0800 
 36 H        9.4130     4.9060     0.2030 H     1 <1>   0.0800 
 37 H        8.8410     3.2750    -0.0170 H     1 <1>   0.0800 
 38 H        6.8540     6.0890     1.4970 H     1 <1>   0.0800 
 39 H        6.1010     6.5670    -0.0040 H     1 <1>   0.0800 
 40 H        7.8060     6.8330     0.2330 H     1 <1>   0.0800 
@<TRIPOS>BOND
  1   1   2  2   
  2   2   3  am  
  3   2   4  1   
  4   3   5  1   
  5   3   6  1   
  6   4   7  ar  
  7   4   8  ar  
  8   5   9  1   
  9   5  20  1   
 10   5  21  1   
 11   6  10  1   
 12   6  22  1   
 13   6  23  1   
 14   7  11  ar  
 15   7  24  1   
 16   8  12  ar  
 17   8  25  1   
 18   9  13  1   
 19   9  26  1   
 20   9  27  1   
 21  10  13  1   
 22  10  28  1   
 23  10  29  1   
 24  11  14  ar  
 25  11  30  1   
 26  12  14  ar  
 27  12  31  1   
 28  14  15  1   
 29  15  16  1   
 30  16  17  1   
 31  16  32  1   
 32  16  33  1   
 33  17  18  1   
 34  17  19  1   
 35  17  34  1   
 36  18  35  1   
 37  18  36  1   
 38  18  37  1   
 39  19  38  1   
 40  19  39  1   
 41  19  40  1   
@<TRIPOS>SUBSTRUCTURE
  1 ****   8 GROUP 4 **** **** 0

# MOE 2024.06 (io_trps.svl 2023.06)
