@<TRIPOS>MOLECULE
NONAME
42 44 1 0 0 
SMALL
USER_CHARGES


@<TRIPOS>ATOM
  1 O       -1.4240     1.9730    -2.0770 O.2   1 <1>  -0.5700 
  2 C       -1.3330     2.3410    -0.9310 C.2   1 <1>   0.5690 
  3 N       -2.1350     1.9640     0.0890 N.am  1 <1>  -0.6600 
  4 C       -0.2820     3.3040    -0.4540 C.3   1 <1>  -0.0990 
  5 C       -1.7670     2.5830     1.3720 C.3   1 <1>   0.1400 
  6 C       -3.2370     0.9850    -0.0110 C.3   1 <1>   0.1400 
  7 C       -0.7110     3.6310     0.9870 C.3   1 <1>  -0.1600 
  8 C       -4.5690     1.7260    -0.1180 C.3   1 <1>  -0.1600 
  9 C       -5.7180     0.7390    -0.3000 C.3   1 <1>   0.1400 
 10 N       -6.9900     1.4900    -0.3570 N.am  1 <1>  -0.7300 
 11 C       -7.9750     1.4610     0.5920 C.2   1 <1>   0.5440 
 12 O       -7.8240     0.7440     1.5620 O.2   1 <1>  -0.5700 
 13 C       -9.1790     2.2600     0.4390 C.ar  1 <1>   0.0860 
 14 C       -9.2040     3.4170    -0.3460 C.ar  1 <1>  -0.1500 
 15 C      -10.3670     1.8940     1.0790 C.ar  1 <1>  -0.1500 
 16 C      -10.3600     4.1580    -0.4960 C.ar  1 <1>   0.0820 
 17 C      -11.5280     2.6340     0.9430 C.ar  1 <1>  -0.1500 
 18 O      -10.3320     5.2580    -1.2910 O.3   1 <1>  -0.3620 
 19 C      -11.5310     3.7730     0.1590 C.ar  1 <1>   0.0820 
 20 C      -11.5820     5.7990    -1.6810 C.3   1 <1>   0.1200 
 21 O      -12.6680     4.4970     0.0480 O.3   1 <1>  -0.3630 
 22 C      -12.5570     5.7990    -0.4960 C.3   1 <1>   0.1200 
 23 H       -0.2620     4.1790    -1.0770 H     1 <1>   0.0800 
 24 H        0.6740     2.8130    -0.4750 H     1 <1>   0.0800 
 25 H       -1.3490     1.8360     2.0250 H     1 <1>   0.0800 
 26 H       -2.6230     3.0410     1.8360 H     1 <1>   0.0800 
 27 H       -3.2290     0.3430     0.8530 H     1 <1>   0.0800 
 28 H       -3.0870     0.3770    -0.8880 H     1 <1>   0.0800 
 29 H       -1.1640     4.6070     1.0180 H     1 <1>   0.0800 
 30 H        0.1210     3.6160     1.6680 H     1 <1>   0.0800 
 31 H       -4.5320     2.3900    -0.9640 H     1 <1>   0.0800 
 32 H       -4.7340     2.2940     0.7790 H     1 <1>   0.0800 
 33 H       -5.7380     0.0420     0.5220 H     1 <1>   0.0800 
 34 H       -5.5940     0.1810    -1.2130 H     1 <1>   0.0800 
 35 H       -7.1300     2.0490    -1.2000 H     1 <1>   0.3700 
 36 H       -8.3170     3.7540    -0.8460 H     1 <1>   0.1500 
 37 H      -10.3720     1.0100     1.6950 H     1 <1>   0.1500 
 38 H      -12.4320     2.3370     1.4450 H     1 <1>   0.1500 
 39 H      -11.9710     5.1980    -2.4840 H     1 <1>   0.0800 
 40 H      -11.4140     6.7990    -2.0380 H     1 <1>   0.0800 
 41 H      -13.5370     6.1130    -0.8060 H     1 <1>   0.0800 
 42 H      -12.2040     6.4550     0.2790 H     1 <1>   0.0800 
@<TRIPOS>BOND
  1   1   2  2   
  2   2   3  am  
  3   2   4  1   
  4   3   5  1   
  5   3   6  1   
  6   4   7  1   
  7   4  23  1   
  8   4  24  1   
  9   5   7  1   
 10   5  25  1   
 11   5  26  1   
 12   6   8  1   
 13   6  27  1   
 14   6  28  1   
 15   7  29  1   
 16   7  30  1   
 17   8   9  1   
 18   8  31  1   
 19   8  32  1   
 20   9  10  1   
 21   9  33  1   
 22   9  34  1   
 23  10  11  am  
 24  10  35  1   
 25  11  12  2   
 26  11  13  1   
 27  13  14  ar  
 28  13  15  ar  
 29  14  16  ar  
 30  14  36  1   
 31  15  17  ar  
 32  15  37  1   
 33  16  18  1   
 34  16  19  ar  
 35  17  19  ar  
 36  17  38  1   
 37  18  20  1   
 38  19  21  1   
 39  20  22  1   
 40  20  39  1   
 41  20  40  1   
 42  21  22  1   
 43  22  41  1   
 44  22  42  1   
@<TRIPOS>SUBSTRUCTURE
  1 ****  10 GROUP 4 **** **** 0

# MOE 2024.06 (io_trps.svl 2023.06)
