@<TRIPOS>MOLECULE
NONAME
43 44 1 0 0 
SMALL
USER_CHARGES


@<TRIPOS>ATOM
  1 O       -0.3240    -0.3370    -0.2160 O.3   1 <1>  -0.3630 
  2 C       -1.5330    -0.8240    -0.6050 C.ar  1 <1>   0.0830 
  3 C       -0.3620     0.5570     0.8730 C.3   1 <1>   0.0400 
  4 C       -2.3670    -0.0620    -1.4310 C.ar  1 <1>   0.0830 
  5 C       -1.9760    -2.0750    -0.1580 C.ar  1 <1>   0.0830 
  6 O       -2.0270     1.1480    -1.9460 O.3   1 <1>  -0.3630 
  7 C       -3.6330    -0.5210    -1.7540 C.ar  1 <1>  -0.1500 
  8 O       -1.2560    -2.9260     0.6220 O.3   1 <1>  -0.3630 
  9 C       -3.2450    -2.5160    -0.4950 C.ar  1 <1>  -0.1500 
 10 C       -0.8030     1.2610    -2.6430 C.3   1 <1>   0.0400 
 11 C       -4.0850    -1.7430    -1.2810 C.ar  1 <1>  -0.1430 
 12 C        0.1280    -3.0920     0.3950 C.3   1 <1>   0.0400 
 13 C       -5.4830    -2.2250    -1.6120 C.3   1 <1>   0.4860 
 14 N       -6.3270    -2.0840    -0.3950 N.4   1 <1>  -0.9590 
 15 C       -7.6350    -2.7780    -0.5530 C.3   1 <1>   0.3430 
 16 C       -6.4890    -0.6520     0.0010 C.3   1 <1>   0.3430 
 17 C       -8.4040    -2.7330     0.7690 C.3   1 <1>  -0.1600 
 18 C       -7.2400    -0.5690     1.3300 C.3   1 <1>  -0.1600 
 19 C       -8.5900    -1.2950     1.2700 C.3   1 <1>  -0.1600 
 20 H        0.6450     0.8640     1.0920 H     1 <1>   0.0800 
 21 H       -0.9580     1.4110     0.6050 H     1 <1>   0.0800 
 22 H       -0.7870     0.0510     1.7220 H     1 <1>   0.0800 
 23 H       -4.2490     0.1000    -2.3810 H     1 <1>   0.1500 
 24 H       -3.5530    -3.4790    -0.1260 H     1 <1>   0.1500 
 25 H       -0.8630     2.1160    -3.2910 H     1 <1>   0.0800 
 26 H       -0.6410     0.3700    -3.2230 H     1 <1>   0.0800 
 27 H       -0.0050     1.4010    -1.9370 H     1 <1>   0.0800 
 28 H        0.6630    -2.3110     0.9050 H     1 <1>   0.0800 
 29 H        0.4210    -4.0480     0.7920 H     1 <1>   0.0800 
 30 H        0.3220    -3.0570    -0.6620 H     1 <1>   0.0800 
 31 H       -5.4370    -3.2580    -1.9150 H     1 <1>   0.0800 
 32 H       -5.8930    -1.6460    -2.4230 H     1 <1>   0.0800 
 33 H       -5.8130    -2.5380     0.3700 H     1 <1>   0.4500 
 34 H       -7.4790    -3.8060    -0.8400 H     1 <1>   0.0800 
 35 H       -8.2160    -2.2930    -1.3210 H     1 <1>   0.0800 
 36 H       -7.0400    -0.1220    -0.7590 H     1 <1>   0.0800 
 37 H       -5.5230    -0.1840     0.1090 H     1 <1>   0.0800 
 38 H       -7.8800    -3.3140     1.5080 H     1 <1>   0.0800 
 39 H       -9.3700    -3.1880     0.6300 H     1 <1>   0.0800 
 40 H       -7.4030     0.4670     1.5770 H     1 <1>   0.0800 
 41 H       -6.6290    -0.9900     2.1110 H     1 <1>   0.0800 
 42 H       -9.0440    -1.3030     2.2480 H     1 <1>   0.0800 
 43 H       -9.2530    -0.7650     0.6070 H     1 <1>   0.0800 
@<TRIPOS>BOND
  1   1   2  1   
  2   1   3  1   
  3   2   4  ar  
  4   2   5  ar  
  5   3  20  1   
  6   3  21  1   
  7   3  22  1   
  8   4   6  1   
  9   4   7  ar  
 10   5   8  1   
 11   5   9  ar  
 12   6  10  1   
 13   7  11  ar  
 14   7  23  1   
 15   8  12  1   
 16   9  11  ar  
 17   9  24  1   
 18  10  25  1   
 19  10  26  1   
 20  10  27  1   
 21  11  13  1   
 22  12  28  1   
 23  12  29  1   
 24  12  30  1   
 25  13  14  1   
 26  13  31  1   
 27  13  32  1   
 28  14  15  1   
 29  14  16  1   
 30  14  33  1   
 31  15  17  1   
 32  15  34  1   
 33  15  35  1   
 34  16  18  1   
 35  16  36  1   
 36  16  37  1   
 37  17  19  1   
 38  17  38  1   
 39  17  39  1   
 40  18  19  1   
 41  18  40  1   
 42  18  41  1   
 43  19  42  1   
 44  19  43  1   
@<TRIPOS>SUBSTRUCTURE
  1 ****  11 GROUP 4 **** **** 0

# MOE 2024.06 (io_trps.svl 2023.06)
