@<TRIPOS>MOLECULE
NONAME
39 42 1 0 0 
SMALL
USER_CHARGES


@<TRIPOS>ATOM
  1 O        0.6340    -0.3350    -2.1640 O.2   1 <1>  -0.5700 
  2 C        0.9870    -1.0610    -1.2660 C.2   1 <1>   0.6590 
  3 O        0.1440    -1.8820    -0.6590 O.3   1 <1>  -0.4300 
  4 C        2.4260    -1.0430    -0.7560 C.3   1 <1>  -0.0190 
  5 C       -1.0850    -2.2550    -1.2400 C.3   1 <1>   0.2000 
  6 C        3.2220    -2.3940    -0.7910 C.3   1 <1>  -0.1860 
  7 C        2.5200    -0.6280     0.7300 C.3   1 <1>   0.0580 
  8 C       -2.2810    -1.2330    -0.7850 C.3   1 <1>  -0.0800 
  9 C       -1.4760    -3.7770    -0.6840 C.3   1 <1>  -0.1600 
 10 C        2.4320    -3.5910    -1.3020 C.2   1 <1>   0.9060 
 11 C        3.7070    -2.5440     0.6680 C.3   1 <1>   0.0580 
 12 C        3.9770    -0.2720     0.9680 C.2   1 <1>  -0.2880 
 13 C        2.5110    -1.9850     1.4310 C.3   1 <1>  -0.1600 
 14 C       -2.6490    -2.4690    -0.4210 C.3   1 <1>  -0.1600 
 15 C       -3.7910    -1.1620    -0.1590 C.3   1 <1>  -0.1600 
 16 C       -2.9820    -3.7090    -0.0470 C.3   1 <1>  -0.0800 
 17 O        2.1580    -4.5270    -0.5420 O.co2 1 <1>  -0.9000 
 18 O        2.1030    -3.5980    -2.4910 O.co2 1 <1>  -0.9000 
 19 C        4.6780    -1.4030     0.9240 C.2   1 <1>  -0.2880 
 20 C       -4.1830    -2.6920     0.3990 C.3   1 <1>  -0.1600 
 21 H        2.9520    -0.3200    -1.3520 H     1 <1>   0.0800 
 22 H       -0.9620    -2.2740    -2.3130 H     1 <1>   0.0800 
 23 H        4.0710    -2.2980    -1.4400 H     1 <1>   0.0800 
 24 H        1.7970     0.0840     1.0880 H     1 <1>   0.0800 
 25 H       -1.7520    -0.5730    -0.1120 H     1 <1>   0.0800 
 26 H       -0.7570    -4.0960     0.0560 H     1 <1>   0.0800 
 27 H       -1.4290    -4.4810    -1.4990 H     1 <1>   0.0800 
 28 H        4.0330    -3.5230     0.9770 H     1 <1>   0.0800 
 29 H        4.2810     0.7500     1.1090 H     1 <1>   0.1500 
 30 H        1.6150    -2.5610     1.2730 H     1 <1>   0.0800 
 31 H        2.7090    -1.9030     2.4860 H     1 <1>   0.0800 
 32 H       -2.1430    -2.2940     0.6310 H     1 <1>   0.0800 
 33 H       -3.1300    -2.6530    -1.4790 H     1 <1>   0.0800 
 34 H       -4.4920    -0.8510    -0.9180 H     1 <1>   0.0800 
 35 H       -3.8410    -0.4440     0.6450 H     1 <1>   0.0800 
 36 H       -3.5140    -4.3750    -0.7140 H     1 <1>   0.0800 
 37 H        5.7320    -1.5950     1.0170 H     1 <1>   0.1500 
 38 H       -5.1310    -3.0100    -0.0070 H     1 <1>   0.0800 
 39 H       -4.2770    -2.6830     1.4750 H     1 <1>   0.0800 
@<TRIPOS>BOND
  1   1   2  2   
  2   2   3  1   
  3   2   4  1   
  4   3   5  1   
  5   4   6  1   
  6   4   7  1   
  7   4  21  1   
  8   5   8  1   
  9   5   9  1   
 10   5  22  1   
 11   6  10  1   
 12   6  11  1   
 13   6  23  1   
 14   7  12  1   
 15   7  13  1   
 16   7  24  1   
 17   8  14  1   
 18   8  15  1   
 19   8  25  1   
 20   9  16  1   
 21   9  26  1   
 22   9  27  1   
 23  10  17  ar  
 24  10  18  ar  
 25  11  13  1   
 26  11  19  1   
 27  11  28  1   
 28  12  19  2   
 29  12  29  1   
 30  13  30  1   
 31  13  31  1   
 32  14  16  1   
 33  14  32  1   
 34  14  33  1   
 35  15  20  1   
 36  15  34  1   
 37  15  35  1   
 38  16  20  1   
 39  16  36  1   
 40  19  37  1   
 41  20  38  1   
 42  20  39  1   
@<TRIPOS>SUBSTRUCTURE
  1 ****   3 GROUP 4 **** **** 0

# MOE 2024.06 (io_trps.svl 2023.06)
