@<TRIPOS>MOLECULE
NONAME
49 50 1 0 0 
SMALL
USER_CHARGES


@<TRIPOS>ATOM
  1 S        0.5330     0.3560    -0.8820 S.o2  1 <1>   1.3330 
  2 O        1.8890     0.4580    -1.3590 O.2   1 <1>  -0.6500 
  3 O       -0.5600     0.3810    -1.8230 O.2   1 <1>  -0.6500 
  4 N        0.2680     1.6440     0.2530 N.am  1 <1>  -0.6930 
  5 C        0.3280    -1.1160     0.1000 C.3   1 <1>  -0.1350 
  6 C       -0.4670     2.7820    -0.0820 C.ar  1 <1>   0.1990 
  7 C        1.0800     1.6820     1.5150 C.3   1 <1>   0.2570 
  8 C       -1.3440     3.3520     0.8370 C.ar  1 <1>  -0.1500 
  9 C       -0.3280     3.3940    -1.3240 C.ar  1 <1>  -0.1500 
 10 C        2.5590     1.2900     1.4020 C.2   1 <1>   0.5690 
 11 C       -2.0490     4.5060     0.5400 C.ar  1 <1>  -0.1440 
 12 C       -1.0300     4.5440    -1.6320 C.ar  1 <1>  -0.1500 
 13 O        2.8980     0.2230     1.8520 O.2   1 <1>  -0.5700 
 14 N        3.4860     2.1130     0.8550 N.am  1 <1>  -0.7300 
 15 C       -1.8880     5.1010    -0.7000 C.ar  1 <1>  -0.1500 
 16 C       -3.0010     5.1190     1.5510 C.3   1 <1>  -0.0970 
 17 C        3.2590     3.3430     0.0770 C.3   1 <1>   0.2200 
 18 C        4.0280     3.2150    -1.2440 C.3   1 <1>  -0.1600 
 19 C        3.7420     4.5260     0.9260 C.3   1 <1>  -0.1600 
 20 C        3.4440     4.0340    -2.4070 C.3   1 <1>  -0.1600 
 21 C        3.2980     5.9040     0.4140 C.3   1 <1>  -0.1600 
 22 C        2.8820     5.4220    -2.0600 C.3   1 <1>  -0.1600 
 23 C        3.7040     6.2150    -1.0350 C.3   1 <1>  -0.1600 
 24 H        0.4000    -1.9820    -0.5280 H     1 <1>   0.0800 
 25 H       -0.6340    -1.1150     0.5710 H     1 <1>   0.0800 
 26 H        1.0870    -1.1850     0.8520 H     1 <1>   0.0800 
 27 H        0.6210     1.0240     2.2310 H     1 <1>   0.0800 
 28 H        1.0460     2.6730     1.9290 H     1 <1>   0.0800 
 29 H       -1.4760     2.8790     1.7910 H     1 <1>   0.1500 
 30 H        0.3360     2.9690    -2.0550 H     1 <1>   0.1500 
 31 H       -0.9120     5.0030    -2.5980 H     1 <1>   0.1500 
 32 H        4.4310     1.7340     0.7930 H     1 <1>   0.3700 
 33 H       -2.4320     5.9960    -0.9470 H     1 <1>   0.1500 
 34 H       -2.8730     4.6740     2.5210 H     1 <1>   0.0800 
 35 H       -4.0170     4.9650     1.2330 H     1 <1>   0.0800 
 36 H       -2.8200     6.1760     1.6350 H     1 <1>   0.0800 
 37 H        2.2090     3.4460    -0.1310 H     1 <1>   0.0800 
 38 H        4.0280     2.1840    -1.5570 H     1 <1>   0.0800 
 39 H        5.0530     3.5020    -1.0910 H     1 <1>   0.0800 
 40 H        4.8150     4.5050     0.9930 H     1 <1>   0.0800 
 41 H        3.3530     4.4140     1.9230 H     1 <1>   0.0800 
 42 H        2.6560     3.4620    -2.8660 H     1 <1>   0.0800 
 43 H        4.2160     4.1480    -3.1490 H     1 <1>   0.0800 
 44 H        3.7340     6.6520     1.0540 H     1 <1>   0.0800 
 45 H        2.2290     5.9920     0.5110 H     1 <1>   0.0800 
 46 H        1.8700     5.3220    -1.7060 H     1 <1>   0.0800 
 47 H        2.8310     5.9900    -2.9730 H     1 <1>   0.0800 
 48 H        4.7580     6.0530    -1.1820 H     1 <1>   0.0800 
 49 H        3.5170     7.2620    -1.2040 H     1 <1>   0.0800 
@<TRIPOS>BOND
  1   1   2  2   
  2   1   3  2   
  3   1   4  am  
  4   1   5  1   
  5   4   6  1   
  6   4   7  1   
  7   5  24  1   
  8   5  25  1   
  9   5  26  1   
 10   6   8  ar  
 11   6   9  ar  
 12   7  10  1   
 13   7  27  1   
 14   7  28  1   
 15   8  11  ar  
 16   8  29  1   
 17   9  12  ar  
 18   9  30  1   
 19  10  13  2   
 20  10  14  am  
 21  11  15  ar  
 22  11  16  1   
 23  12  15  ar  
 24  12  31  1   
 25  14  17  1   
 26  14  32  1   
 27  15  33  1   
 28  16  34  1   
 29  16  35  1   
 30  16  36  1   
 31  17  18  1   
 32  17  19  1   
 33  17  37  1   
 34  18  20  1   
 35  18  38  1   
 36  18  39  1   
 37  19  21  1   
 38  19  40  1   
 39  19  41  1   
 40  20  22  1   
 41  20  42  1   
 42  20  43  1   
 43  21  23  1   
 44  21  44  1   
 45  21  45  1   
 46  22  23  1   
 47  22  46  1   
 48  22  47  1   
 49  23  48  1   
 50  23  49  1   
@<TRIPOS>SUBSTRUCTURE
  1 ****   6 GROUP 4 **** **** 0

# MOE 2024.06 (io_trps.svl 2023.06)
