@<TRIPOS>MOLECULE
NONAME
39 40 1 0 0 
SMALL
USER_CHARGES


@<TRIPOS>ATOM
  1 S        4.0900    -1.7620    -1.6350 S.3   1 <1>  -0.0800 
  2 C        2.8220    -1.4460    -0.4580 C.2   1 <1>  -0.1400 
  3 C        3.3800    -3.3110    -2.0510 C.2   1 <1>  -0.1100 
  4 C        1.9490    -2.4700    -0.4220 C.2   1 <1>  -0.1500 
  5 C        2.8930    -0.1400     0.3080 C.3   1 <1>   0.3200 
  6 C        2.2660    -3.5320    -1.3290 C.2   1 <1>  -0.1500 
  7 N        4.0980    -0.1630     1.1450 N.am  1 <1>  -0.7300 
  8 C        4.7340     0.9390     1.6150 C.2   1 <1>   0.5690 
  9 O        4.2450     2.0390     1.5020 O.2   1 <1>  -0.5700 
 10 C        6.1080     0.7970     2.2930 C.3   1 <1>   0.2610 
 11 O        6.7630    -0.4040     1.8940 O.3   1 <1>  -0.3630 
 12 C        5.9780     0.7810     3.8260 C.3   1 <1>  -0.1600 
 13 C        7.1740    -0.6180     0.6180 C.ar  1 <1>   0.0830 
 14 C        7.3320     0.6960     4.5480 C.3   1 <1>  -0.2400 
 15 C        7.6050    -1.9000     0.3140 C.ar  1 <1>  -0.1500 
 16 C        7.1700     0.3570    -0.3760 C.ar  1 <1>  -0.1500 
 17 C        8.0230    -2.2230    -0.9660 C.ar  1 <1>  -0.1430 
 18 C        7.5860     0.0360    -1.6560 C.ar  1 <1>  -0.1500 
 19 C        8.0100    -1.2480    -1.9500 C.ar  1 <1>  -0.1500 
 20 C        8.4840    -3.6310    -1.2940 C.3   1 <1>  -0.0970 
 21 H        3.8790    -3.8970    -2.8010 H     1 <1>   0.1500 
 22 H        1.0810    -2.5320     0.2120 H     1 <1>   0.1500 
 23 H        2.0260    -0.0280     0.9350 H     1 <1>   0.0800 
 24 H        2.9370     0.6900    -0.3770 H     1 <1>   0.0800 
 25 H        1.6440    -4.4070    -1.3930 H     1 <1>   0.1500 
 26 H        4.6190    -1.0450     1.1130 H     1 <1>   0.3700 
 27 H        6.7300     1.6250     2.0060 H     1 <1>   0.0800 
 28 H        5.3560    -0.0470     4.1180 H     1 <1>   0.0800 
 29 H        5.4780     1.6840     4.1330 H     1 <1>   0.0800 
 30 H        7.8370    -0.2210     4.2990 H     1 <1>   0.0800 
 31 H        7.1830     0.7230     5.6140 H     1 <1>   0.0800 
 32 H        7.9610     1.5230     4.2690 H     1 <1>   0.0800 
 33 H        7.6060    -2.6420     1.0910 H     1 <1>   0.1500 
 34 H        6.8460     1.3620    -0.1830 H     1 <1>   0.1500 
 35 H        7.5790     0.7870    -2.4270 H     1 <1>   0.1500 
 36 H        8.3280    -1.4860    -2.9500 H     1 <1>   0.1500 
 37 H        8.7940    -4.1460    -0.4020 H     1 <1>   0.0800 
 38 H        9.3150    -3.6010    -1.9750 H     1 <1>   0.0800 
 39 H        7.6790    -4.1790    -1.7490 H     1 <1>   0.0800 
@<TRIPOS>BOND
  1   1   2  1   
  2   1   3  1   
  3   2   4  2   
  4   2   5  1   
  5   3   6  2   
  6   3  21  1   
  7   4   6  1   
  8   4  22  1   
  9   5   7  1   
 10   5  23  1   
 11   5  24  1   
 12   6  25  1   
 13   7   8  am  
 14   7  26  1   
 15   8   9  2   
 16   8  10  1   
 17  10  11  1   
 18  10  12  1   
 19  10  27  1   
 20  11  13  1   
 21  12  14  1   
 22  12  28  1   
 23  12  29  1   
 24  13  15  ar  
 25  13  16  ar  
 26  14  30  1   
 27  14  31  1   
 28  14  32  1   
 29  15  17  ar  
 30  15  33  1   
 31  16  18  ar  
 32  16  34  1   
 33  17  19  ar  
 34  17  20  1   
 35  18  19  ar  
 36  18  35  1   
 37  19  36  1   
 38  20  37  1   
 39  20  38  1   
 40  20  39  1   
@<TRIPOS>SUBSTRUCTURE
  1 ****  13 GROUP 4 **** **** 0

# MOE 2024.06 (io_trps.svl 2023.06)
