@<TRIPOS>MOLECULE
NONAME
36 38 1 0 0 
SMALL
USER_CHARGES


@<TRIPOS>ATOM
  1 S       -0.8590    -0.6500     0.2800 S.3   1 <1>  -0.2860 
  2 C        0.9220    -0.7790     0.4820 C.2   1 <1>   0.2420 
  3 C       -1.2240     1.0740     0.8830 C.3   1 <1>   0.1310 
  4 N        1.6510     0.1740     0.9410 N.2   1 <1>  -0.3380 
  5 N        1.6060    -1.8860     0.1610 N.pl3 1 <1>   0.3260 
  6 C       -2.7030     1.4140     0.7730 C.2   1 <1>   0.5690 
  7 N        2.9030    -0.2970     0.9410 N.2   1 <1>  -0.3380 
  8 C        1.1490    -3.1210    -0.3650 C.ar  1 <1>  -0.0230 
  9 C        2.8580    -1.5030     0.4830 C.2   1 <1>   0.0060 
 10 O       -3.0850     2.4540     1.2550 O.2   1 <1>  -0.5700 
 11 N       -3.5480     0.5530     0.1420 N.am  1 <1>  -0.5790 
 12 C        1.3760    -3.4480    -1.6970 C.ar  1 <1>  -0.1500 
 13 C        0.4700    -4.0240     0.4460 C.ar  1 <1>  -0.1500 
 14 C        4.0740    -2.3990     0.3270 C.3   1 <1>  -0.0600 
 15 C       -4.9920     0.7380    -0.0470 C.3   1 <1>   0.0490 
 16 C        0.9380    -4.6570    -2.2070 C.ar  1 <1>  -0.1500 
 17 C        0.0300    -5.2320    -0.0650 C.ar  1 <1>  -0.1500 
 18 C       -5.8650    -0.4710     0.0080 C.3   1 <1>  -0.2000 
 19 C       -5.6070     0.2130    -1.3010 C.3   1 <1>  -0.2000 
 20 C        0.2650    -5.5500    -1.3910 C.ar  1 <1>  -0.1500 
 21 H       -0.6420     1.7520     0.2860 H     1 <1>   0.0800 
 22 H       -0.9040     1.1280     1.9070 H     1 <1>   0.0800 
 23 H       -3.1650    -0.3190    -0.2300 H     1 <1>   0.3700 
 24 H        1.8960    -2.7580    -2.3400 H     1 <1>   0.1500 
 25 H        0.2820    -3.7840     1.4790 H     1 <1>   0.1500 
 26 H        3.9370    -3.3080     0.8850 H     1 <1>   0.0800 
 27 H        4.9500    -1.8970     0.6970 H     1 <1>   0.0800 
 28 H        4.2270    -2.6400    -0.7090 H     1 <1>   0.0800 
 29 H       -5.3620     1.6640     0.3650 H     1 <1>   0.1000 
 30 H        1.1170    -4.9060    -3.2390 H     1 <1>   0.1500 
 31 H       -0.4950    -5.9270     0.5680 H     1 <1>   0.1500 
 32 H       -6.8440    -0.3800     0.4450 H     1 <1>   0.1000 
 33 H       -5.4150    -1.4300     0.1970 H     1 <1>   0.1000 
 34 H       -4.9760    -0.2670    -2.0280 H     1 <1>   0.1000 
 35 H       -6.4100     0.7680    -1.7520 H     1 <1>   0.1000 
 36 H       -0.0770    -6.4910    -1.7880 H     1 <1>   0.1500 
@<TRIPOS>BOND
  1   1   2  1   
  2   1   3  1   
  3   2   4  2   
  4   2   5  1   
  5   3   6  1   
  6   3  21  1   
  7   3  22  1   
  8   4   7  1   
  9   5   8  1   
 10   5   9  1   
 11   6  10  2   
 12   6  11  am  
 13   7   9  2   
 14   8  12  ar  
 15   8  13  ar  
 16   9  14  1   
 17  11  15  1   
 18  11  23  1   
 19  12  16  ar  
 20  12  24  1   
 21  13  17  ar  
 22  13  25  1   
 23  14  26  1   
 24  14  27  1   
 25  14  28  1   
 26  15  18  1   
 27  15  19  1   
 28  15  29  1   
 29  16  20  ar  
 30  16  30  1   
 31  17  20  ar  
 32  17  31  1   
 33  18  19  1   
 34  18  32  1   
 35  18  33  1   
 36  19  34  1   
 37  19  35  1   
 38  20  36  1   
@<TRIPOS>SUBSTRUCTURE
  1 ****   1 GROUP 4 **** **** 0

# MOE 2024.06 (io_trps.svl 2023.06)
