@<TRIPOS>MOLECULE
NONAME
38 39 1 0 0 
SMALL
USER_CHARGES


@<TRIPOS>ATOM
  1 O       -0.0350    -1.1080    -1.5480 O.2   1 <1>  -0.5700 
  2 C       -0.3650    -1.6360    -0.5030 C.2   1 <1>   0.6900 
  3 N       -1.6690    -1.6060    -0.0910 N.am  1 <1>  -0.6600 
  4 N        0.5560    -2.2700     0.2620 N.am  1 <1>  -0.7300 
  5 C       -2.7390    -1.1620    -1.0400 C.3   1 <1>   0.3200 
  6 C       -2.1190    -1.9300     1.2930 C.3   1 <1>   0.0600 
  7 C        1.9830    -2.4330    -0.0710 C.3   1 <1>   0.1400 
  8 C       -3.9010    -2.1440    -1.0930 C.2   1 <1>   0.2980 
  9 C        2.3580    -3.9000     0.1020 C.3   1 <1>  -0.2400 
 10 O       -3.6910    -3.3320    -1.5980 O.3   1 <1>  -0.0190 
 11 N       -5.0840    -1.9290    -0.6820 N.2   1 <1>  -0.5650 
 12 N       -4.8390    -3.9240    -1.4990 N.2   1 <1>  -0.4100 
 13 C       -5.6670    -3.1010    -0.9600 C.2   1 <1>   0.4620 
 14 C       -7.0670    -3.3730    -0.6720 C.ar  1 <1>   0.0540 
 15 C       -7.9060    -2.4050    -0.1140 C.ar  1 <1>  -0.1500 
 16 C       -7.6300    -4.6210    -0.9430 C.ar  1 <1>  -0.1500 
 17 C       -9.2380    -2.6620     0.1620 C.ar  1 <1>  -0.1440 
 18 C       -8.9590    -4.8890    -0.6720 C.ar  1 <1>  -0.1500 
 19 C       -9.7640    -3.9100    -0.1200 C.ar  1 <1>  -0.1500 
 20 C      -10.1250    -1.5880     0.7670 C.3   1 <1>  -0.0970 
 21 H        0.2180    -2.7980     1.0600 H     1 <1>   0.3700 
 22 H       -2.3480    -1.0530    -2.0350 H     1 <1>   0.0800 
 23 H       -3.1050    -0.2020    -0.7230 H     1 <1>   0.0800 
 24 H       -1.3200    -1.7810     1.9970 H     1 <1>   0.0800 
 25 H       -2.4470    -2.9550     1.3360 H     1 <1>   0.0800 
 26 H       -2.9380    -1.2900     1.5730 H     1 <1>   0.0800 
 27 H        2.5740    -1.8160     0.5840 H     1 <1>   0.0800 
 28 H        2.1650    -2.1230    -1.0880 H     1 <1>   0.0800 
 29 H        2.2100    -4.2100     1.1200 H     1 <1>   0.0800 
 30 H        3.3930    -4.0380    -0.1510 H     1 <1>   0.0800 
 31 H        1.7640    -4.5120    -0.5540 H     1 <1>   0.0800 
 32 H       -7.5020    -1.4320     0.1040 H     1 <1>   0.1500 
 33 H       -7.0170    -5.3950    -1.3730 H     1 <1>   0.1500 
 34 H       -9.3680    -5.8600    -0.8910 H     1 <1>   0.1500 
 35 H      -10.7980    -4.1230     0.0870 H     1 <1>   0.1500 
 36 H       -9.5330    -0.7970     1.1920 H     1 <1>   0.0800 
 37 H      -10.7380    -2.0080     1.5440 H     1 <1>   0.0800 
 38 H      -10.7630    -1.1730     0.0070 H     1 <1>   0.0800 
@<TRIPOS>BOND
  1   1   2  2   
  2   2   3  am  
  3   2   4  am  
  4   3   5  1   
  5   3   6  1   
  6   4   7  1   
  7   4  21  1   
  8   5   8  1   
  9   5  22  1   
 10   5  23  1   
 11   6  24  1   
 12   6  25  1   
 13   6  26  1   
 14   7   9  1   
 15   7  27  1   
 16   7  28  1   
 17   8  10  1   
 18   8  11  2   
 19   9  29  1   
 20   9  30  1   
 21   9  31  1   
 22  10  12  1   
 23  11  13  1   
 24  12  13  2   
 25  13  14  1   
 26  14  15  ar  
 27  14  16  ar  
 28  15  17  ar  
 29  15  32  1   
 30  16  18  ar  
 31  16  33  1   
 32  17  19  ar  
 33  17  20  1   
 34  18  19  ar  
 35  18  34  1   
 36  19  35  1   
 37  20  36  1   
 38  20  37  1   
 39  20  38  1   
@<TRIPOS>SUBSTRUCTURE
  1 ****   8 GROUP 4 **** **** 0

# MOE 2024.06 (io_trps.svl 2023.06)
