@<TRIPOS>MOLECULE
NONAME
53 54 1 0 0 
SMALL
USER_CHARGES


@<TRIPOS>ATOM
  1 O        6.4830    -7.4700    -0.4940 O.2   1 <1>  -0.5700 
  2 C        5.4430    -8.0910    -0.4090 C.2   1 <1>   0.7800 
  3 O        5.4190    -9.2790     0.1930 O.3   1 <1>  -0.4300 
  4 N        4.2580    -7.5950    -0.8840 N.am  1 <1>  -0.6600 
  5 C        6.6020    -9.8560     0.6980 C.3   1 <1>   0.1200 
  6 C        2.9360    -8.2240    -0.6010 C.3   1 <1>   0.1400 
  7 C        4.1800    -6.2490    -1.5220 C.3   1 <1>   0.1400 
  8 C        6.2440   -11.2010     1.3220 C.3   1 <1>  -0.2400 
  9 C        2.0760    -7.2790     0.2600 C.3   1 <1>   0.3430 
 10 C        3.3240    -5.3030    -0.6590 C.3   1 <1>   0.3430 
 11 N        1.9790    -5.8990    -0.3360 N.4   1 <1>  -0.9590 
 12 C        1.1140    -4.9820     0.4700 C.3   1 <1>   0.3430 
 13 C       -0.3770    -5.2980     0.2250 C.3   1 <1>   0.2000 
 14 O       -0.5410    -5.7090    -1.1010 O.3   1 <1>  -0.6800 
 15 C       -1.2890    -4.0950     0.4890 C.3   1 <1>   0.1200 
 16 O       -2.5890    -4.4250     0.0530 O.3   1 <1>  -0.3630 
 17 C       -3.6230    -3.5490     0.1630 C.ar  1 <1>   0.0820 
 18 C       -4.8780    -3.9750    -0.2630 C.ar  1 <1>  -0.1440 
 19 C       -3.4720    -2.2620     0.6760 C.ar  1 <1>  -0.1500 
 20 C       -5.9600    -3.1140    -0.1700 C.ar  1 <1>  -0.1500 
 21 C       -5.0790    -5.3730    -0.8290 C.3   1 <1>  -0.0970 
 22 C       -4.5620    -1.4150     0.7630 C.ar  1 <1>  -0.1500 
 23 C       -5.8110    -1.8360     0.3420 C.ar  1 <1>  -0.1440 
 24 C       -7.0070    -0.9070     0.4350 C.3   1 <1>  -0.0970 
 25 H        7.0240    -9.1900     1.4310 H     1 <1>   0.0800 
 26 H        7.2960    -9.9820    -0.1170 H     1 <1>   0.0800 
 27 H        3.0560    -9.1610    -0.0860 H     1 <1>   0.0800 
 28 H        2.4340    -8.4290    -1.5310 H     1 <1>   0.0800 
 29 H        3.7470    -6.3440    -2.5020 H     1 <1>   0.0800 
 30 H        5.1630    -5.8270    -1.6430 H     1 <1>   0.0800 
 31 H        5.5460   -11.0630     2.1280 H     1 <1>   0.0800 
 32 H        7.1310   -11.6650     1.7140 H     1 <1>   0.0800 
 33 H        5.8170   -11.8530     0.5810 H     1 <1>   0.0800 
 34 H        2.5180    -7.2200     1.2410 H     1 <1>   0.0800 
 35 H        1.0900    -7.7030     0.3640 H     1 <1>   0.0800 
 36 H        3.1970    -4.3700    -1.1820 H     1 <1>   0.0800 
 37 H        3.8610    -5.1020     0.2540 H     1 <1>   0.0800 
 38 H        1.4400    -6.0040    -1.2190 H     1 <1>   0.4500 
 39 H        1.2930    -3.9650     0.1610 H     1 <1>   0.0800 
 40 H        1.3480    -5.0540     1.5200 H     1 <1>   0.0800 
 41 H       -0.6840    -6.1120     0.8590 H     1 <1>   0.0800 
 42 H       -1.5020    -5.6420    -1.3230 H     1 <1>   0.4000 
 43 H       -0.9550    -3.2330    -0.0630 H     1 <1>   0.0800 
 44 H       -1.3300    -3.8680     1.5410 H     1 <1>   0.0800 
 45 H       -2.5240    -1.8940     1.0140 H     1 <1>   0.1500 
 46 H       -6.9320    -3.4390    -0.4990 H     1 <1>   0.1500 
 47 H       -4.7680    -6.1080    -0.1080 H     1 <1>   0.0800 
 48 H       -4.4940    -5.4920    -1.7230 H     1 <1>   0.0800 
 49 H       -6.1110    -5.5490    -1.0710 H     1 <1>   0.0800 
 50 H       -4.4340    -0.4230     1.1590 H     1 <1>   0.1500 
 51 H       -7.8990    -1.4660     0.6520 H     1 <1>   0.0800 
 52 H       -7.1390    -0.3910    -0.5000 H     1 <1>   0.0800 
 53 H       -6.8630    -0.1810     1.2150 H     1 <1>   0.0800 
@<TRIPOS>BOND
  1   1   2  2   
  2   2   3  1   
  3   2   4  am  
  4   3   5  1   
  5   4   6  1   
  6   4   7  1   
  7   5   8  1   
  8   5  25  1   
  9   5  26  1   
 10   6   9  1   
 11   6  27  1   
 12   6  28  1   
 13   7  10  1   
 14   7  29  1   
 15   7  30  1   
 16   8  31  1   
 17   8  32  1   
 18   8  33  1   
 19   9  11  1   
 20   9  34  1   
 21   9  35  1   
 22  10  11  1   
 23  10  36  1   
 24  10  37  1   
 25  11  12  1   
 26  11  38  1   
 27  12  13  1   
 28  12  39  1   
 29  12  40  1   
 30  13  14  1   
 31  13  15  1   
 32  13  41  1   
 33  14  42  1   
 34  15  16  1   
 35  15  43  1   
 36  15  44  1   
 37  16  17  1   
 38  17  18  ar  
 39  17  19  ar  
 40  18  20  ar  
 41  18  21  1   
 42  19  22  ar  
 43  19  45  1   
 44  20  23  ar  
 45  20  46  1   
 46  21  47  1   
 47  21  48  1   
 48  21  49  1   
 49  22  23  ar  
 50  22  50  1   
 51  23  24  1   
 52  24  51  1   
 53  24  52  1   
 54  24  53  1   
@<TRIPOS>SUBSTRUCTURE
  1 ****  13 GROUP 4 **** **** 0

# MOE 2024.06 (io_trps.svl 2023.06)
