@<TRIPOS>MOLECULE
NONAME
40 42 1 0 0 
SMALL
USER_CHARGES


@<TRIPOS>ATOM
  1 CL      -3.5100    -1.4210    -2.4400 Cl    1 <1>  -0.1770 
  2 C       -3.7540    -0.2010    -1.2160 C.ar  1 <1>   0.1770 
  3 C       -5.0110    -0.0300    -0.6740 C.ar  1 <1>  -0.1500 
  4 C       -2.6820     0.5730    -0.8120 C.ar  1 <1>  -0.1500 
  5 C       -5.2230     0.9380     0.2990 C.ar  1 <1>   0.1170 
  6 C       -2.8820     1.5380     0.1600 C.ar  1 <1>  -0.1500 
  7 N       -6.5160     1.0730     0.8240 N.am  1 <1>  -0.5470 
  8 C       -4.1410     1.7150     0.7090 C.ar  1 <1>  -0.1500 
  9 C       -7.1130     2.0760     1.5330 C.2   1 <1>   0.5690 
 10 O       -6.5710     3.1100     1.8320 O.2   1 <1>  -0.5700 
 11 C       -8.5570     1.8880     1.9420 C.3   1 <1>  -0.0990 
 12 C       -9.4940     2.0500     0.7390 C.3   1 <1>   0.1400 
 13 N      -10.2620     0.8060     0.4780 N.am  1 <1>  -0.4200 
 14 C      -11.6160     0.6970     0.6350 C.2   1 <1>   0.5690 
 15 C       -9.7390    -0.3590    -0.0080 C.2   1 <1>   0.5690 
 16 O      -12.3740     1.5860     0.9200 O.2   1 <1>  -0.5700 
 17 C      -12.0230    -0.7440     0.4320 C.3   1 <1>  -0.0190 
 18 O       -8.5670    -0.6200    -0.1150 O.2   1 <1>  -0.5700 
 19 C      -10.8670    -1.2770    -0.4170 C.3   1 <1>  -0.0190 
 20 C      -13.3560    -1.1340    -0.2120 C.3   1 <1>  -0.0220 
 21 C      -10.7770    -2.7990    -0.2700 C.3   1 <1>  -0.0220 
 22 C      -13.3040    -2.6350    -0.5080 C.2   1 <1>  -0.2880 
 23 C      -12.1780    -3.3670    -0.5140 C.2   1 <1>  -0.2880 
 24 H       -5.8220    -0.6490    -1.0120 H     1 <1>   0.1500 
 25 H       -1.7130     0.4200    -1.2520 H     1 <1>   0.1500 
 26 H       -2.0610     2.1510     0.4900 H     1 <1>   0.1500 
 27 H       -7.1520     0.3120     0.5510 H     1 <1>   0.3700 
 28 H       -4.2750     2.4660     1.4660 H     1 <1>   0.1500 
 29 H       -8.7970     2.6390     2.6730 H     1 <1>   0.0800 
 30 H       -8.6720     0.9280     2.4110 H     1 <1>   0.0800 
 31 H       -8.9340     2.3050    -0.1460 H     1 <1>   0.0800 
 32 H      -10.1810     2.8580     0.9300 H     1 <1>   0.0800 
 33 H      -11.9840    -1.2020     1.4050 H     1 <1>   0.0800 
 34 H      -11.0640    -1.0600    -1.4530 H     1 <1>   0.0800 
 35 H      -13.5220    -0.5830    -1.1220 H     1 <1>   0.0800 
 36 H      -14.1590    -0.9150     0.4710 H     1 <1>   0.0800 
 37 H      -10.4330    -3.0740     0.7120 H     1 <1>   0.0800 
 38 H      -10.0860    -3.1880    -0.9970 H     1 <1>   0.0800 
 39 H      -14.2750    -3.0590    -0.7100 H     1 <1>   0.1500 
 40 H      -12.1770    -4.4300    -0.6990 H     1 <1>   0.1500 
@<TRIPOS>BOND
  1   1   2  1   
  2   2   3  ar  
  3   2   4  ar  
  4   3   5  ar  
  5   3  24  1   
  6   4   6  ar  
  7   4  25  1   
  8   5   7  1   
  9   5   8  ar  
 10   6   8  ar  
 11   6  26  1   
 12   7   9  am  
 13   7  27  1   
 14   8  28  1   
 15   9  10  2   
 16   9  11  1   
 17  11  12  1   
 18  11  29  1   
 19  11  30  1   
 20  12  13  1   
 21  12  31  1   
 22  12  32  1   
 23  13  14  am  
 24  13  15  am  
 25  14  16  2   
 26  14  17  1   
 27  15  18  2   
 28  15  19  1   
 29  17  19  1   
 30  17  20  1   
 31  17  33  1   
 32  19  21  1   
 33  19  34  1   
 34  20  22  1   
 35  20  35  1   
 36  20  36  1   
 37  21  23  1   
 38  21  37  1   
 39  21  38  1   
 40  22  23  2   
 41  22  39  1   
 42  23  40  1   
@<TRIPOS>SUBSTRUCTURE
  1 ****  18 GROUP 4 **** **** 0

# MOE 2024.06 (io_trps.svl 2023.06)
