@<TRIPOS>MOLECULE
NONAME
28 29 1 0 0 
SMALL
USER_CHARGES


@<TRIPOS>ATOM
  1 CL      -0.6010    -0.2650    -1.1500 Cl    1 <1>  -0.1770 
  2 C        0.4650    -1.5410    -0.5930 C.ar  1 <1>   0.1770 
  3 C       -0.0860    -2.7470    -0.1540 C.ar  1 <1>   0.1170 
  4 C        1.8280    -1.3060    -0.6050 C.ar  1 <1>  -0.1500 
  5 N       -1.4840    -2.9090    -0.1710 N.am  1 <1>  -0.5470 
  6 C        0.7950    -3.7290     0.2940 C.ar  1 <1>  -0.1500 
  7 C        2.6880    -2.2970    -0.1610 C.ar  1 <1>  -0.1500 
  8 C       -2.2910    -4.0050    -0.0750 C.2   1 <1>   0.6900 
  9 C        2.1570    -3.4950     0.2830 C.ar  1 <1>   0.1770 
 10 O       -1.8310    -5.1280     0.0050 O.2   1 <1>  -0.5700 
 11 N       -3.6460    -3.8180    -0.0900 N.am  1 <1>  -0.6600 
 12 CL       3.2420    -4.7400     0.8480 Cl    1 <1>  -0.1770 
 13 C       -4.5910    -4.9530    -0.0240 C.3   1 <1>   0.1400 
 14 C       -4.3570    -2.5250     0.0090 C.3   1 <1>   0.1400 
 15 C       -5.9720    -4.3160    -0.1290 C.3   1 <1>  -0.1600 
 16 C       -5.7840    -2.8960     0.3990 C.3   1 <1>  -0.1600 
 17 H        2.2090    -0.3630    -0.9540 H     1 <1>   0.1500 
 18 H       -2.0040    -2.0700    -0.4100 H     1 <1>   0.3700 
 19 H        0.4340    -4.6740     0.6540 H     1 <1>   0.1500 
 20 H        3.7540    -2.1490    -0.1570 H     1 <1>   0.1500 
 21 H       -4.4720    -5.4530     0.9230 H     1 <1>   0.0800 
 22 H       -4.4080    -5.6500    -0.8240 H     1 <1>   0.0800 
 23 H       -4.3470    -2.0430    -0.9540 H     1 <1>   0.0800 
 24 H       -3.9050    -1.8860     0.7490 H     1 <1>   0.0800 
 25 H       -6.7090    -4.8680     0.4260 H     1 <1>   0.0800 
 26 H       -6.2630    -4.2870    -1.1650 H     1 <1>   0.0800 
 27 H       -6.5030    -2.2080    -0.0080 H     1 <1>   0.0800 
 28 H       -5.8640    -2.8940     1.4720 H     1 <1>   0.0800 
@<TRIPOS>BOND
  1   1   2  1   
  2   2   3  ar  
  3   2   4  ar  
  4   3   5  1   
  5   3   6  ar  
  6   4   7  ar  
  7   4  17  1   
  8   5   8  am  
  9   5  18  1   
 10   6   9  ar  
 11   6  19  1   
 12   7   9  ar  
 13   7  20  1   
 14   8  10  2   
 15   8  11  am  
 16   9  12  1   
 17  11  13  1   
 18  11  14  1   
 19  13  15  1   
 20  13  21  1   
 21  13  22  1   
 22  14  16  1   
 23  14  23  1   
 24  14  24  1   
 25  15  16  1   
 26  15  25  1   
 27  15  26  1   
 28  16  27  1   
 29  16  28  1   
@<TRIPOS>SUBSTRUCTURE
  1 ****   5 GROUP 4 **** **** 0

# MOE 2024.06 (io_trps.svl 2023.06)
