@<TRIPOS>MOLECULE
NONAME
37 37 1 0 0 
SMALL
USER_CHARGES


@<TRIPOS>ATOM
  1 O        0.6570     1.6120    -2.4940 O.2   1 <1>  -0.5700 
  2 C        0.2860     1.9010    -1.3720 C.2   1 <1>   0.5440 
  3 N        1.1770     1.7500    -0.3490 N.am  1 <1>  -0.7300 
  4 C       -1.0590     2.4070    -1.1420 C.ar  1 <1>   0.0860 
  5 C        2.5680     1.2780    -0.4690 C.3   1 <1>   0.1400 
  6 C       -1.7380     2.2990     0.0820 C.ar  1 <1>   0.0830 
  7 C       -1.7320     3.0410    -2.1900 C.ar  1 <1>  -0.1500 
  8 C        3.4150     1.9390     0.6150 C.3   1 <1>  -0.1600 
  9 O       -1.1430     1.6750     1.1300 O.3   1 <1>  -0.3620 
 10 C       -3.0210     2.8350     0.2490 C.ar  1 <1>   0.0830 
 11 C       -3.0020     3.5580    -2.0400 C.ar  1 <1>  -0.1500 
 12 C        4.8720     1.5010     0.5000 C.3   1 <1>   0.1200 
 13 C       -1.5900     0.3710     1.4300 C.3   1 <1>   0.0400 
 14 O       -3.6130     2.7260     1.4730 O.3   1 <1>  -0.3630 
 15 C       -3.6490     3.4600    -0.8220 C.ar  1 <1>  -0.1500 
 16 O        5.5760     2.0970     1.5370 O.3   1 <1>  -0.5600 
 17 C       -4.8220     3.3870     1.7750 C.3   1 <1>   0.0400 
 18 C        6.9340     1.7990     1.5440 C.3   1 <1>   0.0400 
 19 H        0.8130     1.8830     0.6020 H     1 <1>   0.3700 
 20 H        2.9490     1.5300    -1.4450 H     1 <1>   0.0800 
 21 H        2.5860     0.2070    -0.3590 H     1 <1>   0.0800 
 22 H       -1.2390     3.1280    -3.1440 H     1 <1>   0.1500 
 23 H        3.0410     1.6580     1.5830 H     1 <1>   0.0800 
 24 H        3.3630     3.0080     0.5050 H     1 <1>   0.0800 
 25 H       -3.4890     4.0400    -2.8710 H     1 <1>   0.1500 
 26 H        5.2930     1.8250    -0.4370 H     1 <1>   0.0800 
 27 H        4.9590     0.4320     0.5950 H     1 <1>   0.0800 
 28 H       -1.0080    -0.0040     2.2520 H     1 <1>   0.0800 
 29 H       -1.4500    -0.2510     0.5630 H     1 <1>   0.0800 
 30 H       -2.6290     0.4060     1.7030 H     1 <1>   0.0800 
 31 H       -4.6350     3.8740    -0.7340 H     1 <1>   0.1500 
 32 H       -5.0470     3.2120     2.8120 H     1 <1>   0.0800 
 33 H       -5.6060     2.9840     1.1590 H     1 <1>   0.0800 
 34 H       -4.6970     4.4410     1.6030 H     1 <1>   0.0800 
 35 H        7.3820     2.3060     2.3810 H     1 <1>   0.0800 
 36 H        7.3790     2.1480     0.6290 H     1 <1>   0.0800 
 37 H        7.0640     0.7360     1.6510 H     1 <1>   0.0800 
@<TRIPOS>BOND
  1   1   2  2   
  2   2   3  am  
  3   2   4  1   
  4   3   5  1   
  5   3  19  1   
  6   4   6  ar  
  7   4   7  ar  
  8   5   8  1   
  9   5  20  1   
 10   5  21  1   
 11   6   9  1   
 12   6  10  ar  
 13   7  11  ar  
 14   7  22  1   
 15   8  12  1   
 16   8  23  1   
 17   8  24  1   
 18   9  13  1   
 19  10  14  1   
 20  10  15  ar  
 21  11  15  ar  
 22  11  25  1   
 23  12  16  1   
 24  12  26  1   
 25  12  27  1   
 26  13  28  1   
 27  13  29  1   
 28  13  30  1   
 29  14  17  1   
 30  15  31  1   
 31  16  18  1   
 32  17  32  1   
 33  17  33  1   
 34  17  34  1   
 35  18  35  1   
 36  18  36  1   
 37  18  37  1   
@<TRIPOS>SUBSTRUCTURE
  1 ****   3 GROUP 4 **** **** 0

# MOE 2024.06 (io_trps.svl 2023.06)
