@<TRIPOS>MOLECULE
Structure2273
31 32 1 0 0 
SMALL
USER_CHARGES


@<TRIPOS>ATOM
  1 N        0.0100     0.2920    -0.5170 N.2   1 <1>  -0.7070 
  2 N        0.7300     1.3380    -0.0760 N.pl3 1 <1>   0.3140 
  3 C       -1.2010     0.5280    -0.1110 C.2   1 <1>   0.1390 
  4 C       -0.0370     2.2110     0.6040 C.2   1 <1>  -0.3020 
  5 C        2.1770     1.4310    -0.3400 C.3   1 <1>   0.0960 
  6 C       -1.2930     1.7180     0.5990 C.2   1 <1>  -0.1500 
  7 C        2.9160     0.2530     0.3250 C.3   1 <1>  -0.1600 
  8 C        4.3690     0.1340    -0.1340 C.3   1 <1>   0.4230 
  9 N        4.9130    -1.1340     0.3990 N.4   1 <1>  -0.9060 
 10 C        5.2420     1.3010     0.3520 C.3   1 <1>  -0.1600 
 11 C        6.3110    -1.4010    -0.0340 C.3   1 <1>   0.3430 
 12 C        6.7180     1.1020    -0.0240 C.3   1 <1>  -0.1600 
 13 C        7.2190    -0.2680     0.4500 C.3   1 <1>  -0.1600 
 14 H       -2.0330    -0.1290    -0.3080 H     1 <1>   0.1500 
 15 H        0.3370     3.1180     1.0440 H     1 <1>   0.1500 
 16 H        2.5340     2.3730     0.0330 H     1 <1>   0.0800 
 17 H        2.3100     1.4050    -1.4070 H     1 <1>   0.0800 
 18 H       -2.1860     2.1290     1.0360 H     1 <1>   0.1500 
 19 H        2.4030    -0.6550     0.0530 H     1 <1>   0.0800 
 20 H        2.8660     0.3690     1.3930 H     1 <1>   0.0800 
 21 H        4.3950     0.1010    -1.2120 H     1 <1>   0.0800 
 22 H        4.3040    -1.9090     0.1110 H     1 <1>   0.4500 
 23 H        4.8850    -1.0930     1.4230 H     1 <1>   0.4500 
 24 H        5.1530     1.4050     1.4200 H     1 <1>   0.0800 
 25 H        4.9000     2.2210    -0.0900 H     1 <1>   0.0800 
 26 H        6.3550    -1.4610    -1.1110 H     1 <1>   0.0800 
 27 H        6.6550    -2.3400     0.3720 H     1 <1>   0.0800 
 28 H        7.3160     1.8820     0.4180 H     1 <1>   0.0800 
 29 H        6.8300     1.1750    -1.0940 H     1 <1>   0.0800 
 30 H        8.2150    -0.4320     0.0760 H     1 <1>   0.0800 
 31 H        7.2750    -0.2880     1.5250 H     1 <1>   0.0800 
@<TRIPOS>BOND
  1   1   2  1   
  2   1   3  2   
  3   2   4  1   
  4   2   5  1   
  5   3   6  1   
  6   3  14  1   
  7   4   6  2   
  8   4  15  1   
  9   5   7  1   
 10   5  16  1   
 11   5  17  1   
 12   6  18  1   
 13   7   8  1   
 14   7  19  1   
 15   7  20  1   
 16   8   9  1   
 17   8  10  1   
 18   8  21  1   
 19   9  11  1   
 20   9  22  1   
 21   9  23  1   
 22  10  12  1   
 23  10  24  1   
 24  10  25  1   
 25  11  13  1   
 26  11  26  1   
 27  11  27  1   
 28  12  13  1   
 29  12  28  1   
 30  12  29  1   
 31  13  30  1   
 32  13  31  1   
@<TRIPOS>SUBSTRUCTURE
  1 ****   7 GROUP 4 **** **** 0

# MOE 2024.06 (io_trps.svl 2023.06)
