@<TRIPOS>MOLECULE
NONAME
43 45 1 0 0 
SMALL
USER_CHARGES


@<TRIPOS>ATOM
  1 O       -4.9850     4.4440    -0.6450 O.2   1 <1>  -0.5700 
  2 C       -5.1480     3.2580    -0.4940 C.2   1 <1>   0.4230 
  3 C       -4.0970     2.2870    -0.7290 C.ar  1 <1>   0.0860 
  4 C       -6.5300     2.7990    -0.0340 C.3   1 <1>  -0.0990 
  5 C       -4.3510     0.9390    -1.0060 C.ar  1 <1>  -0.1500 
  6 C       -2.7580     2.6840    -0.6890 C.ar  1 <1>  -0.1500 
  7 C       -7.2310     3.7980     0.8990 C.3   1 <1>   0.3430 
  8 C       -3.3230     0.0380    -1.2130 C.ar  1 <1>  -0.1500 
  9 C       -1.7270     1.7870    -0.8960 C.ar  1 <1>  -0.1500 
 10 N       -7.4430     5.1100     0.2320 N.4   1 <1>  -0.9590 
 11 C       -2.0080     0.4590    -1.1560 C.ar  1 <1>  -0.1500 
 12 C       -7.7300     6.2390     1.1530 C.3   1 <1>   0.3430 
 13 C       -8.4760     5.1610    -0.8260 C.3   1 <1>   0.3430 
 14 C       -8.3270     7.3380     0.2720 C.3   1 <1>   0.0630 
 15 C       -8.7160     6.6490    -1.0430 C.3   1 <1>  -0.1600 
 16 C       -7.3290     8.4710     0.0540 C.ar  1 <1>  -0.1430 
 17 C       -6.0550     8.2330    -0.4490 C.ar  1 <1>  -0.1500 
 18 C       -7.6950     9.7730     0.3680 C.ar  1 <1>  -0.1500 
 19 C       -5.1640     9.2770    -0.6280 C.ar  1 <1>  -0.1500 
 20 C       -6.8040    10.8160     0.1880 C.ar  1 <1>  -0.1500 
 21 C       -5.5370    10.5690    -0.3080 C.ar  1 <1>  -0.1500 
 22 H       -6.4280     1.8790     0.5110 H     1 <1>   0.0800 
 23 H       -7.1440     2.6020    -0.8930 H     1 <1>   0.0800 
 24 H       -5.3590     0.5740    -1.0740 H     1 <1>   0.1500 
 25 H       -2.5200     3.7160    -0.4930 H     1 <1>   0.1500 
 26 H       -6.6100     3.9410     1.7700 H     1 <1>   0.0800 
 27 H       -8.1770     3.3960     1.2250 H     1 <1>   0.0800 
 28 H       -3.5410    -0.9960    -1.4230 H     1 <1>   0.1500 
 29 H       -0.7030     2.1210    -0.8570 H     1 <1>   0.1500 
 30 H       -6.5310     5.3250    -0.2270 H     1 <1>   0.4500 
 31 H       -1.2070    -0.2420    -1.3170 H     1 <1>   0.1500 
 32 H       -6.8350     6.5820     1.6470 H     1 <1>   0.0800 
 33 H       -8.4550     5.9390     1.8910 H     1 <1>   0.0800 
 34 H       -9.3830     4.6940    -0.4760 H     1 <1>   0.0800 
 35 H       -8.1440     4.6770    -1.7310 H     1 <1>   0.0800 
 36 H       -9.2060     7.7200     0.7620 H     1 <1>   0.0800 
 37 H       -9.7440     6.8370    -1.3010 H     1 <1>   0.0800 
 38 H       -8.1000     6.9920    -1.8560 H     1 <1>   0.0800 
 39 H       -5.7320     7.2420    -0.7130 H     1 <1>   0.1500 
 40 H       -8.6750     9.9930     0.7540 H     1 <1>   0.1500 
 41 H       -4.1790     9.0850    -1.0170 H     1 <1>   0.1500 
 42 H       -7.0950    11.8230     0.4350 H     1 <1>   0.1500 
 43 H       -4.8440    11.3810    -0.4480 H     1 <1>   0.1500 
@<TRIPOS>BOND
  1   1   2  2   
  2   2   3  1   
  3   2   4  1   
  4   3   5  ar  
  5   3   6  ar  
  6   4   7  1   
  7   4  22  1   
  8   4  23  1   
  9   5   8  ar  
 10   5  24  1   
 11   6   9  ar  
 12   6  25  1   
 13   7  10  1   
 14   7  26  1   
 15   7  27  1   
 16   8  11  ar  
 17   8  28  1   
 18   9  11  ar  
 19   9  29  1   
 20  10  12  1   
 21  10  13  1   
 22  10  30  1   
 23  11  31  1   
 24  12  14  1   
 25  12  32  1   
 26  12  33  1   
 27  13  15  1   
 28  13  34  1   
 29  13  35  1   
 30  14  15  1   
 31  14  16  1   
 32  14  36  1   
 33  15  37  1   
 34  15  38  1   
 35  16  17  ar  
 36  16  18  ar  
 37  17  19  ar  
 38  17  39  1   
 39  18  20  ar  
 40  18  40  1   
 41  19  21  ar  
 42  19  41  1   
 43  20  21  ar  
 44  20  42  1   
 45  21  43  1   
@<TRIPOS>SUBSTRUCTURE
  1 ****   1 GROUP 4 **** **** 0

# MOE 2024.06 (io_trps.svl 2023.06)
