@<TRIPOS>MOLECULE
NONAME
48 50 1 0 0 
SMALL
USER_CHARGES


@<TRIPOS>ATOM
  1 O        0.6790    -0.1960    -0.1540 O.2   1 <1>  -0.5700 
  2 C        0.1390    -1.2560     0.0360 C.2   1 <1>   0.5690 
  3 N        0.7760    -2.4510     0.1530 N.am  1 <1>  -0.4200 
  4 C       -1.3590    -1.4210     0.2010 C.3   1 <1>  -0.0190 
  5 C       -0.0980    -3.4630     0.3990 C.2   1 <1>   0.5690 
  6 C        2.2390    -2.6210     0.0020 C.3   1 <1>   0.1400 
  7 C       -1.5220    -2.9450     0.4550 C.3   1 <1>  -0.0190 
  8 C       -2.1420    -0.8370    -0.9910 C.3   1 <1>  -0.0220 
  9 O        0.1960    -4.6180     0.5640 O.2   1 <1>  -0.5700 
 10 C        2.9580    -2.1750     1.2740 C.3   1 <1>  -0.0990 
 11 C       -2.4530    -3.7060    -0.5090 C.3   1 <1>  -0.0220 
 12 C       -3.4790    -1.5300    -1.1530 C.2   1 <1>  -0.2880 
 13 C        4.4450    -2.1380     1.0240 C.2   1 <1>   0.5690 
 14 C       -3.6210    -2.8380    -0.9330 C.2   1 <1>  -0.2880 
 15 O        5.0710    -3.1560     1.1790 O.2   1 <1>  -0.5700 
 16 N        4.9830    -0.9540     0.6130 N.am  1 <1>  -0.5470 
 17 C        6.2900    -0.5500     0.2770 C.ar  1 <1>   0.1170 
 18 C        6.4650     0.7530    -0.2020 C.ar  1 <1>   0.0830 
 19 C        7.4030    -1.3730     0.3990 C.ar  1 <1>  -0.1500 
 20 O        5.3450     1.5340    -0.3050 O.3   1 <1>  -0.3630 
 21 C        7.7350     1.2060    -0.5470 C.ar  1 <1>  -0.1500 
 22 C        8.6670    -0.9250     0.0560 C.ar  1 <1>   0.0830 
 23 C        5.4160     2.8520    -0.8050 C.3   1 <1>   0.0400 
 24 C        8.8320     0.3710    -0.4200 C.ar  1 <1>  -0.1500 
 25 O        9.6910    -1.8050     0.2120 O.3   1 <1>  -0.3620 
 26 C       11.0180    -1.4490    -0.1070 C.3   1 <1>   0.0400 
 27 H       -1.6570    -0.8960     1.0900 H     1 <1>   0.0800 
 28 H        2.5710    -2.0280    -0.8340 H     1 <1>   0.0800 
 29 H        2.4700    -3.6530    -0.2050 H     1 <1>   0.0800 
 30 H       -1.8880    -3.0850     1.4560 H     1 <1>   0.0800 
 31 H       -1.5840    -0.9550    -1.9040 H     1 <1>   0.0800 
 32 H       -2.2880     0.2180    -0.8300 H     1 <1>   0.0800 
 33 H        2.7550    -2.8700     2.0680 H     1 <1>   0.0800 
 34 H        2.6270    -1.1970     1.5730 H     1 <1>   0.0800 
 35 H       -2.8110    -4.5960    -0.0200 H     1 <1>   0.0800 
 36 H       -1.9170    -4.0100    -1.3920 H     1 <1>   0.0800 
 37 H       -4.2800    -0.8850    -1.4780 H     1 <1>   0.1500 
 38 H       -4.5490    -3.3710    -1.0610 H     1 <1>   0.1500 
 39 H        4.3220    -0.1830     0.4900 H     1 <1>   0.3700 
 40 H        7.3050    -2.3770     0.7660 H     1 <1>   0.1500 
 41 H        7.8940     2.2010    -0.9170 H     1 <1>   0.1500 
 42 H        4.4220     3.2620    -0.8090 H     1 <1>   0.0800 
 43 H        5.8020     2.8260    -1.8080 H     1 <1>   0.0800 
 44 H        6.0480     3.4370    -0.1610 H     1 <1>   0.0800 
 45 H        9.7990     0.7460    -0.6940 H     1 <1>   0.1500 
 46 H       11.6470    -2.2970     0.0950 H     1 <1>   0.0800 
 47 H       11.3140    -0.6190     0.5080 H     1 <1>   0.0800 
 48 H       11.0700    -1.1970    -1.1520 H     1 <1>   0.0800 
@<TRIPOS>BOND
  1   1   2  2   
  2   2   3  am  
  3   2   4  1   
  4   3   5  am  
  5   3   6  1   
  6   4   7  1   
  7   4   8  1   
  8   4  27  1   
  9   5   7  1   
 10   5   9  2   
 11   6  10  1   
 12   6  28  1   
 13   6  29  1   
 14   7  11  1   
 15   7  30  1   
 16   8  12  1   
 17   8  31  1   
 18   8  32  1   
 19  10  13  1   
 20  10  33  1   
 21  10  34  1   
 22  11  14  1   
 23  11  35  1   
 24  11  36  1   
 25  12  14  2   
 26  12  37  1   
 27  13  15  2   
 28  13  16  am  
 29  14  38  1   
 30  16  17  1   
 31  16  39  1   
 32  17  18  ar  
 33  17  19  ar  
 34  18  20  1   
 35  18  21  ar  
 36  19  22  ar  
 37  19  40  1   
 38  20  23  1   
 39  21  24  ar  
 40  21  41  1   
 41  22  24  ar  
 42  22  25  1   
 43  23  42  1   
 44  23  43  1   
 45  23  44  1   
 46  24  45  1   
 47  25  26  1   
 48  26  46  1   
 49  26  47  1   
 50  26  48  1   
@<TRIPOS>SUBSTRUCTURE
  1 ****  10 GROUP 4 **** **** 0

# MOE 2024.06 (io_trps.svl 2023.06)
