@<TRIPOS>MOLECULE
NONAME
34 36 1 0 0 
SMALL
USER_CHARGES


@<TRIPOS>ATOM
  1 N       -1.2370    -0.6380     1.9170 N.2   1 <1>  -0.2500 
  2 N       -0.6200     0.0890     1.0280 N.2   1 <1>  -0.2500 
  3 N       -2.5010    -0.3750     1.8550 N.2   1 <1>  -0.6190 
  4 N       -1.4840     0.8250     0.3870 N.2   1 <1>  -0.6190 
  5 C       -2.6130     0.5070     0.9260 C.2   1 <1>   0.8340 
  6 N       -3.8890     1.0090     0.6090 N.pl3 1 <1>  -0.4540 
  7 N       -4.2990     1.9770    -0.2970 N.2   1 <1>  -0.4920 
  8 C       -5.5180     2.3020    -0.4330 C.2   1 <1>   0.3280 
  9 C       -6.8230     1.8280     0.2520 C.3   1 <1>   0.0610 
 10 C       -5.9540     3.3610    -1.4320 C.3   1 <1>  -0.0990 
 11 C       -7.6400     3.1400     0.2800 C.3   1 <1>   0.0000 
 12 C       -7.5470     0.9970    -0.8300 C.3   1 <1>  -0.1600 
 13 C       -6.7280     1.0910     1.6020 C.3   1 <1>  -0.2400 
 14 C       -7.4830     3.3790    -1.2330 C.3   1 <1>  -0.0800 
 15 C       -7.0220     4.2530     1.1670 C.3   1 <1>  -0.2400 
 16 C       -9.1190     3.0180     0.7310 C.3   1 <1>  -0.2400 
 17 C       -8.0050     2.0620    -1.8480 C.3   1 <1>  -0.1600 
 18 H       -4.5560     0.5610     1.2280 H     1 <1>   0.4000 
 19 H       -5.5070     4.3070    -1.1890 H     1 <1>   0.0800 
 20 H       -5.6670     3.0870    -2.4310 H     1 <1>   0.0800 
 21 H       -6.8760     0.2830    -1.2780 H     1 <1>   0.0800 
 22 H       -8.3910     0.4680    -0.4230 H     1 <1>   0.0800 
 23 H       -7.7050     0.9490     2.0250 H     1 <1>   0.0800 
 24 H       -6.1330     1.6580     2.2960 H     1 <1>   0.0800 
 25 H       -6.2870     0.1190     1.4700 H     1 <1>   0.0800 
 26 H       -7.9620     4.2640    -1.6150 H     1 <1>   0.0800 
 27 H       -5.9640     4.3790     1.0330 H     1 <1>   0.0800 
 28 H       -7.4970     5.1950     0.9580 H     1 <1>   0.0800 
 29 H       -7.1770     4.0250     2.2060 H     1 <1>   0.0800 
 30 H       -9.1720     2.8280     1.7880 H     1 <1>   0.0800 
 31 H       -9.6610     2.2350     0.2390 H     1 <1>   0.0800 
 32 H       -9.6340     3.9420     0.5360 H     1 <1>   0.0800 
 33 H       -9.0770     2.0760    -1.9350 H     1 <1>   0.0800 
 34 H       -7.5910     1.8800    -2.8260 H     1 <1>   0.0800 
@<TRIPOS>BOND
  1   1   2  2   
  2   1   3  1   
  3   2   4  1   
  4   3   5  1   
  5   4   5  2   
  6   5   6  1   
  7   6   7  1   
  8   6  18  1   
  9   7   8  2   
 10   8   9  1   
 11   8  10  1   
 12   9  11  1   
 13   9  12  1   
 14   9  13  1   
 15  10  14  1   
 16  10  19  1   
 17  10  20  1   
 18  11  14  1   
 19  11  15  1   
 20  11  16  1   
 21  12  17  1   
 22  12  21  1   
 23  12  22  1   
 24  13  23  1   
 25  13  24  1   
 26  13  25  1   
 27  14  17  1   
 28  14  26  1   
 29  15  27  1   
 30  15  28  1   
 31  15  29  1   
 32  16  30  1   
 33  16  31  1   
 34  16  32  1   
 35  17  33  1   
 36  17  34  1   
@<TRIPOS>SUBSTRUCTURE
  1 ****   8 GROUP 4 **** **** 0

# MOE 2024.06 (io_trps.svl 2023.06)
