@<TRIPOS>MOLECULE
NONAME
42 42 1 0 0 
SMALL
USER_CHARGES


@<TRIPOS>ATOM
  1 O       -0.3720    -2.6880    -0.1610 O.3   1 <1>  -0.3630 
  2 C       -1.5930    -2.0800    -0.1330 C.ar  1 <1>   0.0830 
  3 C        0.8250    -2.0160     0.1650 C.3   1 <1>   0.0400 
  4 C       -1.8940    -0.7910     0.3300 C.ar  1 <1>   0.0830 
  5 C       -2.6210    -2.8670    -0.6240 C.ar  1 <1>  -0.1500 
  6 O       -0.9730     0.0570     0.8410 O.3   1 <1>  -0.5330 
  7 C       -3.2040    -0.3170     0.2840 C.ar  1 <1>   0.0830 
  8 C       -3.9300    -2.4110    -0.6570 C.ar  1 <1>  -0.1430 
  9 O       -3.4230     0.9520     0.7410 O.3   1 <1>  -0.3630 
 10 C       -4.2200    -1.1320    -0.2080 C.ar  1 <1>  -0.1500 
 11 C       -5.0200    -3.3250    -1.1670 C.3   1 <1>   0.4860 
 12 C       -4.6640     1.6020     0.5690 C.3   1 <1>   0.0400 
 13 N       -5.3250    -4.2540    -0.0610 N.4   1 <1>  -0.9060 
 14 C       -6.2440    -5.3540    -0.3950 C.3   1 <1>   0.4230 
 15 C       -7.6770    -4.8040    -0.4990 C.3   1 <1>  -0.1600 
 16 C       -6.1010    -6.4340     0.6890 C.3   1 <1>  -0.1600 
 17 C       -8.6980    -5.8510    -0.9730 C.3   1 <1>  -0.2400 
 18 C       -4.6620    -6.9450     0.8850 C.3   1 <1>  -0.2400 
 19 H        1.6460    -2.6870    -0.0120 H     1 <1>   0.0800 
 20 H        0.7980    -1.7370     1.2030 H     1 <1>   0.0800 
 21 H        0.9210    -1.1470    -0.4620 H     1 <1>   0.0800 
 22 H       -2.3630    -3.8490    -0.9820 H     1 <1>   0.1500 
 23 H       -1.4140     0.8930     1.0940 H     1 <1>   0.4500 
 24 H       -5.2320    -0.7730    -0.2390 H     1 <1>   0.1500 
 25 H       -4.6690    -3.8650    -2.0310 H     1 <1>   0.0800 
 26 H       -5.8920    -2.7530    -1.4390 H     1 <1>   0.0800 
 27 H       -4.5660     2.6100     0.9310 H     1 <1>   0.0800 
 28 H       -5.4150     1.0850     1.1390 H     1 <1>   0.0800 
 29 H       -4.9110     1.6170    -0.4780 H     1 <1>   0.0800 
 30 H       -5.6800    -3.7260     0.7410 H     1 <1>   0.4500 
 31 H       -4.4360    -4.6610     0.2500 H     1 <1>   0.4500 
 32 H       -5.9590    -5.7830    -1.3440 H     1 <1>   0.0800 
 33 H       -7.7060    -3.9950    -1.2070 H     1 <1>   0.0800 
 34 H       -7.9960    -4.4250     0.4570 H     1 <1>   0.0800 
 35 H       -6.7070    -7.2780     0.4090 H     1 <1>   0.0800 
 36 H       -6.4860    -6.0700     1.6270 H     1 <1>   0.0800 
 37 H       -8.3940    -6.2910    -1.9080 H     1 <1>   0.0800 
 38 H       -8.8260    -6.6340    -0.2460 H     1 <1>   0.0800 
 39 H       -9.6570    -5.3850    -1.1200 H     1 <1>   0.0800 
 40 H       -4.2380    -7.2690    -0.0500 H     1 <1>   0.0800 
 41 H       -4.0240    -6.2000     1.3260 H     1 <1>   0.0800 
 42 H       -4.6730    -7.7920     1.5510 H     1 <1>   0.0800 
@<TRIPOS>BOND
  1   1   2  1   
  2   1   3  1   
  3   2   4  ar  
  4   2   5  ar  
  5   3  19  1   
  6   3  20  1   
  7   3  21  1   
  8   4   6  1   
  9   4   7  ar  
 10   5   8  ar  
 11   5  22  1   
 12   6  23  1   
 13   7   9  1   
 14   7  10  ar  
 15   8  10  ar  
 16   8  11  1   
 17   9  12  1   
 18  10  24  1   
 19  11  13  1   
 20  11  25  1   
 21  11  26  1   
 22  12  27  1   
 23  12  28  1   
 24  12  29  1   
 25  13  14  1   
 26  13  30  1   
 27  13  31  1   
 28  14  15  1   
 29  14  16  1   
 30  14  32  1   
 31  15  17  1   
 32  15  33  1   
 33  15  34  1   
 34  16  18  1   
 35  16  35  1   
 36  16  36  1   
 37  17  37  1   
 38  17  38  1   
 39  17  39  1   
 40  18  40  1   
 41  18  41  1   
 42  18  42  1   
@<TRIPOS>SUBSTRUCTURE
  1 ****   8 GROUP 4 **** **** 0

# MOE 2024.06 (io_trps.svl 2023.06)
