@<TRIPOS>MOLECULE
NONAME
46 47 1 0 0 
SMALL
USER_CHARGES


@<TRIPOS>ATOM
  1 S       -0.1730    -0.4670     1.6160 S.o2  1 <1>   1.3330 
  2 O        1.0770    -0.3480     2.3270 O.2   1 <1>  -0.6500 
  3 O       -1.3920    -0.6310     2.3730 O.2   1 <1>  -0.6500 
  4 N       -0.0320    -1.7840     0.5540 N.am  1 <1>  -0.8490 
  5 C       -0.2860     0.9690     0.5650 C.3   1 <1>  -0.1350 
  6 C       -1.3340    -2.3250     0.1450 C.3   1 <1>   0.3390 
  7 C        0.8020    -2.8690     1.1540 C.3   1 <1>   0.2570 
  8 C       -2.0700    -1.3510    -0.7590 C.ar  1 <1>  -0.1440 
  9 C        2.3160    -2.7090     0.9560 C.2   1 <1>   0.5690 
 10 C       -3.2450    -0.7480    -0.3360 C.ar  1 <1>  -0.1500 
 11 C       -1.5700    -1.0550    -2.0190 C.ar  1 <1>  -0.1500 
 12 O        3.0630    -3.4340     1.5710 O.2   1 <1>  -0.5700 
 13 N        2.7680    -1.7880     0.0660 N.am  1 <1>  -0.7300 
 14 C       -3.9110     0.1410    -1.1610 C.ar  1 <1>  -0.1500 
 15 C       -2.2350    -0.1660    -2.8450 C.ar  1 <1>  -0.1500 
 16 C        4.1690    -1.3970    -0.1320 C.3   1 <1>   0.2200 
 17 C       -3.4070     0.4330    -2.4160 C.ar  1 <1>  -0.1500 
 18 C        4.3540     0.0300     0.3940 C.3   1 <1>  -0.1600 
 19 C        4.5070    -1.4910    -1.6230 C.3   1 <1>  -0.1600 
 20 C        5.7760     0.5410     0.1190 C.3   1 <1>  -0.1600 
 21 C        5.9290    -0.9820    -1.9020 C.3   1 <1>  -0.1600 
 22 C        6.1210     0.4460    -1.3740 C.3   1 <1>  -0.1600 
 23 H        0.5400     0.9930    -0.1170 H     1 <1>   0.0800 
 24 H       -0.2600     1.8570     1.1650 H     1 <1>   0.0800 
 25 H       -1.1980     0.9710     0.0060 H     1 <1>   0.0800 
 26 H       -1.9310    -2.5730     1.0070 H     1 <1>   0.0800 
 27 H       -1.1870    -3.2310    -0.4180 H     1 <1>   0.0800 
 28 H        0.5510    -3.8150     0.7090 H     1 <1>   0.0800 
 29 H        0.6010    -2.9500     2.2090 H     1 <1>   0.0800 
 30 H       -3.6450    -0.9610     0.6420 H     1 <1>   0.1500 
 31 H       -0.6580    -1.5170    -2.3590 H     1 <1>   0.1500 
 32 H        2.0700    -1.1940    -0.3800 H     1 <1>   0.3700 
 33 H       -4.8230     0.6060    -0.8270 H     1 <1>   0.1500 
 34 H       -1.8430     0.0590    -3.8220 H     1 <1>   0.1500 
 35 H        4.8120    -2.0640     0.4210 H     1 <1>   0.0800 
 36 H       -3.9260     1.1230    -3.0590 H     1 <1>   0.1500 
 37 H        4.1670     0.0420     1.4540 H     1 <1>   0.0800 
 38 H        3.6480     0.6850    -0.0830 H     1 <1>   0.0800 
 39 H        3.8070    -0.9020    -2.1890 H     1 <1>   0.0800 
 40 H        4.4270    -2.5170    -1.9390 H     1 <1>   0.0800 
 41 H        6.4790    -0.0450     0.6850 H     1 <1>   0.0800 
 42 H        5.8610     1.5630     0.4470 H     1 <1>   0.0800 
 43 H        6.1200    -1.0060    -2.9610 H     1 <1>   0.0800 
 44 H        6.6400    -1.6360    -1.4240 H     1 <1>   0.0800 
 45 H        7.1420     0.7530    -1.5270 H     1 <1>   0.0800 
 46 H        5.4890     1.1190    -1.9290 H     1 <1>   0.0800 
@<TRIPOS>BOND
  1   1   2  2   
  2   1   3  2   
  3   1   4  am  
  4   1   5  1   
  5   4   6  1   
  6   4   7  1   
  7   5  23  1   
  8   5  24  1   
  9   5  25  1   
 10   6   8  1   
 11   6  26  1   
 12   6  27  1   
 13   7   9  1   
 14   7  28  1   
 15   7  29  1   
 16   8  10  ar  
 17   8  11  ar  
 18   9  12  2   
 19   9  13  am  
 20  10  14  ar  
 21  10  30  1   
 22  11  15  ar  
 23  11  31  1   
 24  13  16  1   
 25  13  32  1   
 26  14  17  ar  
 27  14  33  1   
 28  15  17  ar  
 29  15  34  1   
 30  16  18  1   
 31  16  19  1   
 32  16  35  1   
 33  17  36  1   
 34  18  20  1   
 35  18  37  1   
 36  18  38  1   
 37  19  21  1   
 38  19  39  1   
 39  19  40  1   
 40  20  22  1   
 41  20  41  1   
 42  20  42  1   
 43  21  22  1   
 44  21  43  1   
 45  21  44  1   
 46  22  45  1   
 47  22  46  1   
@<TRIPOS>SUBSTRUCTURE
  1 ****   4 GROUP 4 **** **** 0

# MOE 2024.06 (io_trps.svl 2023.06)
