@<TRIPOS>MOLECULE
NONAME
52 55 1 0 0 
SMALL
USER_CHARGES


@<TRIPOS>ATOM
  1 S       -0.4720    -1.6720    -1.8520 S.3   1 <1>  -0.0800 
  2 C       -0.4900    -1.0590    -0.2060 C.2   1 <1>  -0.1400 
  3 C       -1.0720    -0.1470    -2.4760 C.2   1 <1>  -0.1100 
  4 C       -0.9240     0.2160    -0.1850 C.2   1 <1>  -0.1500 
  5 C       -0.0350    -1.9840     0.9090 C.3   1 <1>   0.2000 
  6 C       -1.2550     0.7350    -1.4770 C.2   1 <1>  -0.1500 
  7 C       -1.2140    -2.6920     1.5570 C.2   1 <1>   0.0060 
  8 N       -1.9260    -2.1700     2.5010 N.2   1 <1>  -0.3380 
  9 N       -1.6200    -3.9380     1.2380 N.pl3 1 <1>   0.3260 
 10 N       -2.8430    -3.0730     2.8540 N.2   1 <1>  -0.3380 
 11 C       -0.9740    -4.9020     0.4230 C.ar  1 <1>  -0.0230 
 12 C       -2.6390    -4.0930     2.1010 C.2   1 <1>   0.2420 
 13 C       -0.1490    -5.8620     0.9990 C.ar  1 <1>  -0.1500 
 14 C       -1.1570    -4.9100    -0.9540 C.ar  1 <1>  -0.1500 
 15 S       -3.6660    -5.5730     2.2330 S.3   1 <1>  -0.2860 
 16 C        0.4820    -6.8090     0.2120 C.ar  1 <1>  -0.1500 
 17 C       -0.5270    -5.8560    -1.7410 C.ar  1 <1>  -0.1500 
 18 C       -3.9750    -6.1600     0.4910 C.3   1 <1>   0.1310 
 19 C        0.2940    -6.8060    -1.1590 C.ar  1 <1>  -0.1500 
 20 C       -4.4300    -5.0320    -0.4270 C.2   1 <1>   0.5690 
 21 O       -4.3160    -5.1910    -1.6180 O.2   1 <1>  -0.5700 
 22 N       -4.9240    -3.8810     0.0980 N.am  1 <1>  -0.7300 
 23 C       -5.2800    -2.6730    -0.6580 C.3   1 <1>   0.2200 
 24 C       -4.3210    -1.5470    -0.2600 C.3   1 <1>  -0.1600 
 25 C       -6.7320    -2.3030    -0.3430 C.3   1 <1>  -0.1600 
 26 C       -4.7100    -0.2200    -0.9270 C.3   1 <1>  -0.1600 
 27 C       -7.1270    -0.9810    -1.0180 C.3   1 <1>  -0.1600 
 28 C       -6.1680     0.1490    -0.6200 C.3   1 <1>  -0.1600 
 29 H       -1.2250    -0.0720    -3.5380 H     1 <1>   0.1500 
 30 H       -1.0330     0.8230     0.6970 H     1 <1>   0.1500 
 31 H        0.4530    -1.3920     1.6610 H     1 <1>   0.0800 
 32 H        0.6850    -2.6900     0.5350 H     1 <1>   0.0800 
 33 H       -1.6140     1.7430    -1.5900 H     1 <1>   0.1500 
 34 H        0.0010    -5.8750     2.0660 H     1 <1>   0.1500 
 35 H       -1.8000    -4.1830    -1.4220 H     1 <1>   0.1500 
 36 H        1.1200    -7.5490     0.6640 H     1 <1>   0.1500 
 37 H       -0.6800    -5.8540    -2.8070 H     1 <1>   0.1500 
 38 H       -4.7380    -6.9130     0.5470 H     1 <1>   0.0800 
 39 H       -3.0660    -6.6010     0.1290 H     1 <1>   0.0800 
 40 H        0.7840    -7.5420    -1.7730 H     1 <1>   0.1500 
 41 H       -4.9580    -3.7670     1.1160 H     1 <1>   0.3700 
 42 H       -5.1840    -2.8610    -1.7160 H     1 <1>   0.0800 
 43 H       -3.3220    -1.8090    -0.5560 H     1 <1>   0.0800 
 44 H       -4.3350    -1.4170     0.8080 H     1 <1>   0.0800 
 45 H       -6.8550    -2.2030     0.7210 H     1 <1>   0.0800 
 46 H       -7.3810    -3.0880    -0.6910 H     1 <1>   0.0800 
 47 H       -4.5770    -0.3050    -1.9920 H     1 <1>   0.0800 
 48 H       -4.0590     0.5610    -0.5740 H     1 <1>   0.0800 
 49 H       -8.1320    -0.7180    -0.7360 H     1 <1>   0.0800 
 50 H       -7.1050    -1.1070    -2.0870 H     1 <1>   0.0800 
 51 H       -6.4310     1.0490    -1.1500 H     1 <1>   0.0800 
 52 H       -6.2680     0.3470     0.4340 H     1 <1>   0.0800 
@<TRIPOS>BOND
  1   1   2  1   
  2   1   3  1   
  3   2   4  2   
  4   2   5  1   
  5   3   6  2   
  6   3  29  1   
  7   4   6  1   
  8   4  30  1   
  9   5   7  1   
 10   5  31  1   
 11   5  32  1   
 12   6  33  1   
 13   7   8  2   
 14   7   9  1   
 15   8  10  1   
 16   9  11  1   
 17   9  12  1   
 18  10  12  2   
 19  11  13  ar  
 20  11  14  ar  
 21  12  15  1   
 22  13  16  ar  
 23  13  34  1   
 24  14  17  ar  
 25  14  35  1   
 26  15  18  1   
 27  16  19  ar  
 28  16  36  1   
 29  17  19  ar  
 30  17  37  1   
 31  18  20  1   
 32  18  38  1   
 33  18  39  1   
 34  19  40  1   
 35  20  21  2   
 36  20  22  am  
 37  22  23  1   
 38  22  41  1   
 39  23  24  1   
 40  23  25  1   
 41  23  42  1   
 42  24  26  1   
 43  24  43  1   
 44  24  44  1   
 45  25  27  1   
 46  25  45  1   
 47  25  46  1   
 48  26  28  1   
 49  26  47  1   
 50  26  48  1   
 51  27  28  1   
 52  27  49  1   
 53  27  50  1   
 54  28  51  1   
 55  28  52  1   
@<TRIPOS>SUBSTRUCTURE
  1 ****   9 GROUP 4 **** **** 0

# MOE 2024.06 (io_trps.svl 2023.06)
