@<TRIPOS>MOLECULE
NONAME
50 51 1 0 0 
SMALL
USER_CHARGES


@<TRIPOS>ATOM
  1 O        0.8090     0.3990    -0.4470 O.2   1 <1>  -0.5700 
  2 C        0.5030     1.5530    -0.2980 C.2   1 <1>   0.6590 
  3 O       -0.7220     1.9330     0.0240 O.3   1 <1>  -0.4300 
  4 C        1.5190     2.6690    -0.4720 C.3   1 <1>  -0.0190 
  5 C       -1.7580     0.9990     0.2240 C.3   1 <1>   0.1200 
  6 C        2.7230     2.1420    -1.2770 C.3   1 <1>   0.3430 
  7 C        1.9470     3.2720     0.8810 C.3   1 <1>  -0.1600 
  8 C       -3.0240     1.7680     0.5860 C.3   1 <1>  -0.2400 
  9 N        4.0190     2.7750    -0.8660 N.4   1 <1>  -0.9590 
 10 C        2.9880     4.3930     0.6870 C.3   1 <1>  -0.1600 
 11 C        3.8850     4.2240    -0.5470 C.3   1 <1>   0.3430 
 12 C        5.1110     2.4980    -1.8350 C.3   1 <1>   0.4860 
 13 C        6.4250     2.8470    -1.1610 C.ar  1 <1>  -0.1430 
 14 C        6.9720     2.0760    -0.1330 C.ar  1 <1>  -0.1430 
 15 C        7.0750     3.9930    -1.5900 C.ar  1 <1>  -0.1500 
 16 C        8.1520     2.4960     0.4850 C.ar  1 <1>  -0.1430 
 17 C        6.3110     0.7700     0.3210 C.3   1 <1>  -0.0970 
 18 C        8.2530     4.3940    -0.9970 C.ar  1 <1>  -0.1500 
 19 C        8.7980     3.6520     0.0440 C.ar  1 <1>   0.0830 
 20 C        8.7630     1.6960     1.6410 C.3   1 <1>  -0.0970 
 21 O        9.9590     4.0160     0.6510 O.3   1 <1>  -0.3620 
 22 C       10.7370     5.1060     0.2100 C.3   1 <1>   0.0400 
 23 H        1.0410     3.4370    -1.0530 H     1 <1>   0.0800 
 24 H       -1.4710     0.3330     1.0210 H     1 <1>   0.0800 
 25 H       -1.8950     0.4370    -0.6850 H     1 <1>   0.0800 
 26 H        2.5390     2.3200    -2.3240 H     1 <1>   0.0800 
 27 H        2.8090     1.0750    -1.1400 H     1 <1>   0.0800 
 28 H        2.3710     2.4920     1.4930 H     1 <1>   0.0800 
 29 H        1.0890     3.6600     1.4060 H     1 <1>   0.0800 
 30 H       -2.8740     2.3300     1.4900 H     1 <1>   0.0800 
 31 H       -3.8330     1.0780     0.7450 H     1 <1>   0.0800 
 32 H       -3.2970     2.4340    -0.2120 H     1 <1>   0.0800 
 33 H        4.3300     2.3360     0.0120 H     1 <1>   0.4500 
 34 H        3.6060     4.4570     1.5670 H     1 <1>   0.0800 
 35 H        2.4830     5.3400     0.5980 H     1 <1>   0.0800 
 36 H        3.4470     4.7370    -1.3880 H     1 <1>   0.0800 
 37 H        4.8510     4.6620    -0.3480 H     1 <1>   0.0800 
 38 H        4.9800     3.0870    -2.7270 H     1 <1>   0.0800 
 39 H        5.1160     1.4560    -2.1110 H     1 <1>   0.0800 
 40 H        6.6760     4.5900    -2.3920 H     1 <1>   0.1500 
 41 H        5.6040     0.3840    -0.3860 H     1 <1>   0.0800 
 42 H        5.8150     0.9160     1.2650 H     1 <1>   0.0800 
 43 H        7.0580     0.0060     0.4470 H     1 <1>   0.0800 
 44 H        8.7320     5.2840    -1.3570 H     1 <1>   0.1500 
 45 H        8.0040     1.3040     2.2920 H     1 <1>   0.0800 
 46 H        9.4050     2.3040     2.2530 H     1 <1>   0.0800 
 47 H        9.3470     0.8830     1.2500 H     1 <1>   0.0800 
 48 H       11.6180     5.1560     0.8240 H     1 <1>   0.0800 
 49 H       10.1660     6.0110     0.3180 H     1 <1>   0.0800 
 50 H       11.0180     4.9430    -0.8160 H     1 <1>   0.0800 
@<TRIPOS>BOND
  1   1   2  2   
  2   2   3  1   
  3   2   4  1   
  4   3   5  1   
  5   4   6  1   
  6   4   7  1   
  7   4  23  1   
  8   5   8  1   
  9   5  24  1   
 10   5  25  1   
 11   6   9  1   
 12   6  26  1   
 13   6  27  1   
 14   7  10  1   
 15   7  28  1   
 16   7  29  1   
 17   8  30  1   
 18   8  31  1   
 19   8  32  1   
 20   9  11  1   
 21   9  12  1   
 22   9  33  1   
 23  10  11  1   
 24  10  34  1   
 25  10  35  1   
 26  11  36  1   
 27  11  37  1   
 28  12  13  1   
 29  12  38  1   
 30  12  39  1   
 31  13  14  ar  
 32  13  15  ar  
 33  14  16  ar  
 34  14  17  1   
 35  15  18  ar  
 36  15  40  1   
 37  16  19  ar  
 38  16  20  1   
 39  17  41  1   
 40  17  42  1   
 41  17  43  1   
 42  18  19  ar  
 43  18  44  1   
 44  19  21  1   
 45  20  45  1   
 46  20  46  1   
 47  20  47  1   
 48  21  22  1   
 49  22  48  1   
 50  22  49  1   
 51  22  50  1   
@<TRIPOS>SUBSTRUCTURE
  1 ****   9 GROUP 4 **** **** 0

# MOE 2024.06 (io_trps.svl 2023.06)
