@<TRIPOS>MOLECULE
NONAME
46 48 1 0 0 
SMALL
USER_CHARGES


@<TRIPOS>ATOM
  1 O        0.3070    -1.1590    -2.4540 O.2   1 <1>  -0.5700 
  2 C        0.1210    -1.6710    -1.3730 C.2   1 <1>   0.5690 
  3 N        1.0820    -1.7620    -0.4030 N.am  1 <1>  -0.5470 
  4 C       -1.2820    -2.2100    -1.0240 C.3   1 <1>   0.3950 
  5 C        2.4240    -1.3560    -0.3180 C.ar  1 <1>   0.1170 
  6 N       -1.6650    -1.9800     0.4130 N.3   1 <1>  -0.8100 
  7 C       -1.3520    -3.7020    -1.3720 C.ar  1 <1>  -0.1430 
  8 C        3.0230    -1.3020     0.9450 C.ar  1 <1>   0.0830 
  9 C        3.1770    -1.0160    -1.4350 C.ar  1 <1>  -0.1500 
 10 C       -2.9860    -2.5710     0.7340 C.3   1 <1>   0.1100 
 11 C       -1.7060    -0.5320     0.7320 C.3   1 <1>   0.1100 
 12 C       -0.7020    -4.6520    -0.5940 C.ar  1 <1>  -0.1500 
 13 C       -2.0720    -4.1210    -2.4820 C.ar  1 <1>  -0.1500 
 14 O        2.2500    -1.6490     2.0190 O.3   1 <1>  -0.3630 
 15 C        4.3520    -0.9060     1.0690 C.ar  1 <1>  -0.1500 
 16 C        4.4980    -0.6240    -1.3070 C.ar  1 <1>  -0.1500 
 17 C       -3.3970    -2.2670     2.1860 C.3   1 <1>   0.1200 
 18 C       -2.1480    -0.2940     2.1870 C.3   1 <1>   0.1200 
 19 C       -0.7730    -5.9950    -0.9180 C.ar  1 <1>  -0.1500 
 20 C       -2.1450    -5.4650    -2.8070 C.ar  1 <1>  -0.1500 
 21 C        2.7790    -1.6750     3.3260 C.3   1 <1>   0.0400 
 22 C        5.0850    -0.5680    -0.0560 C.ar  1 <1>  -0.1500 
 23 O       -3.3910    -0.8890     2.4210 O.3   1 <1>  -0.5600 
 24 C       -1.4960    -6.4030    -2.0240 C.ar  1 <1>  -0.1500 
 25 H        0.7080    -2.0910     0.4940 H     1 <1>   0.3700 
 26 H       -1.9840    -1.6840    -1.6460 H     1 <1>   0.0800 
 27 H        2.7370    -1.0600    -2.4140 H     1 <1>   0.1500 
 28 H       -2.9550    -3.6390     0.6130 H     1 <1>   0.0800 
 29 H       -3.7390    -2.1810     0.0700 H     1 <1>   0.0800 
 30 H       -2.3920    -0.0260     0.0750 H     1 <1>   0.0800 
 31 H       -0.7330    -0.0920     0.6000 H     1 <1>   0.0800 
 32 H       -0.1400    -4.3450     0.2710 H     1 <1>   0.1500 
 33 H       -2.5770    -3.4030    -3.1050 H     1 <1>   0.1500 
 34 H        4.8360    -0.8530     2.0250 H     1 <1>   0.1500 
 35 H        5.0660    -0.3630    -2.1830 H     1 <1>   0.1500 
 36 H       -2.7180    -2.7380     2.8750 H     1 <1>   0.0800 
 37 H       -4.3910    -2.6290     2.3760 H     1 <1>   0.0800 
 38 H       -2.2470     0.7590     2.3790 H     1 <1>   0.0800 
 39 H       -1.4300    -0.7080     2.8730 H     1 <1>   0.0800 
 40 H       -0.2660    -6.7220    -0.3080 H     1 <1>   0.1500 
 41 H       -2.7050    -5.7800    -3.6700 H     1 <1>   0.1500 
 42 H        2.0010    -1.9940     3.9960 H     1 <1>   0.0800 
 43 H        3.1040    -0.6840     3.5910 H     1 <1>   0.0800 
 44 H        3.5980    -2.3720     3.3580 H     1 <1>   0.0800 
 45 H        6.1130    -0.2620     0.0410 H     1 <1>   0.1500 
 46 H       -1.5520    -7.4470    -2.2770 H     1 <1>   0.1500 
@<TRIPOS>BOND
  1   1   2  2   
  2   2   3  am  
  3   2   4  1   
  4   3   5  1   
  5   3  25  1   
  6   4   6  1   
  7   4   7  1   
  8   4  26  1   
  9   5   8  ar  
 10   5   9  ar  
 11   6  10  1   
 12   6  11  1   
 13   7  12  ar  
 14   7  13  ar  
 15   8  14  1   
 16   8  15  ar  
 17   9  16  ar  
 18   9  27  1   
 19  10  17  1   
 20  10  28  1   
 21  10  29  1   
 22  11  18  1   
 23  11  30  1   
 24  11  31  1   
 25  12  19  ar  
 26  12  32  1   
 27  13  20  ar  
 28  13  33  1   
 29  14  21  1   
 30  15  22  ar  
 31  15  34  1   
 32  16  22  ar  
 33  16  35  1   
 34  17  23  1   
 35  17  36  1   
 36  17  37  1   
 37  18  23  1   
 38  18  38  1   
 39  18  39  1   
 40  19  24  ar  
 41  19  40  1   
 42  20  24  ar  
 43  20  41  1   
 44  21  42  1   
 45  21  43  1   
 46  21  44  1   
 47  22  45  1   
 48  24  46  1   
@<TRIPOS>SUBSTRUCTURE
  1 ****   3 GROUP 4 **** **** 0

# MOE 2024.06 (io_trps.svl 2023.06)
