@<TRIPOS>MOLECULE
NONAME
43 45 1 0 0 
SMALL
USER_CHARGES


@<TRIPOS>ATOM
  1 O        0.5080     0.2710    -0.9100 O.2   1 <1>  -0.5700 
  2 C        0.9230     1.4150    -0.8970 C.2   1 <1>   0.6900 
  3 N        2.2720     1.6630    -0.9790 N.am  1 <1>  -0.6600 
  4 N        0.0640     2.4740    -0.8300 N.am  1 <1>  -0.5470 
  5 C        2.9280     2.9260    -0.5320 C.3   1 <1>   0.1400 
  6 C        3.2300     0.5850    -1.3580 C.3   1 <1>   0.1400 
  7 C       -1.3180     2.5460    -0.6060 C.ar  1 <1>   0.1170 
  8 C        3.8260     2.6310     0.6690 C.3   1 <1>  -0.1600 
  9 C        4.1310     0.2590    -0.1680 C.3   1 <1>  -0.1600 
 10 C       -2.0330     1.5460     0.0460 C.ar  1 <1>  -0.1500 
 11 C       -2.0080     3.6740    -1.0340 C.ar  1 <1>  -0.1500 
 12 C        4.8220     1.5260     0.3410 C.3   1 <1>   0.5600 
 13 C       -3.3940     1.6690     0.2580 C.ar  1 <1>  -0.1500 
 14 C       -3.3690     3.8000    -0.8220 C.ar  1 <1>  -0.1500 
 15 O        5.5820     1.2510     1.4670 O.3   1 <1>  -0.5600 
 16 O        5.7250     1.9980    -0.6050 O.3   1 <1>  -0.5600 
 17 C       -4.0730     2.7970    -0.1750 C.ar  1 <1>  -0.1430 
 18 C        6.8680     0.9320     1.0760 C.3   1 <1>   0.1200 
 19 C        6.9800     1.4830    -0.3330 C.3   1 <1>   0.1200 
 20 C       -5.5690     2.9310     0.0570 C.3   1 <1>  -0.0170 
 21 C       -5.8460     3.6220     1.3940 C.3   1 <1>  -0.2400 
 22 H        0.5060     3.3440    -1.0980 H     1 <1>   0.3700 
 23 H        2.2020     3.6670    -0.2520 H     1 <1>   0.0800 
 24 H        3.5210     3.3200    -1.3410 H     1 <1>   0.0800 
 25 H        3.8280     0.9250    -2.1870 H     1 <1>   0.0800 
 26 H        2.7040    -0.3010    -1.6720 H     1 <1>   0.0800 
 27 H        3.2120     2.3190     1.4940 H     1 <1>   0.0800 
 28 H        4.3600     3.5170     0.9570 H     1 <1>   0.0800 
 29 H        4.8570    -0.4780    -0.4540 H     1 <1>   0.0800 
 30 H        3.5220    -0.1510     0.6170 H     1 <1>   0.0800 
 31 H       -1.5240     0.6660     0.3930 H     1 <1>   0.1500 
 32 H       -1.4790     4.4600    -1.5390 H     1 <1>   0.1500 
 33 H       -3.9230     0.8810     0.7640 H     1 <1>   0.1500 
 34 H       -3.8810     4.6830    -1.1610 H     1 <1>   0.1500 
 35 H        6.9840    -0.1370     1.0930 H     1 <1>   0.0800 
 36 H        7.5660     1.3940     1.7500 H     1 <1>   0.0800 
 37 H        7.7040     2.2760    -0.3980 H     1 <1>   0.0800 
 38 H        7.2070     0.7100    -1.0460 H     1 <1>   0.0800 
 39 H       -6.0240     1.9560     0.0530 H     1 <1>   0.0800 
 40 H       -6.0100     3.5000    -0.7430 H     1 <1>   0.0800 
 41 H       -5.4210     3.0510     2.2000 H     1 <1>   0.0800 
 42 H       -6.9050     3.7120     1.5530 H     1 <1>   0.0800 
 43 H       -5.4080     4.6050     1.4010 H     1 <1>   0.0800 
@<TRIPOS>BOND
  1   1   2  2   
  2   2   3  am  
  3   2   4  am  
  4   3   5  1   
  5   3   6  1   
  6   4   7  1   
  7   4  22  1   
  8   5   8  1   
  9   5  23  1   
 10   5  24  1   
 11   6   9  1   
 12   6  25  1   
 13   6  26  1   
 14   7  10  ar  
 15   7  11  ar  
 16   8  12  1   
 17   8  27  1   
 18   8  28  1   
 19   9  12  1   
 20   9  29  1   
 21   9  30  1   
 22  10  13  ar  
 23  10  31  1   
 24  11  14  ar  
 25  11  32  1   
 26  12  15  1   
 27  12  16  1   
 28  13  17  ar  
 29  13  33  1   
 30  14  17  ar  
 31  14  34  1   
 32  15  18  1   
 33  16  19  1   
 34  17  20  1   
 35  18  19  1   
 36  18  35  1   
 37  18  36  1   
 38  19  37  1   
 39  19  38  1   
 40  20  21  1   
 41  20  39  1   
 42  20  40  1   
 43  21  41  1   
 44  21  42  1   
 45  21  43  1   
@<TRIPOS>SUBSTRUCTURE
  1 ****   2 GROUP 4 **** **** 0

# MOE 2024.06 (io_trps.svl 2023.06)
