@<TRIPOS>MOLECULE
NONAME
42 44 1 0 0 
SMALL
USER_CHARGES


@<TRIPOS>ATOM
  1 O       -2.5970    -0.0950    -1.1030 O.3   1 <1>  -0.3630 
  2 C       -2.7130     0.4190     0.1560 C.ar  1 <1>   0.0820 
  3 C       -1.4570     0.0820    -1.9070 C.3   1 <1>   0.1200 
  4 C       -1.7720     1.2070     0.8430 C.ar  1 <1>   0.0820 
  5 C       -3.9040     0.1070     0.7910 C.ar  1 <1>  -0.1500 
  6 C       -1.6900    -0.6510    -3.2250 C.3   1 <1>  -0.2400 
  7 O       -0.5800     1.5730     0.3240 O.3   1 <1>  -0.5320 
  8 C       -2.0520     1.6530     2.1260 C.ar  1 <1>  -0.1500 
  9 C       -4.1830     0.5510     2.0740 C.ar  1 <1>  -0.1430 
 10 C       -3.2490     1.3290     2.7390 C.ar  1 <1>  -0.1500 
 11 C       -5.5060     0.1910     2.7270 C.3   1 <1>   0.3530 
 12 N       -6.5360     1.0850     2.1700 N.pl3 1 <1>  -0.8690 
 13 C       -7.5280     0.4840     1.4120 C.ar  1 <1>   0.1000 
 14 C       -7.5600     0.6710     0.0340 C.ar  1 <1>  -0.1500 
 15 C       -8.4960    -0.3170     2.0120 C.ar  1 <1>  -0.1500 
 16 C       -8.5410     0.0510    -0.7150 C.ar  1 <1>  -0.1430 
 17 C       -9.4780    -0.9350     1.2550 C.ar  1 <1>  -0.1500 
 18 C       -9.4870    -0.7430    -0.1150 C.ar  1 <1>  -0.1430 
 19 C       -8.7460     0.1150    -2.2080 C.3   1 <1>  -0.0170 
 20 C      -10.4490    -1.3110    -1.1280 C.3   1 <1>  -0.0170 
 21 C      -10.1400    -0.5060    -2.4030 C.3   1 <1>  -0.1600 
 22 H       -0.6080    -0.3280    -1.3880 H     1 <1>   0.0800 
 23 H       -1.3200     1.1360    -2.0760 H     1 <1>   0.0800 
 24 H       -4.6260    -0.4920     0.2630 H     1 <1>   0.1500 
 25 H       -1.8430    -1.6990    -3.0410 H     1 <1>   0.0800 
 26 H       -0.8320    -0.5340    -3.8620 H     1 <1>   0.0800 
 27 H       -2.5490    -0.2430    -3.7260 H     1 <1>   0.0800 
 28 H       -0.0550     2.1170     0.9360 H     1 <1>   0.4500 
 29 H       -1.3410     2.2570     2.6590 H     1 <1>   0.1500 
 30 H       -3.4540     1.6880     3.7330 H     1 <1>   0.1500 
 31 H       -5.4540     0.3270     3.7930 H     1 <1>   0.0800 
 32 H       -5.7500    -0.8390     2.5230 H     1 <1>   0.0800 
 33 H       -6.0520     1.8280     1.6540 H     1 <1>   0.4000 
 34 H       -6.8220     1.2880    -0.4410 H     1 <1>   0.1500 
 35 H       -8.4750    -0.4460     3.0770 H     1 <1>   0.1500 
 36 H      -10.2220    -1.5530     1.7230 H     1 <1>   0.1500 
 37 H       -7.9920    -0.4770    -2.6970 H     1 <1>   0.0800 
 38 H       -8.7090     1.1280    -2.5680 H     1 <1>   0.0800 
 39 H      -11.4710    -1.1830    -0.8170 H     1 <1>   0.0800 
 40 H      -10.2370    -2.3550    -1.2750 H     1 <1>   0.0800 
 41 H      -10.1840    -1.1210    -3.2850 H     1 <1>   0.0800 
 42 H      -10.8610     0.2870    -2.4930 H     1 <1>   0.0800 
@<TRIPOS>BOND
  1   1   2  1   
  2   1   3  1   
  3   2   4  ar  
  4   2   5  ar  
  5   3   6  1   
  6   3  22  1   
  7   3  23  1   
  8   4   7  1   
  9   4   8  ar  
 10   5   9  ar  
 11   5  24  1   
 12   6  25  1   
 13   6  26  1   
 14   6  27  1   
 15   7  28  1   
 16   8  10  ar  
 17   8  29  1   
 18   9  10  ar  
 19   9  11  1   
 20  10  30  1   
 21  11  12  1   
 22  11  31  1   
 23  11  32  1   
 24  12  13  1   
 25  12  33  1   
 26  13  14  ar  
 27  13  15  ar  
 28  14  16  ar  
 29  14  34  1   
 30  15  17  ar  
 31  15  35  1   
 32  16  18  ar  
 33  16  19  1   
 34  17  18  ar  
 35  17  36  1   
 36  18  20  1   
 37  19  21  1   
 38  19  37  1   
 39  19  38  1   
 40  20  21  1   
 41  20  39  1   
 42  20  40  1   
 43  21  41  1   
 44  21  42  1   
@<TRIPOS>SUBSTRUCTURE
  1 ****   5 GROUP 4 **** **** 0

# MOE 2024.06 (io_trps.svl 2023.06)
