@<TRIPOS>MOLECULE
NONAME
40 41 1 0 0 
SMALL
USER_CHARGES


@<TRIPOS>ATOM
  1 F        0.9220    -0.2010     1.2740 F     1 <1>  -0.1900 
  2 C        2.1000    -0.6420     0.9180 C.ar  1 <1>   0.1900 
  3 C        3.0240    -0.9410     1.9000 C.ar  1 <1>  -0.1500 
  4 C        2.3750    -0.7950    -0.4280 C.ar  1 <1>  -0.1500 
  5 C        4.2700    -1.4070     1.5140 C.ar  1 <1>  -0.1500 
  6 C        3.6240    -1.2610    -0.8050 C.ar  1 <1>  -0.1500 
  7 C        4.5770    -1.5660     0.1690 C.ar  1 <1>   0.0830 
  8 O        5.8240    -2.0190    -0.1150 O.3   1 <1>  -0.3630 
  9 C        6.2490    -2.2160    -1.4570 C.3   1 <1>   0.1810 
 10 C        7.6930    -2.7150    -1.5250 C.2   1 <1>   0.5690 
 11 O        7.9190    -3.6290    -2.2820 O.2   1 <1>  -0.5700 
 12 N        8.7160    -2.1500    -0.7910 N.am  1 <1>  -0.6600 
 13 C       10.0500    -2.8270    -0.7070 C.3   1 <1>   0.1400 
 14 C        8.5870    -0.9130     0.0420 C.3   1 <1>   0.1400 
 15 C       11.1980    -1.8340    -0.9560 C.3   1 <1>   0.3430 
 16 C        9.7720     0.0480    -0.1850 C.3   1 <1>   0.3430 
 17 N       11.1070    -0.6360    -0.0510 N.4   1 <1>  -0.9590 
 18 C       12.2390     0.2890    -0.2710 C.3   1 <1>   0.4810 
 19 C       12.3160     1.1910     0.9380 C.2   1 <1>  -0.2880 
 20 C       13.2130     1.0800     1.9250 C.2   1 <1>  -0.3000 
 21 H        2.7710    -0.8130     2.9370 H     1 <1>   0.1500 
 22 H        1.6240    -0.5530    -1.1590 H     1 <1>   0.1500 
 23 H        5.0070    -1.6530     2.2570 H     1 <1>   0.1500 
 24 H        3.8270    -1.3800    -1.8530 H     1 <1>   0.1500 
 25 H        6.1660    -1.2850    -1.9850 H     1 <1>   0.0800 
 26 H        5.6020    -2.9480    -1.9060 H     1 <1>   0.0800 
 27 H       10.1200    -3.6220    -1.4300 H     1 <1>   0.0800 
 28 H       10.1580    -3.2710     0.2670 H     1 <1>   0.0800 
 29 H        8.5370    -1.1910     1.0810 H     1 <1>   0.0800 
 30 H        7.6800    -0.3870    -0.1980 H     1 <1>   0.0800 
 31 H       11.1550    -1.5190    -1.9860 H     1 <1>   0.0800 
 32 H       12.1360    -2.3420    -0.8030 H     1 <1>   0.0800 
 33 H        9.7020     0.8570     0.5240 H     1 <1>   0.0800 
 34 H        9.6820     0.4690    -1.1720 H     1 <1>   0.0800 
 35 H       11.1960    -0.9580     0.9220 H     1 <1>   0.4500 
 36 H       12.1080     0.8630    -1.1750 H     1 <1>   0.0800 
 37 H       13.1580    -0.2710    -0.3480 H     1 <1>   0.0800 
 38 H       11.5690     1.9660     0.9380 H     1 <1>   0.1500 
 39 H       13.2520     1.7420     2.7760 H     1 <1>   0.1500 
 40 H       13.9890     0.3340     1.9790 H     1 <1>   0.1500 
@<TRIPOS>BOND
  1   1   2  1   
  2   2   3  ar  
  3   2   4  ar  
  4   3   5  ar  
  5   3  21  1   
  6   4   6  ar  
  7   4  22  1   
  8   5   7  ar  
  9   5  23  1   
 10   6   7  ar  
 11   6  24  1   
 12   7   8  1   
 13   8   9  1   
 14   9  10  1   
 15   9  25  1   
 16   9  26  1   
 17  10  11  2   
 18  10  12  am  
 19  12  13  1   
 20  12  14  1   
 21  13  15  1   
 22  13  27  1   
 23  13  28  1   
 24  14  16  1   
 25  14  29  1   
 26  14  30  1   
 27  15  17  1   
 28  15  31  1   
 29  15  32  1   
 30  16  17  1   
 31  16  33  1   
 32  16  34  1   
 33  17  18  1   
 34  17  35  1   
 35  18  19  1   
 36  18  36  1   
 37  18  37  1   
 38  19  20  2   
 39  19  38  1   
 40  20  39  1   
 41  20  40  1   
@<TRIPOS>SUBSTRUCTURE
  1 ****  14 GROUP 4 **** **** 0

# MOE 2024.06 (io_trps.svl 2023.06)
