@<TRIPOS>MOLECULE
NONAME
41 43 1 0 0 
SMALL
USER_CHARGES


@<TRIPOS>ATOM
  1 O        0.2320    -0.1340     1.5320 O.co2 1 <1>  -0.9000 
  2 C        0.5560    -0.8720     0.5940 C.2   1 <1>   0.9060 
  3 O       -0.2020    -1.0620    -0.3580 O.co2 1 <1>  -0.9000 
  4 C        1.9010    -1.5580     0.6970 C.3   1 <1>  -0.1860 
  5 C        3.2140    -0.7130     0.7320 C.3   1 <1>  -0.0190 
  6 C        2.1830    -2.5140    -0.4700 C.3   1 <1>   0.2000 
  7 C        3.2350     0.7950     0.4220 C.2   1 <1>   0.5690 
  8 C        4.0320    -1.4700    -0.3290 C.3   1 <1>   0.2000 
  9 O        3.0580    -1.7840    -1.2490 O.3   1 <1>  -0.5600 
 10 C        3.1150    -3.6360    -0.0070 C.3   1 <1>  -0.1600 
 11 O        4.2720     1.2740     0.0200 O.2   1 <1>  -0.5700 
 12 N        2.1490     1.5740     0.6880 N.am  1 <1>  -0.5470 
 13 C        4.4350    -2.8720     0.1500 C.3   1 <1>  -0.1600 
 14 C        1.8180     2.8910     0.3580 C.ar  1 <1>   0.1170 
 15 C        0.4690     3.1860     0.2350 C.ar  1 <1>  -0.1500 
 16 C        2.7490     3.9030     0.1600 C.ar  1 <1>  -0.1500 
 17 C        0.0460     4.4710    -0.0850 C.ar  1 <1>   0.0820 
 18 C        2.3430     5.1900    -0.1530 C.ar  1 <1>   0.0820 
 19 O       -1.2610     4.8140    -0.2290 O.3   1 <1>  -0.3630 
 20 C        0.9850     5.4710    -0.2760 C.ar  1 <1>  -0.1500 
 21 O        3.3190     6.1200    -0.3230 O.3   1 <1>  -0.3620 
 22 C       -2.2680     3.8270    -0.1430 C.3   1 <1>   0.0400 
 23 C        3.0050     7.4500    -0.6670 C.3   1 <1>   0.0400 
 24 H        1.8320    -2.1300     1.6010 H     1 <1>   0.0800 
 25 H        3.6850    -0.8230     1.6900 H     1 <1>   0.0800 
 26 H        1.3250    -2.8370    -1.0370 H     1 <1>   0.0800 
 27 H        4.8330    -0.9190    -0.7910 H     1 <1>   0.0800 
 28 H        3.1900    -4.3810    -0.7790 H     1 <1>   0.0800 
 29 H        2.7800    -4.0960     0.9050 H     1 <1>   0.0800 
 30 H        1.3470     1.0470     1.0790 H     1 <1>   0.3700 
 31 H        4.7930    -2.8610     1.1630 H     1 <1>   0.0800 
 32 H        5.1920    -3.2770    -0.4970 H     1 <1>   0.0800 
 33 H       -0.2280     2.3820     0.3920 H     1 <1>   0.1500 
 34 H        3.7970     3.6920     0.2510 H     1 <1>   0.1500 
 35 H        0.6280     6.4510    -0.5180 H     1 <1>   0.1500 
 36 H       -3.2160     4.2960    -0.3260 H     1 <1>   0.0800 
 37 H       -2.2540     3.3970     0.8430 H     1 <1>   0.0800 
 38 H       -2.0820     3.0710    -0.8870 H     1 <1>   0.0800 
 39 H        3.9260     7.9970    -0.7580 H     1 <1>   0.0800 
 40 H        2.4000     7.8780     0.1130 H     1 <1>   0.0800 
 41 H        2.4820     7.4530    -1.6070 H     1 <1>   0.0800 
@<TRIPOS>BOND
  1   1   2  ar  
  2   2   3  ar  
  3   2   4  1   
  4   4   5  1   
  5   4   6  1   
  6   4  24  1   
  7   5   7  1   
  8   5   8  1   
  9   5  25  1   
 10   6   9  1   
 11   6  10  1   
 12   6  26  1   
 13   7  11  2   
 14   7  12  am  
 15   8   9  1   
 16   8  13  1   
 17   8  27  1   
 18  10  13  1   
 19  10  28  1   
 20  10  29  1   
 21  12  14  1   
 22  12  30  1   
 23  13  31  1   
 24  13  32  1   
 25  14  15  ar  
 26  14  16  ar  
 27  15  17  ar  
 28  15  33  1   
 29  16  18  ar  
 30  16  34  1   
 31  17  19  1   
 32  17  20  ar  
 33  18  20  ar  
 34  18  21  1   
 35  19  22  1   
 36  20  35  1   
 37  21  23  1   
 38  22  36  1   
 39  22  37  1   
 40  22  38  1   
 41  23  39  1   
 42  23  40  1   
 43  23  41  1   
@<TRIPOS>SUBSTRUCTURE
  1 ****  12 GROUP 4 **** **** 0

# MOE 2024.06 (io_trps.svl 2023.06)
