@<TRIPOS>MOLECULE
NONAME
47 50 1 0 0 
SMALL
USER_CHARGES


@<TRIPOS>ATOM
  1 O       -0.2900     0.7520     1.4060 O.2   1 <1>  -0.5700 
  2 C       -1.3370     1.1830     0.9670 C.2   1 <1>   0.6900 
  3 N       -1.4180     2.3930     0.3270 N.am  1 <1>  -0.4770 
  4 N       -2.4280     0.3960     1.0980 N.am  1 <1>  -0.5470 
  5 C       -0.3230     3.2800     0.3050 C.ar  1 <1>   0.1170 
  6 C       -2.7650     2.9620     0.0140 C.3   1 <1>   0.7850 
  7 C       -3.6900     0.6900     0.6160 C.ar  1 <1>   0.1170 
  8 C        0.3630     3.5430    -0.8760 C.ar  1 <1>  -0.1500 
  9 C        0.0980     3.9130     1.4700 C.ar  1 <1>  -0.1500 
 10 O       -2.6470     3.2980    -1.3280 O.3   1 <1>  -0.6800 
 11 C       -3.9090     1.9380     0.0520 C.ar  1 <1>  -0.1430 
 12 C       -3.1150     4.1590     0.9870 C.2   1 <1>   0.5690 
 13 C       -4.7180    -0.2400     0.6830 C.ar  1 <1>  -0.1500 
 14 C        1.4280     4.4270    -0.8970 C.ar  1 <1>  -0.1500 
 15 C        1.1610     4.7970     1.4540 C.ar  1 <1>  -0.1500 
 16 C       -5.1720     2.2390    -0.4450 C.ar  1 <1>  -0.1500 
 17 O       -3.0480     3.9070     2.1770 O.2   1 <1>  -0.5700 
 18 N       -3.4820     5.4490     0.6120 N.am  1 <1>  -0.6600 
 19 C       -5.9700     0.0690     0.1850 C.ar  1 <1>  -0.1500 
 20 C        1.8270     5.0570     0.2680 C.ar  1 <1>  -0.1500 
 21 C       -6.1970     1.3100    -0.3820 C.ar  1 <1>  -0.1500 
 22 C       -3.9810     5.8940    -0.7240 C.3   1 <1>   0.1400 
 23 C       -3.3870     6.5700     1.5950 C.3   1 <1>   0.1400 
 24 C       -5.3480     6.5730    -0.5760 C.3   1 <1>  -0.1600 
 25 C       -4.7560     7.2290     1.7770 C.3   1 <1>  -0.1600 
 26 C       -5.3160     7.7230     0.4380 C.3   1 <1>  -0.1600 
 27 H       -2.2540    -0.4740     1.5960 H     1 <1>   0.3700 
 28 H        0.0630     3.0520    -1.7820 H     1 <1>   0.1500 
 29 H       -0.4120     3.7060     2.3940 H     1 <1>   0.1500 
 30 H       -2.3490     2.4880    -1.7750 H     1 <1>   0.4000 
 31 H       -4.5400    -1.2040     1.1240 H     1 <1>   0.1500 
 32 H        1.9470     4.6220    -1.8190 H     1 <1>   0.1500 
 33 H        1.4720     5.2790     2.3640 H     1 <1>   0.1500 
 34 H       -5.3690     3.2020    -0.8830 H     1 <1>   0.1500 
 35 H       -6.7670    -0.6530     0.2370 H     1 <1>   0.1500 
 36 H        2.6550     5.7450     0.2550 H     1 <1>   0.1500 
 37 H       -7.1710     1.5540    -0.7700 H     1 <1>   0.1500 
 38 H       -4.1030     5.0760    -1.4030 H     1 <1>   0.0800 
 39 H       -3.2710     6.5820    -1.1520 H     1 <1>   0.0800 
 40 H       -2.6810     7.2950     1.2270 H     1 <1>   0.0800 
 41 H       -3.0270     6.2240     2.5490 H     1 <1>   0.0800 
 42 H       -6.0670     5.8370    -0.2610 H     1 <1>   0.0800 
 43 H       -5.6630     6.9480    -1.5340 H     1 <1>   0.0800 
 44 H       -4.6640     8.0570     2.4580 H     1 <1>   0.0800 
 45 H       -5.4290     6.5140     2.2180 H     1 <1>   0.0800 
 46 H       -6.3090     8.1140     0.5790 H     1 <1>   0.0800 
 47 H       -4.6940     8.5160     0.0600 H     1 <1>   0.0800 
@<TRIPOS>BOND
  1   1   2  2   
  2   2   3  am  
  3   2   4  am  
  4   3   5  1   
  5   3   6  1   
  6   4   7  1   
  7   4  27  1   
  8   5   8  ar  
  9   5   9  ar  
 10   6  10  1   
 11   6  11  1   
 12   6  12  1   
 13   7  11  ar  
 14   7  13  ar  
 15   8  14  ar  
 16   8  28  1   
 17   9  15  ar  
 18   9  29  1   
 19  10  30  1   
 20  11  16  ar  
 21  12  17  2   
 22  12  18  am  
 23  13  19  ar  
 24  13  31  1   
 25  14  20  ar  
 26  14  32  1   
 27  15  20  ar  
 28  15  33  1   
 29  16  21  ar  
 30  16  34  1   
 31  18  22  1   
 32  18  23  1   
 33  19  21  ar  
 34  19  35  1   
 35  20  36  1   
 36  21  37  1   
 37  22  24  1   
 38  22  38  1   
 39  22  39  1   
 40  23  25  1   
 41  23  40  1   
 42  23  41  1   
 43  24  26  1   
 44  24  42  1   
 45  24  43  1   
 46  25  26  1   
 47  25  44  1   
 48  25  45  1   
 49  26  46  1   
 50  26  47  1   
@<TRIPOS>SUBSTRUCTURE
  1 ****   6 GROUP 4 **** **** 0

# MOE 2024.06 (io_trps.svl 2023.06)
