@<TRIPOS>MOLECULE
NONAME
57 59 1 0 0 
SMALL
USER_CHARGES


@<TRIPOS>ATOM
  1 S       -0.0600     0.0770     0.4840 S.o2  1 <1>   1.4470 
  2 O       -0.4330     0.0850     1.8810 O.2   1 <1>  -0.6500 
  3 O       -0.5040    -0.9940    -0.3770 O.2   1 <1>  -0.6500 
  4 N       -0.7520     1.4910    -0.1560 N.am  1 <1>  -0.8490 
  5 C        1.7260     0.3460     0.2870 C.ar  1 <1>  -0.0090 
  6 C       -2.1990     1.2860    -0.4000 C.3   1 <1>   0.1960 
  7 C       -0.5440     2.6690     0.7130 C.3   1 <1>   0.1960 
  8 C        2.5620     0.4840     1.3930 C.ar  1 <1>  -0.1500 
  9 C        2.2990     0.4340    -0.9780 C.ar  1 <1>  -0.1500 
 10 C       -2.9330     2.5700    -0.8610 C.3   1 <1>   0.3430 
 11 C       -1.1260     3.9690     0.0970 C.3   1 <1>   0.3430 
 12 C        3.9230     0.7070     1.2480 C.ar  1 <1>  -0.1500 
 13 C        3.6560     0.6580    -1.1380 C.ar  1 <1>  -0.1500 
 14 N       -1.9740     3.7000    -1.1190 N.4   1 <1>  -0.9590 
 15 C        4.4630     0.7930    -0.0240 C.ar  1 <1>   0.1020 
 16 C       -2.6440     4.9270    -1.6450 C.3   1 <1>   0.2630 
 17 S        6.2180     1.0800    -0.3140 S.3   1 <1>  -0.3320 
 18 C        7.0480     1.0910     1.3560 C.3   1 <1>   0.1310 
 19 C        8.5570     1.2790     1.2530 C.2   1 <1>   0.5690 
 20 O        9.1930     1.3070     2.2780 O.2   1 <1>  -0.5700 
 21 N        9.1440     1.4100     0.0350 N.am  1 <1>  -0.7300 
 22 C       10.5800     1.5970    -0.2140 C.3   1 <1>   0.2200 
 23 C       10.7870     2.9330    -0.9350 C.3   1 <1>  -0.1600 
 24 C       11.0930     0.4250    -1.0560 C.3   1 <1>  -0.1600 
 25 C       12.2600     3.1340    -1.3210 C.3   1 <1>  -0.1600 
 26 C       12.5660     0.6200    -1.4420 C.3   1 <1>  -0.1600 
 27 C       12.7780     1.9590    -2.1630 C.3   1 <1>  -0.1600 
 28 H       -2.6740     0.9140     0.4940 H     1 <1>   0.0800 
 29 H       -2.3260     0.5310    -1.1590 H     1 <1>   0.0800 
 30 H        0.5090     2.8130     0.8900 H     1 <1>   0.0800 
 31 H       -1.0090     2.5050     1.6720 H     1 <1>   0.0800 
 32 H        2.1460     0.4110     2.3840 H     1 <1>   0.1500 
 33 H        1.6760     0.3200    -1.8490 H     1 <1>   0.1500 
 34 H       -3.6380     2.8590    -0.0990 H     1 <1>   0.0800 
 35 H       -3.4950     2.3490    -1.7540 H     1 <1>   0.0800 
 36 H       -0.3100     4.6190    -0.1720 H     1 <1>   0.0800 
 37 H       -1.7080     4.4760     0.8480 H     1 <1>   0.0800 
 38 H        4.5340     0.8070     2.1240 H     1 <1>   0.1500 
 39 H        4.0900     0.7210    -2.1200 H     1 <1>   0.1500 
 40 H       -1.3160     3.3280    -1.8250 H     1 <1>   0.4500 
 41 H       -3.3340     5.3200    -0.9150 H     1 <1>   0.0800 
 42 H       -3.1890     4.6990    -2.5470 H     1 <1>   0.0800 
 43 H       -1.9120     5.6850    -1.8710 H     1 <1>   0.0800 
 44 H        6.8320     0.1500     1.8270 H     1 <1>   0.0800 
 45 H        6.6210     1.8970     1.9220 H     1 <1>   0.0800 
 46 H        8.5530     1.3790    -0.7980 H     1 <1>   0.3700 
 47 H       11.1120     1.6170     0.7240 H     1 <1>   0.0800 
 48 H       10.4760     3.7350    -0.2890 H     1 <1>   0.0800 
 49 H       10.1850     2.9580    -1.8260 H     1 <1>   0.0800 
 50 H       10.5040     0.3400    -1.9520 H     1 <1>   0.0800 
 51 H       10.9910    -0.4870    -0.4930 H     1 <1>   0.0800 
 52 H       12.8530     3.2190    -0.4270 H     1 <1>   0.0800 
 53 H       12.3660     4.0500    -1.8760 H     1 <1>   0.0800 
 54 H       12.8830    -0.1870    -2.0800 H     1 <1>   0.0800 
 55 H       13.1730     0.5950    -0.5530 H     1 <1>   0.0800 
 56 H       13.8260     2.0970    -2.3670 H     1 <1>   0.0800 
 57 H       12.2590     1.9410    -3.1060 H     1 <1>   0.0800 
@<TRIPOS>BOND
  1   1   2  2   
  2   1   3  2   
  3   1   4  am  
  4   1   5  1   
  5   4   6  1   
  6   4   7  1   
  7   5   8  ar  
  8   5   9  ar  
  9   6  10  1   
 10   6  28  1   
 11   6  29  1   
 12   7  11  1   
 13   7  30  1   
 14   7  31  1   
 15   8  12  ar  
 16   8  32  1   
 17   9  13  ar  
 18   9  33  1   
 19  10  14  1   
 20  10  34  1   
 21  10  35  1   
 22  11  14  1   
 23  11  36  1   
 24  11  37  1   
 25  12  15  ar  
 26  12  38  1   
 27  13  15  ar  
 28  13  39  1   
 29  14  16  1   
 30  14  40  1   
 31  15  17  1   
 32  16  41  1   
 33  16  42  1   
 34  16  43  1   
 35  17  18  1   
 36  18  19  1   
 37  18  44  1   
 38  18  45  1   
 39  19  20  2   
 40  19  21  am  
 41  21  22  1   
 42  21  46  1   
 43  22  23  1   
 44  22  24  1   
 45  22  47  1   
 46  23  25  1   
 47  23  48  1   
 48  23  49  1   
 49  24  26  1   
 50  24  50  1   
 51  24  51  1   
 52  25  27  1   
 53  25  52  1   
 54  25  53  1   
 55  26  27  1   
 56  26  54  1   
 57  26  55  1   
 58  27  56  1   
 59  27  57  1   
@<TRIPOS>SUBSTRUCTURE
  1 ****  15 GROUP 4 **** **** 0

# MOE 2024.06 (io_trps.svl 2023.06)
