@<TRIPOS>MOLECULE
NONAME
49 50 1 0 0 
SMALL
USER_CHARGES


@<TRIPOS>ATOM
  1 N        0.2940     0.3190     0.1380 N.4   1 <1>  -0.9590 
  2 C       -0.9740    -0.3980     0.4980 C.3   1 <1>   0.3430 
  3 C        0.1130     1.0570    -1.1570 C.3   1 <1>   0.3430 
  4 C        1.4520    -0.6480     0.1300 C.3   1 <1>   0.3430 
  5 C       -2.1030     0.6150     0.6950 C.3   1 <1>  -0.1600 
  6 C       -0.9870     2.1090    -1.0010 C.3   1 <1>  -0.1600 
  7 C        2.8510     0.0220    -0.0020 C.3   1 <1>   0.3430 
  8 C       -2.3120     1.4810    -0.5530 C.3   1 <1>  -0.1600 
  9 N        4.0040    -0.9460     0.0610 N.4   1 <1>  -0.9060 
 10 C        5.3220    -0.2740    -0.0600 C.3   1 <1>   0.4230 
 11 C        6.3930    -1.3340    -0.3330 C.3   1 <1>  -0.1600 
 12 C        5.6080     0.5550     1.2060 C.3   1 <1>  -0.1600 
 13 C        7.5350    -0.8020    -1.2170 C.3   1 <1>  -0.1600 
 14 C        5.6970     2.0530     0.8860 C.3   1 <1>  -0.1600 
 15 C        8.2760     0.4310    -0.6720 C.3   1 <1>  -0.1600 
 16 C        7.0720     2.4900     0.3530 C.3   1 <1>  -0.1600 
 17 C        7.5690     1.7820    -0.9210 C.3   1 <1>  -0.1600 
 18 H        0.4110     1.0320     0.8750 H     1 <1>   0.4500 
 19 H       -0.8430    -0.9590     1.4100 H     1 <1>   0.0800 
 20 H       -1.2460    -1.0870    -0.2870 H     1 <1>   0.0800 
 21 H       -0.1640     0.3680    -1.9390 H     1 <1>   0.0800 
 22 H        1.0270     1.5500    -1.4450 H     1 <1>   0.0800 
 23 H        1.3170    -1.3420    -0.6830 H     1 <1>   0.0800 
 24 H        1.4320    -1.2080     1.0510 H     1 <1>   0.0800 
 25 H       -1.8860     1.2390     1.5450 H     1 <1>   0.0800 
 26 H       -3.0160     0.0860     0.9130 H     1 <1>   0.0800 
 27 H       -1.1350     2.6060    -1.9450 H     1 <1>   0.0800 
 28 H       -0.6760     2.8580    -0.2930 H     1 <1>   0.0800 
 29 H        2.9600     0.7430     0.7920 H     1 <1>   0.0800 
 30 H        2.8950     0.5520    -0.9390 H     1 <1>   0.0800 
 31 H       -3.0330     2.2560    -0.3450 H     1 <1>   0.0800 
 32 H       -2.7100     0.8740    -1.3500 H     1 <1>   0.0800 
 33 H        3.9620    -1.6380    -0.7010 H     1 <1>   0.4500 
 34 H        4.0300    -1.4750     0.9440 H     1 <1>   0.4500 
 35 H        5.2940     0.3850    -0.9130 H     1 <1>   0.0800 
 36 H        5.9670    -2.1720    -0.8570 H     1 <1>   0.0800 
 37 H        6.8050    -1.7070     0.5890 H     1 <1>   0.0800 
 38 H        6.5350     0.2560     1.6650 H     1 <1>   0.0800 
 39 H        4.8460     0.4030     1.9500 H     1 <1>   0.0800 
 40 H        7.1710    -0.5890    -2.2080 H     1 <1>   0.0800 
 41 H        8.2570    -1.5950    -1.3230 H     1 <1>   0.0800 
 42 H        5.5210     2.6060     1.7950 H     1 <1>   0.0800 
 43 H        4.9320     2.3440     0.1880 H     1 <1>   0.0800 
 44 H        9.2210     0.4750    -1.1880 H     1 <1>   0.0800 
 45 H        8.5190     0.2970     0.3680 H     1 <1>   0.0800 
 46 H        7.8110     2.3880     1.1310 H     1 <1>   0.0800 
 47 H        7.0100     3.5440     0.1380 H     1 <1>   0.0800 
 48 H        6.7830     1.6980    -1.6490 H     1 <1>   0.0800 
 49 H        8.3050     2.4350    -1.3620 H     1 <1>   0.0800 
@<TRIPOS>BOND
  1   1   2  1   
  2   1   3  1   
  3   1   4  1   
  4   1  18  1   
  5   2   5  1   
  6   2  19  1   
  7   2  20  1   
  8   3   6  1   
  9   3  21  1   
 10   3  22  1   
 11   4   7  1   
 12   4  23  1   
 13   4  24  1   
 14   5   8  1   
 15   5  25  1   
 16   5  26  1   
 17   6   8  1   
 18   6  27  1   
 19   6  28  1   
 20   7   9  1   
 21   7  29  1   
 22   7  30  1   
 23   8  31  1   
 24   8  32  1   
 25   9  10  1   
 26   9  33  1   
 27   9  34  1   
 28  10  11  1   
 29  10  12  1   
 30  10  35  1   
 31  11  13  1   
 32  11  36  1   
 33  11  37  1   
 34  12  14  1   
 35  12  38  1   
 36  12  39  1   
 37  13  15  1   
 38  13  40  1   
 39  13  41  1   
 40  14  16  1   
 41  14  42  1   
 42  14  43  1   
 43  15  17  1   
 44  15  44  1   
 45  15  45  1   
 46  16  17  1   
 47  16  46  1   
 48  16  47  1   
 49  17  48  1   
 50  17  49  1   
@<TRIPOS>SUBSTRUCTURE
  1 ****   7 GROUP 4 **** **** 0

# MOE 2024.06 (io_trps.svl 2023.06)
