@<TRIPOS>MOLECULE
NONAME
36 37 1 0 0 
SMALL
USER_CHARGES


@<TRIPOS>ATOM
  1 S       -0.6360    -0.0740     1.2700 S.o2  1 <1>   1.3330 
  2 O       -1.0620     0.8640     2.2830 O.2   1 <1>  -0.6500 
  3 O       -0.2380    -1.4120     1.6410 O.2   1 <1>  -0.6500 
  4 N       -1.8750    -0.1990     0.1230 N.am  1 <1>  -0.8490 
  5 C        0.6950     0.6450     0.3310 C.3   1 <1>  -0.1350 
  6 C       -2.6190     1.0660    -0.0500 C.3   1 <1>   0.1960 
  7 C       -2.8180    -1.2790     0.4670 C.3   1 <1>   0.1960 
  8 C       -3.6700     0.9520    -1.1650 C.3   1 <1>   0.1400 
  9 C       -3.9070    -1.4650    -0.6070 C.3   1 <1>   0.1400 
 10 N       -4.6100    -0.1770    -0.8920 N.am  1 <1>  -0.6600 
 11 C       -5.9060     0.0660    -0.5200 C.2   1 <1>   0.6900 
 12 O       -6.2420     1.1780    -0.1620 O.2   1 <1>  -0.5700 
 13 N       -6.8060    -0.9580    -0.5890 N.am  1 <1>  -0.5470 
 14 C       -8.1320    -1.0460    -0.1450 C.ar  1 <1>   0.1170 
 15 C       -8.6210    -0.2800     0.9090 C.ar  1 <1>  -0.1500 
 16 C       -8.9930    -1.9490    -0.7660 C.ar  1 <1>  -0.1500 
 17 C       -9.9340    -0.4340     1.3010 C.ar  1 <1>   0.1900 
 18 C      -10.3110    -2.0910    -0.3590 C.ar  1 <1>  -0.1500 
 19 F      -10.3860     0.2870     2.2930 F     1 <1>  -0.1900 
 20 C      -10.7940    -1.3250     0.6880 C.ar  1 <1>  -0.1500 
 21 H        0.4170     1.6130    -0.0340 H     1 <1>   0.0800 
 22 H        0.9380     0.0140    -0.5010 H     1 <1>   0.0800 
 23 H        1.5640     0.7470     0.9510 H     1 <1>   0.0800 
 24 H       -1.9350     1.8590    -0.2990 H     1 <1>   0.0800 
 25 H       -3.1160     1.3350     0.8680 H     1 <1>   0.0800 
 26 H       -3.2840    -1.0670     1.4150 H     1 <1>   0.0800 
 27 H       -2.2840    -2.2090     0.5640 H     1 <1>   0.0800 
 28 H       -3.1760     0.7800    -2.1040 H     1 <1>   0.0800 
 29 H       -4.2090     1.8810    -1.2440 H     1 <1>   0.0800 
 30 H       -4.6010    -2.2110    -0.2650 H     1 <1>   0.0800 
 31 H       -3.4490    -1.8240    -1.5120 H     1 <1>   0.0800 
 32 H       -6.4880    -1.7110    -1.1890 H     1 <1>   0.3700 
 33 H       -7.9930     0.4260     1.4200 H     1 <1>   0.1500 
 34 H       -8.6320    -2.5470    -1.5830 H     1 <1>   0.1500 
 35 H      -10.9590    -2.7920    -0.8560 H     1 <1>   0.1500 
 36 H      -11.8110    -1.4140     1.0250 H     1 <1>   0.1500 
@<TRIPOS>BOND
  1   1   2  2   
  2   1   3  2   
  3   1   4  am  
  4   1   5  1   
  5   4   6  1   
  6   4   7  1   
  7   5  21  1   
  8   5  22  1   
  9   5  23  1   
 10   6   8  1   
 11   6  24  1   
 12   6  25  1   
 13   7   9  1   
 14   7  26  1   
 15   7  27  1   
 16   8  10  1   
 17   8  28  1   
 18   8  29  1   
 19   9  10  1   
 20   9  30  1   
 21   9  31  1   
 22  10  11  am  
 23  11  12  2   
 24  11  13  am  
 25  13  14  1   
 26  13  32  1   
 27  14  15  ar  
 28  14  16  ar  
 29  15  17  ar  
 30  15  33  1   
 31  16  18  ar  
 32  16  34  1   
 33  17  19  1   
 34  17  20  ar  
 35  18  20  ar  
 36  18  35  1   
 37  20  36  1   
@<TRIPOS>SUBSTRUCTURE
  1 ****  11 GROUP 4 **** **** 0

# MOE 2024.06 (io_trps.svl 2023.06)
