@<TRIPOS>MOLECULE
Structure2153
44 45 1 0 0 
SMALL
USER_CHARGES


@<TRIPOS>ATOM
  1 O        0.3840     0.1470     1.2280 O.2   1 <1>  -0.5700 
  2 C        0.2670     1.1050     0.4870 C.2   1 <1>   0.7800 
  3 O        1.3340     1.8510     0.2130 O.3   1 <1>  -0.4300 
  4 N       -0.9250     1.4620    -0.0870 N.am  1 <1>  -0.6600 
  5 C        2.5790     1.5540     0.7980 C.3   1 <1>   0.2640 
  6 C       -2.1860     0.7400     0.2240 C.3   1 <1>   0.1400 
  7 C       -1.0690     2.6170    -1.0150 C.3   1 <1>   0.1400 
  8 C        3.5870     2.5970     0.3450 C.ar  1 <1>  -0.1440 
  9 C       -3.2100     1.7220     0.8010 C.3   1 <1>  -0.1600 
 10 C       -2.0850     3.6080    -0.4420 C.3   1 <1>  -0.1600 
 11 C        3.4310     3.9230     0.7210 C.ar  1 <1>  -0.1500 
 12 C        4.6700     2.2390    -0.4450 C.ar  1 <1>  -0.1500 
 13 C       -3.4320     2.9270    -0.1340 C.3   1 <1>  -0.0190 
 14 C        4.3470     4.8790     0.3180 C.ar  1 <1>  -0.1500 
 15 C        5.5870     3.1940    -0.8500 C.ar  1 <1>  -0.1500 
 16 C       -4.4380     3.9190     0.4640 C.2   1 <1>   0.5690 
 17 C        5.4260     4.5140    -0.4680 C.ar  1 <1>  -0.1500 
 18 O       -4.1130     4.5170     1.4710 O.2   1 <1>  -0.5700 
 19 N       -5.6630     4.1170    -0.1250 N.am  1 <1>  -0.3250 
 20 O       -6.0860     3.4140    -1.2600 O.3   1 <1>  -0.3150 
 21 C       -6.6180     5.1710     0.2950 C.3   1 <1>   0.0600 
 22 C       -6.8480     2.2740    -0.9320 C.3   1 <1>   0.0400 
 23 H        2.8720     0.5650     0.4890 H     1 <1>   0.0800 
 24 H        2.4680     1.5770     1.8690 H     1 <1>   0.0800 
 25 H       -2.0060    -0.0510     0.9330 H     1 <1>   0.0800 
 26 H       -2.5670     0.2970    -0.6800 H     1 <1>   0.0800 
 27 H       -1.4080     2.2560    -1.9710 H     1 <1>   0.0800 
 28 H       -0.1270     3.1160    -1.1640 H     1 <1>   0.0800 
 29 H       -2.8570     2.0660     1.7580 H     1 <1>   0.0800 
 30 H       -4.1400     1.2090     0.9620 H     1 <1>   0.0800 
 31 H       -2.2380     4.4060    -1.1470 H     1 <1>   0.0800 
 32 H       -1.6780     4.0400     0.4560 H     1 <1>   0.0800 
 33 H        2.5900     4.2120     1.3280 H     1 <1>   0.1500 
 34 H        4.8040     1.2150    -0.7500 H     1 <1>   0.1500 
 35 H       -3.8170     2.5530    -1.0650 H     1 <1>   0.0800 
 36 H        4.2180     5.9050     0.6140 H     1 <1>   0.1500 
 37 H        6.4240     2.9090    -1.4620 H     1 <1>   0.1500 
 38 H        6.1390     5.2560    -0.7820 H     1 <1>   0.1500 
 39 H       -6.1790     5.7960     1.0530 H     1 <1>   0.0800 
 40 H       -7.5080     4.7160     0.6890 H     1 <1>   0.0800 
 41 H       -6.8730     5.7780    -0.5540 H     1 <1>   0.0800 
 42 H       -7.7430     2.5850    -0.4230 H     1 <1>   0.0800 
 43 H       -6.2630     1.6270    -0.3040 H     1 <1>   0.0800 
 44 H       -7.1030     1.7680    -1.8460 H     1 <1>   0.0800 
@<TRIPOS>BOND
  1   1   2  2   
  2   2   3  1   
  3   2   4  am  
  4   3   5  1   
  5   4   6  1   
  6   4   7  1   
  7   5   8  1   
  8   5  23  1   
  9   5  24  1   
 10   6   9  1   
 11   6  25  1   
 12   6  26  1   
 13   7  10  1   
 14   7  27  1   
 15   7  28  1   
 16   8  11  ar  
 17   8  12  ar  
 18   9  13  1   
 19   9  29  1   
 20   9  30  1   
 21  10  13  1   
 22  10  31  1   
 23  10  32  1   
 24  11  14  ar  
 25  11  33  1   
 26  12  15  ar  
 27  12  34  1   
 28  13  16  1   
 29  13  35  1   
 30  14  17  ar  
 31  14  36  1   
 32  15  17  ar  
 33  15  37  1   
 34  16  18  2   
 35  16  19  am  
 36  17  38  1   
 37  19  20  1   
 38  19  21  1   
 39  20  22  1   
 40  21  39  1   
 41  21  40  1   
 42  21  41  1   
 43  22  42  1   
 44  22  43  1   
 45  22  44  1   
@<TRIPOS>SUBSTRUCTURE
  1 ****   7 GROUP 4 **** **** 0

# MOE 2024.06 (io_trps.svl 2023.06)
