@<TRIPOS>MOLECULE
NONAME
38 39 1 0 0 
SMALL
USER_CHARGES


@<TRIPOS>ATOM
  1 CL      -0.1480     0.4480     2.0290 Cl    1 <1>  -0.1770 
  2 C       -1.7280    -0.0240     1.4590 C.ar  1 <1>   0.1770 
  3 C       -2.5950    -0.6680     2.3190 C.ar  1 <1>  -0.1500 
  4 C       -2.0890     0.2510     0.1540 C.ar  1 <1>  -0.1500 
  5 C       -3.8500    -1.0380     1.8650 C.ar  1 <1>  -0.1500 
  6 C       -3.3450    -0.1230    -0.2930 C.ar  1 <1>  -0.1500 
  7 C       -4.2400    -0.7640     0.5580 C.ar  1 <1>  -0.1430 
  8 C       -5.6400    -1.1810     0.0910 C.3   1 <1>   0.3440 
  9 O       -5.5350    -1.6690    -1.2100 O.3   1 <1>  -0.6800 
 10 C       -6.7290    -0.0740     0.1770 C.3   1 <1>   0.0610 
 11 C       -8.0520    -0.8120    -0.1000 C.2   1 <1>   0.6590 
 12 C       -6.4870     1.0750    -0.8460 C.3   1 <1>  -0.1600 
 13 C       -6.7460     0.5710     1.5950 C.3   1 <1>  -0.1600 
 14 O       -8.7580    -1.2310     0.7820 O.2   1 <1>  -0.5700 
 15 O       -8.3540    -1.0360    -1.3780 O.3   1 <1>  -0.4300 
 16 C       -7.5380     2.1930    -0.7400 C.3   1 <1>  -0.1600 
 17 C       -7.7890     1.6940     1.7310 C.3   1 <1>  -0.1600 
 18 C       -9.5310    -1.7190    -1.7580 C.3   1 <1>   0.0400 
 19 C       -7.5700     2.7820     0.6740 C.3   1 <1>  -0.1600 
 20 H       -2.2900    -0.8750     3.3290 H     1 <1>   0.1500 
 21 H       -1.3960     0.7480    -0.5000 H     1 <1>   0.1500 
 22 H       -4.5220    -1.5420     2.5380 H     1 <1>   0.1500 
 23 H       -3.6240     0.0810    -1.3120 H     1 <1>   0.1500 
 24 H       -5.9560    -2.0120     0.6990 H     1 <1>   0.0800 
 25 H       -6.4250    -1.8290    -1.5850 H     1 <1>   0.4000 
 26 H       -6.4830     0.6950    -1.8520 H     1 <1>   0.0800 
 27 H       -5.5200     1.5110    -0.6680 H     1 <1>   0.0800 
 28 H       -5.7820     0.9970     1.8110 H     1 <1>   0.0800 
 29 H       -6.9400    -0.1810     2.3410 H     1 <1>   0.0800 
 30 H       -8.5110     1.8080    -0.9920 H     1 <1>   0.0800 
 31 H       -7.3030     2.9720    -1.4450 H     1 <1>   0.0800 
 32 H       -7.7170     2.1310     2.7120 H     1 <1>   0.0800 
 33 H       -8.7820     1.2900     1.6310 H     1 <1>   0.0800 
 34 H       -9.5660    -1.7720    -2.8320 H     1 <1>   0.0800 
 35 H      -10.3830    -1.1760    -1.3860 H     1 <1>   0.0800 
 36 H       -9.5120    -2.7100    -1.3380 H     1 <1>   0.0800 
 37 H       -8.3570     3.5150     0.7430 H     1 <1>   0.0800 
 38 H       -6.6380     3.2840     0.8710 H     1 <1>   0.0800 
@<TRIPOS>BOND
  1   1   2  1   
  2   2   3  ar  
  3   2   4  ar  
  4   3   5  ar  
  5   3  20  1   
  6   4   6  ar  
  7   4  21  1   
  8   5   7  ar  
  9   5  22  1   
 10   6   7  ar  
 11   6  23  1   
 12   7   8  1   
 13   8   9  1   
 14   8  10  1   
 15   8  24  1   
 16   9  25  1   
 17  10  11  1   
 18  10  12  1   
 19  10  13  1   
 20  11  14  2   
 21  11  15  1   
 22  12  16  1   
 23  12  26  1   
 24  12  27  1   
 25  13  17  1   
 26  13  28  1   
 27  13  29  1   
 28  15  18  1   
 29  16  19  1   
 30  16  30  1   
 31  16  31  1   
 32  17  19  1   
 33  17  32  1   
 34  17  33  1   
 35  18  34  1   
 36  18  35  1   
 37  18  36  1   
 38  19  37  1   
 39  19  38  1   
@<TRIPOS>SUBSTRUCTURE
  1 ****  10 GROUP 4 **** **** 0

# MOE 2024.06 (io_trps.svl 2023.06)
