@<TRIPOS>MOLECULE
NONAME
43 44 1 0 0 
SMALL
USER_CHARGES


@<TRIPOS>ATOM
  1 O       -2.2920     2.2730     1.8010 O.2   1 <1>  -0.5700 
  2 C       -1.5970     2.3970     0.8060 C.2   1 <1>   0.5440 
  3 N       -2.1030     1.8480    -0.3440 N.am  1 <1>  -0.6600 
  4 C       -0.3830     3.1920     0.8290 C.ar  1 <1>   0.0860 
  5 C       -2.9930     2.6510    -1.2310 C.3   1 <1>   0.1400 
  6 C       -2.1520     0.3750    -0.5210 C.3   1 <1>   0.1400 
  7 C        0.7830     2.8410     0.1320 C.ar  1 <1>   0.0830 
  8 C       -0.3690     4.3680     1.5810 C.ar  1 <1>  -0.1500 
  9 C       -4.3940     2.8490    -0.6100 C.3   1 <1>   0.3430 
 10 C       -3.3700    -0.2470     0.1770 C.3   1 <1>  -0.1600 
 11 O        0.7770     1.6470    -0.5240 O.3   1 <1>  -0.3630 
 12 C        1.8970     3.6990     0.1340 C.ar  1 <1>   0.0830 
 13 C        0.7340     5.1940     1.6160 C.ar  1 <1>  -0.1500 
 14 N       -4.7210     1.8020     0.4120 N.4   1 <1>  -0.9590 
 15 C       -4.7130     0.4200    -0.1340 C.3   1 <1>   0.3430 
 16 C        1.9010     0.7910    -0.5000 C.3   1 <1>   0.0400 
 17 O        2.9900     3.3830    -0.6210 O.3   1 <1>  -0.3630 
 18 C        1.8620     4.8660     0.8890 C.ar  1 <1>  -0.1500 
 19 C       -5.9490     2.1190     1.1920 C.3   1 <1>   0.2630 
 20 C        4.0800     4.2650    -0.7820 C.3   1 <1>   0.0400 
 21 H       -3.0860     2.1590    -2.1830 H     1 <1>   0.0800 
 22 H       -2.5440     3.6130    -1.4120 H     1 <1>   0.0800 
 23 H       -1.2530    -0.0550    -0.1110 H     1 <1>   0.0800 
 24 H       -2.1660     0.1450    -1.5740 H     1 <1>   0.0800 
 25 H       -1.2430     4.6360     2.1500 H     1 <1>   0.1500 
 26 H       -5.1370     2.8620    -1.3890 H     1 <1>   0.0800 
 27 H       -4.4070     3.8140    -0.1310 H     1 <1>   0.0800 
 28 H       -3.2080    -0.2460     1.2410 H     1 <1>   0.0800 
 29 H       -3.4280    -1.2780    -0.1220 H     1 <1>   0.0800 
 30 H        0.7180     6.0950     2.2070 H     1 <1>   0.1500 
 31 H       -3.8970     1.8370     1.0610 H     1 <1>   0.4500 
 32 H       -5.4980    -0.1570     0.3290 H     1 <1>   0.0800 
 33 H       -4.8870     0.4330    -1.1980 H     1 <1>   0.0800 
 34 H        1.5590    -0.2180    -0.6390 H     1 <1>   0.0800 
 35 H        2.3990     0.8860     0.4490 H     1 <1>   0.0800 
 36 H        2.5610     1.0620    -1.3040 H     1 <1>   0.0800 
 37 H        2.6980     5.5370     0.9310 H     1 <1>   0.1500 
 38 H       -6.8150     2.1060     0.5510 H     1 <1>   0.0800 
 39 H       -5.8610     3.0940     1.6420 H     1 <1>   0.0800 
 40 H       -6.0860     1.3940     1.9780 H     1 <1>   0.0800 
 41 H        4.7750     3.8140    -1.4670 H     1 <1>   0.0800 
 42 H        4.5540     4.4150     0.1710 H     1 <1>   0.0800 
 43 H        3.7210     5.1950    -1.1880 H     1 <1>   0.0800 
@<TRIPOS>BOND
  1   1   2  2   
  2   2   3  am  
  3   2   4  1   
  4   3   5  1   
  5   3   6  1   
  6   4   7  ar  
  7   4   8  ar  
  8   5   9  1   
  9   5  21  1   
 10   5  22  1   
 11   6  10  1   
 12   6  23  1   
 13   6  24  1   
 14   7  11  1   
 15   7  12  ar  
 16   8  13  ar  
 17   8  25  1   
 18   9  14  1   
 19   9  26  1   
 20   9  27  1   
 21  10  15  1   
 22  10  28  1   
 23  10  29  1   
 24  11  16  1   
 25  12  17  1   
 26  12  18  ar  
 27  13  18  ar  
 28  13  30  1   
 29  14  15  1   
 30  14  19  1   
 31  14  31  1   
 32  15  32  1   
 33  15  33  1   
 34  16  34  1   
 35  16  35  1   
 36  16  36  1   
 37  17  20  1   
 38  18  37  1   
 39  19  38  1   
 40  19  39  1   
 41  19  40  1   
 42  20  41  1   
 43  20  42  1   
 44  20  43  1   
@<TRIPOS>SUBSTRUCTURE
  1 ****   2 GROUP 4 **** **** 0

# MOE 2024.06 (io_trps.svl 2023.06)
