@<TRIPOS>MOLECULE
NONAME
39 41 1 0 0 
SMALL
USER_CHARGES


@<TRIPOS>ATOM
  1 CL      -0.2490     1.0150     0.6370 Cl    1 <1>  -0.1770 
  2 C        1.4960     0.9740     0.5320 C.ar  1 <1>   0.1770 
  3 C        2.1430     0.0420    -0.2630 C.ar  1 <1>   0.1900 
  4 C        2.2330     1.8940     1.2530 C.ar  1 <1>  -0.1500 
  5 F        1.4480    -0.8290    -0.9500 F     1 <1>  -0.1900 
  6 C        3.5220     0.0070    -0.3530 C.ar  1 <1>  -0.1500 
  7 C        3.6210     1.8830     1.1650 C.ar  1 <1>   0.1170 
  8 C        4.2580     0.9340     0.3690 C.ar  1 <1>  -0.1500 
  9 N        4.3720     2.8180     1.8720 N.am  1 <1>  -0.5470 
 10 C        4.7820     4.0900     1.5860 C.2   1 <1>   0.5690 
 11 O        5.3840     4.6610     2.4630 O.2   1 <1>  -0.5700 
 12 C        4.5200     4.8340     0.2420 C.3   1 <1>   0.3410 
 13 O        5.6960     5.5220    -0.1910 O.3   1 <1>  -0.4300 
 14 C        3.4820     5.9890     0.2890 C.3   1 <1>   0.0000 
 15 C        4.0870     4.0460    -1.0290 C.3   1 <1>  -0.1600 
 16 C        5.3360     6.4970    -1.0070 C.2   1 <1>   0.6590 
 17 C        3.8190     6.4310    -1.1490 C.3   1 <1>   0.0610 
 18 C        2.0090     5.5560     0.5240 C.3   1 <1>  -0.2400 
 19 C        3.7800     7.0770     1.3580 C.3   1 <1>  -0.2400 
 20 C        3.5940     5.1560    -1.9880 C.3   1 <1>  -0.1600 
 21 O        6.0940     7.2630    -1.5390 O.2   1 <1>  -0.5700 
 22 C        3.1180     7.6840    -1.7020 C.3   1 <1>  -0.2400 
 23 H        1.7310     2.6120     1.8740 H     1 <1>   0.1500 
 24 H        4.0040    -0.7290    -0.9730 H     1 <1>   0.1500 
 25 H        5.3330     0.9260     0.3140 H     1 <1>   0.1500 
 26 H        4.6880     2.5290     2.8000 H     1 <1>   0.3700 
 27 H        3.2720     3.3770    -0.8430 H     1 <1>   0.0800 
 28 H        4.9120     3.4880    -1.4370 H     1 <1>   0.0800 
 29 H        1.6580     4.8070    -0.1590 H     1 <1>   0.0800 
 30 H        1.3580     6.4070     0.4300 H     1 <1>   0.0800 
 31 H        1.8970     5.1670     1.5200 H     1 <1>   0.0800 
 32 H        4.7980     7.4260     1.3330 H     1 <1>   0.0800 
 33 H        3.6050     6.6890     2.3460 H     1 <1>   0.0800 
 34 H        3.1360     7.9280     1.2230 H     1 <1>   0.0800 
 35 H        2.5560     5.0260    -2.2410 H     1 <1>   0.0800 
 36 H        4.1740     5.1810    -2.8960 H     1 <1>   0.0800 
 37 H        3.4530     7.8750    -2.7070 H     1 <1>   0.0800 
 38 H        3.3580     8.5450    -1.1030 H     1 <1>   0.0800 
 39 H        2.0520     7.5510    -1.7130 H     1 <1>   0.0800 
@<TRIPOS>BOND
  1   1   2  1   
  2   2   3  ar  
  3   2   4  ar  
  4   3   5  1   
  5   3   6  ar  
  6   4   7  ar  
  7   4  23  1   
  8   6   8  ar  
  9   6  24  1   
 10   7   8  ar  
 11   7   9  1   
 12   8  25  1   
 13   9  10  am  
 14   9  26  1   
 15  10  11  2   
 16  10  12  1   
 17  12  13  1   
 18  12  14  1   
 19  12  15  1   
 20  13  16  1   
 21  14  17  1   
 22  14  18  1   
 23  14  19  1   
 24  15  20  1   
 25  15  27  1   
 26  15  28  1   
 27  16  17  1   
 28  16  21  2   
 29  17  20  1   
 30  17  22  1   
 31  18  29  1   
 32  18  30  1   
 33  18  31  1   
 34  19  32  1   
 35  19  33  1   
 36  19  34  1   
 37  20  35  1   
 38  20  36  1   
 39  22  37  1   
 40  22  38  1   
 41  22  39  1   
@<TRIPOS>SUBSTRUCTURE
  1 ****  15 GROUP 4 **** **** 0

# MOE 2024.06 (io_trps.svl 2023.06)
