@<TRIPOS>MOLECULE
NONAME
32 33 1 0 0 
SMALL
USER_CHARGES


@<TRIPOS>ATOM
  1 F        0.8420     1.8180     1.3150 F     1 <1>  -0.3400 
  2 C        1.6690     0.9110     1.8170 C.3   1 <1>   1.1640 
  3 F        2.3210     1.5060     2.8080 F     1 <1>  -0.3400 
  4 F        0.9040    -0.0160     2.3830 F     1 <1>  -0.3400 
  5 C        2.6060     0.3290     0.7460 C.ar  1 <1>  -0.1440 
  6 C        3.8600     0.8850     0.5150 C.ar  1 <1>  -0.1500 
  7 C        2.2130    -0.7600    -0.0250 C.ar  1 <1>  -0.1500 
  8 C        4.7300     0.3790    -0.4490 C.ar  1 <1>   0.0860 
  9 C        3.0540    -1.2750    -0.9960 C.ar  1 <1>  -0.1500 
 10 C        6.0350     0.9790    -0.6580 C.2   1 <1>   0.5440 
 11 C        4.2960    -0.7080    -1.2050 C.ar  1 <1>  -0.1500 
 12 O        6.0970     2.1710    -0.8910 O.2   1 <1>  -0.5700 
 13 N        7.2010     0.2410    -0.5920 N.am  1 <1>  -0.6600 
 14 C        8.5140     0.8170    -1.0000 C.3   1 <1>   0.1400 
 15 C        7.2950    -1.1110     0.0290 C.3   1 <1>   0.1400 
 16 C        9.4480     0.8880     0.2120 C.3   1 <1>  -0.1600 
 17 C        8.2250    -1.0580     1.2460 C.3   1 <1>  -0.1600 
 18 C        9.6020    -0.4820     0.8870 C.3   1 <1>  -0.1600 
 19 H        4.1920     1.7380     1.0850 H     1 <1>   0.1500 
 20 H        1.2460    -1.2140     0.1220 H     1 <1>   0.1500 
 21 H        2.7370    -2.1150    -1.5910 H     1 <1>   0.1500 
 22 H        4.9450    -1.1030    -1.9670 H     1 <1>   0.1500 
 23 H        8.3880     1.8020    -1.4170 H     1 <1>   0.0800 
 24 H        8.9480     0.1910    -1.7600 H     1 <1>   0.0800 
 25 H        7.6840    -1.8020    -0.6990 H     1 <1>   0.0800 
 26 H        6.3290    -1.4610     0.3430 H     1 <1>   0.0800 
 27 H        9.0460     1.5980     0.9140 H     1 <1>   0.0800 
 28 H       10.4120     1.2470    -0.1030 H     1 <1>   0.0800 
 29 H        8.3420    -2.0490     1.6470 H     1 <1>   0.0800 
 30 H        7.7660    -0.4500     2.0060 H     1 <1>   0.0800 
 31 H       10.2000    -0.3850     1.7770 H     1 <1>   0.0800 
 32 H       10.1090    -1.1560     0.2170 H     1 <1>   0.0800 
@<TRIPOS>BOND
  1   1   2  1   
  2   2   3  1   
  3   2   4  1   
  4   2   5  1   
  5   5   6  ar  
  6   5   7  ar  
  7   6   8  ar  
  8   6  19  1   
  9   7   9  ar  
 10   7  20  1   
 11   8  10  1   
 12   8  11  ar  
 13   9  11  ar  
 14   9  21  1   
 15  10  12  2   
 16  10  13  am  
 17  11  22  1   
 18  13  14  1   
 19  13  15  1   
 20  14  16  1   
 21  14  23  1   
 22  14  24  1   
 23  15  17  1   
 24  15  25  1   
 25  15  26  1   
 26  16  18  1   
 27  16  27  1   
 28  16  28  1   
 29  17  18  1   
 30  17  29  1   
 31  17  30  1   
 32  18  31  1   
 33  18  32  1   
@<TRIPOS>SUBSTRUCTURE
  1 ****   8 GROUP 4 **** **** 0

# MOE 2024.06 (io_trps.svl 2023.06)
