@<TRIPOS>MOLECULE
NONAME
47 49 1 0 0 
SMALL
USER_CHARGES


@<TRIPOS>ATOM
  1 O       -0.0840     0.0010    -0.6680 O.2   1 <1>  -0.5700 
  2 C        0.7760     0.8270    -0.4540 C.2   1 <1>   0.5690 
  3 N        2.0800     0.4740    -0.3240 N.am  1 <1>  -0.7300 
  4 C        0.3730     2.3130    -0.3270 C.3   1 <1>   0.0610 
  5 C        2.6560    -0.8750    -0.2710 C.3   1 <1>   0.1140 
  6 C       -0.2910     2.7900    -1.6410 C.3   1 <1>  -0.1600 
  7 C       -0.6470     2.4830     0.8250 C.3   1 <1>  -0.1600 
  8 C        1.5820     3.2430    -0.0360 C.3   1 <1>  -0.1600 
  9 C        4.0210    -0.8830     0.4850 C.2   1 <1>   0.9060 
 10 C        2.7830    -1.3930    -1.7100 C.3   1 <1>  -0.2400 
 11 C       -0.7500     4.2580    -1.5380 C.3   1 <1>   0.0000 
 12 C       -1.1100     3.9470     0.9550 C.3   1 <1>   0.0000 
 13 C        1.1440     4.7160     0.0840 C.3   1 <1>   0.0000 
 14 O        4.5460     0.2360     0.7180 O.co2 1 <1>  -0.9000 
 15 O        4.5030    -1.9910     0.8130 O.co2 1 <1>  -0.9000 
 16 C       -1.7550     4.3840    -0.3760 C.3   1 <1>  -0.1600 
 17 C        0.4750     5.1440    -1.2360 C.3   1 <1>  -0.1600 
 18 C       -1.4070     4.6960    -2.8530 C.3   1 <1>  -0.2400 
 19 C        0.1190     4.8370     1.2290 C.3   1 <1>  -0.1600 
 20 C       -2.1210     4.0790     2.1010 C.3   1 <1>  -0.2400 
 21 C        2.3620     5.6030     0.3710 C.3   1 <1>  -0.2400 
 22 H        2.7650     1.1670    -0.0410 H     1 <1>   0.3700 
 23 H        1.9870    -1.5330     0.2820 H     1 <1>   0.0800 
 24 H       -1.1370     2.1610    -1.8590 H     1 <1>   0.0800 
 25 H        0.4090     2.6790    -2.4500 H     1 <1>   0.0800 
 26 H       -0.1960     2.1560     1.7460 H     1 <1>   0.0800 
 27 H       -1.4980     1.8500     0.6420 H     1 <1>   0.0800 
 28 H        2.3060     3.1500    -0.8270 H     1 <1>   0.0800 
 29 H        2.0590     2.9370     0.8800 H     1 <1>   0.0800 
 30 H        3.4480    -0.7380    -2.2740 H     1 <1>   0.0800 
 31 H        1.8010    -1.4180    -2.1800 H     1 <1>   0.0800 
 32 H        3.2030    -2.3990    -1.6890 H     1 <1>   0.0800 
 33 H       -2.6170     3.7710    -0.5760 H     1 <1>   0.0800 
 34 H       -2.0910     5.4030    -0.2970 H     1 <1>   0.0800 
 35 H        0.1680     6.1730    -1.1690 H     1 <1>   0.0800 
 36 H        1.1840     5.0660    -2.0420 H     1 <1>   0.0800 
 37 H       -2.2620     4.0800    -3.0690 H     1 <1>   0.0800 
 38 H       -0.7110     4.6090    -3.6680 H     1 <1>   0.0800 
 39 H       -1.7310     5.7190    -2.7890 H     1 <1>   0.0800 
 40 H       -0.1910     5.8620     1.3280 H     1 <1>   0.0800 
 41 H        0.5780     4.5430     2.1560 H     1 <1>   0.0800 
 42 H       -1.6770     3.7720     3.0310 H     1 <1>   0.0800 
 43 H       -2.9820     3.4620     1.9150 H     1 <1>   0.0800 
 44 H       -2.4480     5.0990     2.1990 H     1 <1>   0.0800 
 45 H        3.0830     5.5200    -0.4240 H     1 <1>   0.0800 
 46 H        2.8360     5.3040     1.2890 H     1 <1>   0.0800 
 47 H        2.0660     6.6330     0.4580 H     1 <1>   0.0800 
@<TRIPOS>BOND
  1   1   2  2   
  2   2   3  am  
  3   2   4  1   
  4   3   5  1   
  5   3  22  1   
  6   4   6  1   
  7   4   7  1   
  8   4   8  1   
  9   5   9  1   
 10   5  10  1   
 11   5  23  1   
 12   6  11  1   
 13   6  24  1   
 14   6  25  1   
 15   7  12  1   
 16   7  26  1   
 17   7  27  1   
 18   8  13  1   
 19   8  28  1   
 20   8  29  1   
 21   9  14  ar  
 22   9  15  ar  
 23  10  30  1   
 24  10  31  1   
 25  10  32  1   
 26  11  16  1   
 27  11  17  1   
 28  11  18  1   
 29  12  16  1   
 30  12  19  1   
 31  12  20  1   
 32  13  17  1   
 33  13  19  1   
 34  13  21  1   
 35  16  33  1   
 36  16  34  1   
 37  17  35  1   
 38  17  36  1   
 39  18  37  1   
 40  18  38  1   
 41  18  39  1   
 42  19  40  1   
 43  19  41  1   
 44  20  42  1   
 45  20  43  1   
 46  20  44  1   
 47  21  45  1   
 48  21  46  1   
 49  21  47  1   
@<TRIPOS>SUBSTRUCTURE
  1 ****   4 GROUP 4 **** **** 0

# MOE 2024.06 (io_trps.svl 2023.06)
