@<TRIPOS>MOLECULE
NONAME
44 47 1 0 0 
SMALL
USER_CHARGES


@<TRIPOS>ATOM
  1 N       -5.9630     5.6650    -0.2790 N.2   1 <1>  -0.7070 
  2 N       -7.0620     5.1070     0.2890 N.pl3 1 <1>   0.5930 
  3 C       -5.0730     4.7180    -0.2260 C.2   1 <1>   0.1080 
  4 C       -8.4000     5.4140     0.5370 C.ar  1 <1>  -0.0230 
  5 C       -6.8480     3.8240     0.6500 C.2   1 <1>  -0.0680 
  6 C       -5.5590     3.5400     0.3410 C.2   1 <1>  -0.1500 
  7 C       -3.6660     4.9200    -0.7410 C.3   1 <1>  -0.0590 
  8 C       -8.9810     4.2780     1.0900 C.ar  1 <1>   0.1000 
  9 C       -9.1380     6.5690     0.3190 C.ar  1 <1>  -0.1500 
 10 N       -8.0170     3.2730     1.1770 N.pl3 1 <1>  -0.5530 
 11 C      -10.3250     4.2900     1.4440 C.ar  1 <1>  -0.1500 
 12 C      -10.4770     6.5720     0.6680 C.ar  1 <1>  -0.1500 
 13 C       -8.2660     1.8320     1.3500 C.3   1 <1>   0.2090 
 14 C      -11.0650     5.4390     1.2280 C.ar  1 <1>  -0.1500 
 15 C       -8.6540     1.2370    -0.0120 C.3   1 <1>   0.3430 
 16 N       -8.9870    -0.2290     0.0320 N.4   1 <1>  -0.9590 
 17 C       -7.8010    -1.0740     0.3750 C.3   1 <1>   0.3430 
 18 C       -9.5870    -0.6510    -1.2700 C.3   1 <1>   0.3430 
 19 C       -8.2300    -2.5360     0.5070 C.3   1 <1>  -0.1600 
 20 C      -10.0580    -2.1040    -1.1750 C.3   1 <1>  -0.1600 
 21 C       -8.9170    -3.0440    -0.7670 C.3   1 <1>  -0.1600 
 22 H       -5.0110     2.6290     0.4890 H     1 <1>   0.1500 
 23 H       -3.6990     5.1860    -1.7820 H     1 <1>   0.0800 
 24 H       -3.0860     4.0250    -0.6230 H     1 <1>   0.0800 
 25 H       -3.1970     5.7180    -0.1960 H     1 <1>   0.0800 
 26 H       -8.6660     7.4360    -0.1120 H     1 <1>   0.1500 
 27 H      -10.7810     3.4250     1.8860 H     1 <1>   0.1500 
 28 H      -11.0700     7.4570     0.5100 H     1 <1>   0.1500 
 29 H       -9.0590     1.6980     2.0630 H     1 <1>   0.0800 
 30 H       -7.3680     1.3760     1.7270 H     1 <1>   0.0800 
 31 H      -12.1070     5.4680     1.4980 H     1 <1>   0.1500 
 32 H       -7.8410     1.4020    -0.7010 H     1 <1>   0.0800 
 33 H       -9.5090     1.7830    -0.3740 H     1 <1>   0.0800 
 34 H       -9.7040    -0.3920     0.7510 H     1 <1>   0.4500 
 35 H       -7.3640    -0.7480     1.3060 H     1 <1>   0.0800 
 36 H       -7.0550    -0.9870    -0.3990 H     1 <1>   0.0800 
 37 H       -8.8550    -0.5610    -2.0560 H     1 <1>   0.0800 
 38 H      -10.4260    -0.0190    -1.5140 H     1 <1>   0.0800 
 39 H       -8.8930    -2.6420     1.3490 H     1 <1>   0.0800 
 40 H       -7.3620    -3.1410     0.7060 H     1 <1>   0.0800 
 41 H      -10.4450    -2.4110    -2.1320 H     1 <1>   0.0800 
 42 H      -10.8650    -2.1750    -0.4660 H     1 <1>   0.0800 
 43 H       -9.3010    -4.0380    -0.6050 H     1 <1>   0.0800 
 44 H       -8.1950    -3.1010    -1.5660 H     1 <1>   0.0800 
@<TRIPOS>BOND
  1   1   2  1   
  2   1   3  2   
  3   2   4  1   
  4   2   5  1   
  5   3   6  1   
  6   3   7  1   
  7   4   8  ar  
  8   4   9  ar  
  9   5   6  2   
 10   5  10  1   
 11   6  22  1   
 12   7  23  1   
 13   7  24  1   
 14   7  25  1   
 15   8  10  1   
 16   8  11  ar  
 17   9  12  ar  
 18   9  26  1   
 19  10  13  1   
 20  11  14  ar  
 21  11  27  1   
 22  12  14  ar  
 23  12  28  1   
 24  13  15  1   
 25  13  29  1   
 26  13  30  1   
 27  14  31  1   
 28  15  16  1   
 29  15  32  1   
 30  15  33  1   
 31  16  17  1   
 32  16  18  1   
 33  16  34  1   
 34  17  19  1   
 35  17  35  1   
 36  17  36  1   
 37  18  20  1   
 38  18  37  1   
 39  18  38  1   
 40  19  21  1   
 41  19  39  1   
 42  19  40  1   
 43  20  21  1   
 44  20  41  1   
 45  20  42  1   
 46  21  43  1   
 47  21  44  1   
@<TRIPOS>SUBSTRUCTURE
  1 ****  10 GROUP 4 **** **** 0

# MOE 2024.06 (io_trps.svl 2023.06)
