@<TRIPOS>MOLECULE
NONAME
45 46 1 0 0 
SMALL
USER_CHARGES


@<TRIPOS>ATOM
  1 O       -1.2150     0.4170     1.2600 O.3   1 <1>  -0.3630 
  2 C       -0.9510     1.6910     0.8630 C.ar  1 <1>   0.0830 
  3 C       -0.2640    -0.3740     1.9400 C.3   1 <1>   0.0400 
  4 C       -1.9500     2.3770     0.1530 C.ar  1 <1>   0.0280 
  5 C        0.2670     2.3100     1.1380 C.ar  1 <1>  -0.1500 
  6 C       -1.6770     3.6820    -0.2560 C.ar  1 <1>  -0.1500 
  7 C       -3.2270     1.7590    -0.1440 C.2   1 <1>  -0.1780 
  8 C        0.5080     3.6030     0.7160 C.ar  1 <1>  -0.1500 
  9 C       -0.4670     4.2900     0.0180 C.ar  1 <1>  -0.1500 
 10 C       -4.1250     2.1100    -1.0810 C.2   1 <1>  -0.2880 
 11 C       -5.4270     1.3870    -1.3140 C.3   1 <1>   0.4810 
 12 N       -6.5090     2.2240    -0.7590 N.4   1 <1>  -0.9590 
 13 C       -7.7860     1.4770    -0.5270 C.3   1 <1>   0.3430 
 14 C       -6.7600     3.5000    -1.5080 C.3   1 <1>   0.3430 
 15 C       -8.8230     2.3530     0.2200 C.3   1 <1>   0.1100 
 16 C       -7.9000     4.3280    -0.8640 C.3   1 <1>   0.1100 
 17 N       -8.3640     3.7530     0.4210 N.3   1 <1>  -0.8100 
 18 C       -9.4110     4.6020     1.0290 C.3   1 <1>   0.1100 
 19 C       -9.6380     4.2600     2.5060 C.3   1 <1>   0.1200 
 20 O      -10.5990     5.1110     3.0260 O.3   1 <1>  -0.6800 
 21 H       -0.7020    -1.3380     2.1270 H     1 <1>   0.0800 
 22 H       -0.0170     0.1010     2.8730 H     1 <1>   0.0800 
 23 H        0.6080    -0.4840     1.3190 H     1 <1>   0.0800 
 24 H        1.0430     1.8040     1.6780 H     1 <1>   0.1500 
 25 H       -2.4170     4.2430    -0.7930 H     1 <1>   0.1500 
 26 H       -3.4370     0.9110     0.4870 H     1 <1>   0.1500 
 27 H        1.4510     4.0760     0.9300 H     1 <1>   0.1500 
 28 H       -0.2800     5.2990    -0.3090 H     1 <1>   0.1500 
 29 H       -3.9720     2.9350    -1.7530 H     1 <1>   0.1500 
 30 H       -5.3990     0.4410    -0.7960 H     1 <1>   0.0800 
 31 H       -5.5800     1.2010    -2.3650 H     1 <1>   0.0800 
 32 H       -6.2150     2.5390     0.1790 H     1 <1>   0.4500 
 33 H       -8.2030     1.1650    -1.4690 H     1 <1>   0.0800 
 34 H       -7.5950     0.5920     0.0570 H     1 <1>   0.0800 
 35 H       -5.8640     4.0980    -1.5140 H     1 <1>   0.0800 
 36 H       -7.0170     3.2850    -2.5320 H     1 <1>   0.0800 
 37 H       -9.0200     1.9000     1.1760 H     1 <1>   0.0800 
 38 H       -9.7480     2.3460    -0.3340 H     1 <1>   0.0800 
 39 H       -8.7250     4.3890    -1.5540 H     1 <1>   0.0800 
 40 H       -7.5420     5.3310    -0.7000 H     1 <1>   0.0800 
 41 H       -9.1030     5.6320     0.9730 H     1 <1>   0.0800 
 42 H      -10.3370     4.4930     0.4870 H     1 <1>   0.0800 
 43 H       -8.7330     4.3800     3.0760 H     1 <1>   0.0800 
 44 H      -10.0090     3.2570     2.6180 H     1 <1>   0.0800 
 45 H      -10.2450     6.0150     3.1430 H     1 <1>   0.4000 
@<TRIPOS>BOND
  1   1   2  1   
  2   1   3  1   
  3   2   4  ar  
  4   2   5  ar  
  5   3  21  1   
  6   3  22  1   
  7   3  23  1   
  8   4   6  ar  
  9   4   7  1   
 10   5   8  ar  
 11   5  24  1   
 12   6   9  ar  
 13   6  25  1   
 14   7  10  2   
 15   7  26  1   
 16   8   9  ar  
 17   8  27  1   
 18   9  28  1   
 19  10  11  1   
 20  10  29  1   
 21  11  12  1   
 22  11  30  1   
 23  11  31  1   
 24  12  13  1   
 25  12  14  1   
 26  12  32  1   
 27  13  15  1   
 28  13  33  1   
 29  13  34  1   
 30  14  16  1   
 31  14  35  1   
 32  14  36  1   
 33  15  17  1   
 34  15  37  1   
 35  15  38  1   
 36  16  17  1   
 37  16  39  1   
 38  16  40  1   
 39  17  18  1   
 40  18  19  1   
 41  18  41  1   
 42  18  42  1   
 43  19  20  1   
 44  19  43  1   
 45  19  44  1   
 46  20  45  1   
@<TRIPOS>SUBSTRUCTURE
  1 ****  10 GROUP 4 **** **** 0

# MOE 2024.06 (io_trps.svl 2023.06)
