@<TRIPOS>MOLECULE
NONAME
32 33 1 0 0 
SMALL
USER_CHARGES


@<TRIPOS>ATOM
  1 S        0.1660    -0.2400     0.2480 S.3   1 <1>  -0.3320 
  2 C       -1.4470     0.5080     0.0110 C.ar  1 <1>   0.4120 
  3 C        1.2490     0.5880    -1.0150 C.3   1 <1>   0.1310 
  4 N       -1.4930     1.4210    -0.9540 N.ar  1 <1>  -0.6200 
  5 C       -2.5070     0.1010     0.8210 C.ar  1 <1>   0.0730 
  6 C        2.6770     0.0930    -0.8980 C.2   1 <1>   0.6590 
  7 C       -2.6800     1.9800    -1.1390 C.ar  1 <1>   0.1600 
  8 C       -2.3550    -0.8950     1.8370 C.1   1 <1>   0.4840 
  9 C       -3.7260     0.7150     0.5900 C.ar  1 <1>  -0.1430 
 10 O        3.1880    -0.5750    -1.7600 O.2   1 <1>  -0.5700 
 11 O        3.3350     0.4570     0.1970 O.3   1 <1>  -0.4300 
 12 C       -3.8030     1.6580    -0.3970 C.ar  1 <1>  -0.1440 
 13 N       -2.2870    -1.6830     2.6600 N.1   1 <1>  -0.5570 
 14 C       -5.0600     0.5170     1.2730 C.3   1 <1>  -0.0160 
 15 C        4.6610     0.0450     0.4280 C.3   1 <1>   0.1200 
 16 C       -5.1990     2.2210    -0.5130 C.3   1 <1>  -0.0160 
 17 C       -5.9030     1.6940     0.7500 C.3   1 <1>  -0.1600 
 18 C        5.1080     0.6220     1.7670 C.3   1 <1>  -0.2400 
 19 H        1.2020     1.6450    -0.8370 H     1 <1>   0.0800 
 20 H        0.8460     0.3550    -1.9830 H     1 <1>   0.0800 
 21 H       -2.7610     2.7260    -1.9130 H     1 <1>   0.1500 
 22 H       -4.9720     0.5450     2.3460 H     1 <1>   0.0800 
 23 H       -5.4890    -0.4220     0.9680 H     1 <1>   0.0800 
 24 H        5.2780     0.4080    -0.3770 H     1 <1>   0.0800 
 25 H        4.6840    -1.0320     0.4440 H     1 <1>   0.0800 
 26 H       -5.6720     1.8340    -1.4000 H     1 <1>   0.0800 
 27 H       -5.1940     3.2960    -0.5410 H     1 <1>   0.0800 
 28 H       -5.9110     2.4720     1.4930 H     1 <1>   0.0800 
 29 H       -6.9180     1.3980     0.5470 H     1 <1>   0.0800 
 30 H        5.0690     1.6960     1.7400 H     1 <1>   0.0800 
 31 H        6.1190     0.3200     1.9730 H     1 <1>   0.0800 
 32 H        4.4740     0.2590     2.5560 H     1 <1>   0.0800 
@<TRIPOS>BOND
  1   1   2  1   
  2   1   3  1   
  3   2   4  ar  
  4   2   5  ar  
  5   3   6  1   
  6   3  19  1   
  7   3  20  1   
  8   4   7  ar  
  9   5   8  1   
 10   5   9  ar  
 11   6  10  2   
 12   6  11  1   
 13   7  12  ar  
 14   7  21  1   
 15   8  13  3   
 16   9  12  ar  
 17   9  14  1   
 18  11  15  1   
 19  12  16  1   
 20  14  17  1   
 21  14  22  1   
 22  14  23  1   
 23  15  18  1   
 24  15  24  1   
 25  15  25  1   
 26  16  17  1   
 27  16  26  1   
 28  16  27  1   
 29  17  28  1   
 30  17  29  1   
 31  18  30  1   
 32  18  31  1   
 33  18  32  1   
@<TRIPOS>SUBSTRUCTURE
  1 ****   2 GROUP 4 **** **** 0

# MOE 2024.06 (io_trps.svl 2023.06)
