@<TRIPOS>MOLECULE
NONAME
33 34 1 0 0 
SMALL
USER_CHARGES


@<TRIPOS>ATOM
  1 CL      -0.5350     0.8580     1.4860 Cl    1 <1>  -0.1770 
  2 C       -2.2080     0.8950     0.9800 C.ar  1 <1>   0.1770 
  3 C       -2.5460     0.6230    -0.3340 C.ar  1 <1>   0.1600 
  4 C       -3.1910     1.1980     1.8960 C.ar  1 <1>  -0.1500 
  5 N       -3.7850     0.6260    -0.8020 N.ar  1 <1>  -0.6200 
  6 C       -4.4820     1.2070     1.4150 C.ar  1 <1>  -0.1500 
  7 C       -4.7420     0.9150     0.0740 C.ar  1 <1>   0.4270 
  8 N       -6.0200     0.9270    -0.4420 N.am  1 <1>  -0.5470 
  9 C       -7.2200     0.6350     0.1330 C.2   1 <1>   0.5690 
 10 O       -7.2960     0.2730     1.2860 O.2   1 <1>  -0.5700 
 11 C       -8.4870     0.7250    -0.7430 C.3   1 <1>  -0.0190 
 12 C       -8.8420     2.1770    -1.1620 C.3   1 <1>  -0.1860 
 13 C       -9.7420     0.0540    -0.1150 C.3   1 <1>  -0.1600 
 14 C       -7.8000     2.8360    -2.0630 C.2   1 <1>   0.9060 
 15 C       -9.1950     3.0300     0.0830 C.3   1 <1>  -0.1600 
 16 C      -10.6960     1.0330     0.6010 C.3   1 <1>  -0.1600 
 17 O       -7.7800     4.0640    -2.1690 O.co2 1 <1>  -0.9000 
 18 O       -7.0020     2.1150    -2.6760 O.co2 1 <1>  -0.9000 
 19 C       -9.9550     2.2480     1.1720 C.3   1 <1>  -0.1600 
 20 H       -1.7590     0.3940    -1.0290 H     1 <1>   0.1500 
 21 H       -2.9560     1.4160     2.9220 H     1 <1>   0.1500 
 22 H       -5.2990     1.4460     2.0700 H     1 <1>   0.1500 
 23 H       -6.0800     1.2510    -1.4270 H     1 <1>   0.3700 
 24 H       -8.2600     0.1700    -1.6370 H     1 <1>   0.0800 
 25 H       -9.7210     2.1230    -1.7750 H     1 <1>   0.0800 
 26 H       -9.4390    -0.7190     0.5690 H     1 <1>   0.0800 
 27 H      -10.2970    -0.4320    -0.8980 H     1 <1>   0.0800 
 28 H       -9.7870     3.8680    -0.2450 H     1 <1>   0.0800 
 29 H       -8.2910     3.4310     0.5080 H     1 <1>   0.0800 
 30 H      -11.2180     0.5170     1.3880 H     1 <1>   0.0800 
 31 H      -11.4320     1.3850    -0.1020 H     1 <1>   0.0800 
 32 H      -10.6490     2.9050     1.6670 H     1 <1>   0.0800 
 33 H       -9.2540     1.9050     1.9130 H     1 <1>   0.0800 
@<TRIPOS>BOND
  1   1   2  1   
  2   2   3  ar  
  3   2   4  ar  
  4   3   5  ar  
  5   3  20  1   
  6   4   6  ar  
  7   4  21  1   
  8   5   7  ar  
  9   6   7  ar  
 10   6  22  1   
 11   7   8  1   
 12   8   9  am  
 13   8  23  1   
 14   9  10  2   
 15   9  11  1   
 16  11  12  1   
 17  11  13  1   
 18  11  24  1   
 19  12  14  1   
 20  12  15  1   
 21  12  25  1   
 22  13  16  1   
 23  13  26  1   
 24  13  27  1   
 25  14  17  ar  
 26  14  18  ar  
 27  15  19  1   
 28  15  28  1   
 29  15  29  1   
 30  16  19  1   
 31  16  30  1   
 32  16  31  1   
 33  19  32  1   
 34  19  33  1   
@<TRIPOS>SUBSTRUCTURE
  1 ****   8 GROUP 4 **** **** 0

# MOE 2024.06 (io_trps.svl 2023.06)
