@<TRIPOS>MOLECULE
NONAME
51 55 1 0 0 
SMALL
USER_CHARGES


@<TRIPOS>ATOM
  1 S        0.5970    -0.7090    -0.5490 S.3   1 <1>  -0.0800 
  2 C        1.7160    -1.3150     0.6220 C.2   1 <1>   0.4420 
  3 C       -0.6770    -1.3620     0.4330 C.2   1 <1>   0.1980 
  4 N        1.1290    -1.8790     1.6130 N.2   1 <1>  -0.3380 
  5 N        3.0550    -1.1430     0.3660 N.am  1 <1>  -0.4940 
  6 N       -0.2310    -1.9070     1.4950 N.2   1 <1>  -0.3380 
  7 C       -2.1230    -1.2410    -0.0630 C.3   1 <1>   0.1800 
  8 C        4.1140    -1.8800     0.7910 C.2   1 <1>   0.6900 
  9 C       -2.2940    -1.9940    -1.4040 C.3   1 <1>  -0.1600 
 10 C       -2.5160     0.2410    -0.2690 C.3   1 <1>  -0.1600 
 11 C       -3.1030    -1.8610     0.9650 C.3   1 <1>  -0.1600 
 12 O        5.1850    -1.3250     0.8780 O.2   1 <1>  -0.5700 
 13 N        4.0490    -3.2090     1.0820 N.am  1 <1>  -0.5470 
 14 C       -3.7450    -1.8870    -1.9100 C.3   1 <1>  -0.0800 
 15 C       -3.9680     0.3570    -0.7700 C.3   1 <1>  -0.0800 
 16 C       -4.5580    -1.7560     0.4740 C.3   1 <1>  -0.0800 
 17 C        3.0920    -4.1790     0.7560 C.ar  1 <1>   0.1170 
 18 C       -4.1040    -0.4010    -2.1050 C.3   1 <1>  -0.1600 
 19 C       -4.6930    -2.5030    -0.8650 C.3   1 <1>  -0.1600 
 20 C       -4.9140    -0.2730     0.2680 C.3   1 <1>  -0.1600 
 21 C        2.4530    -4.1890    -0.4790 C.ar  1 <1>  -0.1500 
 22 C        2.7700    -5.1600     1.6860 C.ar  1 <1>  -0.1500 
 23 C        1.4830    -5.1410    -0.7680 C.ar  1 <1>   0.0820 
 24 C        1.8180    -6.1210     1.3990 C.ar  1 <1>  -0.1500 
 25 O        0.7960    -5.1880    -1.9380 O.3   1 <1>  -0.3620 
 26 C        1.1740    -6.1090     0.1740 C.ar  1 <1>  -0.1500 
 27 C        0.9230    -4.1630    -2.8990 C.3   1 <1>   0.0400 
 28 H        3.3330    -0.2760    -0.0810 H     1 <1>   0.3700 
 29 H       -2.0320    -3.0300    -1.2710 H     1 <1>   0.0800 
 30 H       -1.6340    -1.5840    -2.1470 H     1 <1>   0.0800 
 31 H       -1.8610     0.7040    -0.9860 H     1 <1>   0.0800 
 32 H       -2.4100     0.7740     0.6600 H     1 <1>   0.0800 
 33 H       -2.8520    -2.8960     1.1250 H     1 <1>   0.0800 
 34 H       -3.0040    -1.3570     1.9100 H     1 <1>   0.0800 
 35 H        4.8760    -3.5340     1.5780 H     1 <1>   0.3700 
 36 H       -3.8460    -2.4120    -2.8450 H     1 <1>   0.0800 
 37 H       -4.2240     1.3930    -0.9130 H     1 <1>   0.0800 
 38 H       -5.2200    -2.1930     1.2030 H     1 <1>   0.0800 
 39 H       -5.1140    -0.3170    -2.4680 H     1 <1>   0.0800 
 40 H       -3.4560     0.0390    -2.8430 H     1 <1>   0.0800 
 41 H       -4.4560    -3.5440    -0.7270 H     1 <1>   0.0800 
 42 H       -5.7090    -2.4440    -1.2140 H     1 <1>   0.0800 
 43 H       -5.9330    -0.1870    -0.0680 H     1 <1>   0.0800 
 44 H       -4.8350     0.2550     1.2030 H     1 <1>   0.0800 
 45 H        2.7260    -3.4460    -1.2000 H     1 <1>   0.1500 
 46 H        3.2580    -5.1630     2.6440 H     1 <1>   0.1500 
 47 H        1.5720    -6.8740     2.1270 H     1 <1>   0.1500 
 48 H        0.4260    -6.8450    -0.0560 H     1 <1>   0.1500 
 49 H        0.2450    -4.3770    -3.7050 H     1 <1>   0.0800 
 50 H        1.9340    -4.1510    -3.2650 H     1 <1>   0.0800 
 51 H        0.6650    -3.2240    -2.4430 H     1 <1>   0.0800 
@<TRIPOS>BOND
  1   1   2  1   
  2   1   3  1   
  3   2   4  2   
  4   2   5  1   
  5   3   6  2   
  6   3   7  1   
  7   4   6  1   
  8   5   8  am  
  9   5  28  1   
 10   7   9  1   
 11   7  10  1   
 12   7  11  1   
 13   8  12  2   
 14   8  13  am  
 15   9  14  1   
 16   9  29  1   
 17   9  30  1   
 18  10  15  1   
 19  10  31  1   
 20  10  32  1   
 21  11  16  1   
 22  11  33  1   
 23  11  34  1   
 24  13  17  1   
 25  13  35  1   
 26  14  18  1   
 27  14  19  1   
 28  14  36  1   
 29  15  18  1   
 30  15  20  1   
 31  15  37  1   
 32  16  19  1   
 33  16  20  1   
 34  16  38  1   
 35  17  21  ar  
 36  17  22  ar  
 37  18  39  1   
 38  18  40  1   
 39  19  41  1   
 40  19  42  1   
 41  20  43  1   
 42  20  44  1   
 43  21  23  ar  
 44  21  45  1   
 45  22  24  ar  
 46  22  46  1   
 47  23  25  1   
 48  23  26  ar  
 49  24  26  ar  
 50  24  47  1   
 51  25  27  1   
 52  26  48  1   
 53  27  49  1   
 54  27  50  1   
 55  27  51  1   
@<TRIPOS>SUBSTRUCTURE
  1 ****   3 GROUP 4 **** **** 0

# MOE 2024.06 (io_trps.svl 2023.06)
