@<TRIPOS>MOLECULE
NONAME
45 48 1 0 0 
SMALL
USER_CHARGES


@<TRIPOS>ATOM
  1 O        1.1040    -0.7650     1.9980 O.2   1 <1>  -0.5700 
  2 C        0.9500    -1.9180     1.6140 C.2   1 <1>   0.6160 
  3 N        1.7980    -2.4540     0.6530 N.am  1 <1>  -0.4690 
  4 C       -0.0850    -2.7350     2.1390 C.2   1 <1>  -0.1360 
  5 C        1.6580    -3.7860     0.2580 C.2   1 <1>  -0.0290 
  6 C        2.7070    -1.5040    -0.0650 C.3   1 <1>   0.1400 
  7 C       -0.2410    -4.0210     1.7330 C.2   1 <1>  -0.1500 
  8 C        0.6560    -4.5510     0.7760 C.2   1 <1>  -0.1500 
  9 C        2.6460    -4.3920    -0.7440 C.3   1 <1>   0.0580 
 10 C        3.8570    -2.2490    -0.7500 C.3   1 <1>  -0.0800 
 11 C        3.7670    -5.1120     0.0380 C.3   1 <1>   0.3430 
 12 C        3.2280    -3.3140    -1.6640 C.3   1 <1>  -0.1600 
 13 C        4.7590    -2.8180     0.3700 C.3   1 <1>   0.3430 
 14 N        5.0170    -4.2940     0.2560 N.4   1 <1>  -0.9590 
 15 C        6.0830    -4.6050    -0.7400 C.3   1 <1>   0.4860 
 16 C        7.3780    -3.9760    -0.2710 C.ar  1 <1>  -0.1440 
 17 C        8.0790    -4.5200     0.7960 C.ar  1 <1>  -0.1500 
 18 C        7.8710    -2.8430    -0.9030 C.ar  1 <1>  -0.1500 
 19 C        9.2500    -3.9270     1.2330 C.ar  1 <1>  -0.1500 
 20 C        9.0430    -2.2550    -0.4630 C.ar  1 <1>  -0.1500 
 21 C        9.7380    -2.7930     0.6070 C.ar  1 <1>  -0.1440 
 22 C       11.0240    -2.1450     1.0880 C.3   1 <1>  -0.0970 
 23 H       -0.7300    -2.2780     2.8660 H     1 <1>   0.1500 
 24 H        3.1040    -0.7800     0.6280 H     1 <1>   0.0800 
 25 H        2.1250    -0.9680    -0.7970 H     1 <1>   0.0800 
 26 H       -1.0270    -4.6490     2.1200 H     1 <1>   0.1500 
 27 H        0.5090    -5.5770     0.4840 H     1 <1>   0.1500 
 28 H        2.1230    -5.1230    -1.3350 H     1 <1>   0.0800 
 29 H        4.4180    -1.5420    -1.3350 H     1 <1>   0.0800 
 30 H        4.0260    -6.0190    -0.4840 H     1 <1>   0.0800 
 31 H        3.3630    -5.4020     0.9960 H     1 <1>   0.0800 
 32 H        2.4420    -2.8790    -2.2590 H     1 <1>   0.0800 
 33 H        3.9480    -3.7330    -2.3410 H     1 <1>   0.0800 
 34 H        4.2700    -2.6380     1.3140 H     1 <1>   0.0800 
 35 H        5.6910    -2.2760     0.3940 H     1 <1>   0.0800 
 36 H        5.4230    -4.5730     1.1590 H     1 <1>   0.4500 
 37 H        5.8220    -4.2190    -1.7100 H     1 <1>   0.0800 
 38 H        6.2190    -5.6710    -0.8210 H     1 <1>   0.0800 
 39 H        7.7330    -5.4060     1.2980 H     1 <1>   0.1500 
 40 H        7.3570    -2.4060    -1.7420 H     1 <1>   0.1500 
 41 H        9.7880    -4.3540     2.0630 H     1 <1>   0.1500 
 42 H        9.4190    -1.3750    -0.9580 H     1 <1>   0.1500 
 43 H       11.6830    -2.8820     1.5120 H     1 <1>   0.0800 
 44 H       10.8040    -1.4060     1.8380 H     1 <1>   0.0800 
 45 H       11.5350    -1.6680     0.2710 H     1 <1>   0.0800 
@<TRIPOS>BOND
  1   1   2  2   
  2   2   3  am  
  3   2   4  1   
  4   3   5  1   
  5   3   6  1   
  6   4   7  2   
  7   4  23  1   
  8   5   8  2   
  9   5   9  1   
 10   6  10  1   
 11   6  24  1   
 12   6  25  1   
 13   7   8  1   
 14   7  26  1   
 15   8  27  1   
 16   9  11  1   
 17   9  12  1   
 18   9  28  1   
 19  10  12  1   
 20  10  13  1   
 21  10  29  1   
 22  11  14  1   
 23  11  30  1   
 24  11  31  1   
 25  12  32  1   
 26  12  33  1   
 27  13  14  1   
 28  13  34  1   
 29  13  35  1   
 30  14  15  1   
 31  14  36  1   
 32  15  16  1   
 33  15  37  1   
 34  15  38  1   
 35  16  17  ar  
 36  16  18  ar  
 37  17  19  ar  
 38  17  39  1   
 39  18  20  ar  
 40  18  40  1   
 41  19  21  ar  
 42  19  41  1   
 43  20  21  ar  
 44  20  42  1   
 45  21  22  1   
 46  22  43  1   
 47  22  44  1   
 48  22  45  1   
@<TRIPOS>SUBSTRUCTURE
  1 ****  13 GROUP 4 **** **** 0

# MOE 2024.06 (io_trps.svl 2023.06)
