@<TRIPOS>MOLECULE
NONAME
43 46 1 0 0 
SMALL
USER_CHARGES


@<TRIPOS>ATOM
  1 S       -1.4160    -0.5100     0.4890 S.3   1 <1>  -0.0800 
  2 C       -1.7410    -0.8550    -1.2020 C.2   1 <1>  -0.0360 
  3 C        0.0510    -1.4680     0.4560 C.2   1 <1>  -0.1400 
  4 N       -2.8930    -0.2830    -1.7810 N.pl3 1 <1>   0.6460 
  5 C       -0.7710    -1.6460    -1.7270 C.2   1 <1>   0.0190 
  6 C        0.2410    -2.0110    -0.7640 C.2   1 <1>  -0.1810 
  7 C        0.8470    -1.5170     1.7490 C.3   1 <1>   0.0200 
  8 N       -2.8330     0.4250    -2.9100 N.2   1 <1>  -0.7070 
  9 C       -4.1840    -0.2890    -1.3550 C.2   1 <1>   0.1330 
 10 C       -0.7410    -2.0880    -3.0930 C.1   1 <1>   0.5380 
 11 C        1.4000    -2.9400    -1.1330 C.3   1 <1>   0.0210 
 12 C        2.3470    -1.6750     1.4720 C.3   1 <1>  -0.1600 
 13 C       -4.0510     0.8110    -3.0740 C.2   1 <1>   0.3660 
 14 N       -4.9270     0.4140    -2.1520 N.2   1 <1>  -0.5650 
 15 C       -4.6660    -0.9880    -0.1870 C.ar  1 <1>   0.0530 
 16 N       -0.7020    -2.4810    -4.1630 N.1   1 <1>  -0.5570 
 17 C        1.8560    -3.8050     0.0520 C.3   1 <1>  -0.1600 
 18 C        2.7740    -3.0930     1.0600 C.3   1 <1>  -0.1600 
 19 C       -4.3030    -2.3050     0.0900 C.ar  1 <1>  -0.1500 
 20 C       -5.5270    -0.3560     0.7090 C.ar  1 <1>  -0.1500 
 21 C       -4.7520    -2.9600     1.2220 C.ar  1 <1>   0.0820 
 22 C       -5.9870    -1.0000     1.8430 C.ar  1 <1>  -0.1500 
 23 O       -4.3220    -4.2350     1.3970 O.3   1 <1>  -0.3630 
 24 C       -5.6000    -2.3010     2.1070 C.ar  1 <1>  -0.1500 
 25 C       -4.7350    -5.0020     2.5060 C.3   1 <1>   0.0400 
 26 H        0.4850    -2.3110     2.3780 H     1 <1>   0.0800 
 27 H        0.6990    -0.5880     2.2720 H     1 <1>   0.0800 
 28 H        2.2230    -2.3670    -1.5240 H     1 <1>   0.0800 
 29 H        1.0800    -3.6170    -1.9050 H     1 <1>   0.0800 
 30 H        2.8930    -1.4020     2.3590 H     1 <1>   0.0800 
 31 H        2.6290    -0.9770     0.7020 H     1 <1>   0.0800 
 32 H       -4.3680     1.4210    -3.9060 H     1 <1>   0.1500 
 33 H        2.3860    -4.6590    -0.3310 H     1 <1>   0.0800 
 34 H        0.9850    -4.1820     0.5600 H     1 <1>   0.0800 
 35 H        2.8360    -3.7060     1.9430 H     1 <1>   0.0800 
 36 H        3.7670    -3.0360     0.6470 H     1 <1>   0.0800 
 37 H       -3.6610    -2.8430    -0.5820 H     1 <1>   0.1500 
 38 H       -5.8360     0.6560     0.5070 H     1 <1>   0.1500 
 39 H       -6.6490    -0.4870     2.5200 H     1 <1>   0.1500 
 40 H       -5.9670    -2.7800     2.9940 H     1 <1>   0.1500 
 41 H       -4.2790    -5.9720     2.4290 H     1 <1>   0.0800 
 42 H       -5.8060    -5.0980     2.4850 H     1 <1>   0.0800 
 43 H       -4.4080    -4.5150     3.4080 H     1 <1>   0.0800 
@<TRIPOS>BOND
  1   1   2  1   
  2   1   3  1   
  3   2   4  1   
  4   2   5  2   
  5   3   6  2   
  6   3   7  1   
  7   4   8  1   
  8   4   9  1   
  9   5   6  1   
 10   5  10  1   
 11   6  11  1   
 12   7  12  1   
 13   7  26  1   
 14   7  27  1   
 15   8  13  2   
 16   9  14  2   
 17   9  15  1   
 18  10  16  3   
 19  11  17  1   
 20  11  28  1   
 21  11  29  1   
 22  12  18  1   
 23  12  30  1   
 24  12  31  1   
 25  13  14  1   
 26  13  32  1   
 27  15  19  ar  
 28  15  20  ar  
 29  17  18  1   
 30  17  33  1   
 31  17  34  1   
 32  18  35  1   
 33  18  36  1   
 34  19  21  ar  
 35  19  37  1   
 36  20  22  ar  
 37  20  38  1   
 38  21  23  1   
 39  21  24  ar  
 40  22  24  ar  
 41  22  39  1   
 42  23  25  1   
 43  24  40  1   
 44  25  41  1   
 45  25  42  1   
 46  25  43  1   
@<TRIPOS>SUBSTRUCTURE
  1 ****   2 GROUP 4 **** **** 0

# MOE 2024.06 (io_trps.svl 2023.06)
