@<TRIPOS>MOLECULE
NONAME
38 39 1 0 0 
SMALL
USER_CHARGES


@<TRIPOS>ATOM
  1 CL      -1.6400    -0.5320    -1.2290 Cl    1 <1>  -0.1770 
  2 C       -1.7670     1.1420    -0.7520 C.ar  1 <1>   0.1770 
  3 C       -3.0150     1.6810    -0.5130 C.ar  1 <1>  -0.1500 
  4 C       -0.6170     1.8960    -0.6220 C.ar  1 <1>  -0.1500 
  5 C       -3.1370     3.0120    -0.1320 C.ar  1 <1>   0.1170 
  6 C       -0.7270     3.2240    -0.2450 C.ar  1 <1>  -0.1500 
  7 N       -4.4220     3.5290     0.0930 N.am  1 <1>  -0.5470 
  8 C       -1.9760     3.7730    -0.0050 C.ar  1 <1>  -0.1500 
  9 C       -4.8530     4.6260     0.7920 C.2   1 <1>   0.5690 
 10 O       -4.1130     5.3640     1.3950 O.2   1 <1>  -0.5700 
 11 C       -6.3410     4.9370     0.8120 C.3   1 <1>   0.1310 
 12 S       -7.3600     3.4140     0.4840 S.3   1 <1>  -0.2860 
 13 C       -9.0280     4.0750     0.4010 C.2   1 <1>   0.2430 
 14 N       -9.2960     5.3260     0.5090 N.2   1 <1>  -0.3380 
 15 N      -10.1050     3.3110     0.2170 N.pl3 1 <1>   0.0480 
 16 N      -10.6230     5.4210     0.3910 N.2   1 <1>  -0.3380 
 17 C      -11.0880     4.2250     0.2180 C.2   1 <1>   0.0060 
 18 C      -10.1760     1.8410     0.0610 C.3   1 <1>   0.0960 
 19 C      -12.5610     3.8710     0.0390 C.3   1 <1>   0.0200 
 20 C      -10.0230     1.4440    -1.4110 C.3   1 <1>  -0.2400 
 21 C      -13.4750     5.1000    -0.0420 C.3   1 <1>  -0.2400 
 22 H       -3.8840     1.0610    -0.6230 H     1 <1>   0.1500 
 23 H        0.3430     1.4510    -0.8120 H     1 <1>   0.1500 
 24 H        0.1560     3.8300    -0.1370 H     1 <1>   0.1500 
 25 H       -5.1840     2.9580    -0.2740 H     1 <1>   0.3700 
 26 H       -2.0400     4.8070     0.2820 H     1 <1>   0.1500 
 27 H       -6.5820     5.6550     0.0500 H     1 <1>   0.0800 
 28 H       -6.6350     5.3150     1.7730 H     1 <1>   0.0800 
 29 H      -11.1200     1.4930     0.4410 H     1 <1>   0.0800 
 30 H       -9.3940     1.3900     0.6470 H     1 <1>   0.0800 
 31 H      -12.8750     3.2600     0.8670 H     1 <1>   0.0800 
 32 H      -12.6760     3.2980    -0.8640 H     1 <1>   0.0800 
 33 H      -10.8060     1.8820    -2.0040 H     1 <1>   0.0800 
 34 H      -10.0800     0.3750    -1.5070 H     1 <1>   0.0800 
 35 H       -9.0690     1.7680    -1.7890 H     1 <1>   0.0800 
 36 H      -13.4010     5.6780     0.8630 H     1 <1>   0.0800 
 37 H      -14.4980     4.7970    -0.1760 H     1 <1>   0.0800 
 38 H      -13.1860     5.7230    -0.8700 H     1 <1>   0.0800 
@<TRIPOS>BOND
  1   1   2  1   
  2   2   3  ar  
  3   2   4  ar  
  4   3   5  ar  
  5   3  22  1   
  6   4   6  ar  
  7   4  23  1   
  8   5   7  1   
  9   5   8  ar  
 10   6   8  ar  
 11   6  24  1   
 12   7   9  am  
 13   7  25  1   
 14   8  26  1   
 15   9  10  2   
 16   9  11  1   
 17  11  12  1   
 18  11  27  1   
 19  11  28  1   
 20  12  13  1   
 21  13  14  2   
 22  13  15  1   
 23  14  16  1   
 24  15  17  1   
 25  15  18  1   
 26  16  17  2   
 27  17  19  1   
 28  18  20  1   
 29  18  29  1   
 30  18  30  1   
 31  19  21  1   
 32  19  31  1   
 33  19  32  1   
 34  20  33  1   
 35  20  34  1   
 36  20  35  1   
 37  21  36  1   
 38  21  37  1   
 39  21  38  1   
@<TRIPOS>SUBSTRUCTURE
  1 ****  12 GROUP 4 **** **** 0

# MOE 2024.06 (io_trps.svl 2023.06)
