@<TRIPOS>MOLECULE
NONAME
35 36 1 0 0 
SMALL
USER_CHARGES


@<TRIPOS>ATOM
  1 S       -0.1800     0.0810     0.6220 S.o2  1 <1>   1.4470 
  2 O        0.0410     0.2330     2.0450 O.2   1 <1>  -0.6500 
  3 O        0.5390    -0.9350    -0.1150 O.2   1 <1>  -0.6500 
  4 N        0.1520     1.6090    -0.0610 N.am  1 <1>  -0.8490 
  5 C       -1.9480    -0.1850     0.3020 C.ar  1 <1>  -0.0090 
  6 C        1.5500     2.0630     0.1530 C.3   1 <1>   0.2760 
  7 C       -0.7850     2.6120     0.4880 C.3   1 <1>   0.1960 
  8 C       -2.4300    -0.2680    -0.9980 C.ar  1 <1>  -0.1500 
  9 C       -2.8660    -0.2930     1.3410 C.ar  1 <1>  -0.1500 
 10 C        1.7860     3.3920    -0.5760 C.3   1 <1>  -0.0990 
 11 C        2.5990     1.0730    -0.3660 C.3   1 <1>  -0.2400 
 12 C       -0.6660     3.9400    -0.2470 C.3   1 <1>  -0.0990 
 13 C       -3.7780    -0.4450    -1.2560 C.ar  1 <1>  -0.1500 
 14 C       -4.2160    -0.4700     1.0910 C.ar  1 <1>  -0.1500 
 15 C        0.7590     4.4080    -0.1610 C.2   1 <1>   0.4480 
 16 C       -4.6800    -0.5470    -0.2110 C.ar  1 <1>  -0.1430 
 17 O        1.0520     5.4950     0.2310 O.2   1 <1>  -0.5700 
 18 C       -6.1590    -0.7420    -0.4890 C.3   1 <1>  -0.0970 
 19 H        1.7160     2.2120     1.2100 H     1 <1>   0.0800 
 20 H       -0.5920     2.7580     1.5400 H     1 <1>   0.0800 
 21 H       -1.8040     2.2830     0.3820 H     1 <1>   0.0800 
 22 H       -1.7370    -0.1930    -1.8200 H     1 <1>   0.1500 
 23 H       -2.5220    -0.2390     2.3610 H     1 <1>   0.1500 
 24 H        1.7260     3.2440    -1.6380 H     1 <1>   0.0800 
 25 H        2.7640     3.7730    -0.3420 H     1 <1>   0.0800 
 26 H        2.3470     0.7360    -1.3560 H     1 <1>   0.0800 
 27 H        2.6890     0.2290     0.2920 H     1 <1>   0.0800 
 28 H        3.5690     1.5360    -0.4000 H     1 <1>   0.0800 
 29 H       -1.3130     4.6700     0.2030 H     1 <1>   0.0800 
 30 H       -0.9480     3.8180    -1.2760 H     1 <1>   0.0800 
 31 H       -4.1220    -0.5040    -2.2740 H     1 <1>   0.1500 
 32 H       -4.9040    -0.5490     1.9150 H     1 <1>   0.1500 
 33 H       -6.3010    -1.2820    -1.4070 H     1 <1>   0.0800 
 34 H       -6.6450     0.2140    -0.5700 H     1 <1>   0.0800 
 35 H       -6.6210    -1.3000     0.3060 H     1 <1>   0.0800 
@<TRIPOS>BOND
  1   1   2  2   
  2   1   3  2   
  3   1   4  am  
  4   1   5  1   
  5   4   6  1   
  6   4   7  1   
  7   5   8  ar  
  8   5   9  ar  
  9   6  10  1   
 10   6  11  1   
 11   6  19  1   
 12   7  12  1   
 13   7  20  1   
 14   7  21  1   
 15   8  13  ar  
 16   8  22  1   
 17   9  14  ar  
 18   9  23  1   
 19  10  15  1   
 20  10  24  1   
 21  10  25  1   
 22  11  26  1   
 23  11  27  1   
 24  11  28  1   
 25  12  15  1   
 26  12  29  1   
 27  12  30  1   
 28  13  16  ar  
 29  13  31  1   
 30  14  16  ar  
 31  14  32  1   
 32  15  17  2   
 33  16  18  1   
 34  18  33  1   
 35  18  34  1   
 36  18  35  1   
@<TRIPOS>SUBSTRUCTURE
  1 ****   4 GROUP 4 **** **** 0

# MOE 2024.06 (io_trps.svl 2023.06)
