@<TRIPOS>MOLECULE
NONAME
55 57 1 0 0 
SMALL
USER_CHARGES


@<TRIPOS>ATOM
  1 O       -2.0270     2.1500    -1.7830 O.3   1 <1>  -0.3630 
  2 C       -2.4760     1.7040    -0.5850 C.ar  1 <1>   0.0830 
  3 C       -1.4390     1.2090    -2.6560 C.3   1 <1>   0.1200 
  4 C       -1.7660     1.9590     0.5890 C.ar  1 <1>   0.0820 
  5 C       -3.6790     1.0190    -0.5450 C.ar  1 <1>  -0.1500 
  6 C       -0.0020     0.9270    -2.2170 C.3   1 <1>  -0.2400 
  7 O       -0.5950     2.6490     0.4970 O.3   1 <1>  -0.3620 
  8 C       -2.2800     1.4990     1.7980 C.ar  1 <1>  -0.1500 
  9 C       -4.1960     0.5810     0.6660 C.ar  1 <1>  -0.1440 
 10 C        0.2190     2.8930     1.6220 C.3   1 <1>   0.0400 
 11 C       -3.4840     0.8160     1.8340 C.ar  1 <1>  -0.1500 
 12 C       -5.5360    -0.1260     0.7100 C.3   1 <1>   0.4860 
 13 N       -6.5910     0.8560     0.3470 N.4   1 <1>  -0.9590 
 14 C       -6.6520     2.0080     1.3230 C.3   1 <1>   0.3430 
 15 C       -7.9460     0.2130     0.1960 C.3   1 <1>   0.3430 
 16 C       -7.7290     3.0420     0.9400 C.3   1 <1>   0.2090 
 17 C       -9.0340     1.2310    -0.2000 C.3   1 <1>   0.2090 
 18 N       -9.0580     2.3880     0.7420 N.pl3 1 <1>  -0.8380 
 19 C      -10.1140     3.2850     0.5230 C.ar  1 <1>   0.1000 
 20 C      -10.2340     4.0930    -0.6240 C.ar  1 <1>   0.0830 
 21 C      -11.0900     3.3700     1.5050 C.ar  1 <1>  -0.1500 
 22 O       -9.2630     4.0040    -1.5890 O.3   1 <1>  -0.3620 
 23 C      -11.3220     4.9520    -0.7480 C.ar  1 <1>  -0.1500 
 24 C      -12.1670     4.2270     1.3740 C.ar  1 <1>  -0.1500 
 25 C       -9.2860     4.8390    -2.7270 C.3   1 <1>   0.0400 
 26 C      -12.2830     5.0180     0.2470 C.ar  1 <1>  -0.1500 
 27 H       -1.4450     1.6400    -3.6410 H     1 <1>   0.0800 
 28 H       -2.0290     0.3100    -2.6590 H     1 <1>   0.0800 
 29 H       -4.1950     0.8490    -1.4720 H     1 <1>   0.1500 
 30 H        0.5550     1.8460    -2.1690 H     1 <1>   0.0800 
 31 H        0.4730     0.2730    -2.9250 H     1 <1>   0.0800 
 32 H        0.0120     0.4520    -1.2530 H     1 <1>   0.0800 
 33 H       -1.7560     1.6670     2.7200 H     1 <1>   0.1500 
 34 H        1.0900     3.4290     1.2920 H     1 <1>   0.0800 
 35 H        0.5120     1.9520     2.0530 H     1 <1>   0.0800 
 36 H       -0.3300     3.4890     2.3290 H     1 <1>   0.0800 
 37 H       -3.8550     0.4740     2.7860 H     1 <1>   0.1500 
 38 H       -5.7150    -0.5200     1.6970 H     1 <1>   0.0800 
 39 H       -5.5310    -0.9440     0.0080 H     1 <1>   0.0800 
 40 H       -6.3300     1.2660    -0.5570 H     1 <1>   0.4500 
 41 H       -5.6960     2.5050     1.3660 H     1 <1>   0.0800 
 42 H       -6.8780     1.6380     2.3080 H     1 <1>   0.0800 
 43 H       -8.2380    -0.2390     1.1290 H     1 <1>   0.0800 
 44 H       -7.9050    -0.5620    -0.5510 H     1 <1>   0.0800 
 45 H       -7.4320     3.5540     0.0420 H     1 <1>   0.0800 
 46 H       -7.8130     3.7760     1.7230 H     1 <1>   0.0800 
 47 H       -9.9970     0.7490    -0.1870 H     1 <1>   0.0800 
 48 H       -8.8550     1.5760    -1.2030 H     1 <1>   0.0800 
 49 H      -11.0000     2.7560     2.3810 H     1 <1>   0.1500 
 50 H      -11.4500     5.5810    -1.6070 H     1 <1>   0.1500 
 51 H      -12.9130     4.2770     2.1480 H     1 <1>   0.1500 
 52 H       -8.4180     4.6200    -3.3230 H     1 <1>   0.0800 
 53 H       -9.2590     5.8660    -2.4090 H     1 <1>   0.0800 
 54 H      -10.1770     4.6340    -3.2940 H     1 <1>   0.0800 
 55 H      -13.1220     5.6840     0.1430 H     1 <1>   0.1500 
@<TRIPOS>BOND
  1   1   2  1   
  2   1   3  1   
  3   2   4  ar  
  4   2   5  ar  
  5   3   6  1   
  6   3  27  1   
  7   3  28  1   
  8   4   7  1   
  9   4   8  ar  
 10   5   9  ar  
 11   5  29  1   
 12   6  30  1   
 13   6  31  1   
 14   6  32  1   
 15   7  10  1   
 16   8  11  ar  
 17   8  33  1   
 18   9  11  ar  
 19   9  12  1   
 20  10  34  1   
 21  10  35  1   
 22  10  36  1   
 23  11  37  1   
 24  12  13  1   
 25  12  38  1   
 26  12  39  1   
 27  13  14  1   
 28  13  15  1   
 29  13  40  1   
 30  14  16  1   
 31  14  41  1   
 32  14  42  1   
 33  15  17  1   
 34  15  43  1   
 35  15  44  1   
 36  16  18  1   
 37  16  45  1   
 38  16  46  1   
 39  17  18  1   
 40  17  47  1   
 41  17  48  1   
 42  18  19  1   
 43  19  20  ar  
 44  19  21  ar  
 45  20  22  1   
 46  20  23  ar  
 47  21  24  ar  
 48  21  49  1   
 49  22  25  1   
 50  23  26  ar  
 51  23  50  1   
 52  24  26  ar  
 53  24  51  1   
 54  25  52  1   
 55  25  53  1   
 56  25  54  1   
 57  26  55  1   
@<TRIPOS>SUBSTRUCTURE
  1 ****  14 GROUP 4 **** **** 0

# MOE 2024.06 (io_trps.svl 2023.06)
