@<TRIPOS>MOLECULE
NONAME
26 28 1 0 0 
SMALL
USER_CHARGES


@<TRIPOS>ATOM
  1 S        0.1910     0.9910     1.2190 S.3   1 <1>  -0.4600 
  2 C        1.2320     1.1180    -0.2640 C.3   1 <1>   0.6650 
  3 C       -1.3880     0.6460     0.4190 C.3   1 <1>   0.0700 
  4 S        0.1040     1.7560    -1.5490 S.3   1 <1>  -0.4600 
  5 C        1.9440    -0.1930    -0.6460 C.2   1 <1>   0.5690 
  6 C        2.4190     2.0450    -0.0440 C.ar  1 <1>  -0.1440 
  7 C       -1.5090     1.6570    -0.7180 C.3   1 <1>   0.0700 
  8 O        1.4310    -1.2560    -0.9140 O.2   1 <1>  -0.5700 
  9 N        3.2870     0.0230    -0.6330 N.am  1 <1>  -0.5470 
 10 C        3.5880     1.3380    -0.2790 C.ar  1 <1>   0.1170 
 11 C        2.4490     3.3760     0.3240 C.ar  1 <1>  -0.1500 
 12 C        4.8280     1.9550    -0.1480 C.ar  1 <1>  -0.1440 
 13 C        3.6780     4.0000     0.4570 C.ar  1 <1>  -0.1500 
 14 C        4.8520     3.2980     0.2240 C.ar  1 <1>  -0.1500 
 15 C        6.1050     1.1560    -0.4120 C.3   1 <1>   1.1640 
 16 F        7.2150     1.8640    -0.2430 F     1 <1>  -0.3400 
 17 F        6.2110     0.1030     0.3880 F     1 <1>  -0.3400 
 18 F        6.1520     0.6830    -1.6510 F     1 <1>  -0.3400 
 19 H       -2.1710     0.7490     1.1490 H     1 <1>   0.0800 
 20 H       -1.3460    -0.3640     0.0470 H     1 <1>   0.0800 
 21 H       -1.7280     2.6400    -0.3390 H     1 <1>   0.0800 
 22 H       -2.2450     1.3660    -1.4470 H     1 <1>   0.0800 
 23 H        3.9440    -0.7280    -0.8560 H     1 <1>   0.3700 
 24 H        1.5340     3.9150     0.5040 H     1 <1>   0.1500 
 25 H        3.7200     5.0370     0.7440 H     1 <1>   0.1500 
 26 H        5.7900     3.8190     0.3380 H     1 <1>   0.1500 
@<TRIPOS>BOND
  1   1   2  1   
  2   1   3  1   
  3   2   4  1   
  4   2   5  1   
  5   2   6  1   
  6   3   7  1   
  7   3  19  1   
  8   3  20  1   
  9   4   7  1   
 10   5   8  2   
 11   5   9  am  
 12   6  10  ar  
 13   6  11  ar  
 14   7  21  1   
 15   7  22  1   
 16   9  10  1   
 17   9  23  1   
 18  10  12  ar  
 19  11  13  ar  
 20  11  24  1   
 21  12  14  ar  
 22  12  15  1   
 23  13  14  ar  
 24  13  25  1   
 25  14  26  1   
 26  15  16  1   
 27  15  17  1   
 28  15  18  1   
@<TRIPOS>SUBSTRUCTURE
  1 ****  10 GROUP 4 **** **** 0

# MOE 2024.06 (io_trps.svl 2023.06)
