@<TRIPOS>MOLECULE
NONAME
34 37 1 0 0 
SMALL
USER_CHARGES


@<TRIPOS>ATOM
  1 F       -0.3530    -0.1530    -1.0490 F     1 <1>  -0.1900 
  2 C       -1.6600    -0.1400    -0.9910 C.ar  1 <1>   0.1900 
  3 C       -2.3130     1.0760    -0.9330 C.ar  1 <1>  -0.1500 
  4 C       -2.3410    -1.3410    -0.9890 C.ar  1 <1>  -0.1500 
  5 C       -3.6960     1.0820    -0.8720 C.ar  1 <1>  -0.1500 
  6 C       -3.7240    -1.3180    -0.9260 C.ar  1 <1>  -0.1500 
  7 C       -4.4190    -0.1100    -0.8700 C.ar  1 <1>   0.1170 
  8 N       -5.8180    -0.0420    -0.7900 N.am  1 <1>  -0.5470 
  9 C       -6.7820    -0.9250    -1.2040 C.2   1 <1>   0.5690 
 10 O       -6.5210    -1.9620    -1.7610 O.2   1 <1>  -0.5700 
 11 C       -8.2610    -0.6200    -0.9600 C.3   1 <1>  -0.0190 
 12 C       -8.6300     0.8820    -0.8150 C.3   1 <1>  -0.0190 
 13 C       -8.7670    -1.2140     0.3770 C.3   1 <1>  -0.0800 
 14 C       -9.9130     1.1630    -1.5530 C.2   1 <1>   0.6590 
 15 C       -9.1110     0.9770     0.6410 C.3   1 <1>  -0.0800 
 16 C      -10.3070    -1.0960     0.4290 C.3   1 <1>  -0.1600 
 17 C       -8.3750    -0.1350     1.3700 C.3   1 <1>  -0.1600 
 18 O       -9.9900     1.5990    -2.6680 O.2   1 <1>  -0.5700 
 19 O      -10.9470     0.8750    -0.7910 O.3   1 <1>  -0.4300 
 20 C      -10.5390     0.4280     0.4800 C.3   1 <1>   0.2000 
 21 H       -1.7470     1.9900    -0.9370 H     1 <1>   0.1500 
 22 H       -1.8010    -2.2700    -1.0360 H     1 <1>   0.1500 
 23 H       -4.2150     2.0220    -0.8310 H     1 <1>   0.1500 
 24 H       -4.2600    -2.2500    -0.9200 H     1 <1>   0.1500 
 25 H       -6.1700     0.8200    -0.3820 H     1 <1>   0.3700 
 26 H       -8.8030    -1.0630    -1.7790 H     1 <1>   0.0800 
 27 H       -7.8610     1.5810    -1.0830 H     1 <1>   0.0800 
 28 H       -8.3930    -2.2020     0.5940 H     1 <1>   0.0800 
 29 H       -9.0660     1.9570     1.0860 H     1 <1>   0.0800 
 30 H      -10.6720    -1.5480     1.3350 H     1 <1>   0.0800 
 31 H      -10.7910    -1.5610    -0.4130 H     1 <1>   0.0800 
 32 H       -7.3130     0.0270     1.4360 H     1 <1>   0.0800 
 33 H       -8.7720    -0.3150     2.3560 H     1 <1>   0.0800 
 34 H      -11.2410     0.7420     1.2350 H     1 <1>   0.0800 
@<TRIPOS>BOND
  1   1   2  1   
  2   2   3  ar  
  3   2   4  ar  
  4   3   5  ar  
  5   3  21  1   
  6   4   6  ar  
  7   4  22  1   
  8   5   7  ar  
  9   5  23  1   
 10   6   7  ar  
 11   6  24  1   
 12   7   8  1   
 13   8   9  am  
 14   8  25  1   
 15   9  10  2   
 16   9  11  1   
 17  11  12  1   
 18  11  13  1   
 19  11  26  1   
 20  12  14  1   
 21  12  15  1   
 22  12  27  1   
 23  13  16  1   
 24  13  17  1   
 25  13  28  1   
 26  14  18  2   
 27  14  19  1   
 28  15  17  1   
 29  15  20  1   
 30  15  29  1   
 31  16  20  1   
 32  16  30  1   
 33  16  31  1   
 34  17  32  1   
 35  17  33  1   
 36  19  20  1   
 37  20  34  1   
@<TRIPOS>SUBSTRUCTURE
  1 ****   8 GROUP 4 **** **** 0

# MOE 2024.06 (io_trps.svl 2023.06)
