@<TRIPOS>MOLECULE
NONAME
44 45 1 0 0 
SMALL
USER_CHARGES


@<TRIPOS>ATOM
  1 O        1.9490    -2.9870    -0.1410 O.co2 1 <1>  -0.9000 
  2 C        0.9770    -2.4560    -0.6950 C.2   1 <1>   0.9060 
  3 O        1.1380    -1.8080    -1.7370 O.co2 1 <1>  -0.9000 
  4 C       -0.4470    -2.6290    -0.0890 C.3   1 <1>  -0.1060 
  5 C       -1.0210    -4.0600    -0.3770 C.3   1 <1>   0.0000 
  6 C       -0.3770    -2.5890     1.4530 C.3   1 <1>  -0.1600 
  7 C       -1.3540    -1.4610    -0.5680 C.3   1 <1>  -0.2400 
  8 C       -0.4810    -4.9500     0.7870 C.3   1 <1>  -0.0190 
  9 C       -0.6650    -4.5830    -1.7870 C.3   1 <1>  -0.2400 
 10 C       -2.5690    -4.0890    -0.3020 C.3   1 <1>  -0.2400 
 11 C        0.0150    -3.9990     1.8940 C.3   1 <1>  -0.1600 
 12 C        0.5200    -6.0540     0.4210 C.2   1 <1>   0.5690 
 13 O        0.1170    -7.1960     0.4640 O.2   1 <1>  -0.5700 
 14 N        1.8110    -5.7450     0.0850 N.am  1 <1>  -0.5470 
 15 C        2.8800    -6.5960    -0.2700 C.ar  1 <1>   0.1170 
 16 C        4.2020    -6.2910     0.0780 C.ar  1 <1>   0.0820 
 17 C        2.6570    -7.7640    -0.9930 C.ar  1 <1>  -0.1500 
 18 O        4.4990    -5.1700     0.7750 O.3   1 <1>  -0.3630 
 19 C        5.2450    -7.1340    -0.2660 C.ar  1 <1>  -0.1500 
 20 C        3.6990    -8.6060    -1.3430 C.ar  1 <1>  -0.1500 
 21 C        4.7140    -4.0120    -0.0030 C.3   1 <1>   0.0400 
 22 C        4.9970    -8.2940    -0.9780 C.ar  1 <1>  -0.1500 
 23 H       -1.3400    -2.3500     1.8670 H     1 <1>   0.0800 
 24 H        0.3370    -1.8580     1.7950 H     1 <1>   0.0800 
 25 H       -1.5100    -1.5340    -1.6300 H     1 <1>   0.0800 
 26 H       -0.8610    -0.5250    -0.3750 H     1 <1>   0.0800 
 27 H       -2.3060    -1.4460    -0.0720 H     1 <1>   0.0800 
 28 H       -1.3140    -5.4780     1.2140 H     1 <1>   0.0800 
 29 H        0.3970    -4.6500    -1.9380 H     1 <1>   0.0800 
 30 H       -1.0520    -3.9150    -2.5360 H     1 <1>   0.0800 
 31 H       -1.0840    -5.5610    -1.9470 H     1 <1>   0.0800 
 32 H       -2.9180    -3.7040     0.6380 H     1 <1>   0.0800 
 33 H       -2.9280    -5.0980    -0.4060 H     1 <1>   0.0800 
 34 H       -3.0040    -3.5090    -1.0960 H     1 <1>   0.0800 
 35 H       -0.4190    -4.2440     2.8470 H     1 <1>   0.0800 
 36 H        1.0860    -4.0530     1.9920 H     1 <1>   0.0800 
 37 H        2.0360    -4.7260     0.0990 H     1 <1>   0.3700 
 38 H        1.6550    -8.0170    -1.2860 H     1 <1>   0.1500 
 39 H        6.2460    -6.8770     0.0290 H     1 <1>   0.1500 
 40 H        3.4950    -9.5040    -1.8990 H     1 <1>   0.1500 
 41 H        4.5010    -3.1510     0.6050 H     1 <1>   0.0800 
 42 H        4.0510    -4.0190    -0.8520 H     1 <1>   0.0800 
 43 H        5.7360    -4.0000    -0.3320 H     1 <1>   0.0800 
 44 H        5.8070    -8.9480    -1.2460 H     1 <1>   0.1500 
@<TRIPOS>BOND
  1   1   2  ar  
  2   2   3  ar  
  3   2   4  1   
  4   4   5  1   
  5   4   6  1   
  6   4   7  1   
  7   5   8  1   
  8   5   9  1   
  9   5  10  1   
 10   6  11  1   
 11   6  23  1   
 12   6  24  1   
 13   7  25  1   
 14   7  26  1   
 15   7  27  1   
 16   8  11  1   
 17   8  12  1   
 18   8  28  1   
 19   9  29  1   
 20   9  30  1   
 21   9  31  1   
 22  10  32  1   
 23  10  33  1   
 24  10  34  1   
 25  11  35  1   
 26  11  36  1   
 27  12  13  2   
 28  12  14  am  
 29  14  15  1   
 30  14  37  1   
 31  15  16  ar  
 32  15  17  ar  
 33  16  18  1   
 34  16  19  ar  
 35  17  20  ar  
 36  17  38  1   
 37  18  21  1   
 38  19  22  ar  
 39  19  39  1   
 40  20  22  ar  
 41  20  40  1   
 42  21  41  1   
 43  21  42  1   
 44  21  43  1   
 45  22  44  1   
@<TRIPOS>SUBSTRUCTURE
  1 ****  14 GROUP 4 **** **** 0

# MOE 2024.06 (io_trps.svl 2023.06)
