@<TRIPOS>MOLECULE
NONAME
44 45 1 0 0 
SMALL
USER_CHARGES


@<TRIPOS>ATOM
  1 O        6.2790     2.1550     1.7790 O.3   1 <1>  -0.5600 
  2 C        6.7450     3.2660     1.0600 C.3   1 <1>   0.1200 
  3 C        5.8710     1.0840     0.9730 C.3   1 <1>   0.1200 
  4 C        5.6710     3.7740     0.0690 C.3   1 <1>   0.3430 
  5 C        4.7160     1.5120     0.0370 C.3   1 <1>   0.3430 
  6 N        4.3970     2.9790     0.1970 N.4   1 <1>  -0.9590 
  7 C        3.3050     3.4980    -0.6730 C.3   1 <1>   0.3430 
  8 C        1.9440     2.9400    -0.2320 C.3   1 <1>  -0.1600 
  9 C        0.7960     3.5810    -1.0230 C.3   1 <1>   0.3430 
 10 N       -0.5010     3.0390    -0.5490 N.4   1 <1>  -0.9060 
 11 C       -1.6850     3.6140    -1.2260 C.3   1 <1>   0.4860 
 12 C       -2.8760     2.9710    -0.5590 C.ar  1 <1>  -0.1440 
 13 C       -3.4920     3.5520     0.5460 C.ar  1 <1>  -0.1440 
 14 C       -3.3450     1.7630    -1.0580 C.ar  1 <1>  -0.1500 
 15 C       -4.5600     2.9000     1.1440 C.ar  1 <1>  -0.1500 
 16 C       -3.0480     4.8910     1.1230 C.3   1 <1>  -0.0970 
 17 C       -4.4110     1.1240    -0.4530 C.ar  1 <1>  -0.1500 
 18 C       -5.0170     1.6920     0.6500 C.ar  1 <1>  -0.1500 
 19 H        7.6470     2.9900     0.5410 H     1 <1>   0.0800 
 20 H        6.9900     4.0360     1.7710 H     1 <1>   0.0800 
 21 H        5.5520     0.2860     1.6220 H     1 <1>   0.0800 
 22 H        6.7180     0.7350     0.4050 H     1 <1>   0.0800 
 23 H        6.0580     3.6970    -0.9340 H     1 <1>   0.0800 
 24 H        5.4840     4.8170     0.2660 H     1 <1>   0.0800 
 25 H        3.8490     0.9140     0.2670 H     1 <1>   0.0800 
 26 H        4.9970     1.3000    -0.9820 H     1 <1>   0.0800 
 27 H        4.1540     3.0800     1.1970 H     1 <1>   0.4500 
 28 H        3.5040     3.2370    -1.7010 H     1 <1>   0.0800 
 29 H        3.2830     4.5750    -0.6000 H     1 <1>   0.0800 
 30 H        1.8050     3.1490     0.8140 H     1 <1>   0.0800 
 31 H        1.9260     1.8760    -0.3910 H     1 <1>   0.0800 
 32 H        0.9140     3.3730    -2.0760 H     1 <1>   0.0800 
 33 H        0.8120     4.6520    -0.8850 H     1 <1>   0.0800 
 34 H       -0.6510     3.1980     0.4560 H     1 <1>   0.4500 
 35 H       -0.5690     2.0200    -0.6690 H     1 <1>   0.4500 
 36 H       -1.6790     3.3810    -2.2790 H     1 <1>   0.0800 
 37 H       -1.7200     4.6840    -1.1030 H     1 <1>   0.0800 
 38 H       -2.8980     1.3000    -1.9210 H     1 <1>   0.1500 
 39 H       -5.0550     3.3270     2.0000 H     1 <1>   0.1500 
 40 H       -3.1400     5.6660     0.3830 H     1 <1>   0.0800 
 41 H       -2.0340     4.8440     1.4710 H     1 <1>   0.0800 
 42 H       -3.6680     5.1690     1.9590 H     1 <1>   0.0800 
 43 H       -4.7770     0.1870    -0.8400 H     1 <1>   0.1500 
 44 H       -5.8480     1.1970     1.1230 H     1 <1>   0.1500 
@<TRIPOS>BOND
  1   1   2  1   
  2   1   3  1   
  3   2   4  1   
  4   2  19  1   
  5   2  20  1   
  6   3   5  1   
  7   3  21  1   
  8   3  22  1   
  9   4   6  1   
 10   4  23  1   
 11   4  24  1   
 12   5   6  1   
 13   5  25  1   
 14   5  26  1   
 15   6   7  1   
 16   6  27  1   
 17   7   8  1   
 18   7  28  1   
 19   7  29  1   
 20   8   9  1   
 21   8  30  1   
 22   8  31  1   
 23   9  10  1   
 24   9  32  1   
 25   9  33  1   
 26  10  11  1   
 27  10  34  1   
 28  10  35  1   
 29  11  12  1   
 30  11  36  1   
 31  11  37  1   
 32  12  13  ar  
 33  12  14  ar  
 34  13  15  ar  
 35  13  16  1   
 36  14  17  ar  
 37  14  38  1   
 38  15  18  ar  
 39  15  39  1   
 40  16  40  1   
 41  16  41  1   
 42  16  42  1   
 43  17  18  ar  
 44  17  43  1   
 45  18  44  1   
@<TRIPOS>SUBSTRUCTURE
  1 ****  10 GROUP 4 **** **** 0

# MOE 2024.06 (io_trps.svl 2023.06)
