@<TRIPOS>MOLECULE
NONAME
49 51 1 0 0 
SMALL
USER_CHARGES


@<TRIPOS>ATOM
  1 O        0.8490     0.5420     2.2800 O.2   1 <1>  -0.5700 
  2 C        1.5400     1.2520     1.5910 C.2   1 <1>   0.5690 
  3 N        1.1140     2.2490     0.7860 N.am  1 <1>  -0.6600 
  4 C        3.0340     1.1120     1.5320 C.3   1 <1>  -0.0990 
  5 C       -0.3160     2.5930     0.5710 C.3   1 <1>   0.2200 
  6 C        2.2350     2.9080     0.0840 C.3   1 <1>   0.1400 
  7 C        3.4810     2.4110     0.8340 C.3   1 <1>  -0.0190 
  8 C       -0.7120     2.4390    -0.8950 C.3   1 <1>  -0.1600 
  9 C       -0.5870     4.0630     0.8880 C.3   1 <1>  -0.1600 
 10 C        4.7020     2.2660    -0.0620 C.2   1 <1>   0.5690 
 11 C       -0.4700     3.7970    -1.5590 C.3   1 <1>  -0.1600 
 12 C       -0.4990     4.8380    -0.4340 C.3   1 <1>  -0.1600 
 13 O        4.7500     2.8800    -1.0990 O.2   1 <1>  -0.5700 
 14 N        5.7180     1.4610     0.3440 N.am  1 <1>  -0.7300 
 15 C        6.9540     1.2030    -0.4120 C.3   1 <1>   0.2200 
 16 C        6.9270    -0.2660    -0.8500 C.3   1 <1>  -0.1600 
 17 C        8.1420     1.5930     0.4780 C.3   1 <1>  -0.1600 
 18 C        8.1880    -0.7520    -1.5830 C.3   1 <1>  -0.1600 
 19 C        9.4610     1.6720    -0.3060 C.3   1 <1>  -0.1600 
 20 C        9.3850    -0.9240    -0.6370 C.3   1 <1>  -0.1600 
 21 C       10.2260     0.3440    -0.4200 C.3   1 <1>  -0.1600 
 22 H        3.2650     0.2440     0.9420 H     1 <1>   0.0800 
 23 H        3.4480     1.0170     2.5190 H     1 <1>   0.0800 
 24 H       -0.9260     1.9570     1.1930 H     1 <1>   0.0800 
 25 H        2.1600     3.9790     0.1320 H     1 <1>   0.0800 
 26 H        2.2460     2.5860    -0.9440 H     1 <1>   0.0800 
 27 H        3.7140     3.1420     1.5860 H     1 <1>   0.0800 
 28 H       -1.7650     2.2220    -0.9350 H     1 <1>   0.0800 
 29 H       -0.1800     1.6380    -1.3780 H     1 <1>   0.0800 
 30 H        0.0850     4.4440     1.6370 H     1 <1>   0.0800 
 31 H       -1.5920     4.1440     1.2640 H     1 <1>   0.0800 
 32 H       -1.2170     4.0020    -2.3060 H     1 <1>   0.0800 
 33 H        0.4960     3.8050    -2.0330 H     1 <1>   0.0800 
 34 H        0.3940     5.4370    -0.4620 H     1 <1>   0.0800 
 35 H       -1.3500     5.4890    -0.5400 H     1 <1>   0.0800 
 36 H        5.6550     0.9660     1.2320 H     1 <1>   0.3700 
 37 H        6.9630     1.8250    -1.2930 H     1 <1>   0.0800 
 38 H        6.0910    -0.3880    -1.5170 H     1 <1>   0.0800 
 39 H        6.7550    -0.8950     0.0050 H     1 <1>   0.0800 
 40 H        8.2380     0.9180     1.3100 H     1 <1>   0.0800 
 41 H        7.9450     2.5770     0.8690 H     1 <1>   0.0800 
 42 H        8.4360    -0.0940    -2.3980 H     1 <1>   0.0800 
 43 H        7.9640    -1.7150    -2.0080 H     1 <1>   0.0800 
 44 H       10.1080     2.3820     0.1790 H     1 <1>   0.0800 
 45 H        9.2660     2.0580    -1.2930 H     1 <1>   0.0800 
 46 H       10.0360    -1.6800    -1.0410 H     1 <1>   0.0800 
 47 H        9.0410    -1.2920     0.3140 H     1 <1>   0.0800 
 48 H       10.8090     0.2040     0.4740 H     1 <1>   0.0800 
 49 H       10.9250     0.4370    -1.2340 H     1 <1>   0.0800 
@<TRIPOS>BOND
  1   1   2  2   
  2   2   3  am  
  3   2   4  1   
  4   3   5  1   
  5   3   6  1   
  6   4   7  1   
  7   4  22  1   
  8   4  23  1   
  9   5   8  1   
 10   5   9  1   
 11   5  24  1   
 12   6   7  1   
 13   6  25  1   
 14   6  26  1   
 15   7  10  1   
 16   7  27  1   
 17   8  11  1   
 18   8  28  1   
 19   8  29  1   
 20   9  12  1   
 21   9  30  1   
 22   9  31  1   
 23  10  13  2   
 24  10  14  am  
 25  11  12  1   
 26  11  32  1   
 27  11  33  1   
 28  12  34  1   
 29  12  35  1   
 30  14  15  1   
 31  14  36  1   
 32  15  16  1   
 33  15  17  1   
 34  15  37  1   
 35  16  18  1   
 36  16  38  1   
 37  16  39  1   
 38  17  19  1   
 39  17  40  1   
 40  17  41  1   
 41  18  20  1   
 42  18  42  1   
 43  18  43  1   
 44  19  21  1   
 45  19  44  1   
 46  19  45  1   
 47  20  21  1   
 48  20  46  1   
 49  20  47  1   
 50  21  48  1   
 51  21  49  1   
@<TRIPOS>SUBSTRUCTURE
  1 ****  10 GROUP 4 **** **** 0

# MOE 2024.06 (io_trps.svl 2023.06)
