@<TRIPOS>MOLECULE
NONAME
44 46 1 0 0 
SMALL
USER_CHARGES


@<TRIPOS>ATOM
  1 O       -0.5250     0.1140    -0.0090 O.3   1 <1>  -0.2800 
  2 C       -1.5610     0.8850    -0.2750 C.2   1 <1>  -0.0400 
  3 C        0.4970     0.8950     0.2760 C.2   1 <1>  -0.0100 
  4 C       -1.2140     2.1890    -0.1640 C.2   1 <1>  -0.1500 
  5 C       -2.8620     0.1880    -0.6340 C.3   1 <1>   0.5230 
  6 C        0.1380     2.1930     0.1990 C.2   1 <1>  -0.1500 
  7 N       -4.0230     1.1010    -0.4430 N.4   1 <1>  -0.9590 
  8 C       -4.2240     1.4260     1.0190 C.3   1 <1>   0.3430 
  9 C       -5.2860     0.5300    -1.0330 C.3   1 <1>   0.3430 
 10 C       -5.4250     2.3640     1.2500 C.3   1 <1>   0.2090 
 11 C       -6.4990     1.4600    -0.8290 C.3   1 <1>   0.2090 
 12 N       -6.6610     1.8240     0.6100 N.pl3 1 <1>  -0.8380 
 13 C       -7.8210     2.5620     0.8890 C.ar  1 <1>   0.1000 
 14 C       -8.0450     3.8740     0.4320 C.ar  1 <1>   0.0830 
 15 C       -8.7940     1.9480     1.6640 C.ar  1 <1>  -0.1500 
 16 O       -7.0750     4.4690    -0.3330 O.3   1 <1>  -0.3620 
 17 C       -9.2310     4.5230     0.7630 C.ar  1 <1>  -0.1500 
 18 C       -9.9690     2.6010     1.9880 C.ar  1 <1>  -0.1500 
 19 C       -7.2390     5.7780    -0.8310 C.3   1 <1>   0.1200 
 20 C      -10.1870     3.8890     1.5380 C.ar  1 <1>  -0.1500 
 21 C       -5.9940     6.1350    -1.6370 C.3   1 <1>  -0.2400 
 22 H        1.4460     0.4460     0.5220 H     1 <1>   0.1500 
 23 H       -1.7950     3.0820    -0.3140 H     1 <1>   0.1500 
 24 H       -2.9770    -0.6810    -0.0070 H     1 <1>   0.0800 
 25 H       -2.8060    -0.1410    -1.6580 H     1 <1>   0.0800 
 26 H        0.7440     3.0670     0.3720 H     1 <1>   0.1500 
 27 H       -3.8150     1.9800    -0.9300 H     1 <1>   0.4500 
 28 H       -3.3380     1.8860     1.4230 H     1 <1>   0.0800 
 29 H       -4.4020     0.5170     1.5700 H     1 <1>   0.0800 
 30 H       -5.5110    -0.4140    -0.5650 H     1 <1>   0.0800 
 31 H       -5.1560     0.3560    -2.0880 H     1 <1>   0.0800 
 32 H       -5.2010     3.3390     0.8560 H     1 <1>   0.0800 
 33 H       -5.5970     2.4700     2.3080 H     1 <1>   0.0800 
 34 H       -7.3920     0.9620    -1.1660 H     1 <1>   0.0800 
 35 H       -6.3760     2.3490    -1.4220 H     1 <1>   0.0800 
 36 H       -8.6250     0.9470     2.0140 H     1 <1>   0.1500 
 37 H       -9.4400     5.5230     0.4340 H     1 <1>   0.1500 
 38 H      -10.7120     2.1070     2.5910 H     1 <1>   0.1500 
 39 H       -7.3570     6.4490     0.0030 H     1 <1>   0.0800 
 40 H       -8.1150     5.7990    -1.4560 H     1 <1>   0.0800 
 41 H      -11.1020     4.3980     1.7900 H     1 <1>   0.1500 
 42 H       -5.1220     6.1030    -1.0080 H     1 <1>   0.0800 
 43 H       -6.0930     7.1310    -2.0300 H     1 <1>   0.0800 
 44 H       -5.8760     5.4550    -2.4600 H     1 <1>   0.0800 
@<TRIPOS>BOND
  1   1   2  1   
  2   1   3  1   
  3   2   4  2   
  4   2   5  1   
  5   3   6  2   
  6   3  22  1   
  7   4   6  1   
  8   4  23  1   
  9   5   7  1   
 10   5  24  1   
 11   5  25  1   
 12   6  26  1   
 13   7   8  1   
 14   7   9  1   
 15   7  27  1   
 16   8  10  1   
 17   8  28  1   
 18   8  29  1   
 19   9  11  1   
 20   9  30  1   
 21   9  31  1   
 22  10  12  1   
 23  10  32  1   
 24  10  33  1   
 25  11  12  1   
 26  11  34  1   
 27  11  35  1   
 28  12  13  1   
 29  13  14  ar  
 30  13  15  ar  
 31  14  16  1   
 32  14  17  ar  
 33  15  18  ar  
 34  15  36  1   
 35  16  19  1   
 36  17  20  ar  
 37  17  37  1   
 38  18  20  ar  
 39  18  38  1   
 40  19  21  1   
 41  19  39  1   
 42  19  40  1   
 43  20  41  1   
 44  21  42  1   
 45  21  43  1   
 46  21  44  1   
@<TRIPOS>SUBSTRUCTURE
  1 ****  10 GROUP 4 **** **** 0

# MOE 2024.06 (io_trps.svl 2023.06)
