@<TRIPOS>MOLECULE
NONAME
37 37 1 0 0 
SMALL
USER_CHARGES


@<TRIPOS>ATOM
  1 O        4.3660    -6.0790     0.0380 O.3   1 <1>  -0.3630 
  2 C        5.5980    -5.5040     0.0290 C.ar  1 <1>   0.0830 
  3 C        3.1920    -5.3090     0.0130 C.3   1 <1>   0.1200 
  4 C        6.7030    -6.3510     0.0560 C.ar  1 <1>  -0.1440 
  5 C        5.7890    -4.1230    -0.0050 C.ar  1 <1>  -0.1500 
  6 C        2.0160    -6.2870     0.0320 C.3   1 <1>   0.3430 
  7 C        7.9790    -5.8110     0.0490 C.ar  1 <1>  -0.1500 
  8 C        6.5310    -7.8630     0.0940 C.3   1 <1>  -0.0960 
  9 C        7.0680    -3.5970    -0.0120 C.ar  1 <1>  -0.1500 
 10 N        0.7000    -5.5790     0.0080 N.4   1 <1>  -0.9060 
 11 C        8.1630    -4.4400     0.0150 C.ar  1 <1>  -0.1500 
 12 C       -0.4380    -6.5280     0.0260 C.3   1 <1>   0.3430 
 13 C       -1.7430    -5.7360    -0.0010 C.3   1 <1>  -0.1600 
 14 C       -2.9530    -6.6780     0.0170 C.3   1 <1>  -0.1600 
 15 C       -4.2630    -5.8860    -0.0090 C.3   1 <1>  -0.2400 
 16 H        3.1970    -4.7240    -0.8900 H     1 <1>   0.0800 
 17 H        3.1880    -4.6790     0.8850 H     1 <1>   0.0800 
 18 H        4.9660    -3.4360    -0.0260 H     1 <1>   0.1500 
 19 H        2.0870    -6.8910     0.9230 H     1 <1>   0.0800 
 20 H        2.0950    -6.9350    -0.8260 H     1 <1>   0.0800 
 21 H        8.8420    -6.4550     0.0690 H     1 <1>   0.1500 
 22 H        5.9820    -8.1460     0.9740 H     1 <1>   0.0800 
 23 H        7.4830    -8.3610     0.1110 H     1 <1>   0.0800 
 24 H        5.9910    -8.1910    -0.7760 H     1 <1>   0.0800 
 25 H        7.2160    -2.5310    -0.0380 H     1 <1>   0.1500 
 26 H        0.6290    -4.9940    -0.8350 H     1 <1>   0.4500 
 27 H        0.6210    -4.9520     0.8190 H     1 <1>   0.4500 
 28 H        9.1590    -4.0320     0.0090 H     1 <1>   0.1500 
 29 H       -0.4030    -7.1350     0.9170 H     1 <1>   0.0800 
 30 H       -0.3940    -7.1800    -0.8330 H     1 <1>   0.0800 
 31 H       -1.7870    -5.1340    -0.8920 H     1 <1>   0.0800 
 32 H       -1.7950    -5.0900     0.8590 H     1 <1>   0.0800 
 33 H       -2.9350    -7.2890     0.9050 H     1 <1>   0.0800 
 34 H       -2.9270    -7.3330    -0.8380 H     1 <1>   0.0800 
 35 H       -4.3380    -5.2410     0.8490 H     1 <1>   0.0800 
 36 H       -5.1020    -6.5620     0.0040 H     1 <1>   0.0800 
 37 H       -4.3300    -5.2860    -0.9000 H     1 <1>   0.0800 
@<TRIPOS>BOND
  1   1   2  1   
  2   1   3  1   
  3   2   4  ar  
  4   2   5  ar  
  5   3   6  1   
  6   3  16  1   
  7   3  17  1   
  8   4   7  ar  
  9   4   8  1   
 10   5   9  ar  
 11   5  18  1   
 12   6  10  1   
 13   6  19  1   
 14   6  20  1   
 15   7  11  ar  
 16   7  21  1   
 17   8  22  1   
 18   8  23  1   
 19   8  24  1   
 20   9  11  ar  
 21   9  25  1   
 22  10  12  1   
 23  10  26  1   
 24  10  27  1   
 25  11  28  1   
 26  12  13  1   
 27  12  29  1   
 28  12  30  1   
 29  13  14  1   
 30  13  31  1   
 31  13  32  1   
 32  14  15  1   
 33  14  33  1   
 34  14  34  1   
 35  15  35  1   
 36  15  36  1   
 37  15  37  1   
@<TRIPOS>SUBSTRUCTURE
  1 ****   3 GROUP 4 **** **** 0

# MOE 2024.06 (io_trps.svl 2023.06)
