@<TRIPOS>MOLECULE
NONAME
34 36 1 0 0 
SMALL
USER_CHARGES


@<TRIPOS>ATOM
  1 S       -0.2230    -0.9130     0.1350 S.3   1 <1>  -0.0800 
  2 C        1.0980     0.2570     0.1080 C.ar  1 <1>   0.2970 
  3 C       -1.4200     0.3740     0.0710 C.2   1 <1>  -0.1400 
  4 N        2.3580    -0.1020     0.1320 N.ar  1 <1>  -0.5670 
  5 C        0.6090     1.5480     0.0510 C.ar  1 <1>   0.0000 
  6 C       -0.8410     1.5830     0.0480 C.2   1 <1>  -0.1810 
  7 C       -2.8910     0.0300     0.0480 C.3   1 <1>   0.5230 
  8 C        3.1750     0.9290     0.0910 C.ar  1 <1>   0.7220 
  9 C        1.6160     2.5060     0.0030 C.ar  1 <1>   0.4120 
 10 C       -1.7060     2.8340     0.0230 C.3   1 <1>   0.0210 
 11 N       -3.6310     1.2490    -0.4220 N.4   1 <1>  -0.9590 
 12 S        4.9120     0.5130     0.1260 S.3   1 <1>  -0.3320 
 13 N        2.8970     2.2270     0.0250 N.ar  1 <1>  -0.6200 
 14 S        1.1930     4.2420    -0.1090 S.3   1 <1>  -0.3320 
 15 C       -3.1850     2.4950     0.3020 C.3   1 <1>   0.3430 
 16 C       -5.1100     1.0560    -0.3340 C.3   1 <1>   0.2630 
 17 C        5.8050     2.1310     0.0570 C.3   1 <1>  -0.0100 
 18 C        2.8150     5.1310    -0.1560 C.3   1 <1>  -0.0100 
 19 H       -3.2100    -0.2560     1.0370 H     1 <1>   0.0800 
 20 H       -3.0630    -0.7930    -0.6270 H     1 <1>   0.0800 
 21 H       -1.6150     3.3190    -0.9330 H     1 <1>   0.0800 
 22 H       -1.3760     3.5260     0.7780 H     1 <1>   0.0800 
 23 H       -3.3650     1.3690    -1.4100 H     1 <1>   0.4500 
 24 H       -3.7970     3.3330     0.0090 H     1 <1>   0.0800 
 25 H       -3.3100     2.3490     1.3630 H     1 <1>   0.0800 
 26 H       -5.4110     0.9200     0.6930 H     1 <1>   0.0800 
 27 H       -5.4100     0.1880    -0.8990 H     1 <1>   0.0800 
 28 H       -5.6230     1.9160    -0.7320 H     1 <1>   0.0800 
 29 H        6.8590     1.9230     0.0770 H     1 <1>   0.0800 
 30 H        5.5090     2.7090     0.9150 H     1 <1>   0.0800 
 31 H        5.5260     2.6240    -0.8570 H     1 <1>   0.0800 
 32 H        2.6120     6.1850    -0.2230 H     1 <1>   0.0800 
 33 H        3.3550     4.7870    -1.0190 H     1 <1>   0.0800 
 34 H        3.3460     4.8970     0.7500 H     1 <1>   0.0800 
@<TRIPOS>BOND
  1   1   2  1   
  2   1   3  1   
  3   2   4  ar  
  4   2   5  ar  
  5   3   6  2   
  6   3   7  1   
  7   4   8  ar  
  8   5   6  1   
  9   5   9  ar  
 10   6  10  1   
 11   7  11  1   
 12   7  19  1   
 13   7  20  1   
 14   8  12  1   
 15   8  13  ar  
 16   9  13  ar  
 17   9  14  1   
 18  10  15  1   
 19  10  21  1   
 20  10  22  1   
 21  11  15  1   
 22  11  16  1   
 23  11  23  1   
 24  12  17  1   
 25  14  18  1   
 26  15  24  1   
 27  15  25  1   
 28  16  26  1   
 29  16  27  1   
 30  16  28  1   
 31  17  29  1   
 32  17  30  1   
 33  17  31  1   
 34  18  32  1   
 35  18  33  1   
 36  18  34  1   
@<TRIPOS>SUBSTRUCTURE
  1 ****   5 GROUP 4 **** **** 0

# MOE 2024.06 (io_trps.svl 2023.06)
