@<TRIPOS>MOLECULE
NONAME
46 46 1 0 0 
SMALL
USER_CHARGES


@<TRIPOS>ATOM
  1 O        1.2530    -1.4730    -0.5660 O.3   1 <1>  -0.3630 
  2 C       -0.0220    -1.6280    -0.1180 C.ar  1 <1>   0.0830 
  3 C        2.3420    -1.3940     0.3190 C.3   1 <1>   0.1200 
  4 C       -1.0370    -1.6910    -1.0690 C.ar  1 <1>  -0.1440 
  5 C       -0.3430    -1.7240     1.2340 C.ar  1 <1>  -0.1500 
  6 C        3.6060    -1.2160    -0.5240 C.3   1 <1>  -0.1600 
  7 C       -2.3520    -1.8490    -0.6590 C.ar  1 <1>  -0.1500 
  8 C       -0.7170    -1.5880    -2.5530 C.3   1 <1>  -0.0970 
  9 C       -1.6590    -1.8820     1.6290 C.ar  1 <1>  -0.1500 
 10 C        4.8660    -1.1180     0.3480 C.3   1 <1>  -0.1600 
 11 C       -2.6700    -1.9460     0.6850 C.ar  1 <1>  -0.1430 
 12 C        6.1070    -0.9260    -0.5280 C.3   1 <1>   0.3430 
 13 C       -4.1150    -2.1170     1.1170 C.3   1 <1>  -0.0970 
 14 N        7.3220    -0.7480     0.3200 N.4   1 <1>  -0.9590 
 15 C        8.4150    -0.0790    -0.4400 C.3   1 <1>   0.3430 
 16 C        7.7800    -2.0460     0.8890 C.3   1 <1>   0.3430 
 17 C        8.1150     1.4110    -0.5580 C.3   1 <1>  -0.2400 
 18 C        8.6360    -1.7860     2.1220 C.3   1 <1>  -0.2400 
 19 H        2.3810    -2.3060     0.8890 H     1 <1>   0.0800 
 20 H        2.1880    -0.5490     0.9680 H     1 <1>   0.0800 
 21 H        0.4100    -1.6790     1.9950 H     1 <1>   0.1500 
 22 H        3.4990    -0.3200    -1.1120 H     1 <1>   0.0800 
 23 H        3.6900    -2.0570    -1.1930 H     1 <1>   0.0800 
 24 H       -3.1370    -1.8970    -1.3920 H     1 <1>   0.1500 
 25 H       -0.2300    -0.6510    -2.7550 H     1 <1>   0.0800 
 26 H       -1.6100    -1.6470    -3.1490 H     1 <1>   0.0800 
 27 H       -0.0600    -2.3890    -2.8390 H     1 <1>   0.0800 
 28 H       -1.8950    -1.9530     2.6760 H     1 <1>   0.1500 
 29 H        4.9520    -2.0180     0.9300 H     1 <1>   0.0800 
 30 H        4.7620    -0.2790     1.0140 H     1 <1>   0.0800 
 31 H        5.9560    -0.0520    -1.1400 H     1 <1>   0.0800 
 32 H        6.2310    -1.7730    -1.1850 H     1 <1>   0.0800 
 33 H       -4.6530    -2.7080     0.3970 H     1 <1>   0.0800 
 34 H       -4.5860    -1.1540     1.1990 H     1 <1>   0.0800 
 35 H       -4.1690    -2.6130     2.0690 H     1 <1>   0.0800 
 36 H        7.0720    -0.1330     1.1050 H     1 <1>   0.4500 
 37 H        8.5160    -0.5200    -1.4190 H     1 <1>   0.0800 
 38 H        9.3520    -0.2000     0.0790 H     1 <1>   0.0800 
 39 H        8.3410    -2.6010     0.1530 H     1 <1>   0.0800 
 40 H        6.9310    -2.6420     1.1810 H     1 <1>   0.0800 
 41 H        7.2280     1.5950    -1.1360 H     1 <1>   0.0800 
 42 H        8.0150     1.8590     0.4140 H     1 <1>   0.0800 
 43 H        8.9350     1.8940    -1.0600 H     1 <1>   0.0800 
 44 H        8.9210    -2.7280     2.5570 H     1 <1>   0.0800 
 45 H        9.5390    -1.2560     1.8760 H     1 <1>   0.0800 
 46 H        8.0830    -1.2360     2.8630 H     1 <1>   0.0800 
@<TRIPOS>BOND
  1   1   2  1   
  2   1   3  1   
  3   2   4  ar  
  4   2   5  ar  
  5   3   6  1   
  6   3  19  1   
  7   3  20  1   
  8   4   7  ar  
  9   4   8  1   
 10   5   9  ar  
 11   5  21  1   
 12   6  10  1   
 13   6  22  1   
 14   6  23  1   
 15   7  11  ar  
 16   7  24  1   
 17   8  25  1   
 18   8  26  1   
 19   8  27  1   
 20   9  11  ar  
 21   9  28  1   
 22  10  12  1   
 23  10  29  1   
 24  10  30  1   
 25  11  13  1   
 26  12  14  1   
 27  12  31  1   
 28  12  32  1   
 29  13  33  1   
 30  13  34  1   
 31  13  35  1   
 32  14  15  1   
 33  14  16  1   
 34  14  36  1   
 35  15  17  1   
 36  15  37  1   
 37  15  38  1   
 38  16  18  1   
 39  16  39  1   
 40  16  40  1   
 41  17  41  1   
 42  17  42  1   
 43  17  43  1   
 44  18  44  1   
 45  18  45  1   
 46  18  46  1   
@<TRIPOS>SUBSTRUCTURE
  1 ****   3 GROUP 4 **** **** 0

# MOE 2024.06 (io_trps.svl 2023.06)
