@<TRIPOS>MOLECULE
NONAME
39 42 1 0 0 
SMALL
USER_CHARGES


@<TRIPOS>ATOM
  1 BR      -0.5850    -0.3580     1.5220 Br    1 <1>  -0.1110 
  2 C       -1.3650     1.2250     0.7550 C.ar  1 <1>   0.1110 
  3 C       -2.7410     1.3530     0.7510 C.ar  1 <1>  -0.1500 
  4 C       -0.5280     2.1900     0.2290 C.ar  1 <1>  -0.1500 
  5 C       -3.3080     2.4930     0.1980 C.ar  1 <1>  -0.1440 
  6 C       -1.0960     3.3260    -0.3210 C.ar  1 <1>  -0.1500 
  7 C       -2.4750     3.4720    -0.3340 C.ar  1 <1>  -0.1500 
  8 C       -4.8220     2.6660     0.1770 C.3   1 <1>   0.6240 
  9 O       -5.2480     2.9460    -1.1250 O.3   1 <1>  -0.5600 
 10 O       -5.1770     3.7570     0.9870 O.3   1 <1>  -0.5600 
 11 C       -6.6390     2.9410    -1.3040 C.3   1 <1>   0.1200 
 12 C       -6.3990     4.4080     0.7310 C.3   1 <1>   0.1200 
 13 C       -7.3680     3.5470    -0.0920 C.3   1 <1>   0.2910 
 14 S       -7.9980     2.1690     0.9710 S.3   1 <1>  -0.3710 
 15 C       -8.6480     4.2860    -0.4750 C.2   1 <1>   0.5690 
 16 C       -9.7020     2.5900     0.7500 C.2   1 <1>   0.6510 
 17 O       -8.6260     5.3060    -1.1210 O.2   1 <1>  -0.5700 
 18 N       -9.7950     3.7150    -0.0190 N.am  1 <1>  -0.4200 
 19 N      -10.6380     1.9240     1.2610 N.2   1 <1>  -0.6960 
 20 C      -11.1260     4.2430    -0.2720 C.3   1 <1>   0.4100 
 21 C      -12.0020     2.3320     0.9580 C.3   1 <1>   0.3560 
 22 N      -12.0360     3.1000    -0.2950 N.3   1 <1>  -0.8100 
 23 C      -13.4040     3.5140    -0.6160 C.3   1 <1>   0.0300 
 24 H       -3.3480     0.5740     1.1760 H     1 <1>   0.1500 
 25 H        0.5390     2.0550     0.2500 H     1 <1>   0.1500 
 26 H       -0.4710     4.0960    -0.7380 H     1 <1>   0.1500 
 27 H       -2.9140     4.3580    -0.7620 H     1 <1>   0.1500 
 28 H       -5.3150     1.7780     0.5350 H     1 <1>   0.0800 
 29 H       -6.9590     1.9300    -1.4840 H     1 <1>   0.0800 
 30 H       -6.8360     3.5270    -2.1860 H     1 <1>   0.0800 
 31 H       -6.1650     5.3030     0.1800 H     1 <1>   0.0800 
 32 H       -6.8330     4.6880     1.6740 H     1 <1>   0.0800 
 33 H      -11.1430     4.7500    -1.2230 H     1 <1>   0.0800 
 34 H      -11.4010     4.9310     0.5090 H     1 <1>   0.0800 
 35 H      -12.3970     2.9100     1.7780 H     1 <1>   0.0800 
 36 H      -12.6040     1.4470     0.8390 H     1 <1>   0.0800 
 37 H      -13.4210     4.0210    -1.5670 H     1 <1>   0.0800 
 38 H      -13.7910     4.1740     0.1430 H     1 <1>   0.0800 
 39 H      -14.0410     2.6480    -0.6860 H     1 <1>   0.0800 
@<TRIPOS>BOND
  1   1   2  1   
  2   2   3  ar  
  3   2   4  ar  
  4   3   5  ar  
  5   3  24  1   
  6   4   6  ar  
  7   4  25  1   
  8   5   7  ar  
  9   5   8  1   
 10   6   7  ar  
 11   6  26  1   
 12   7  27  1   
 13   8   9  1   
 14   8  10  1   
 15   8  28  1   
 16   9  11  1   
 17  10  12  1   
 18  11  13  1   
 19  11  29  1   
 20  11  30  1   
 21  12  13  1   
 22  12  31  1   
 23  12  32  1   
 24  13  14  1   
 25  13  15  1   
 26  14  16  1   
 27  15  17  2   
 28  15  18  am  
 29  16  18  1   
 30  16  19  2   
 31  18  20  1   
 32  19  21  1   
 33  20  22  1   
 34  20  33  1   
 35  20  34  1   
 36  21  22  1   
 37  21  35  1   
 38  21  36  1   
 39  22  23  1   
 40  23  37  1   
 41  23  38  1   
 42  23  39  1   
@<TRIPOS>SUBSTRUCTURE
  1 ****  13 GROUP 4 **** **** 0

# MOE 2024.06 (io_trps.svl 2023.06)
