@<TRIPOS>MOLECULE
NONAME
43 44 1 0 0 
SMALL
USER_CHARGES


@<TRIPOS>ATOM
  1 CL      -1.3230    -0.5370     2.7630 Cl    1 <1>  -0.1770 
  2 C       -0.8140    -1.9100     1.8000 C.ar  1 <1>   0.1770 
  3 C       -1.6770    -2.4120     0.8240 C.ar  1 <1>   0.1170 
  4 C        0.4340    -2.4560     2.0430 C.ar  1 <1>  -0.1500 
  5 N       -2.9340    -1.8010     0.6380 N.am  1 <1>  -0.5470 
  6 C       -1.2420    -3.5120     0.0870 C.ar  1 <1>  -0.1500 
  7 C        0.8520    -3.5450     1.2960 C.ar  1 <1>  -0.1500 
  8 C       -3.8580    -1.8980    -0.3670 C.2   1 <1>   0.5690 
  9 C        0.0050    -4.0580     0.3290 C.ar  1 <1>   0.1770 
 10 O       -3.7030    -2.5840    -1.3470 O.2   1 <1>  -0.5700 
 11 C       -5.1330    -1.0770    -0.2400 C.3   1 <1>  -0.0190 
 12 CL       0.5300    -5.4340    -0.6060 Cl    1 <1>  -0.1770 
 13 C       -6.3580    -1.9540    -0.5330 C.3   1 <1>   0.1960 
 14 C       -5.1050     0.1510    -1.1680 C.3   1 <1>  -0.1600 
 15 N       -7.5970    -1.1710    -0.3920 N.am  1 <1>  -0.8490 
 16 C       -6.4520     0.8840    -1.1150 C.3   1 <1>  -0.1600 
 17 S       -8.9730    -2.1560    -0.4990 S.o2  1 <1>   1.3330 
 18 C       -7.6190    -0.0760    -1.3710 C.3   1 <1>   0.1960 
 19 O       -8.7000    -3.3820     0.2180 O.2   1 <1>  -0.6500 
 20 O       -9.3670    -2.2070    -1.8890 O.2   1 <1>  -0.6500 
 21 C      -10.1970    -1.2320     0.4360 C.3   1 <1>  -0.0550 
 22 C      -11.5680    -1.9250     0.5150 C.3   1 <1>  -0.1600 
 23 C      -12.5690    -1.0920     1.3210 C.3   1 <1>  -0.2400 
 24 H        1.0670    -2.0340     2.8040 H     1 <1>   0.1500 
 25 H       -3.1610    -1.1190     1.3640 H     1 <1>   0.3700 
 26 H       -1.8580    -3.9540    -0.6720 H     1 <1>   0.1500 
 27 H        1.8160    -3.9940     1.4580 H     1 <1>   0.1500 
 28 H       -5.2210    -0.7400     0.7770 H     1 <1>   0.0800 
 29 H       -6.3600    -2.7750     0.1650 H     1 <1>   0.0800 
 30 H       -6.2970    -2.3660    -1.5290 H     1 <1>   0.0800 
 31 H       -4.9180    -0.1730    -2.1790 H     1 <1>   0.0800 
 32 H       -4.3100     0.8170    -0.8800 H     1 <1>   0.0800 
 33 H       -6.4670     1.6660    -1.8540 H     1 <1>   0.0800 
 34 H       -6.5840     1.3420    -0.1500 H     1 <1>   0.0800 
 35 H       -8.5450     0.4680    -1.2940 H     1 <1>   0.0800 
 36 H       -7.5490    -0.4760    -2.3710 H     1 <1>   0.0800 
 37 H      -10.3260    -0.2670    -0.0120 H     1 <1>   0.0800 
 38 H       -9.8270    -1.0840     1.4320 H     1 <1>   0.0800 
 39 H      -11.4510    -2.8920     0.9770 H     1 <1>   0.0800 
 40 H      -11.9470    -2.0790    -0.4820 H     1 <1>   0.0800 
 41 H      -12.2180    -0.9480     2.3280 H     1 <1>   0.0800 
 42 H      -13.5180    -1.5980     1.3610 H     1 <1>   0.0800 
 43 H      -12.7170    -0.1300     0.8620 H     1 <1>   0.0800 
@<TRIPOS>BOND
  1   1   2  1   
  2   2   3  ar  
  3   2   4  ar  
  4   3   5  1   
  5   3   6  ar  
  6   4   7  ar  
  7   4  24  1   
  8   5   8  am  
  9   5  25  1   
 10   6   9  ar  
 11   6  26  1   
 12   7   9  ar  
 13   7  27  1   
 14   8  10  2   
 15   8  11  1   
 16   9  12  1   
 17  11  13  1   
 18  11  14  1   
 19  11  28  1   
 20  13  15  1   
 21  13  29  1   
 22  13  30  1   
 23  14  16  1   
 24  14  31  1   
 25  14  32  1   
 26  15  17  am  
 27  15  18  1   
 28  16  18  1   
 29  16  33  1   
 30  16  34  1   
 31  17  19  2   
 32  17  20  2   
 33  17  21  1   
 34  18  35  1   
 35  18  36  1   
 36  21  22  1   
 37  21  37  1   
 38  21  38  1   
 39  22  23  1   
 40  22  39  1   
 41  22  40  1   
 42  23  41  1   
 43  23  42  1   
 44  23  43  1   
@<TRIPOS>SUBSTRUCTURE
  1 ****  11 GROUP 4 **** **** 0

# MOE 2024.06 (io_trps.svl 2023.06)
