@<TRIPOS>MOLECULE
NONAME
28 28 1 0 0 
SMALL
USER_CHARGES


@<TRIPOS>ATOM
  1 I       -0.4420     0.2430     0.0490 I     1 <1>  -0.0810 
  2 C        0.7090    -1.5590     0.0040 C.ar  1 <1>   0.0810 
  3 C        0.0710    -2.7960    -0.0110 C.ar  1 <1>   0.0820 
  4 C        2.0850    -1.4290    -0.0110 C.ar  1 <1>  -0.1500 
  5 O       -1.2890    -2.8360     0.0040 O.3   1 <1>  -0.3630 
  6 C        0.8710    -3.9360    -0.0390 C.ar  1 <1>  -0.1500 
  7 C        2.8660    -2.5730    -0.0410 C.ar  1 <1>  -0.1430 
  8 C       -1.9980    -4.0480    -0.0120 C.3   1 <1>   0.1200 
  9 C        2.2530    -3.8180    -0.0530 C.ar  1 <1>  -0.1500 
 10 C        4.3810    -2.4670    -0.0550 C.3   1 <1>  -0.0960 
 11 C       -3.4850    -3.6860     0.0100 C.3   1 <1>   0.3430 
 12 N       -4.3600    -4.9000    -0.0050 N.4   1 <1>  -0.9060 
 13 C       -5.8090    -4.5370     0.0170 C.3   1 <1>   0.2630 
 14 H        2.5370    -0.4530     0.0030 H     1 <1>   0.1500 
 15 H        0.4510    -4.9220    -0.0500 H     1 <1>   0.1500 
 16 H       -1.7190    -4.6090     0.8630 H     1 <1>   0.0800 
 17 H       -1.7380    -4.5740    -0.9130 H     1 <1>   0.0800 
 18 H        2.8600    -4.7070    -0.0740 H     1 <1>   0.1500 
 19 H        4.6910    -1.5210    -0.4610 H     1 <1>   0.0800 
 20 H        4.8050    -3.2490    -0.6600 H     1 <1>   0.0800 
 21 H        4.7620    -2.5560     0.9460 H     1 <1>   0.0800 
 22 H       -3.7020    -3.0730    -0.8500 H     1 <1>   0.0800 
 23 H       -3.6840    -3.1070     0.8980 H     1 <1>   0.0800 
 24 H       -4.1450    -5.4930     0.8100 H     1 <1>   0.4500 
 25 H       -4.1610    -5.4600    -0.8460 H     1 <1>   0.4500 
 26 H       -6.0420    -3.9730     0.9070 H     1 <1>   0.0800 
 27 H       -6.4190    -5.4260     0.0060 H     1 <1>   0.0800 
 28 H       -6.0600    -3.9390    -0.8450 H     1 <1>   0.0800 
@<TRIPOS>BOND
  1   1   2  1   
  2   2   3  ar  
  3   2   4  ar  
  4   3   5  1   
  5   3   6  ar  
  6   4   7  ar  
  7   4  14  1   
  8   5   8  1   
  9   6   9  ar  
 10   6  15  1   
 11   7   9  ar  
 12   7  10  1   
 13   8  11  1   
 14   8  16  1   
 15   8  17  1   
 16   9  18  1   
 17  10  19  1   
 18  10  20  1   
 19  10  21  1   
 20  11  12  1   
 21  11  22  1   
 22  11  23  1   
 23  12  13  1   
 24  12  24  1   
 25  12  25  1   
 26  13  26  1   
 27  13  27  1   
 28  13  28  1   
@<TRIPOS>SUBSTRUCTURE
  1 ****   3 GROUP 4 **** **** 0

# MOE 2024.06 (io_trps.svl 2023.06)
