@<TRIPOS>MOLECULE
NONAME
42 45 1 0 0 
SMALL
USER_CHARGES


@<TRIPOS>ATOM
  1 S       -0.0530     0.2270     0.5640 S.3   1 <1>  -0.3710 
  2 C       -1.5380    -0.7660     0.4710 C.2   1 <1>   0.6510 
  3 C       -0.6360     1.9650     0.3170 C.3   1 <1>  -0.0100 
  4 N       -2.6440    -0.1460     0.2840 N.2   1 <1>  -0.6210 
  5 N       -1.3950    -2.1160     0.6170 N.am  1 <1>  -0.4200 
  6 C       -3.7960    -0.8820     0.1870 C.2   1 <1>   0.1430 
  7 C       -2.5400    -2.8780     0.6170 C.2   1 <1>   0.6160 
  8 C       -0.0550    -2.7390     0.8410 C.3   1 <1>   0.0600 
  9 C       -5.0310    -0.1350     0.0370 C.ar  1 <1>   0.0280 
 10 C       -3.7720    -2.2500     0.2600 C.2   1 <1>  -0.1240 
 11 O       -2.4550    -4.0430     0.9820 O.2   1 <1>  -0.5700 
 12 C       -6.1690    -0.7780    -0.4430 C.ar  1 <1>  -0.1440 
 13 C       -5.1500     1.2120     0.3840 C.ar  1 <1>  -0.1500 
 14 C       -5.0770    -3.0550     0.0200 C.3   1 <1>   0.1380 
 15 C       -7.3750    -0.1080    -0.5610 C.ar  1 <1>  -0.1500 
 16 C       -6.0490    -2.2280    -0.8660 C.3   1 <1>  -0.0170 
 17 C       -6.3510     1.8860     0.2670 C.ar  1 <1>  -0.1500 
 18 C       -4.9580    -4.4390    -0.6580 C.3   1 <1>  -0.1600 
 19 C       -5.7420    -3.4010     1.3590 C.3   1 <1>  -0.1600 
 20 C       -7.4690     1.2240    -0.2050 C.ar  1 <1>  -0.1500 
 21 C       -6.2020    -5.2230    -0.2280 C.3   1 <1>  -0.1600 
 22 C       -6.6590    -4.6030     1.0980 C.3   1 <1>  -0.1600 
 23 H        0.2240     2.6090     0.3500 H     1 <1>   0.0800 
 24 H       -1.3250     2.1970     1.1100 H     1 <1>   0.0800 
 25 H       -1.1230     2.0170    -0.6400 H     1 <1>   0.0800 
 26 H        0.6360    -2.4050     0.0870 H     1 <1>   0.0800 
 27 H       -0.1100    -3.8120     0.7890 H     1 <1>   0.0800 
 28 H        0.3140    -2.4590     1.8120 H     1 <1>   0.0800 
 29 H       -4.2910     1.7380     0.7590 H     1 <1>   0.1500 
 30 H       -8.2470    -0.6170    -0.9340 H     1 <1>   0.1500 
 31 H       -5.6830    -2.2260    -1.8770 H     1 <1>   0.0800 
 32 H       -7.0250    -2.6770    -0.8810 H     1 <1>   0.0800 
 33 H       -6.4160     2.9240     0.5430 H     1 <1>   0.1500 
 34 H       -4.1130    -4.9960    -0.3100 H     1 <1>   0.0800 
 35 H       -4.8770    -4.3740    -1.7290 H     1 <1>   0.0800 
 36 H       -6.2790    -2.5660     1.7750 H     1 <1>   0.0800 
 37 H       -4.9820    -3.6990     2.0620 H     1 <1>   0.0800 
 38 H       -8.4070     1.7440    -0.2960 H     1 <1>   0.1500 
 39 H       -5.9770    -6.2700    -0.1130 H     1 <1>   0.0800 
 40 H       -6.9790    -5.1180    -0.9660 H     1 <1>   0.0800 
 41 H       -7.6830    -4.2800     1.0190 H     1 <1>   0.0800 
 42 H       -6.5820    -5.3130     1.9030 H     1 <1>   0.0800 
@<TRIPOS>BOND
  1   1   2  1   
  2   1   3  1   
  3   2   4  2   
  4   2   5  1   
  5   3  23  1   
  6   3  24  1   
  7   3  25  1   
  8   4   6  1   
  9   5   7  am  
 10   5   8  1   
 11   6   9  1   
 12   6  10  2   
 13   7  10  1   
 14   7  11  2   
 15   8  26  1   
 16   8  27  1   
 17   8  28  1   
 18   9  12  ar  
 19   9  13  ar  
 20  10  14  1   
 21  12  15  ar  
 22  12  16  1   
 23  13  17  ar  
 24  13  29  1   
 25  14  16  1   
 26  14  18  1   
 27  14  19  1   
 28  15  20  ar  
 29  15  30  1   
 30  16  31  1   
 31  16  32  1   
 32  17  20  ar  
 33  17  33  1   
 34  18  21  1   
 35  18  34  1   
 36  18  35  1   
 37  19  22  1   
 38  19  36  1   
 39  19  37  1   
 40  20  38  1   
 41  21  22  1   
 42  21  39  1   
 43  21  40  1   
 44  22  41  1   
 45  22  42  1   
@<TRIPOS>SUBSTRUCTURE
  1 ****   6 GROUP 4 **** **** 0

# MOE 2024.06 (io_trps.svl 2023.06)
