@<TRIPOS>MOLECULE
NONAME
44 44 1 0 0 
SMALL
USER_CHARGES


@<TRIPOS>ATOM
  1 O      -11.2210     5.6010    -0.1690 O.3   1 <1>  -0.3630 
  2 C       -9.8900     5.5960    -0.4050 C.ar  1 <1>   0.0830 
  3 C      -12.0330     5.0210    -1.1670 C.3   1 <1>   0.3200 
  4 C       -9.1250     4.4240    -0.4080 C.ar  1 <1>   0.0830 
  5 C       -9.2800     6.8130    -0.6580 C.ar  1 <1>  -0.1500 
  6 C      -13.4410     5.0060    -0.6780 C.1   1 <1>  -0.2000 
  7 O       -9.6280     3.1970    -0.1260 O.3   1 <1>  -0.3630 
  8 C       -7.7770     4.4900    -0.7120 C.ar  1 <1>  -0.1500 
  9 C       -7.9270     6.8720    -0.9430 C.ar  1 <1>  -0.1500 
 10 C      -14.5630     4.9920    -0.2840 C.1   1 <1>  -0.1770 
 11 C      -10.2970     3.0210     1.1050 C.3   1 <1>   0.1200 
 12 C       -7.1690     5.7090    -0.9750 C.ar  1 <1>  -0.1430 
 13 C      -10.3880     1.5230     1.3810 C.3   1 <1>  -0.2400 
 14 C       -5.6890     5.7660    -1.2750 C.3   1 <1>   0.4860 
 15 N       -5.0110     5.9630     0.0200 N.4   1 <1>  -0.9060 
 16 C       -3.5430     5.9790     0.0800 C.3   1 <1>   0.5030 
 17 C       -3.1570     6.6110     1.4440 C.3   1 <1>   0.1200 
 18 C       -3.0320     4.5440    -0.0300 C.3   1 <1>  -0.2400 
 19 C       -2.9840     6.8370    -1.0620 C.3   1 <1>  -0.2400 
 20 O       -4.0110     7.6850     1.7340 O.3   1 <1>  -0.6800 
 21 H      -11.6960     4.0190    -1.3630 H     1 <1>   0.0800 
 22 H      -11.9480     5.6150    -2.0600 H     1 <1>   0.0800 
 23 H       -9.8740     7.7100    -0.6350 H     1 <1>   0.1500 
 24 H       -7.2200     3.5690    -0.7310 H     1 <1>   0.1500 
 25 H       -7.4820     7.8330    -1.1420 H     1 <1>   0.1500 
 26 H      -15.5770     4.9830     0.0770 H     1 <1>   0.1770 
 27 H      -11.2810     3.4490     1.0370 H     1 <1>   0.0800 
 28 H       -9.7370     3.5200     1.8770 H     1 <1>   0.0800 
 29 H      -10.9430     1.0370     0.5990 H     1 <1>   0.0800 
 30 H      -10.8940     1.3570     2.3140 H     1 <1>   0.0800 
 31 H       -9.4030     1.0960     1.4430 H     1 <1>   0.0800 
 32 H       -5.4760     6.5830    -1.9440 H     1 <1>   0.0800 
 33 H       -5.3710     4.8430    -1.7320 H     1 <1>   0.0800 
 34 H       -5.3770     5.2820     0.6880 H     1 <1>   0.4500 
 35 H       -5.2830     6.8760     0.4190 H     1 <1>   0.4500 
 36 H       -2.1420     6.9700     1.4270 H     1 <1>   0.0800 
 37 H       -3.2510     5.8900     2.2390 H     1 <1>   0.0800 
 38 H       -1.9590     4.5320     0.0550 H     1 <1>   0.0800 
 39 H       -3.4310     3.9290     0.7580 H     1 <1>   0.0800 
 40 H       -3.2880     4.1090    -0.9800 H     1 <1>   0.0800 
 41 H       -3.3970     7.8300    -1.0320 H     1 <1>   0.0800 
 42 H       -3.1720     6.3970    -2.0250 H     1 <1>   0.0800 
 43 H       -1.9170     6.9260    -0.9590 H     1 <1>   0.0800 
 44 H       -3.7200     8.1590     2.5460 H     1 <1>   0.4000 
@<TRIPOS>BOND
  1   1   2  1   
  2   1   3  1   
  3   2   4  ar  
  4   2   5  ar  
  5   3   6  1   
  6   3  21  1   
  7   3  22  1   
  8   4   7  1   
  9   4   8  ar  
 10   5   9  ar  
 11   5  23  1   
 12   6  10  3   
 13   7  11  1   
 14   8  12  ar  
 15   8  24  1   
 16   9  12  ar  
 17   9  25  1   
 18  10  26  1   
 19  11  13  1   
 20  11  27  1   
 21  11  28  1   
 22  12  14  1   
 23  13  29  1   
 24  13  30  1   
 25  13  31  1   
 26  14  15  1   
 27  14  32  1   
 28  14  33  1   
 29  15  16  1   
 30  15  34  1   
 31  15  35  1   
 32  16  17  1   
 33  16  18  1   
 34  16  19  1   
 35  17  20  1   
 36  17  36  1   
 37  17  37  1   
 38  18  38  1   
 39  18  39  1   
 40  18  40  1   
 41  19  41  1   
 42  19  42  1   
 43  19  43  1   
 44  20  44  1   
@<TRIPOS>SUBSTRUCTURE
  1 ****   8 GROUP 4 **** **** 0

# MOE 2024.06 (io_trps.svl 2023.06)
