@<TRIPOS>MOLECULE
NONAME
46 47 1 0 0 
SMALL
USER_CHARGES


@<TRIPOS>ATOM
  1 S        0.0190    -0.2100     1.3900 S.o2  1 <1>   1.4470 
  2 O       -0.3600     1.0070     2.0780 O.2   1 <1>  -0.6500 
  3 O        0.1720    -1.4070     2.1900 O.2   1 <1>  -0.6500 
  4 N       -1.2160    -0.5560     0.2790 N.am  1 <1>  -0.8490 
  5 C        1.5190    -0.0180     0.3870 C.ar  1 <1>  -0.0090 
  6 C       -2.4190    -1.0410     0.9830 C.3   1 <1>   0.1960 
  7 C       -1.5590     0.6100    -0.5610 C.3   1 <1>   0.1960 
  8 C        1.8780     1.1950    -0.1980 C.ar  1 <1>   0.0830 
  9 C        2.3490    -1.1120     0.1650 C.ar  1 <1>  -0.1500 
 10 C       -3.5510    -1.4180     0.0120 C.3   1 <1>   0.1400 
 11 C       -2.6670     0.2890    -1.5790 C.3   1 <1>   0.1400 
 12 O        1.1000     2.2880    -0.0520 O.3   1 <1>  -0.3630 
 13 C        3.0240     1.3110    -0.9710 C.ar  1 <1>  -0.1500 
 14 C        3.5050    -1.0060    -0.6020 C.ar  1 <1>   0.0830 
 15 N       -3.8650    -0.2800    -0.8980 N.am  1 <1>  -0.6600 
 16 C        1.5490     3.2600     0.8670 C.3   1 <1>   0.0400 
 17 C        3.8370     0.2120    -1.1690 C.ar  1 <1>  -0.1500 
 18 O        4.3520    -2.0390    -0.8400 O.3   1 <1>  -0.3630 
 19 C       -5.1070     0.2790    -1.0220 C.2   1 <1>   0.7800 
 20 C        4.1270    -3.3140    -0.2790 C.3   1 <1>   0.0400 
 21 O       -5.3230     1.2450    -1.7290 O.2   1 <1>  -0.5700 
 22 O       -6.1060    -0.2680    -0.3270 O.3   1 <1>  -0.4300 
 23 C       -7.4090     0.2610    -0.3990 C.3   1 <1>   0.1200 
 24 C       -8.3080    -0.5720     0.5100 C.3   1 <1>  -0.2400 
 25 H       -2.7750    -0.2840     1.6630 H     1 <1>   0.0800 
 26 H       -2.1700    -1.9130     1.5630 H     1 <1>   0.0800 
 27 H       -0.6920     0.9250    -1.1130 H     1 <1>   0.0800 
 28 H       -1.8780     1.4340     0.0570 H     1 <1>   0.0800 
 29 H        2.0730    -2.0520     0.6060 H     1 <1>   0.1500 
 30 H       -4.4180    -1.7070     0.5790 H     1 <1>   0.0800 
 31 H       -3.2430    -2.2640    -0.5760 H     1 <1>   0.0800 
 32 H       -2.2960    -0.4260    -2.2920 H     1 <1>   0.0800 
 33 H       -2.9260     1.1860    -2.1130 H     1 <1>   0.0800 
 34 H        3.2740     2.2560    -1.4190 H     1 <1>   0.1500 
 35 H        0.8140     4.0440     0.9110 H     1 <1>   0.0800 
 36 H        2.4920     3.6550     0.5330 H     1 <1>   0.0800 
 37 H        1.6520     2.8030     1.8360 H     1 <1>   0.0800 
 38 H        4.7290     0.2890    -1.7640 H     1 <1>   0.1500 
 39 H        4.9300    -3.9600    -0.5850 H     1 <1>   0.0800 
 40 H        3.1910    -3.6980    -0.6450 H     1 <1>   0.0800 
 41 H        4.1160    -3.2280     0.7930 H     1 <1>   0.0800 
 42 H       -7.7410     0.2120    -1.4230 H     1 <1>   0.0800 
 43 H       -7.3790     1.2890    -0.0770 H     1 <1>   0.0800 
 44 H       -8.3200    -1.5950     0.1810 H     1 <1>   0.0800 
 45 H       -9.3120    -0.1890     0.4750 H     1 <1>   0.0800 
 46 H       -7.9560    -0.5220     1.5250 H     1 <1>   0.0800 
@<TRIPOS>BOND
  1   1   2  2   
  2   1   3  2   
  3   1   4  am  
  4   1   5  1   
  5   4   6  1   
  6   4   7  1   
  7   5   8  ar  
  8   5   9  ar  
  9   6  10  1   
 10   6  25  1   
 11   6  26  1   
 12   7  11  1   
 13   7  27  1   
 14   7  28  1   
 15   8  12  1   
 16   8  13  ar  
 17   9  14  ar  
 18   9  29  1   
 19  10  15  1   
 20  10  30  1   
 21  10  31  1   
 22  11  15  1   
 23  11  32  1   
 24  11  33  1   
 25  12  16  1   
 26  13  17  ar  
 27  13  34  1   
 28  14  17  ar  
 29  14  18  1   
 30  15  19  am  
 31  16  35  1   
 32  16  36  1   
 33  16  37  1   
 34  17  38  1   
 35  18  20  1   
 36  19  21  2   
 37  19  22  1   
 38  20  39  1   
 39  20  40  1   
 40  20  41  1   
 41  22  23  1   
 42  23  24  1   
 43  23  42  1   
 44  23  43  1   
 45  24  44  1   
 46  24  45  1   
 47  24  46  1   
@<TRIPOS>SUBSTRUCTURE
  1 ****   4 GROUP 4 **** **** 0

# MOE 2024.06 (io_trps.svl 2023.06)
