@<TRIPOS>MOLECULE
NONAME
42 45 1 0 0 
SMALL
USER_CHARGES


@<TRIPOS>ATOM
  1 S       -1.0820     0.0820    -1.4810 S.3   1 <1>  -0.3610 
  2 C       -1.9610    -1.1630    -0.6520 C.cat 1 <1>   0.8400 
  3 C        0.5330    -0.3440    -0.7230 C.3   1 <1>   0.1310 
  4 N       -3.2440    -1.1970    -0.8900 N.pl3 1 <1>  -0.7940 
  5 N       -1.1700    -1.9020     0.1210 N.pl3 1 <1>  -0.7250 
  6 C        0.1650    -1.5180     0.1630 C.2   1 <1>   0.8900 
  7 C       -4.3620    -1.9940    -0.3260 C.3   1 <1>   0.3290 
  8 C       -1.5770    -3.1000     0.9120 C.3   1 <1>   0.2500 
  9 O        0.9820    -2.0650     0.8480 O.2   1 <1>  -0.5700 
 10 C       -5.6360    -1.1380    -0.1570 C.3   1 <1>   0.0000 
 11 C       -6.1400    -0.5920    -1.5180 C.3   1 <1>  -0.1600 
 12 C       -5.3890     0.0580     0.7990 C.3   1 <1>  -0.1600 
 13 C       -6.7520    -2.0220     0.4530 C.3   1 <1>  -0.1600 
 14 C       -7.4330     0.2240    -1.3300 C.3   1 <1>  -0.0800 
 15 C       -6.6790     0.8760     0.9900 C.3   1 <1>  -0.0800 
 16 C       -8.0480    -1.2150     0.6480 C.3   1 <1>  -0.0800 
 17 C       -7.1550     1.4010    -0.3770 C.3   1 <1>  -0.1600 
 18 C       -8.5180    -0.6780    -0.7160 C.3   1 <1>  -0.1600 
 19 C       -7.7690    -0.0300     1.5900 C.3   1 <1>  -0.1600 
 20 H        1.2200    -0.6230    -1.5010 H     1 <1>   0.0800 
 21 H        0.8840     0.4970    -0.1560 H     1 <1>   0.0800 
 22 H       -3.5900    -0.5070    -1.5640 H     1 <1>   0.4500 
 23 H       -4.5740    -2.8200    -0.9840 H     1 <1>   0.0800 
 24 H       -4.0890    -2.3880     0.6370 H     1 <1>   0.0800 
 25 H       -0.7330    -3.7430     1.1040 H     1 <1>   0.0800 
 26 H       -2.3030    -3.6790     0.3700 H     1 <1>   0.0800 
 27 H       -1.9910    -2.7930     1.8570 H     1 <1>   0.0800 
 28 H       -6.3350    -1.4060    -2.1960 H     1 <1>   0.0800 
 29 H       -5.4050     0.0450    -1.9750 H     1 <1>   0.0800 
 30 H       -5.0530    -0.2970     1.7580 H     1 <1>   0.0800 
 31 H       -4.6270     0.7080     0.4070 H     1 <1>   0.0800 
 32 H       -6.9580    -2.8600    -0.1910 H     1 <1>   0.0800 
 33 H       -6.4410    -2.4130     1.4060 H     1 <1>   0.0800 
 34 H       -7.7720     0.5990    -2.2810 H     1 <1>   0.0800 
 35 H       -6.4930     1.7050     1.6520 H     1 <1>   0.0800 
 36 H       -8.8130    -1.8440     1.0720 H     1 <1>   0.0800 
 37 H       -8.0520     1.9820    -0.2490 H     1 <1>   0.0800 
 38 H       -6.4080     2.0500    -0.8020 H     1 <1>   0.0800 
 39 H       -8.7330    -1.4980    -1.3790 H     1 <1>   0.0800 
 40 H       -9.4280    -0.1170    -0.5910 H     1 <1>   0.0800 
 41 H       -8.6730     0.5370     1.7360 H     1 <1>   0.0800 
 42 H       -7.4560    -0.3930     2.5540 H     1 <1>   0.0800 
@<TRIPOS>BOND
  1   1   2  1   
  2   1   3  1   
  3   2   4  ar  
  4   2   5  ar  
  5   3   6  1   
  6   3  20  1   
  7   3  21  1   
  8   4   7  1   
  9   4  22  1   
 10   5   6  1   
 11   5   8  1   
 12   6   9  2   
 13   7  10  1   
 14   7  23  1   
 15   7  24  1   
 16   8  25  1   
 17   8  26  1   
 18   8  27  1   
 19  10  11  1   
 20  10  12  1   
 21  10  13  1   
 22  11  14  1   
 23  11  28  1   
 24  11  29  1   
 25  12  15  1   
 26  12  30  1   
 27  12  31  1   
 28  13  16  1   
 29  13  32  1   
 30  13  33  1   
 31  14  17  1   
 32  14  18  1   
 33  14  34  1   
 34  15  17  1   
 35  15  19  1   
 36  15  35  1   
 37  16  18  1   
 38  16  19  1   
 39  16  36  1   
 40  17  37  1   
 41  17  38  1   
 42  18  39  1   
 43  18  40  1   
 44  19  41  1   
 45  19  42  1   
@<TRIPOS>SUBSTRUCTURE
  1 ****   7 GROUP 4 **** **** 0

# MOE 2024.06 (io_trps.svl 2023.06)
