@<TRIPOS>MOLECULE
NONAME
47 48 1 0 0 
SMALL
USER_CHARGES


@<TRIPOS>ATOM
  1 S        0.3040     0.2480     1.1020 S.o2  1 <1>   1.4470 
  2 O        0.7850     0.3710     2.4600 O.2   1 <1>  -0.6500 
  3 O       -0.5380     1.2750     0.5340 O.2   1 <1>  -0.6500 
  4 N        1.7070     0.2320     0.1450 N.am  1 <1>  -0.8490 
  5 C       -0.4320    -1.3840     0.8150 C.ar  1 <1>  -0.0090 
  6 C        2.2330     1.6090    -0.0130 C.3   1 <1>   0.1960 
  7 C        2.7600    -0.6530     0.6910 C.3   1 <1>   0.1960 
  8 C       -1.0270    -1.6890    -0.4010 C.ar  1 <1>  -0.1500 
  9 C       -0.4010    -2.3730     1.7910 C.ar  1 <1>  -0.1500 
 10 C        3.6000     1.6680    -0.7410 C.3   1 <1>   0.3430 
 11 C        4.0090    -0.7170    -0.2260 C.3   1 <1>   0.3430 
 12 C       -1.5910    -2.9320    -0.6560 C.ar  1 <1>   0.1170 
 13 C       -0.9350    -3.6290     1.5560 C.ar  1 <1>  -0.1500 
 14 N        3.9880     0.3320    -1.3100 N.4   1 <1>  -0.9590 
 15 N       -2.2020    -3.2250    -1.8860 N.am  1 <1>  -0.5470 
 16 C       -1.5240    -3.9190     0.3320 C.ar  1 <1>   0.0830 
 17 C        5.2330     0.3960    -2.1180 C.3   1 <1>   0.3430 
 18 C       -3.0540    -2.5310    -2.6850 C.2   1 <1>   0.5690 
 19 O       -2.0510    -5.1410     0.0340 O.3   1 <1>  -0.3630 
 20 C        5.3660    -0.8710    -2.9540 C.3   1 <1>  -0.2400 
 21 O       -3.4640    -3.0320    -3.6990 O.2   1 <1>  -0.5700 
 22 C       -3.5320    -1.1450    -2.3220 C.3   1 <1>  -0.1790 
 23 C       -2.1710    -6.1530     1.0110 C.3   1 <1>   0.0400 
 24 H        2.3330     2.0790     0.9520 H     1 <1>   0.0800 
 25 H        1.5230     2.1940    -0.5750 H     1 <1>   0.0800 
 26 H        2.3730    -1.6510     0.8160 H     1 <1>   0.0800 
 27 H        3.0640    -0.3040     1.6650 H     1 <1>   0.0800 
 28 H       -1.0450    -0.9360    -1.1680 H     1 <1>   0.1500 
 29 H        0.0430    -2.1620     2.7500 H     1 <1>   0.1500 
 30 H        4.3510     1.9960    -0.0420 H     1 <1>   0.0800 
 31 H        3.5440     2.4050    -1.5260 H     1 <1>   0.0800 
 32 H        4.0530    -1.6960    -0.6750 H     1 <1>   0.0800 
 33 H        4.8910    -0.6020     0.3830 H     1 <1>   0.0800 
 34 H       -0.8810    -4.3630     2.3380 H     1 <1>   0.1500 
 35 H        3.2030     0.0680    -1.9250 H     1 <1>   0.4500 
 36 H       -2.1670    -4.2160    -2.1400 H     1 <1>   0.3700 
 37 H        6.0920     0.5090    -1.4750 H     1 <1>   0.0800 
 38 H        5.1910     1.2470    -2.7800 H     1 <1>   0.0800 
 39 H        5.5150    -1.7380    -2.3370 H     1 <1>   0.0800 
 40 H        6.2250    -0.7790    -3.5950 H     1 <1>   0.0800 
 41 H        4.5020    -1.0120    -3.5790 H     1 <1>   0.0800 
 42 H       -2.8130    -0.4160    -2.6420 H     1 <1>   0.0800 
 43 H       -3.6880    -1.0660    -1.2630 H     1 <1>   0.0800 
 44 H       -4.4640    -0.9480    -2.8190 H     1 <1>   0.0800 
 45 H       -2.6650    -6.9950     0.5590 H     1 <1>   0.0800 
 46 H       -2.7610    -5.7820     1.8300 H     1 <1>   0.0800 
 47 H       -1.1890    -6.4420     1.3400 H     1 <1>   0.0800 
@<TRIPOS>BOND
  1   1   2  2   
  2   1   3  2   
  3   1   4  am  
  4   1   5  1   
  5   4   6  1   
  6   4   7  1   
  7   5   8  ar  
  8   5   9  ar  
  9   6  10  1   
 10   6  24  1   
 11   6  25  1   
 12   7  11  1   
 13   7  26  1   
 14   7  27  1   
 15   8  12  ar  
 16   8  28  1   
 17   9  13  ar  
 18   9  29  1   
 19  10  14  1   
 20  10  30  1   
 21  10  31  1   
 22  11  14  1   
 23  11  32  1   
 24  11  33  1   
 25  12  15  1   
 26  12  16  ar  
 27  13  16  ar  
 28  13  34  1   
 29  14  17  1   
 30  14  35  1   
 31  15  18  am  
 32  15  36  1   
 33  16  19  1   
 34  17  20  1   
 35  17  37  1   
 36  17  38  1   
 37  18  21  2   
 38  18  22  1   
 39  19  23  1   
 40  20  39  1   
 41  20  40  1   
 42  20  41  1   
 43  22  42  1   
 44  22  43  1   
 45  22  44  1   
 46  23  45  1   
 47  23  46  1   
 48  23  47  1   
@<TRIPOS>SUBSTRUCTURE
  1 ****   8 GROUP 4 **** **** 0

# MOE 2024.06 (io_trps.svl 2023.06)
