@<TRIPOS>MOLECULE
NONAME
37 38 1 0 0 
SMALL
USER_CHARGES


@<TRIPOS>ATOM
  1 F       -0.0010    -0.0990    -0.4490 F     1 <1>  -0.1900 
  2 C       -0.6530    -1.2190    -0.2510 C.ar  1 <1>   0.1900 
  3 C        0.0080    -2.4400    -0.3870 C.ar  1 <1>   0.1170 
  4 C       -1.9960    -1.1300     0.0610 C.ar  1 <1>  -0.1500 
  5 N        1.3720    -2.5490    -0.7020 N.am  1 <1>  -0.5470 
  6 C       -0.7460    -3.5940    -0.2100 C.ar  1 <1>  -0.1500 
  7 C       -2.7200    -2.2970     0.2360 C.ar  1 <1>  -0.1500 
  8 C        2.4190    -2.0310    -0.0060 C.2   1 <1>   0.6900 
  9 C       -2.0980    -3.5300     0.1010 C.ar  1 <1>  -0.1440 
 10 O        2.2700    -1.5600     1.1030 O.2   1 <1>  -0.5700 
 11 N        3.6410    -2.0830    -0.5860 N.am  1 <1>  -0.7300 
 12 C       -2.9020    -4.8030     0.2960 C.3   1 <1>  -0.0970 
 13 C        4.8730    -1.5580     0.0220 C.3   1 <1>   0.2200 
 14 C        5.2100    -0.2100    -0.6230 C.3   1 <1>  -0.1600 
 15 C        6.0010    -2.5740    -0.1880 C.3   1 <1>  -0.1600 
 16 C        6.5480     0.3360    -0.1030 C.3   1 <1>  -0.1600 
 17 C        7.3400    -2.0320     0.3340 C.3   1 <1>  -0.1600 
 18 C        7.6800    -0.6800    -0.3090 C.3   1 <1>  -0.1600 
 19 H       -2.4610    -0.1670     0.1590 H     1 <1>   0.1500 
 20 H        1.6260    -3.2300    -1.4090 H     1 <1>   0.3700 
 21 H       -0.2650    -4.5500    -0.3080 H     1 <1>   0.1500 
 22 H       -3.7670    -2.2420     0.4790 H     1 <1>   0.1500 
 23 H        3.6980    -2.2500    -1.5860 H     1 <1>   0.3700 
 24 H       -2.2540    -5.6420     0.4740 H     1 <1>   0.0800 
 25 H       -3.4910    -5.0010    -0.5820 H     1 <1>   0.0800 
 26 H       -3.5610    -4.6990     1.1400 H     1 <1>   0.0800 
 27 H        4.7240    -1.4140     1.0810 H     1 <1>   0.0800 
 28 H        4.4280     0.4940    -0.3970 H     1 <1>   0.0800 
 29 H        5.2700    -0.3240    -1.6910 H     1 <1>   0.0800 
 30 H        6.0980    -2.7940    -1.2360 H     1 <1>   0.0800 
 31 H        5.7590    -3.4830     0.3330 H     1 <1>   0.0800 
 32 H        6.4560     0.5590     0.9470 H     1 <1>   0.0800 
 33 H        6.7870     1.2530    -0.6140 H     1 <1>   0.0800 
 34 H        8.1230    -2.7400     0.1230 H     1 <1>   0.0800 
 35 H        7.2830    -1.9130     1.4030 H     1 <1>   0.0800 
 36 H        8.5900    -0.2970     0.1200 H     1 <1>   0.0800 
 37 H        7.8470    -0.8190    -1.3630 H     1 <1>   0.0800 
@<TRIPOS>BOND
  1   1   2  1   
  2   2   3  ar  
  3   2   4  ar  
  4   3   5  1   
  5   3   6  ar  
  6   4   7  ar  
  7   4  19  1   
  8   5   8  am  
  9   5  20  1   
 10   6   9  ar  
 11   6  21  1   
 12   7   9  ar  
 13   7  22  1   
 14   8  10  2   
 15   8  11  am  
 16   9  12  1   
 17  11  13  1   
 18  11  23  1   
 19  12  24  1   
 20  12  25  1   
 21  12  26  1   
 22  13  14  1   
 23  13  15  1   
 24  13  27  1   
 25  14  16  1   
 26  14  28  1   
 27  14  29  1   
 28  15  17  1   
 29  15  30  1   
 30  15  31  1   
 31  16  18  1   
 32  16  32  1   
 33  16  33  1   
 34  17  18  1   
 35  17  34  1   
 36  17  35  1   
 37  18  36  1   
 38  18  37  1   
@<TRIPOS>SUBSTRUCTURE
  1 ****   8 GROUP 4 **** **** 0

# MOE 2024.06 (io_trps.svl 2023.06)
