@<TRIPOS>MOLECULE
NONAME
48 49 1 0 0 
SMALL
USER_CHARGES


@<TRIPOS>ATOM
  1 P       -0.0740    -0.3680    -0.8710 P.3   1 <1>   0.9780 
  2 O        0.1000     0.4610    -2.0580 O.2   1 <1>  -0.7000 
  3 C       -1.5410     0.0170     0.0770 C.ar  1 <1>  -0.1390 
  4 C       -0.1570    -2.1150    -1.2340 C.ar  1 <1>  -0.1390 
  5 C        1.3120    -0.2280     0.2240 C.3   1 <1>  -0.1600 
  6 C       -1.6280    -0.1200     1.4610 C.ar  1 <1>  -0.1500 
  7 C       -2.6860     0.4570    -0.5780 C.ar  1 <1>  -0.1500 
  8 C        0.2060    -2.5940    -2.4880 C.ar  1 <1>  -0.1500 
  9 C       -0.5550    -3.0580    -0.2920 C.ar  1 <1>  -0.1500 
 10 C        2.6270    -0.4440    -0.5150 C.3   1 <1>   0.1100 
 11 C       -2.7920     0.1690     2.1530 C.ar  1 <1>  -0.1500 
 12 C       -3.8570     0.7480     0.1000 C.ar  1 <1>  -0.1500 
 13 C        0.1820    -3.9440    -2.7910 C.ar  1 <1>  -0.1500 
 14 C       -0.5840    -4.4120    -0.5810 C.ar  1 <1>  -0.1500 
 15 N        3.7300    -0.3300     0.4380 N.3   1 <1>  -0.9000 
 16 C       -3.9120     0.6040     1.4720 C.ar  1 <1>  -0.1500 
 17 C       -0.2120    -4.8580    -1.8340 C.ar  1 <1>  -0.1500 
 18 C        5.0320    -0.3600    -0.2280 C.3   1 <1>   0.1100 
 19 C        6.1310     0.0770     0.7570 C.3   1 <1>   0.3430 
 20 N        7.4910     0.1390     0.1240 N.4   1 <1>  -0.9590 
 21 C        8.5400     0.3060     1.1780 C.3   1 <1>   0.2630 
 22 C        7.5890     1.2490    -0.8790 C.3   1 <1>   0.2630 
 23 H        1.2480    -0.9440     1.0200 H     1 <1>   0.0800 
 24 H        1.3380     0.7540     0.6570 H     1 <1>   0.0800 
 25 H       -0.7810    -0.4560     2.0300 H     1 <1>   0.1500 
 26 H       -2.6620     0.5770    -1.6490 H     1 <1>   0.1500 
 27 H        0.5120    -1.8950    -3.2500 H     1 <1>   0.1500 
 28 H       -0.8570    -2.7420     0.6910 H     1 <1>   0.1500 
 29 H        2.7240     0.3060    -1.2850 H     1 <1>   0.0800 
 30 H        2.6400    -1.4180    -0.9800 H     1 <1>   0.0800 
 31 H       -2.8280     0.0550     3.2230 H     1 <1>   0.1500 
 32 H       -4.7220     1.0880    -0.4430 H     1 <1>   0.1500 
 33 H        0.4670    -4.2810    -3.7730 H     1 <1>   0.1500 
 34 H       -0.8990    -5.1180     0.1680 H     1 <1>   0.1500 
 35 H        3.6520    -1.1090     1.1080 H     1 <1>   0.3600 
 36 H       -4.8190     0.8300     2.0050 H     1 <1>   0.1500 
 37 H       -0.2340    -5.9090    -2.0650 H     1 <1>   0.1500 
 38 H        5.0080     0.3220    -1.0600 H     1 <1>   0.0800 
 39 H        5.2260    -1.3560    -0.5910 H     1 <1>   0.0800 
 40 H        6.1480    -0.6250     1.5740 H     1 <1>   0.0800 
 41 H        5.8710     1.0450     1.1520 H     1 <1>   0.0800 
 42 H        7.6630    -0.7570    -0.3580 H     1 <1>   0.4500 
 43 H        8.3930     1.2310     1.7110 H     1 <1>   0.0800 
 44 H        9.5220     0.3180     0.7310 H     1 <1>   0.0800 
 45 H        8.4960    -0.5090     1.8830 H     1 <1>   0.0800 
 46 H        7.3890     2.1980    -0.4080 H     1 <1>   0.0800 
 47 H        6.8780     1.1040    -1.6750 H     1 <1>   0.0800 
 48 H        8.5780     1.2800    -1.3080 H     1 <1>   0.0800 
@<TRIPOS>BOND
  1   1   2  2   
  2   1   3  1   
  3   1   4  1   
  4   1   5  1   
  5   3   6  ar  
  6   3   7  ar  
  7   4   8  ar  
  8   4   9  ar  
  9   5  10  1   
 10   5  23  1   
 11   5  24  1   
 12   6  11  ar  
 13   6  25  1   
 14   7  12  ar  
 15   7  26  1   
 16   8  13  ar  
 17   8  27  1   
 18   9  14  ar  
 19   9  28  1   
 20  10  15  1   
 21  10  29  1   
 22  10  30  1   
 23  11  16  ar  
 24  11  31  1   
 25  12  16  ar  
 26  12  32  1   
 27  13  17  ar  
 28  13  33  1   
 29  14  17  ar  
 30  14  34  1   
 31  15  18  1   
 32  15  35  1   
 33  16  36  1   
 34  17  37  1   
 35  18  19  1   
 36  18  38  1   
 37  18  39  1   
 38  19  20  1   
 39  19  40  1   
 40  19  41  1   
 41  20  21  1   
 42  20  22  1   
 43  20  42  1   
 44  21  43  1   
 45  21  44  1   
 46  21  45  1   
 47  22  46  1   
 48  22  47  1   
 49  22  48  1   
@<TRIPOS>SUBSTRUCTURE
  1 ****   5 GROUP 4 **** **** 0

# MOE 2024.06 (io_trps.svl 2023.06)
