@<TRIPOS>MOLECULE
NONAME
34 35 1 0 0 
SMALL
USER_CHARGES


@<TRIPOS>ATOM
  1 CL      -1.5640     0.4020     3.5630 Cl    1 <1>  -0.1770 
  2 C       -1.9820     1.7500     2.5350 C.ar  1 <1>   0.1770 
  3 C       -1.5080     1.7840     1.2360 C.ar  1 <1>  -0.1500 
  4 C       -2.7780     2.7640     3.0340 C.ar  1 <1>  -0.1500 
  5 C       -1.8440     2.8530     0.4220 C.ar  1 <1>  -0.1500 
  6 C       -3.1080     3.8290     2.2150 C.ar  1 <1>  -0.1500 
  7 C       -2.6520     3.8780     0.9020 C.ar  1 <1>   0.1170 
  8 N       -2.9860     4.9460     0.0690 N.am  1 <1>  -0.5470 
  9 C       -4.1270     5.2220    -0.6260 C.2   1 <1>   0.5690 
 10 O       -4.1420     6.2110    -1.3170 O.2   1 <1>  -0.5700 
 11 C       -5.3830     4.3370    -0.6010 C.3   1 <1>   0.2110 
 12 S       -6.2100     4.4830     1.0580 S.3   1 <1>  -0.2860 
 13 C       -5.1420     2.8460    -0.9190 C.3   1 <1>  -0.1600 
 14 C       -7.9380     4.6880     0.6650 C.2   1 <1>   0.4340 
 15 C       -6.4370     2.0700    -1.2020 C.3   1 <1>  -0.2400 
 16 S       -9.0160     4.8670     1.9970 S.3   1 <1>  -0.0800 
 17 N       -8.4970     4.7170    -0.4780 N.2   1 <1>  -0.3380 
 18 C      -10.2750     4.9800     0.8130 C.2   1 <1>   0.1980 
 19 N       -9.8540     4.8850    -0.3860 N.2   1 <1>  -0.3380 
 20 C      -11.6930     5.1720     1.3030 C.3   1 <1>  -0.0600 
 21 H       -0.8870     0.9850     0.8730 H     1 <1>   0.1500 
 22 H       -3.1320     2.7160     4.0490 H     1 <1>   0.1500 
 23 H       -1.4830     2.8920    -0.5900 H     1 <1>   0.1500 
 24 H       -3.7230     4.6270     2.5930 H     1 <1>   0.1500 
 25 H       -2.2540     5.6400    -0.0940 H     1 <1>   0.3700 
 26 H       -6.0690     4.7440    -1.3200 H     1 <1>   0.0800 
 27 H       -4.6270     2.3740    -0.1020 H     1 <1>   0.0800 
 28 H       -4.5110     2.7820    -1.7880 H     1 <1>   0.0800 
 29 H       -7.0620     2.0320    -0.3280 H     1 <1>   0.0800 
 30 H       -6.2040     1.0600    -1.4910 H     1 <1>   0.0800 
 31 H       -6.9900     2.5340    -2.0000 H     1 <1>   0.0800 
 32 H      -11.9790     4.3460     1.9270 H     1 <1>   0.0800 
 33 H      -12.3630     5.2250     0.4650 H     1 <1>   0.0800 
 34 H      -11.7640     6.0840     1.8660 H     1 <1>   0.0800 
@<TRIPOS>BOND
  1   1   2  1   
  2   2   3  ar  
  3   2   4  ar  
  4   3   5  ar  
  5   3  21  1   
  6   4   6  ar  
  7   4  22  1   
  8   5   7  ar  
  9   5  23  1   
 10   6   7  ar  
 11   6  24  1   
 12   7   8  1   
 13   8   9  am  
 14   8  25  1   
 15   9  10  2   
 16   9  11  1   
 17  11  12  1   
 18  11  13  1   
 19  11  26  1   
 20  12  14  1   
 21  13  15  1   
 22  13  27  1   
 23  13  28  1   
 24  14  16  1   
 25  14  17  2   
 26  15  29  1   
 27  15  30  1   
 28  15  31  1   
 29  16  18  1   
 30  17  19  1   
 31  18  19  2   
 32  18  20  1   
 33  20  32  1   
 34  20  33  1   
 35  20  34  1   
@<TRIPOS>SUBSTRUCTURE
  1 ****  12 GROUP 4 **** **** 0

# MOE 2024.06 (io_trps.svl 2023.06)
