@<TRIPOS>MOLECULE
NONAME
43 44 1 0 0 
SMALL
USER_CHARGES


@<TRIPOS>ATOM
  1 O      -15.4170     0.8830     0.8160 O.3   1 <1>  -0.5600 
  2 C      -14.7540     2.0850     0.5600 C.3   1 <1>   0.1200 
  3 C      -15.0850    -0.1710    -0.0410 C.3   1 <1>   0.1200 
  4 C      -13.2300     1.8880     0.6760 C.3   1 <1>   0.3430 
  5 C      -13.5770    -0.4730     0.0480 C.3   1 <1>   0.3430 
  6 N      -12.7460     0.7590    -0.2010 N.4   1 <1>  -0.9590 
  7 C      -11.2900     0.4540     0.0040 C.3   1 <1>   0.3430 
  8 C      -10.3690     1.5880    -0.4580 C.3   1 <1>   0.1200 
  9 O       -9.0470     1.1680    -0.2310 O.3   1 <1>  -0.3630 
 10 C       -7.9910     1.9760    -0.5090 C.ar  1 <1>   0.0820 
 11 C       -6.7360     1.4920    -0.1770 C.ar  1 <1>  -0.1500 
 12 C       -8.1150     3.2330    -1.0970 C.ar  1 <1>  -0.1500 
 13 C       -5.5990     2.2560    -0.4220 C.ar  1 <1>   0.0820 
 14 C       -6.9850     3.9940    -1.3420 C.ar  1 <1>  -0.1500 
 15 O       -4.3330     1.8650    -0.1260 O.3   1 <1>  -0.3630 
 16 C       -5.7350     3.5060    -1.0050 C.ar  1 <1>  -0.1500 
 17 C       -4.0180     0.6020     0.4160 C.3   1 <1>   0.2000 
 18 C       -2.6430     0.7270     1.0680 C.3   1 <1>  -0.2400 
 19 C       -3.9980    -0.4310    -0.7130 C.3   1 <1>  -0.2400 
 20 H      -15.0910     2.8040     1.2870 H     1 <1>   0.0800 
 21 H      -15.0310     2.4340    -0.4200 H     1 <1>   0.0800 
 22 H      -15.3750     0.0920    -1.0440 H     1 <1>   0.0800 
 23 H      -15.6550    -1.0310     0.2650 H     1 <1>   0.0800 
 24 H      -12.9960     1.6740     1.7060 H     1 <1>   0.0800 
 25 H      -12.7340     2.8070     0.4080 H     1 <1>   0.0800 
 26 H      -13.3260    -1.2400    -0.6660 H     1 <1>   0.0800 
 27 H      -13.3700    -0.8590     1.0330 H     1 <1>   0.0800 
 28 H      -12.8970     1.0310    -1.1820 H     1 <1>   0.4500 
 29 H      -11.0300    -0.4320    -0.5520 H     1 <1>   0.0800 
 30 H      -11.1070     0.2620     1.0490 H     1 <1>   0.0800 
 31 H      -10.5320     2.4850     0.1130 H     1 <1>   0.0800 
 32 H      -10.4830     1.7720    -1.5120 H     1 <1>   0.0800 
 33 H       -6.6710     0.5210     0.2700 H     1 <1>   0.1500 
 34 H       -9.0670     3.6420    -1.3720 H     1 <1>   0.1500 
 35 H       -7.0720     4.9660    -1.7950 H     1 <1>   0.1500 
 36 H       -4.8530     4.0920    -1.1920 H     1 <1>   0.1500 
 37 H       -4.7420     0.3540     1.1720 H     1 <1>   0.0800 
 38 H       -1.9060     1.0100     0.3380 H     1 <1>   0.0800 
 39 H       -2.3550    -0.2120     1.5040 H     1 <1>   0.0800 
 40 H       -2.6740     1.4680     1.8470 H     1 <1>   0.0800 
 41 H       -3.2740    -0.1540    -1.4570 H     1 <1>   0.0800 
 42 H       -4.9650    -0.5070    -1.1750 H     1 <1>   0.0800 
 43 H       -3.7360    -1.3970    -0.3210 H     1 <1>   0.0800 
@<TRIPOS>BOND
  1   1   2  1   
  2   1   3  1   
  3   2   4  1   
  4   2  20  1   
  5   2  21  1   
  6   3   5  1   
  7   3  22  1   
  8   3  23  1   
  9   4   6  1   
 10   4  24  1   
 11   4  25  1   
 12   5   6  1   
 13   5  26  1   
 14   5  27  1   
 15   6   7  1   
 16   6  28  1   
 17   7   8  1   
 18   7  29  1   
 19   7  30  1   
 20   8   9  1   
 21   8  31  1   
 22   8  32  1   
 23   9  10  1   
 24  10  11  ar  
 25  10  12  ar  
 26  11  13  ar  
 27  11  33  1   
 28  12  14  ar  
 29  12  34  1   
 30  13  15  1   
 31  13  16  ar  
 32  14  16  ar  
 33  14  35  1   
 34  15  17  1   
 35  16  36  1   
 36  17  18  1   
 37  17  19  1   
 38  17  37  1   
 39  18  38  1   
 40  18  39  1   
 41  18  40  1   
 42  19  41  1   
 43  19  42  1   
 44  19  43  1   
@<TRIPOS>SUBSTRUCTURE
  1 ****   9 GROUP 4 **** **** 0

# MOE 2024.06 (io_trps.svl 2023.06)
