@<TRIPOS>MOLECULE
NONAME
26 26 1 0 0 
SMALL
USER_CHARGES


@<TRIPOS>ATOM
  1 CL       0.2120    -0.0550     1.1120 Cl    1 <1>  -0.1770 
  2 C        1.5840     0.8550     0.5230 C.ar  1 <1>   0.1770 
  3 C        1.4010     2.1190    -0.0170 C.ar  1 <1>  -0.1440 
  4 C        2.8360     0.2810     0.6120 C.ar  1 <1>  -0.1500 
  5 C        2.5160     2.8050    -0.4680 C.ar  1 <1>  -0.1500 
  6 C        0.0170     2.7450    -0.1120 C.3   1 <1>  -0.0960 
  7 C        3.9660     0.9550     0.1550 C.ar  1 <1>   0.0860 
  8 C        3.7740     2.2320    -0.3800 C.ar  1 <1>  -0.1500 
  9 C        5.2810     0.3420     0.2400 C.2   1 <1>   0.5440 
 10 O        5.5280    -0.4800     1.0990 O.2   1 <1>  -0.5700 
 11 N        6.2690     0.6690    -0.6470 N.am  1 <1>  -0.7300 
 12 C        7.6240     0.0610    -0.6550 C.3   1 <1>   0.1400 
 13 C        8.5160     0.7440     0.3850 C.3   1 <1>   0.1200 
 14 O        9.7750     0.1610     0.3640 O.3   1 <1>  -0.6800 
 15 H        2.9380    -0.7010     1.0400 H     1 <1>   0.1500 
 16 H        2.4110     3.7910    -0.8880 H     1 <1>   0.1500 
 17 H       -0.6250     2.1270    -0.7140 H     1 <1>   0.0800 
 18 H        0.0630     3.7230    -0.5570 H     1 <1>   0.0800 
 19 H       -0.4120     2.8380     0.8690 H     1 <1>   0.0800 
 20 H        4.6220     2.7950    -0.7260 H     1 <1>   0.1500 
 21 H        6.0590     1.2950    -1.4250 H     1 <1>   0.3700 
 22 H        8.0570     0.1690    -1.6340 H     1 <1>   0.0800 
 23 H        7.5390    -0.9870    -0.4230 H     1 <1>   0.0800 
 24 H        8.1060     0.6330     1.3740 H     1 <1>   0.0800 
 25 H        8.6330     1.7880     0.1530 H     1 <1>   0.0800 
 26 H        9.7400    -0.7360     0.7510 H     1 <1>   0.4000 
@<TRIPOS>BOND
  1   1   2  1   
  2   2   3  ar  
  3   2   4  ar  
  4   3   5  ar  
  5   3   6  1   
  6   4   7  ar  
  7   4  15  1   
  8   5   8  ar  
  9   5  16  1   
 10   6  17  1   
 11   6  18  1   
 12   6  19  1   
 13   7   8  ar  
 14   7   9  1   
 15   8  20  1   
 16   9  10  2   
 17   9  11  am  
 18  11  12  1   
 19  11  21  1   
 20  12  13  1   
 21  12  22  1   
 22  12  23  1   
 23  13  14  1   
 24  13  24  1   
 25  13  25  1   
 26  14  26  1   
@<TRIPOS>SUBSTRUCTURE
  1 ****   7 GROUP 4 **** **** 0

# MOE 2024.06 (io_trps.svl 2023.06)
