@<TRIPOS>MOLECULE
NONAME
48 50 1 0 0 
SMALL
USER_CHARGES


@<TRIPOS>ATOM
  1 CL      -0.5860    -3.8680     2.7370 Cl    1 <1>  -0.1770 
  2 C       -1.6770    -3.0430     1.6370 C.ar  1 <1>   0.1770 
  3 C       -1.3060    -2.8020     0.3070 C.ar  1 <1>   0.1000 
  4 C       -2.9040    -2.6470     2.1330 C.ar  1 <1>  -0.1500 
  5 N       -0.0800    -3.1780    -0.2570 N.pl3 1 <1>  -0.8380 
  6 C       -2.2220    -2.1440    -0.5030 C.ar  1 <1>  -0.1500 
  7 C       -3.7990    -1.9930     1.3030 C.ar  1 <1>  -0.1500 
  8 C        0.1360    -4.6450    -0.4450 C.3   1 <1>   0.2090 
  9 C        1.1240    -2.4330     0.2300 C.3   1 <1>   0.2090 
 10 C       -3.4540    -1.7430    -0.0150 C.ar  1 <1>  -0.1500 
 11 C        1.3760    -4.9190    -1.3210 C.3   1 <1>   0.3430 
 12 C        2.3560    -2.7280    -0.6480 C.3   1 <1>   0.3430 
 13 N        2.5980    -4.2080    -0.8120 N.4   1 <1>  -0.9590 
 14 C        3.8100    -4.4950    -1.6140 C.3   1 <1>   0.4860 
 15 C        5.0120    -3.9670    -0.8580 C.ar  1 <1>  -0.1430 
 16 C        5.3220    -4.4610     0.4060 C.ar  1 <1>   0.0830 
 17 C        5.8040    -2.9830    -1.4260 C.ar  1 <1>  -0.1500 
 18 O        4.5020    -5.4180     0.9260 O.3   1 <1>  -0.3630 
 19 C        6.4290    -3.9600     1.0860 C.ar  1 <1>  -0.1500 
 20 C        6.9030    -2.4820    -0.7500 C.ar  1 <1>   0.0830 
 21 C        4.8610    -6.1190     2.1010 C.3   1 <1>   0.0400 
 22 C        7.2150    -2.9760     0.5120 C.ar  1 <1>  -0.1500 
 23 O        7.6130    -1.5170    -1.3850 O.3   1 <1>  -0.3620 
 24 C        8.8060    -1.0040    -0.8320 C.3   1 <1>   0.0400 
 25 H       -3.1580    -2.8480     3.1580 H     1 <1>   0.1500 
 26 H       -1.9630    -1.9460    -1.5270 H     1 <1>   0.1500 
 27 H       -4.7580    -1.6790     1.6800 H     1 <1>   0.1500 
 28 H       -0.7340    -5.0720    -0.9140 H     1 <1>   0.0800 
 29 H        0.2620    -5.1230     0.5100 H     1 <1>   0.0800 
 30 H        1.3390    -2.7070     1.2480 H     1 <1>   0.0800 
 31 H        0.9170    -1.3760     0.2110 H     1 <1>   0.0800 
 32 H       -4.1490    -1.2340    -0.6620 H     1 <1>   0.1500 
 33 H        1.1570    -4.5890    -2.3230 H     1 <1>   0.0800 
 34 H        1.5550    -5.9810    -1.3520 H     1 <1>   0.0800 
 35 H        3.2210    -2.2610    -0.2060 H     1 <1>   0.0800 
 36 H        2.1960    -2.2800    -1.6140 H     1 <1>   0.0800 
 37 H        2.8310    -4.5810     0.1240 H     1 <1>   0.4500 
 38 H        3.7410    -4.0280    -2.5830 H     1 <1>   0.0800 
 39 H        3.9220    -5.5590    -1.7470 H     1 <1>   0.0800 
 40 H        5.5930    -2.5860    -2.4040 H     1 <1>   0.1500 
 41 H        6.6990    -4.3170     2.0630 H     1 <1>   0.1500 
 42 H        4.8810    -5.4330     2.9300 H     1 <1>   0.0800 
 43 H        5.8270    -6.5740     1.9580 H     1 <1>   0.0800 
 44 H        4.1250    -6.8830     2.2800 H     1 <1>   0.0800 
 45 H        8.0620    -2.6070     1.0590 H     1 <1>   0.1500 
 46 H        9.2130    -0.2860    -1.5210 H     1 <1>   0.0800 
 47 H        9.5040    -1.8110    -0.6940 H     1 <1>   0.0800 
 48 H        8.5810    -0.5240     0.1040 H     1 <1>   0.0800 
@<TRIPOS>BOND
  1   1   2  1   
  2   2   3  ar  
  3   2   4  ar  
  4   3   5  1   
  5   3   6  ar  
  6   4   7  ar  
  7   4  25  1   
  8   5   8  1   
  9   5   9  1   
 10   6  10  ar  
 11   6  26  1   
 12   7  10  ar  
 13   7  27  1   
 14   8  11  1   
 15   8  28  1   
 16   8  29  1   
 17   9  12  1   
 18   9  30  1   
 19   9  31  1   
 20  10  32  1   
 21  11  13  1   
 22  11  33  1   
 23  11  34  1   
 24  12  13  1   
 25  12  35  1   
 26  12  36  1   
 27  13  14  1   
 28  13  37  1   
 29  14  15  1   
 30  14  38  1   
 31  14  39  1   
 32  15  16  ar  
 33  15  17  ar  
 34  16  18  1   
 35  16  19  ar  
 36  17  20  ar  
 37  17  40  1   
 38  18  21  1   
 39  19  22  ar  
 40  19  41  1   
 41  20  22  ar  
 42  20  23  1   
 43  21  42  1   
 44  21  43  1   
 45  21  44  1   
 46  22  45  1   
 47  23  24  1   
 48  24  46  1   
 49  24  47  1   
 50  24  48  1   
@<TRIPOS>SUBSTRUCTURE
  1 ****  12 GROUP 4 **** **** 0

# MOE 2024.06 (io_trps.svl 2023.06)
