@<TRIPOS>MOLECULE
NONAME
26 26 1 0 0 
SMALL
USER_CHARGES


@<TRIPOS>ATOM
  1 O       -0.0330     0.5090     1.8000 O.3   1 <1>  -0.6800 
  2 C        0.0700     1.8330     1.3970 C.3   1 <1>   0.3440 
  3 C       -1.2980     2.2530     0.8550 C.ar  1 <1>  -0.1440 
  4 C        1.2610     2.0340     0.4120 C.3   1 <1>   0.2000 
  5 C       -1.8220     3.4890     1.2100 C.ar  1 <1>  -0.1500 
  6 C       -2.0410     1.4270     0.0200 C.ar  1 <1>  -0.1500 
  7 C        2.5270     1.7680     1.1720 C.1   1 <1>   0.3570 
  8 C        1.3070     3.4910    -0.0980 C.3   1 <1>  -0.2400 
  9 C        1.2000     1.1010    -0.8180 C.3   1 <1>  -0.2400 
 10 C       -3.0570     3.8950     0.7350 C.ar  1 <1>  -0.1500 
 11 C       -3.2760     1.8310    -0.4560 C.ar  1 <1>  -0.1500 
 12 N        3.5000     1.6160     1.7430 N.1   1 <1>  -0.5570 
 13 C       -3.7840     3.0670    -0.0990 C.ar  1 <1>  -0.1500 
 14 H       -0.8850     0.3900     2.2630 H     1 <1>   0.4000 
 15 H        0.2680     2.4040     2.2890 H     1 <1>   0.0800 
 16 H       -1.2720     4.1490     1.8600 H     1 <1>   0.1500 
 17 H       -1.6620     0.4600    -0.2650 H     1 <1>   0.1500 
 18 H        0.4370     3.7170    -0.6900 H     1 <1>   0.0800 
 19 H        2.1780     3.6470    -0.7120 H     1 <1>   0.0800 
 20 H        1.3490     4.1800     0.7260 H     1 <1>   0.0800 
 21 H        0.3340     1.3150    -1.4170 H     1 <1>   0.0800 
 22 H        1.1600     0.0710    -0.5090 H     1 <1>   0.0800 
 23 H        2.0730     1.2320    -1.4320 H     1 <1>   0.0800 
 24 H       -3.4530     4.8560     1.0150 H     1 <1>   0.1500 
 25 H       -3.8420     1.1840    -1.1030 H     1 <1>   0.1500 
 26 H       -4.7450     3.3820    -0.4690 H     1 <1>   0.1500 
@<TRIPOS>BOND
  1   1   2  1   
  2   1  14  1   
  3   2   3  1   
  4   2   4  1   
  5   2  15  1   
  6   3   5  ar  
  7   3   6  ar  
  8   4   7  1   
  9   4   8  1   
 10   4   9  1   
 11   5  10  ar  
 12   5  16  1   
 13   6  11  ar  
 14   6  17  1   
 15   7  12  3   
 16   8  18  1   
 17   8  19  1   
 18   8  20  1   
 19   9  21  1   
 20   9  22  1   
 21   9  23  1   
 22  10  13  ar  
 23  10  24  1   
 24  11  13  ar  
 25  11  25  1   
 26  13  26  1   
@<TRIPOS>SUBSTRUCTURE
  1 ****   3 GROUP 4 **** **** 0

# MOE 2024.06 (io_trps.svl 2023.06)
