@<TRIPOS>MOLECULE
NONAME
38 39 1 0 0 
SMALL
USER_CHARGES


@<TRIPOS>ATOM
  1 O       -0.0360    -0.0790    -1.1480 O.2   1 <1>  -0.5700 
  2 C        0.9050    -0.7580    -0.8510 C.2   1 <1>   0.4480 
  3 C        2.0050    -0.2920     0.0930 C.3   1 <1>   0.0610 
  4 C        1.1170    -2.1690    -1.3820 C.3   1 <1>   0.0610 
  5 C        3.3480    -0.3360    -0.6730 C.3   1 <1>   0.1400 
  6 C        1.9830    -1.2430     1.3060 C.3   1 <1>   0.1400 
  7 C        1.7720     1.1500     0.5960 C.3   1 <1>  -0.2400 
  8 C        2.4310    -2.1490    -2.1880 C.3   1 <1>   0.1400 
  9 C        1.1740    -3.1350    -0.1750 C.3   1 <1>   0.1400 
 10 C       -0.0260    -2.6190    -2.3200 C.3   1 <1>  -0.2400 
 11 N        3.5870    -1.6360    -1.3870 N.am  1 <1>  -0.6600 
 12 N        2.1090    -2.6810     0.9090 N.am  1 <1>  -0.6600 
 13 C        4.7300    -2.3880    -1.2660 C.2   1 <1>   0.5690 
 14 C        3.0950    -3.4640     1.4590 C.2   1 <1>   0.5690 
 15 O        4.8470    -3.4610    -1.8060 O.2   1 <1>  -0.5700 
 16 C        5.9000    -1.9000    -0.4440 C.3   1 <1>  -0.1790 
 17 O        3.8680    -3.0320     2.2810 O.2   1 <1>  -0.5700 
 18 C        3.2560    -4.9110     1.0570 C.3   1 <1>  -0.1790 
 19 H        4.1430    -0.1300     0.0200 H     1 <1>   0.0800 
 20 H        3.3530     0.4470    -1.4120 H     1 <1>   0.0800 
 21 H        2.7730    -0.9670     1.9830 H     1 <1>   0.0800 
 22 H        1.0530    -1.1240     1.8350 H     1 <1>   0.0800 
 23 H        2.5560     1.4550     1.2670 H     1 <1>   0.0800 
 24 H        0.8320     1.2190     1.1170 H     1 <1>   0.0800 
 25 H        1.7400     1.8370    -0.2320 H     1 <1>   0.0800 
 26 H        2.3120    -1.5120    -3.0480 H     1 <1>   0.0800 
 27 H        2.6350    -3.1420    -2.5510 H     1 <1>   0.0800 
 28 H        1.4470    -4.1110    -0.5310 H     1 <1>   0.0800 
 29 H        0.1900    -3.2120     0.2550 H     1 <1>   0.0800 
 30 H       -0.1060    -1.9530    -3.1620 H     1 <1>   0.0800 
 31 H       -0.9680    -2.6050    -1.7980 H     1 <1>   0.0800 
 32 H        0.1480    -3.6150    -2.6870 H     1 <1>   0.0800 
 33 H        6.2260    -0.9420    -0.7990 H     1 <1>   0.0800 
 34 H        6.7150    -2.5950    -0.5270 H     1 <1>   0.0800 
 35 H        5.6170    -1.8320     0.5900 H     1 <1>   0.0800 
 36 H        2.3410    -5.4450     1.2270 H     1 <1>   0.0800 
 37 H        4.0340    -5.3650     1.6430 H     1 <1>   0.0800 
 38 H        3.5320    -4.9730     0.0210 H     1 <1>   0.0800 
@<TRIPOS>BOND
  1   1   2  2   
  2   2   3  1   
  3   2   4  1   
  4   3   5  1   
  5   3   6  1   
  6   3   7  1   
  7   4   8  1   
  8   4   9  1   
  9   4  10  1   
 10   5  11  1   
 11   5  19  1   
 12   5  20  1   
 13   6  12  1   
 14   6  21  1   
 15   6  22  1   
 16   7  23  1   
 17   7  24  1   
 18   7  25  1   
 19   8  11  1   
 20   8  26  1   
 21   8  27  1   
 22   9  12  1   
 23   9  28  1   
 24   9  29  1   
 25  10  30  1   
 26  10  31  1   
 27  10  32  1   
 28  11  13  am  
 29  12  14  am  
 30  13  15  2   
 31  13  16  1   
 32  14  17  2   
 33  14  18  1   
 34  16  33  1   
 35  16  34  1   
 36  16  35  1   
 37  18  36  1   
 38  18  37  1   
 39  18  38  1   
@<TRIPOS>SUBSTRUCTURE
  1 ****  12 GROUP 4 **** **** 0

# MOE 2024.06 (io_trps.svl 2023.06)
