@<TRIPOS>MOLECULE
NONAME
44 47 1 0 0 
SMALL
USER_CHARGES


@<TRIPOS>ATOM
  1 O       -0.2890     5.7100     3.1980 O.2   1 <1>  -0.5700 
  2 C       -0.3000     5.3170     2.0530 C.2   1 <1>   0.5180 
  3 N       -1.4480     5.3190     1.2580 N.pl3 1 <1>   0.2940 
  4 C        1.0040     4.7920     1.4400 C.3   1 <1>   0.1710 
  5 C       -1.9650     4.2510     0.5190 C.ar  1 <1>  -0.1520 
  6 C       -2.1370     6.4400     0.8200 C.2   1 <1>  -0.3320 
  7 N        1.6150     5.6650     0.3990 N.3   1 <1>  -0.8100 
  8 C       -2.9260     4.7270    -0.3670 C.ar  1 <1>   0.0000 
  9 C       -1.6730     2.8840     0.5690 C.ar  1 <1>  -0.1500 
 10 C       -3.0220     6.1160    -0.1410 C.2   1 <1>  -0.1810 
 11 C       -1.9100     7.8460     1.3490 C.3   1 <1>   0.0200 
 12 C        3.0520     5.3630     0.2440 C.3   1 <1>   0.1100 
 13 C        0.9440     5.5440    -0.9180 C.3   1 <1>   0.1100 
 14 C       -3.5740     3.8490    -1.2380 C.ar  1 <1>  -0.1500 
 15 C       -2.3200     2.0260    -0.2930 C.ar  1 <1>  -0.1500 
 16 C       -3.9370     7.1080    -0.8320 C.3   1 <1>   0.0210 
 17 C       -2.5720     8.8740     0.4130 C.3   1 <1>  -0.1600 
 18 C        3.6900     6.2240    -0.8600 C.3   1 <1>   0.1200 
 19 C        1.6560     6.3850    -1.9920 C.3   1 <1>   0.1200 
 20 C       -3.2660     2.5080    -1.2000 C.ar  1 <1>  -0.1500 
 21 C       -3.9770     8.4290    -0.0410 C.3   1 <1>  -0.1600 
 22 O        3.0100     6.0450    -2.0690 O.3   1 <1>  -0.5600 
 23 H        0.8520     3.8080     1.0380 H     1 <1>   0.0800 
 24 H        1.7000     4.6970     2.2550 H     1 <1>   0.0800 
 25 H       -0.9610     2.4990     1.2760 H     1 <1>   0.1500 
 26 H       -0.8570     8.0560     1.4220 H     1 <1>   0.0800 
 27 H       -2.3360     7.9190     2.3350 H     1 <1>   0.0800 
 28 H        3.1880     4.3240    -0.0050 H     1 <1>   0.0800 
 29 H        3.5610     5.5580     1.1720 H     1 <1>   0.0800 
 30 H       -0.0700     5.8900    -0.8510 H     1 <1>   0.0800 
 31 H        0.9270     4.5150    -1.2350 H     1 <1>   0.0800 
 32 H       -4.3060     4.2340    -1.9250 H     1 <1>   0.1500 
 33 H       -2.1050     0.9710    -0.2720 H     1 <1>   0.1500 
 34 H       -4.9290     6.7000    -0.9070 H     1 <1>   0.0800 
 35 H       -3.5650     7.2860    -1.8250 H     1 <1>   0.0800 
 36 H       -1.9510     8.9990    -0.4570 H     1 <1>   0.0800 
 37 H       -2.6320     9.8240     0.9140 H     1 <1>   0.0800 
 38 H        4.7140     5.9370    -1.0140 H     1 <1>   0.0800 
 39 H        3.6550     7.2660    -0.5940 H     1 <1>   0.0800 
 40 H        1.5750     7.4330    -1.7620 H     1 <1>   0.0800 
 41 H        1.2160     6.2060    -2.9570 H     1 <1>   0.0800 
 42 H       -3.7570     1.8200    -1.8650 H     1 <1>   0.1500 
 43 H       -4.5930     8.2920     0.8300 H     1 <1>   0.0800 
 44 H       -4.4270     9.1950    -0.6480 H     1 <1>   0.0800 
@<TRIPOS>BOND
  1   1   2  2   
  2   2   3  1   
  3   2   4  1   
  4   3   5  1   
  5   3   6  1   
  6   4   7  1   
  7   4  23  1   
  8   4  24  1   
  9   5   8  ar  
 10   5   9  ar  
 11   6  10  2   
 12   6  11  1   
 13   7  12  1   
 14   7  13  1   
 15   8  10  1   
 16   8  14  ar  
 17   9  15  ar  
 18   9  25  1   
 19  10  16  1   
 20  11  17  1   
 21  11  26  1   
 22  11  27  1   
 23  12  18  1   
 24  12  28  1   
 25  12  29  1   
 26  13  19  1   
 27  13  30  1   
 28  13  31  1   
 29  14  20  ar  
 30  14  32  1   
 31  15  20  ar  
 32  15  33  1   
 33  16  21  1   
 34  16  34  1   
 35  16  35  1   
 36  17  21  1   
 37  17  36  1   
 38  17  37  1   
 39  18  22  1   
 40  18  38  1   
 41  18  39  1   
 42  19  22  1   
 43  19  40  1   
 44  19  41  1   
 45  20  42  1   
 46  21  43  1   
 47  21  44  1   
@<TRIPOS>SUBSTRUCTURE
  1 ****   3 GROUP 4 **** **** 0

# MOE 2024.06 (io_trps.svl 2023.06)
