@<TRIPOS>MOLECULE
NONAME
31 32 1 0 0 
SMALL
USER_CHARGES


@<TRIPOS>ATOM
  1 CL       0.4090     1.8130    -2.8030 Cl    1 <1>  -0.1770 
  2 C        1.0030     2.3610    -1.2530 C.ar  1 <1>   0.1770 
  3 C        0.1930     3.1090    -0.4100 C.ar  1 <1>  -0.1440 
  4 C        2.2970     2.0240    -0.8980 C.ar  1 <1>  -0.1500 
  5 C        0.7080     3.5170     0.8130 C.ar  1 <1>  -0.1500 
  6 C       -1.2290     3.4830    -0.7940 C.3   1 <1>   0.2140 
  7 C        2.8000     2.4400     0.3220 C.ar  1 <1>  -0.1500 
  8 C        2.0040     3.1850     1.1760 C.ar  1 <1>  -0.1500 
  9 S       -2.3580     2.1630    -0.1710 S.3   1 <1>  -0.2860 
 10 C       -3.9800     2.8120    -0.5850 C.2   1 <1>   0.2430 
 11 N       -4.1710     3.9590    -1.1330 N.2   1 <1>  -0.3380 
 12 N       -5.1050     2.1400    -0.3450 N.pl3 1 <1>   0.0480 
 13 N       -5.4960     4.0770    -1.2730 N.2   1 <1>  -0.3380 
 14 C       -6.0300     2.9970    -0.8040 C.2   1 <1>   0.0060 
 15 C       -5.2690     0.8010     0.2630 C.3   1 <1>   0.0960 
 16 C       -7.5240     2.7400    -0.7800 C.3   1 <1>  -0.0600 
 17 C       -5.3960     0.9100     1.7850 C.3   1 <1>  -0.2400 
 18 H        2.9000     1.4440    -1.5730 H     1 <1>   0.1500 
 19 H        0.1000     4.0930     1.4900 H     1 <1>   0.1500 
 20 H       -1.3690     3.5520    -1.8580 H     1 <1>   0.0800 
 21 H       -1.5350     4.4050    -0.3320 H     1 <1>   0.0800 
 22 H        3.8060     2.1830     0.6080 H     1 <1>   0.1500 
 23 H        2.3920     3.5070     2.1270 H     1 <1>   0.1500 
 24 H       -4.4180     0.1960     0.0060 H     1 <1>   0.0800 
 25 H       -6.1470     0.3360    -0.1490 H     1 <1>   0.0800 
 26 H       -7.7620     1.8810    -1.3800 H     1 <1>   0.0800 
 27 H       -8.0460     3.5920    -1.1790 H     1 <1>   0.0800 
 28 H       -7.8560     2.5760     0.2280 H     1 <1>   0.0800 
 29 H       -4.5080     1.3530     2.2020 H     1 <1>   0.0800 
 30 H       -5.5160    -0.0710     2.2110 H     1 <1>   0.0800 
 31 H       -6.2500     1.5060     2.0530 H     1 <1>   0.0800 
@<TRIPOS>BOND
  1   1   2  1   
  2   2   3  ar  
  3   2   4  ar  
  4   3   5  ar  
  5   3   6  1   
  6   4   7  ar  
  7   4  18  1   
  8   5   8  ar  
  9   5  19  1   
 10   6   9  1   
 11   6  20  1   
 12   6  21  1   
 13   7   8  ar  
 14   7  22  1   
 15   8  23  1   
 16   9  10  1   
 17  10  11  2   
 18  10  12  1   
 19  11  13  1   
 20  12  14  1   
 21  12  15  1   
 22  13  14  2   
 23  14  16  1   
 24  15  17  1   
 25  15  24  1   
 26  15  25  1   
 27  16  26  1   
 28  16  27  1   
 29  16  28  1   
 30  17  29  1   
 31  17  30  1   
 32  17  31  1   
@<TRIPOS>SUBSTRUCTURE
  1 ****   9 GROUP 4 **** **** 0

# MOE 2024.06 (io_trps.svl 2023.06)
