@<TRIPOS>MOLECULE
NONAME
41 42 1 0 0 
SMALL
USER_CHARGES


@<TRIPOS>ATOM
  1 BR       2.7050    -0.4160     3.2230 Br    1 <1>  -0.1110 
  2 C        2.3680     1.1230     2.1190 C.ar  1 <1>   0.1110 
  3 C        3.3750     1.5800     1.2930 C.ar  1 <1>  -0.1500 
  4 C        1.1280     1.7270     2.1830 C.ar  1 <1>  -0.1500 
  5 C        3.1460     2.6940     0.4920 C.ar  1 <1>   0.1170 
  6 C        0.8940     2.8330     1.3830 C.ar  1 <1>  -0.1500 
  7 N        4.1610     3.1930    -0.3560 N.am  1 <1>  -0.2370 
  8 C        1.8940     3.3070     0.5480 C.ar  1 <1>  -0.1500 
  9 C        5.4530     3.4260     0.0220 C.2   1 <1>   0.5690 
 10 C        3.9970     3.5460    -1.6720 C.2   1 <1>   0.5690 
 11 O        5.9260     3.2930     1.1240 O.2   1 <1>  -0.5700 
 12 C        6.2880     3.9240    -1.1430 C.3   1 <1>   0.2110 
 13 O        2.9840     3.4690    -2.3120 O.2   1 <1>  -0.5700 
 14 C        5.2710     4.0870    -2.2770 C.3   1 <1>  -0.0990 
 15 S        7.5530     2.6570    -1.6600 S.3   1 <1>  -0.3610 
 16 C        8.8580     2.6210    -0.4840 C.cat 1 <1>   0.8400 
 17 N        9.9510     2.0800    -0.9660 N.pl3 1 <1>  -0.7940 
 18 N        8.6420     3.1060     0.7170 N.pl3 1 <1>  -0.7940 
 19 C       11.2440     1.7440    -0.3460 C.3   1 <1>   0.3290 
 20 C        9.5410     3.3290     1.8600 C.3   1 <1>   0.3290 
 21 C       11.8370     0.5610    -1.1000 C.3   1 <1>  -0.2400 
 22 C        8.9860     4.4900     2.6740 C.3   1 <1>  -0.2400 
 23 H        4.3220     1.0720     1.2830 H     1 <1>   0.1500 
 24 H        0.3680     1.3420     2.8390 H     1 <1>   0.1500 
 25 H       -0.0640     3.3230     1.4090 H     1 <1>   0.1500 
 26 H        1.6920     4.1640    -0.0710 H     1 <1>   0.1500 
 27 H        6.8000     4.8420    -0.9120 H     1 <1>   0.0800 
 28 H        5.1320     5.1220    -2.5280 H     1 <1>   0.0800 
 29 H        5.5310     3.5280    -3.1580 H     1 <1>   0.0800 
 30 H        9.9060     1.7880    -1.9460 H     1 <1>   0.4500 
 31 H        7.6690     3.3170     0.9860 H     1 <1>   0.4500 
 32 H       11.1080     1.4740     0.6880 H     1 <1>   0.0800 
 33 H       11.9100     2.5890    -0.4090 H     1 <1>   0.0800 
 34 H        9.5790     2.4410     2.4710 H     1 <1>   0.0800 
 35 H       10.5330     3.5720     1.5200 H     1 <1>   0.0800 
 36 H       11.1820    -0.2910    -1.0470 H     1 <1>   0.0800 
 37 H       12.7770     0.2870    -0.6540 H     1 <1>   0.0800 
 38 H       12.0190     0.8150    -2.1290 H     1 <1>   0.0800 
 39 H        8.0040     4.2580     3.0480 H     1 <1>   0.0800 
 40 H        8.9440     5.3850     2.0790 H     1 <1>   0.0800 
 41 H        9.6270     4.6770     3.5170 H     1 <1>   0.0800 
@<TRIPOS>BOND
  1   1   2  1   
  2   2   3  ar  
  3   2   4  ar  
  4   3   5  ar  
  5   3  23  1   
  6   4   6  ar  
  7   4  24  1   
  8   5   7  1   
  9   5   8  ar  
 10   6   8  ar  
 11   6  25  1   
 12   7   9  am  
 13   7  10  am  
 14   8  26  1   
 15   9  11  2   
 16   9  12  1   
 17  10  13  2   
 18  10  14  1   
 19  12  14  1   
 20  12  15  1   
 21  12  27  1   
 22  14  28  1   
 23  14  29  1   
 24  15  16  1   
 25  16  17  ar  
 26  16  18  ar  
 27  17  19  1   
 28  17  30  1   
 29  18  20  1   
 30  18  31  1   
 31  19  21  1   
 32  19  32  1   
 33  19  33  1   
 34  20  22  1   
 35  20  34  1   
 36  20  35  1   
 37  21  36  1   
 38  21  37  1   
 39  21  38  1   
 40  22  39  1   
 41  22  40  1   
 42  22  41  1   
@<TRIPOS>SUBSTRUCTURE
  1 ****   9 GROUP 4 **** **** 0

# MOE 2024.06 (io_trps.svl 2023.06)
