@<TRIPOS>MOLECULE
NONAME
38 38 1 0 0 
SMALL
USER_CHARGES


@<TRIPOS>ATOM
  1 O        0.5920    -0.4540     0.2380 O.3   1 <1>  -0.3630 
  2 C       -0.6730    -0.9410     0.1380 C.ar  1 <1>   0.0830 
  3 C        1.7100    -1.2800     0.0310 C.3   1 <1>   0.1200 
  4 C       -1.7020    -0.0520     0.4020 C.ar  1 <1>  -0.1500 
  5 C       -0.9750    -2.2560    -0.2090 C.ar  1 <1>  -0.1500 
  6 C        2.9560    -0.4110     0.2340 C.3   1 <1>   0.3430 
  7 C       -3.0200    -0.4650     0.3250 C.ar  1 <1>  -0.1500 
  8 C       -2.2950    -2.6680    -0.2860 C.ar  1 <1>  -0.1500 
  9 N        4.2410    -1.1670     0.0280 N.4   1 <1>  -0.9590 
 10 C       -3.3270    -1.7710    -0.0180 C.ar  1 <1>   0.0830 
 11 C        4.4790    -2.1440     1.1290 C.3   1 <1>   0.3430 
 12 C        5.3890    -0.2270    -0.1080 C.3   1 <1>   0.3430 
 13 O       -4.6450    -2.0940    -0.0710 O.3   1 <1>  -0.3630 
 14 C        5.4520    -3.2170     0.6540 C.3   1 <1>  -0.2400 
 15 C        5.3740     0.4010    -1.4960 C.3   1 <1>  -0.2400 
 16 C       -5.0660    -3.3960    -0.4130 C.3   1 <1>   0.0400 
 17 H        1.6640    -1.6560    -0.9760 H     1 <1>   0.0800 
 18 H        1.6640    -2.0810     0.7470 H     1 <1>   0.0800 
 19 H       -1.4720     0.9640     0.6690 H     1 <1>   0.1500 
 20 H       -0.2090    -2.9740    -0.4230 H     1 <1>   0.1500 
 21 H        2.9360     0.0020     1.2300 H     1 <1>   0.0800 
 22 H        2.9010     0.4040    -0.4670 H     1 <1>   0.0800 
 23 H       -3.8200     0.2240     0.5300 H     1 <1>   0.1500 
 24 H       -2.5040    -3.6860    -0.5540 H     1 <1>   0.1500 
 25 H        4.1750    -1.6930    -0.8540 H     1 <1>   0.4500 
 26 H        3.5540    -2.6200     1.4090 H     1 <1>   0.0800 
 27 H        4.8720    -1.6400     1.9980 H     1 <1>   0.0800 
 28 H        6.3190    -0.7600     0.0160 H     1 <1>   0.0800 
 29 H        5.3400     0.5380     0.6500 H     1 <1>   0.0800 
 30 H        5.0680    -3.7270    -0.2110 H     1 <1>   0.0800 
 31 H        6.4200    -2.8070     0.4330 H     1 <1>   0.0800 
 32 H        5.5790    -3.9450     1.4360 H     1 <1>   0.0800 
 33 H        6.2400     1.0300    -1.6050 H     1 <1>   0.0800 
 34 H        5.4180    -0.3550    -2.2600 H     1 <1>   0.0800 
 35 H        4.5060     1.0180    -1.6450 H     1 <1>   0.0800 
 36 H       -6.1400    -3.4150    -0.3910 H     1 <1>   0.0800 
 37 H       -4.6740    -4.0900     0.3080 H     1 <1>   0.0800 
 38 H       -4.7170    -3.6270    -1.4040 H     1 <1>   0.0800 
@<TRIPOS>BOND
  1   1   2  1   
  2   1   3  1   
  3   2   4  ar  
  4   2   5  ar  
  5   3   6  1   
  6   3  17  1   
  7   3  18  1   
  8   4   7  ar  
  9   4  19  1   
 10   5   8  ar  
 11   5  20  1   
 12   6   9  1   
 13   6  21  1   
 14   6  22  1   
 15   7  10  ar  
 16   7  23  1   
 17   8  10  ar  
 18   8  24  1   
 19   9  11  1   
 20   9  12  1   
 21   9  25  1   
 22  10  13  1   
 23  11  14  1   
 24  11  26  1   
 25  11  27  1   
 26  12  15  1   
 27  12  28  1   
 28  12  29  1   
 29  13  16  1   
 30  14  30  1   
 31  14  31  1   
 32  14  32  1   
 33  15  33  1   
 34  15  34  1   
 35  15  35  1   
 36  16  36  1   
 37  16  37  1   
 38  16  38  1   
@<TRIPOS>SUBSTRUCTURE
  1 ****   1 GROUP 4 **** **** 0

# MOE 2024.06 (io_trps.svl 2023.06)
