@<TRIPOS>MOLECULE
NONAME
42 43 1 0 0 
SMALL
USER_CHARGES


@<TRIPOS>ATOM
  1 O       -5.7890     3.2280     0.9500 O.3   1 <1>  -0.3630 
  2 C       -6.3760     2.4900    -0.0300 C.ar  1 <1>   0.0830 
  3 C       -4.5280     3.7940     0.6430 C.3   1 <1>   0.2640 
  4 C       -5.9090     1.2050    -0.3130 C.ar  1 <1>   0.0820 
  5 C       -7.4610     3.0210    -0.7220 C.ar  1 <1>  -0.1440 
  6 C       -4.7900     5.1630     0.0370 C.ar  1 <1>  -0.1440 
  7 O       -4.8470     0.7410     0.4030 O.3   1 <1>  -0.3630 
  8 C       -6.5410     0.4580    -1.3010 C.ar  1 <1>  -0.1500 
  9 C       -8.0780     2.2600    -1.7030 C.ar  1 <1>  -0.1500 
 10 C       -7.9640     4.4220    -0.4300 C.3   1 <1>   0.4870 
 11 C       -4.8350     5.3200    -1.3400 C.ar  1 <1>  -0.1500 
 12 C       -5.0080     6.2590     0.8570 C.ar  1 <1>  -0.1500 
 13 C       -4.3570    -0.5700     0.2360 C.3   1 <1>   0.1200 
 14 C       -7.6200     0.9860    -1.9890 C.ar  1 <1>  -0.1500 
 15 N       -8.2750     4.5000     1.0090 N.4   1 <1>  -0.9060 
 16 C       -5.1130     6.5590    -1.8910 C.ar  1 <1>  -0.1500 
 17 C       -5.2840     7.4990     0.3060 C.ar  1 <1>  -0.1500 
 18 C       -3.1980    -0.7660     1.2070 C.3   1 <1>  -0.2400 
 19 C       -8.5540     5.8840     1.4760 C.3   1 <1>   0.2630 
 20 C       -5.3400     7.6470    -1.0680 C.ar  1 <1>  -0.1500 
 21 H       -3.9940     3.1500    -0.0350 H     1 <1>   0.0800 
 22 H       -3.9700     3.8770     1.5590 H     1 <1>   0.0800 
 23 H       -6.2130    -0.5340    -1.5520 H     1 <1>   0.1500 
 24 H       -8.9180     2.6440    -2.2590 H     1 <1>   0.1500 
 25 H       -8.8430     4.6320    -1.0170 H     1 <1>   0.0800 
 26 H       -7.2020     5.1390    -0.6840 H     1 <1>   0.0800 
 27 H       -4.6540     4.4790    -1.9900 H     1 <1>   0.1500 
 28 H       -4.9550     6.1540     1.9280 H     1 <1>   0.1500 
 29 H       -4.0240    -0.6850    -0.7810 H     1 <1>   0.0800 
 30 H       -5.1530    -1.2630     0.4500 H     1 <1>   0.0800 
 31 H       -8.1030     0.3990    -2.7530 H     1 <1>   0.1500 
 32 H       -7.4260     4.1210     1.4670 H     1 <1>   0.4500 
 33 H       -9.0310     3.8420     1.2280 H     1 <1>   0.4500 
 34 H       -5.1420     6.6780    -2.9620 H     1 <1>   0.1500 
 35 H       -5.4400     8.3530     0.9440 H     1 <1>   0.1500 
 36 H       -2.4120    -0.0630     0.9930 H     1 <1>   0.0800 
 37 H       -2.8040    -1.7610     1.1070 H     1 <1>   0.0800 
 38 H       -3.5360    -0.6310     2.2190 H     1 <1>   0.0800 
 39 H       -7.7200     6.5290     1.2460 H     1 <1>   0.0800 
 40 H       -8.7110     5.8930     2.5430 H     1 <1>   0.0800 
 41 H       -9.4360     6.2730     0.9940 H     1 <1>   0.0800 
 42 H       -5.5460     8.6130    -1.4990 H     1 <1>   0.1500 
@<TRIPOS>BOND
  1   1   2  1   
  2   1   3  1   
  3   2   4  ar  
  4   2   5  ar  
  5   3   6  1   
  6   3  21  1   
  7   3  22  1   
  8   4   7  1   
  9   4   8  ar  
 10   5   9  ar  
 11   5  10  1   
 12   6  11  ar  
 13   6  12  ar  
 14   7  13  1   
 15   8  14  ar  
 16   8  23  1   
 17   9  14  ar  
 18   9  24  1   
 19  10  15  1   
 20  10  25  1   
 21  10  26  1   
 22  11  16  ar  
 23  11  27  1   
 24  12  17  ar  
 25  12  28  1   
 26  13  18  1   
 27  13  29  1   
 28  13  30  1   
 29  14  31  1   
 30  15  19  1   
 31  15  32  1   
 32  15  33  1   
 33  16  20  ar  
 34  16  34  1   
 35  17  20  ar  
 36  17  35  1   
 37  18  36  1   
 38  18  37  1   
 39  18  38  1   
 40  19  39  1   
 41  19  40  1   
 42  19  41  1   
 43  20  42  1   
@<TRIPOS>SUBSTRUCTURE
  1 ****   2 GROUP 4 **** **** 0

# MOE 2024.06 (io_trps.svl 2023.06)
