@<TRIPOS>MOLECULE
NONAME
39 40 1 0 0 
SMALL
USER_CHARGES


@<TRIPOS>ATOM
  1 I       -0.2230    -0.1030    -1.6840 I     1 <1>  -0.0810 
  2 C       -0.0900     1.8980    -0.9060 C.ar  1 <1>   0.0810 
  3 C        1.1590     2.5050    -0.8340 C.ar  1 <1>   0.0820 
  4 C       -1.2520     2.5360    -0.4950 C.ar  1 <1>   0.0820 
  5 O        2.2570     1.8420    -1.2580 O.3   1 <1>  -0.2330 
  6 C        1.2800     3.8070    -0.3240 C.ar  1 <1>   0.0280 
  7 O       -2.4400     1.8880    -0.5900 O.3   1 <1>  -0.3630 
  8 C       -1.1350     3.8330     0.0030 C.ar  1 <1>  -0.1500 
  9 C        3.4820     2.3600    -1.2370 C.2   1 <1>   0.7060 
 10 C        2.5930     4.4000    -0.2570 C.2   1 <1>  -0.1670 
 11 C        0.1000     4.4460     0.0820 C.ar  1 <1>  -0.1500 
 12 C       -3.6440     2.4360    -0.1020 C.3   1 <1>   0.1200 
 13 O        4.3840     1.6600    -1.6570 O.2   1 <1>  -0.5700 
 14 C        3.6600     3.6940    -0.7240 C.2   1 <1>  -0.1240 
 15 C        2.7000     5.7990     0.3560 C.3   1 <1>  -0.1020 
 16 C       -4.7700     1.4160    -0.2970 C.3   1 <1>  -0.1600 
 17 C        5.0970     4.2300    -0.7440 C.3   1 <1>  -0.0220 
 18 C       -4.5160     0.1040     0.4610 C.3   1 <1>  -0.1600 
 19 C        5.8270     3.8810     0.5560 C.3   1 <1>  -0.2400 
 20 C       -5.6820    -0.8720     0.2810 C.3   1 <1>  -0.2400 
 21 H       -2.0010     4.3770     0.3300 H     1 <1>   0.1500 
 22 H        0.1350     5.4470     0.4690 H     1 <1>   0.1500 
 23 H       -3.8530     3.3360    -0.6530 H     1 <1>   0.0800 
 24 H       -3.5170     2.6610     0.9430 H     1 <1>   0.0800 
 25 H        2.2040     6.5150    -0.2760 H     1 <1>   0.0800 
 26 H        3.7120     6.1240     0.4970 H     1 <1>   0.0800 
 27 H        2.2370     5.8090     1.3260 H     1 <1>   0.0800 
 28 H       -4.8810     1.2160    -1.3490 H     1 <1>   0.0800 
 29 H       -5.6890     1.8530     0.0510 H     1 <1>   0.0800 
 30 H        5.1100     5.2930    -0.8960 H     1 <1>   0.0800 
 31 H        5.6380     3.8100    -1.5760 H     1 <1>   0.0800 
 32 H       -4.3830     0.3110     1.5090 H     1 <1>   0.0800 
 33 H       -3.6120    -0.3560     0.0970 H     1 <1>   0.0800 
 34 H        5.3140     4.3010     1.4020 H     1 <1>   0.0800 
 35 H        6.8310     4.2680     0.5310 H     1 <1>   0.0800 
 36 H        5.8760     2.8120     0.6770 H     1 <1>   0.0800 
 37 H       -6.5940    -0.4460     0.6600 H     1 <1>   0.0800 
 38 H       -5.4820    -1.7840     0.8150 H     1 <1>   0.0800 
 39 H       -5.8140    -1.1090    -0.7600 H     1 <1>   0.0800 
@<TRIPOS>BOND
  1   1   2  1   
  2   2   3  ar  
  3   2   4  ar  
  4   3   5  1   
  5   3   6  ar  
  6   4   7  1   
  7   4   8  ar  
  8   5   9  1   
  9   6  10  1   
 10   6  11  ar  
 11   7  12  1   
 12   8  11  ar  
 13   8  21  1   
 14   9  13  2   
 15   9  14  1   
 16  10  14  2   
 17  10  15  1   
 18  11  22  1   
 19  12  16  1   
 20  12  23  1   
 21  12  24  1   
 22  14  17  1   
 23  15  25  1   
 24  15  26  1   
 25  15  27  1   
 26  16  18  1   
 27  16  28  1   
 28  16  29  1   
 29  17  19  1   
 30  17  30  1   
 31  17  31  1   
 32  18  20  1   
 33  18  32  1   
 34  18  33  1   
 35  19  34  1   
 36  19  35  1   
 37  19  36  1   
 38  20  37  1   
 39  20  38  1   
 40  20  39  1   
@<TRIPOS>SUBSTRUCTURE
  1 ****   3 GROUP 4 **** **** 0

# MOE 2024.06 (io_trps.svl 2023.06)
