@<TRIPOS>MOLECULE
NONAME
47 50 1 0 0 
SMALL
USER_CHARGES


@<TRIPOS>ATOM
  1 N       -0.0030     0.1910     0.0970 N.pl3 1 <1>  -0.8380 
  2 C       -1.2200    -0.4720     0.1880 C.ar  1 <1>   0.1000 
  3 C        0.2220     0.9890    -1.1410 C.3   1 <1>   0.2090 
  4 C        1.1900    -0.5520     0.5920 C.3   1 <1>   0.2090 
  5 C       -2.1640    -0.0480     1.1130 C.ar  1 <1>  -0.1500 
  6 C       -1.5210    -1.5590    -0.6270 C.ar  1 <1>  -0.1500 
  7 C        1.4380     1.9240    -0.9710 C.3   1 <1>   0.3430 
  8 C        2.3970     0.3970     0.7430 C.3   1 <1>   0.3430 
  9 C       -3.3830    -0.6910     1.2250 C.ar  1 <1>  -0.1500 
 10 C       -2.7390    -2.2040    -0.5180 C.ar  1 <1>  -0.1500 
 11 N        2.6820     1.1890    -0.5190 N.4   1 <1>  -0.9590 
 12 C       -3.6720    -1.7710     0.4090 C.ar  1 <1>  -0.1500 
 13 C        3.8560     2.1130    -0.4170 C.3   1 <1>   0.4230 
 14 C        5.1730     1.3280    -0.3810 C.3   1 <1>  -0.0170 
 15 C        3.7650     3.0450     0.7990 C.3   1 <1>  -0.1600 
 16 C        6.3640     2.2520    -0.1860 C.ar  1 <1>  -0.1430 
 17 C        4.8580     4.1160     0.7060 C.3   1 <1>  -0.0170 
 18 C        6.2160     3.5370     0.3280 C.ar  1 <1>  -0.1430 
 19 C        7.6280     1.7880    -0.5200 C.ar  1 <1>  -0.1500 
 20 C        7.3350     4.3360     0.4970 C.ar  1 <1>  -0.1500 
 21 C        8.7390     2.5920    -0.3490 C.ar  1 <1>  -0.1500 
 22 C        8.5920     3.8680     0.1600 C.ar  1 <1>  -0.1500 
 23 H       -0.6570     1.5780    -1.3440 H     1 <1>   0.0800 
 24 H        0.3770     0.3290    -1.9770 H     1 <1>   0.0800 
 25 H        1.4300    -1.3490    -0.0890 H     1 <1>   0.0800 
 26 H        0.9590    -0.9920     1.5480 H     1 <1>   0.0800 
 27 H       -1.9370     0.7900     1.7450 H     1 <1>   0.1500 
 28 H       -0.8030    -1.9000    -1.3470 H     1 <1>   0.1500 
 29 H        1.1760     2.6720    -0.2430 H     1 <1>   0.0800 
 30 H        1.6260     2.4250    -1.9060 H     1 <1>   0.0800 
 31 H        3.2610    -0.1810     1.0220 H     1 <1>   0.0800 
 32 H        2.1800     1.0750     1.5520 H     1 <1>   0.0800 
 33 H       -4.1070    -0.3530     1.9460 H     1 <1>   0.1500 
 34 H       -2.9660    -3.0440    -1.1510 H     1 <1>   0.1500 
 35 H        2.8950     0.5060    -1.2550 H     1 <1>   0.4500 
 36 H       -4.6210    -2.2720     0.4950 H     1 <1>   0.1500 
 37 H        3.8820     2.7320    -1.3000 H     1 <1>   0.0800 
 38 H        5.2950     0.7930    -1.3060 H     1 <1>   0.0800 
 39 H        5.1750     0.6240     0.4310 H     1 <1>   0.0800 
 40 H        3.9200     2.4890     1.7070 H     1 <1>   0.0800 
 41 H        2.8110     3.5360     0.8490 H     1 <1>   0.0800 
 42 H        4.9350     4.6280     1.6500 H     1 <1>   0.0800 
 43 H        4.5860     4.8450    -0.0390 H     1 <1>   0.0800 
 44 H        7.7620     0.7960    -0.9150 H     1 <1>   0.1500 
 45 H        7.2380     5.3330     0.8910 H     1 <1>   0.1500 
 46 H        9.7170     2.2270    -0.6100 H     1 <1>   0.1500 
 47 H        9.4560     4.4970     0.2950 H     1 <1>   0.1500 
@<TRIPOS>BOND
  1   1   2  1   
  2   1   3  1   
  3   1   4  1   
  4   2   5  ar  
  5   2   6  ar  
  6   3   7  1   
  7   3  23  1   
  8   3  24  1   
  9   4   8  1   
 10   4  25  1   
 11   4  26  1   
 12   5   9  ar  
 13   5  27  1   
 14   6  10  ar  
 15   6  28  1   
 16   7  11  1   
 17   7  29  1   
 18   7  30  1   
 19   8  11  1   
 20   8  31  1   
 21   8  32  1   
 22   9  12  ar  
 23   9  33  1   
 24  10  12  ar  
 25  10  34  1   
 26  11  13  1   
 27  11  35  1   
 28  12  36  1   
 29  13  14  1   
 30  13  15  1   
 31  13  37  1   
 32  14  16  1   
 33  14  38  1   
 34  14  39  1   
 35  15  17  1   
 36  15  40  1   
 37  15  41  1   
 38  16  18  ar  
 39  16  19  ar  
 40  17  18  1   
 41  17  42  1   
 42  17  43  1   
 43  18  20  ar  
 44  19  21  ar  
 45  19  44  1   
 46  20  22  ar  
 47  20  45  1   
 48  21  22  ar  
 49  21  46  1   
 50  22  47  1   
@<TRIPOS>SUBSTRUCTURE
  1 ****  11 GROUP 4 **** **** 0

# MOE 2024.06 (io_trps.svl 2023.06)
