@<TRIPOS>MOLECULE
NONAME
47 50 1 0 0 
SMALL
USER_CHARGES


@<TRIPOS>ATOM
  1 O       -0.1420     0.0580    -0.1890 O.2   1 <1>  -0.5700 
  2 C       -0.1180    -1.1100     0.1610 C.2   1 <1>   0.7150 
  3 N        1.0720    -1.6140     0.6550 N.am  1 <1>  -0.6600 
  4 C       -1.3340    -1.8920     0.0450 C.2   1 <1>   0.0550 
  5 C        1.1710    -2.7740     1.5780 C.3   1 <1>   0.1400 
  6 C        2.3810    -1.0080     0.2970 C.3   1 <1>   0.1400 
  7 O       -1.3160    -3.2280    -0.0320 O.3   1 <1>  -0.2800 
  8 C       -2.6250    -1.4700    -0.0370 C.2   1 <1>  -0.1500 
  9 C        2.0120    -3.8660     0.9150 C.3   1 <1>  -0.1600 
 10 C        3.2580    -2.0730    -0.3680 C.3   1 <1>  -0.1600 
 11 C       -2.5620    -3.6580    -0.1520 C.ar  1 <1>   0.1400 
 12 C       -3.4380    -2.6040    -0.1590 C.ar  1 <1>   0.0000 
 13 C        3.4040    -3.3350     0.5080 C.3   1 <1>  -0.0190 
 14 C       -2.9900    -4.9860    -0.2590 C.ar  1 <1>  -0.1500 
 15 C       -4.8350    -2.8320    -0.2770 C.ar  1 <1>   0.0000 
 16 C        4.2620    -4.3910    -0.1880 C.2   1 <1>   0.6590 
 17 C       -4.3300    -5.2270    -0.3720 C.ar  1 <1>  -0.1500 
 18 C       -5.2790    -4.1690    -0.3830 C.ar  1 <1>   0.0000 
 19 C       -5.7830    -1.7950    -0.2910 C.ar  1 <1>  -0.1500 
 20 O        3.8150    -5.4360    -0.5880 O.2   1 <1>  -0.5700 
 21 O        5.5460    -4.0820    -0.3210 O.3   1 <1>  -0.4300 
 22 C       -6.6600    -4.4100    -0.4990 C.ar  1 <1>  -0.1500 
 23 C       -7.1230    -2.0610    -0.4050 C.ar  1 <1>  -0.1500 
 24 C        6.4510    -4.9590    -0.9490 C.3   1 <1>   0.1200 
 25 C       -7.5650    -3.3810    -0.5090 C.ar  1 <1>  -0.1500 
 26 C        7.8260    -4.2980    -0.9500 C.3   1 <1>  -0.2400 
 27 H        0.1990    -3.1530     1.8370 H     1 <1>   0.0800 
 28 H        1.6460    -2.4530     2.4890 H     1 <1>   0.0800 
 29 H        2.8550    -0.6370     1.1900 H     1 <1>   0.0800 
 30 H        2.2470    -0.1800    -0.3790 H     1 <1>   0.0800 
 31 H       -2.9750    -0.4540    -0.0180 H     1 <1>   0.1500 
 32 H        1.4870    -4.2280     0.0470 H     1 <1>   0.0800 
 33 H        2.1240    -4.6920     1.5950 H     1 <1>   0.0800 
 34 H        4.2290    -1.6530    -0.5660 H     1 <1>   0.0800 
 35 H        2.8200    -2.3390    -1.3150 H     1 <1>   0.0800 
 36 H        3.9250    -3.0580     1.4060 H     1 <1>   0.0800 
 37 H       -2.2560    -5.7720    -0.2500 H     1 <1>   0.1500 
 38 H       -4.6940    -6.2350    -0.4570 H     1 <1>   0.1500 
 39 H       -5.4400    -0.7800    -0.2110 H     1 <1>   0.1500 
 40 H       -7.0010    -5.4270    -0.5800 H     1 <1>   0.1500 
 41 H       -7.8440    -1.2620    -0.4150 H     1 <1>   0.1500 
 42 H        6.1080    -5.1410    -1.9540 H     1 <1>   0.0800 
 43 H        6.4660    -5.8850    -0.4000 H     1 <1>   0.0800 
 44 H       -8.6200    -3.5770    -0.5980 H     1 <1>   0.1500 
 45 H        7.7910    -3.3690    -1.4920 H     1 <1>   0.0800 
 46 H        8.5380    -4.9460    -1.4270 H     1 <1>   0.0800 
 47 H        8.1510    -4.1150     0.0580 H     1 <1>   0.0800 
@<TRIPOS>BOND
  1   1   2  2   
  2   2   3  am  
  3   2   4  1   
  4   3   5  1   
  5   3   6  1   
  6   4   7  1   
  7   4   8  2   
  8   5   9  1   
  9   5  27  1   
 10   5  28  1   
 11   6  10  1   
 12   6  29  1   
 13   6  30  1   
 14   7  11  1   
 15   8  12  1   
 16   8  31  1   
 17   9  13  1   
 18   9  32  1   
 19   9  33  1   
 20  10  13  1   
 21  10  34  1   
 22  10  35  1   
 23  11  12  ar  
 24  11  14  ar  
 25  12  15  ar  
 26  13  16  1   
 27  13  36  1   
 28  14  17  ar  
 29  14  37  1   
 30  15  18  ar  
 31  15  19  ar  
 32  16  20  2   
 33  16  21  1   
 34  17  18  ar  
 35  17  38  1   
 36  18  22  ar  
 37  19  23  ar  
 38  19  39  1   
 39  21  24  1   
 40  22  25  ar  
 41  22  40  1   
 42  23  25  ar  
 43  23  41  1   
 44  24  26  1   
 45  24  42  1   
 46  24  43  1   
 47  25  44  1   
 48  26  45  1   
 49  26  46  1   
 50  26  47  1   
@<TRIPOS>SUBSTRUCTURE
  1 ****   7 GROUP 4 **** **** 0

# MOE 2024.06 (io_trps.svl 2023.06)
