@<TRIPOS>MOLECULE
NONAME
47 48 1 0 0 
SMALL
USER_CHARGES


@<TRIPOS>ATOM
  1 O       -0.9870    -0.4360     0.1760 O.2   1 <1>  -0.5700 
  2 C       -0.3710    -1.2650     0.8170 C.2   1 <1>   0.6900 
  3 N        0.9240    -1.5760     0.5590 N.am  1 <1>  -0.5470 
  4 N       -1.0140    -1.9550     1.7900 N.am  1 <1>  -0.7300 
  5 C        1.8200    -1.1130    -0.4200 C.ar  1 <1>   0.1170 
  6 C       -2.3770    -1.6410     2.3150 C.3   1 <1>   0.1400 
  7 C        2.8840    -1.9460    -0.7840 C.ar  1 <1>   0.0830 
  8 C        1.7030     0.1330    -1.0260 C.ar  1 <1>  -0.1500 
  9 C       -3.4960    -2.2160     1.4200 C.3   1 <1>   0.3430 
 10 O        2.9720    -3.1530    -0.1480 O.3   1 <1>  -0.3630 
 11 C        3.7910    -1.5310    -1.7540 C.ar  1 <1>  -0.1500 
 12 C        2.6090     0.5400    -1.9880 C.ar  1 <1>  -0.1500 
 13 N       -3.4720    -1.6160     0.0540 N.4   1 <1>  -0.9590 
 14 C        4.0340    -4.0410    -0.4150 C.3   1 <1>   0.1200 
 15 C        3.6510    -0.2910    -2.3540 C.ar  1 <1>  -0.1500 
 16 C       -4.2680    -0.3620    -0.0440 C.3   1 <1>   0.3430 
 17 C       -3.7970    -2.5980    -1.0140 C.3   1 <1>   0.3430 
 18 C        3.8590    -5.2690     0.4740 C.3   1 <1>  -0.2400 
 19 C       -4.0240     0.2980    -1.4020 C.3   1 <1>  -0.1600 
 20 C       -3.5350    -1.9680    -2.3830 C.3   1 <1>  -0.1600 
 21 C       -4.3140    -0.6590    -2.5660 C.3   1 <1>  -0.1600 
 22 H        1.2760    -2.4200     1.0080 H     1 <1>   0.3700 
 23 H       -0.4290    -2.5220     2.4080 H     1 <1>   0.3700 
 24 H       -2.4920    -0.5740     2.4010 H     1 <1>   0.0800 
 25 H       -2.4710    -2.0590     3.3030 H     1 <1>   0.0800 
 26 H        0.9060     0.7970    -0.7480 H     1 <1>   0.1500 
 27 H       -4.4550    -2.0410     1.8770 H     1 <1>   0.0800 
 28 H       -3.3530    -3.2820     1.3520 H     1 <1>   0.0800 
 29 H        4.6130    -2.1500    -2.0590 H     1 <1>   0.1500 
 30 H        2.5030     1.5070    -2.4510 H     1 <1>   0.1500 
 31 H       -2.4860    -1.3130    -0.1060 H     1 <1>   0.4500 
 32 H        4.9620    -3.5420    -0.1940 H     1 <1>   0.0800 
 33 H        3.9950    -4.3170    -1.4550 H     1 <1>   0.0800 
 34 H        4.3530     0.0280    -3.1050 H     1 <1>   0.1500 
 35 H       -3.9750     0.3210     0.7370 H     1 <1>   0.0800 
 36 H       -5.3170    -0.5840     0.0660 H     1 <1>   0.0800 
 37 H       -4.8320    -2.8880    -0.9420 H     1 <1>   0.0800 
 38 H       -3.1840    -3.4780    -0.9040 H     1 <1>   0.0800 
 39 H        3.8840    -4.9830     1.5100 H     1 <1>   0.0800 
 40 H        4.6580    -5.9640     0.2920 H     1 <1>   0.0800 
 41 H        2.9260    -5.7560     0.2550 H     1 <1>   0.0800 
 42 H       -3.0010     0.6320    -1.4510 H     1 <1>   0.0800 
 43 H       -4.6500     1.1690    -1.4900 H     1 <1>   0.0800 
 44 H       -3.8180    -2.6640    -3.1530 H     1 <1>   0.0800 
 45 H       -2.4790    -1.7820    -2.4890 H     1 <1>   0.0800 
 46 H       -4.0350    -0.1950    -3.4970 H     1 <1>   0.0800 
 47 H       -5.3700    -0.8700    -2.6060 H     1 <1>   0.0800 
@<TRIPOS>BOND
  1   1   2  2   
  2   2   3  am  
  3   2   4  am  
  4   3   5  1   
  5   3  22  1   
  6   4   6  1   
  7   4  23  1   
  8   5   7  ar  
  9   5   8  ar  
 10   6   9  1   
 11   6  24  1   
 12   6  25  1   
 13   7  10  1   
 14   7  11  ar  
 15   8  12  ar  
 16   8  26  1   
 17   9  13  1   
 18   9  27  1   
 19   9  28  1   
 20  10  14  1   
 21  11  15  ar  
 22  11  29  1   
 23  12  15  ar  
 24  12  30  1   
 25  13  16  1   
 26  13  17  1   
 27  13  31  1   
 28  14  18  1   
 29  14  32  1   
 30  14  33  1   
 31  15  34  1   
 32  16  19  1   
 33  16  35  1   
 34  16  36  1   
 35  17  20  1   
 36  17  37  1   
 37  17  38  1   
 38  18  39  1   
 39  18  40  1   
 40  18  41  1   
 41  19  21  1   
 42  19  42  1   
 43  19  43  1   
 44  20  21  1   
 45  20  44  1   
 46  20  45  1   
 47  21  46  1   
 48  21  47  1   
@<TRIPOS>SUBSTRUCTURE
  1 ****   2 GROUP 4 **** **** 0

# MOE 2024.06 (io_trps.svl 2023.06)
