@<TRIPOS>MOLECULE
NONAME
26 27 1 0 0 
SMALL
USER_CHARGES


@<TRIPOS>ATOM
  1 S       -1.1120     0.3080    -1.5060 S.3   1 <1>  -0.0800 
  2 C        0.4270     1.0900    -1.3840 C.2   1 <1>   0.4620 
  3 C       -1.2730     0.5480     0.2030 C.2   1 <1>   0.1980 
  4 N        0.7110     1.4500    -0.1850 N.2   1 <1>  -0.3380 
  5 N        1.1740     1.2520    -2.5100 N.pl3 1 <1>  -0.8840 
  6 N       -0.2680     1.1350     0.7170 N.2   1 <1>  -0.3380 
  7 C       -2.5400     0.0550     0.8790 C.3   1 <1>   0.1580 
  8 C       -3.7820     0.7820     0.3700 C.2   1 <1>  -0.2760 
  9 C       -4.7960     0.1610    -0.2440 C.2   1 <1>  -0.2880 
 10 C       -3.7670     2.2890     0.6170 C.3   1 <1>  -0.0220 
 11 C       -6.0300     0.8640    -0.7850 C.3   1 <1>  -0.0220 
 12 C       -5.1570     2.9130     0.4170 C.3   1 <1>  -0.1600 
 13 C       -5.8220     2.3840    -0.8600 C.3   1 <1>  -0.1600 
 14 H        2.0790     1.7230    -2.4590 H     1 <1>   0.4000 
 15 H        0.8550     0.9480    -3.4290 H     1 <1>   0.4000 
 16 H       -2.4500     0.2020     1.9400 H     1 <1>   0.0800 
 17 H       -2.6330    -1.0010     0.7020 H     1 <1>   0.0800 
 18 H       -4.8230    -0.9030    -0.4080 H     1 <1>   0.1500 
 19 H       -3.0690     2.7480    -0.0620 H     1 <1>   0.0800 
 20 H       -3.4370     2.4980     1.6200 H     1 <1>   0.0800 
 21 H       -6.8640     0.6420    -0.1430 H     1 <1>   0.0800 
 22 H       -6.2560     0.4930    -1.7690 H     1 <1>   0.0800 
 23 H       -5.0660     3.9840     0.3690 H     1 <1>   0.0800 
 24 H       -5.7760     2.6690     1.2620 H     1 <1>   0.0800 
 25 H       -6.7690     2.8700    -1.0120 H     1 <1>   0.0800 
 26 H       -5.1910     2.6110    -1.7020 H     1 <1>   0.0800 
@<TRIPOS>BOND
  1   1   2  1   
  2   1   3  1   
  3   2   4  2   
  4   2   5  1   
  5   3   6  2   
  6   3   7  1   
  7   4   6  1   
  8   5  14  1   
  9   5  15  1   
 10   7   8  1   
 11   7  16  1   
 12   7  17  1   
 13   8   9  2   
 14   8  10  1   
 15   9  11  1   
 16   9  18  1   
 17  10  12  1   
 18  10  19  1   
 19  10  20  1   
 20  11  13  1   
 21  11  21  1   
 22  11  22  1   
 23  12  13  1   
 24  12  23  1   
 25  12  24  1   
 26  13  25  1   
 27  13  26  1   
@<TRIPOS>SUBSTRUCTURE
  1 ****   3 GROUP 4 **** **** 0

# MOE 2024.06 (io_trps.svl 2023.06)
