@<TRIPOS>MOLECULE
NONAME
45 47 1 0 0 
SMALL
USER_CHARGES


@<TRIPOS>ATOM
  1 O       -0.7670     1.2640     3.3190 O.co2 1 <1>  -0.9000 
  2 C       -0.2650     1.5180     2.2170 C.2   1 <1>   0.9060 
  3 O        0.7500     0.9380     1.8260 O.co2 1 <1>  -0.9000 
  4 C       -0.9870     2.5290     1.3340 C.3   1 <1>  -0.1860 
  5 C       -2.3190     1.9610     0.4470 C.3   1 <1>  -0.0190 
  6 C        0.0350     3.2620     0.2780 C.3   1 <1>  -0.0800 
  7 C       -2.9200     0.5680     0.7110 C.2   1 <1>   0.5690 
  8 C       -1.9630     2.1920    -1.1410 C.3   1 <1>  -0.0800 
  9 C       -0.9770     2.7460    -0.4250 C.3   1 <1>  -0.1600 
 10 C        0.3480     3.5140    -1.3060 C.3   1 <1>  -0.1600 
 11 O       -3.7150     0.1320    -0.0920 O.2   1 <1>  -0.5700 
 12 N       -2.6170    -0.1200     1.8360 N.am  1 <1>  -0.7300 
 13 C       -0.9610     2.9540    -2.1800 C.3   1 <1>  -0.1600 
 14 C       -2.6440    -1.5720     2.0120 C.3   1 <1>   0.3640 
 15 C       -1.9460    -2.2640     0.8340 C.ar  1 <1>  -0.1430 
 16 C       -4.0790    -2.0160     2.2940 C.3   1 <1>  -0.2400 
 17 C       -2.6180    -3.0270    -0.1150 C.ar  1 <1>  -0.1500 
 18 C       -0.5730    -2.1080     0.7070 C.ar  1 <1>  -0.1500 
 19 C       -1.9320    -3.6340    -1.1530 C.ar  1 <1>  -0.1500 
 20 C        0.1160    -2.7120    -0.3290 C.ar  1 <1>  -0.1500 
 21 C       -0.5540    -3.4820    -1.2650 C.ar  1 <1>   0.0830 
 22 O        0.1910    -4.0440    -2.2510 O.3   1 <1>  -0.3630 
 23 C       -0.4180    -4.7320    -3.3190 C.3   1 <1>   0.0400 
 24 H       -1.3530     3.2690     2.0250 H     1 <1>   0.0800 
 25 H       -3.1400     2.6200     0.6860 H     1 <1>   0.0800 
 26 H        0.0150     4.2770     0.6480 H     1 <1>   0.0800 
 27 H       -1.8850     1.1730    -1.5030 H     1 <1>   0.0800 
 28 H       -0.3860     1.7290    -0.4970 H     1 <1>   0.0800 
 29 H       -1.5620     3.7600    -0.3380 H     1 <1>   0.0800 
 30 H        1.2390     2.9720    -1.5870 H     1 <1>   0.0800 
 31 H        0.5220     4.5590    -1.5070 H     1 <1>   0.0800 
 32 H       -1.9680     0.3320     2.5090 H     1 <1>   0.3700 
 33 H       -1.4740     3.7770    -2.6540 H     1 <1>   0.0800 
 34 H       -0.6330     2.2820    -2.9570 H     1 <1>   0.0800 
 35 H       -2.0610    -1.7910     2.8910 H     1 <1>   0.0800 
 36 H       -4.7220    -1.7590     1.4720 H     1 <1>   0.0800 
 37 H       -4.4370    -1.5310     3.1830 H     1 <1>   0.0800 
 38 H       -4.1080    -3.0790     2.4450 H     1 <1>   0.0800 
 39 H       -3.6840    -3.1450    -0.0620 H     1 <1>   0.1500 
 40 H       -0.0320    -1.4960     1.4140 H     1 <1>   0.1500 
 41 H       -2.4890    -4.2130    -1.8620 H     1 <1>   0.1500 
 42 H        1.1780    -2.5750    -0.4140 H     1 <1>   0.1500 
 43 H        0.3530    -5.0420    -4.0000 H     1 <1>   0.0800 
 44 H       -1.1010    -4.0660    -3.8170 H     1 <1>   0.0800 
 45 H       -0.9320    -5.5930    -2.9310 H     1 <1>   0.0800 
@<TRIPOS>BOND
  1   1   2  ar  
  2   2   3  ar  
  3   2   4  1   
  4   4   5  1   
  5   4   6  1   
  6   4  24  1   
  7   5   7  1   
  8   5   8  1   
  9   5  25  1   
 10   6   9  1   
 11   6  10  1   
 12   6  26  1   
 13   7  11  2   
 14   7  12  am  
 15   8   9  1   
 16   8  13  1   
 17   8  27  1   
 18   9  28  1   
 19   9  29  1   
 20  10  13  1   
 21  10  30  1   
 22  10  31  1   
 23  12  14  1   
 24  12  32  1   
 25  13  33  1   
 26  13  34  1   
 27  14  15  1   
 28  14  16  1   
 29  14  35  1   
 30  15  17  ar  
 31  15  18  ar  
 32  16  36  1   
 33  16  37  1   
 34  16  38  1   
 35  17  19  ar  
 36  17  39  1   
 37  18  20  ar  
 38  18  40  1   
 39  19  21  ar  
 40  19  41  1   
 41  20  21  ar  
 42  20  42  1   
 43  21  22  1   
 44  22  23  1   
 45  23  43  1   
 46  23  44  1   
 47  23  45  1   
@<TRIPOS>SUBSTRUCTURE
  1 ****   7 GROUP 4 **** **** 0

# MOE 2024.06 (io_trps.svl 2023.06)
