@<TRIPOS>MOLECULE
NONAME
54 56 1 0 0 
SMALL
USER_CHARGES


@<TRIPOS>ATOM
  1 O       -1.9140    -0.1240    -1.2650 O.3   1 <1>  -0.3630 
  2 C       -2.3340     0.8880    -0.4530 C.ar  1 <1>   0.0830 
  3 C       -0.6070    -0.1900    -1.7950 C.3   1 <1>   0.0400 
  4 C       -1.7340     2.1500    -0.2960 C.ar  1 <1>   0.0830 
  5 C       -3.4780     0.5850     0.2640 C.ar  1 <1>  -0.1500 
  6 O       -0.6190     2.4760    -1.0120 O.3   1 <1>  -0.3630 
  7 C       -2.3090     3.0590     0.5900 C.ar  1 <1>  -0.1500 
  8 C       -4.0540     1.5000     1.1300 C.ar  1 <1>  -0.1430 
  9 C        0.0910     3.6800    -0.8140 C.3   1 <1>   0.0400 
 10 C       -3.4560     2.7390     1.2950 C.ar  1 <1>  -0.1500 
 11 C       -5.3280     1.1490     1.8710 C.3   1 <1>   0.4860 
 12 N       -6.4290     1.0230     0.8800 N.4   1 <1>  -0.9590 
 13 C       -6.6600     2.3140     0.1280 C.3   1 <1>   0.3430 
 14 C       -7.7040     0.5260     1.5110 C.3   1 <1>   0.3430 
 15 C       -7.7970     2.2100    -0.9100 C.3   1 <1>   0.2090 
 16 C       -8.8440     0.3560     0.4850 C.3   1 <1>   0.2090 
 17 N       -9.0260     1.5900    -0.3310 N.pl3 1 <1>  -0.8380 
 18 C      -10.1160     2.4040    -0.0190 C.ar  1 <1>   0.1000 
 19 C      -11.3680     2.2060    -0.6110 C.ar  1 <1>  -0.1430 
 20 C       -9.9610     3.4200     0.9180 C.ar  1 <1>  -0.1500 
 21 C      -12.4430     3.0100    -0.2380 C.ar  1 <1>  -0.1430 
 22 C      -11.5540     1.1090    -1.6610 C.3   1 <1>  -0.0970 
 23 C      -11.0240     4.2230     1.2750 C.ar  1 <1>  -0.1500 
 24 C      -12.2620     4.0150     0.6990 C.ar  1 <1>  -0.1500 
 25 C      -13.8360     2.8270    -0.8270 C.3   1 <1>  -0.0970 
 26 H       -0.4630    -1.1690    -2.2130 H     1 <1>   0.0800 
 27 H        0.1020    -0.0200    -1.0030 H     1 <1>   0.0800 
 28 H       -0.5060     0.5520    -2.5660 H     1 <1>   0.0800 
 29 H       -3.9030    -0.3940     0.1250 H     1 <1>   0.1500 
 30 H       -1.8780     4.0300     0.7460 H     1 <1>   0.1500 
 31 H        0.9510     3.6700    -1.4590 H     1 <1>   0.0800 
 32 H        0.4070     3.7360     0.2130 H     1 <1>   0.0800 
 33 H       -0.5450     4.5080    -1.0710 H     1 <1>   0.0800 
 34 H       -3.8700     3.4690     1.9710 H     1 <1>   0.1500 
 35 H       -5.5590     1.9150     2.5930 H     1 <1>   0.0800 
 36 H       -5.1880     0.2160     2.3940 H     1 <1>   0.0800 
 37 H       -6.1260     0.3350     0.1800 H     1 <1>   0.4500 
 38 H       -5.7560     2.6110    -0.3800 H     1 <1>   0.0800 
 39 H       -6.9140     3.0940     0.8250 H     1 <1>   0.0800 
 40 H       -8.0350     1.2270     2.2580 H     1 <1>   0.0800 
 41 H       -7.5320    -0.4200     1.9970 H     1 <1>   0.0800 
 42 H       -7.4700     1.6200    -1.7480 H     1 <1>   0.0800 
 43 H       -8.0340     3.1930    -1.2830 H     1 <1>   0.0800 
 44 H       -9.7610     0.1330     1.0040 H     1 <1>   0.0800 
 45 H       -8.6300    -0.4700    -0.1700 H     1 <1>   0.0800 
 46 H       -9.0090     3.5860     1.3780 H     1 <1>   0.1500 
 47 H      -10.6300     0.8800    -2.1570 H     1 <1>   0.0800 
 48 H      -12.2470     1.4150    -2.4220 H     1 <1>   0.0800 
 49 H      -11.9240     0.2170    -1.1910 H     1 <1>   0.0800 
 50 H      -10.8970     5.0090     1.9990 H     1 <1>   0.1500 
 51 H      -13.0850     4.6450     0.9870 H     1 <1>   0.1500 
 52 H      -14.1310     1.7940    -0.7750 H     1 <1>   0.0800 
 53 H      -13.8440     3.1460    -1.8540 H     1 <1>   0.0800 
 54 H      -14.5630     3.4060    -0.2870 H     1 <1>   0.0800 
@<TRIPOS>BOND
  1   1   2  1   
  2   1   3  1   
  3   2   4  ar  
  4   2   5  ar  
  5   3  26  1   
  6   3  27  1   
  7   3  28  1   
  8   4   6  1   
  9   4   7  ar  
 10   5   8  ar  
 11   5  29  1   
 12   6   9  1   
 13   7  10  ar  
 14   7  30  1   
 15   8  10  ar  
 16   8  11  1   
 17   9  31  1   
 18   9  32  1   
 19   9  33  1   
 20  10  34  1   
 21  11  12  1   
 22  11  35  1   
 23  11  36  1   
 24  12  13  1   
 25  12  14  1   
 26  12  37  1   
 27  13  15  1   
 28  13  38  1   
 29  13  39  1   
 30  14  16  1   
 31  14  40  1   
 32  14  41  1   
 33  15  17  1   
 34  15  42  1   
 35  15  43  1   
 36  16  17  1   
 37  16  44  1   
 38  16  45  1   
 39  17  18  1   
 40  18  19  ar  
 41  18  20  ar  
 42  19  21  ar  
 43  19  22  1   
 44  20  23  ar  
 45  20  46  1   
 46  21  24  ar  
 47  21  25  1   
 48  22  47  1   
 49  22  48  1   
 50  22  49  1   
 51  23  24  ar  
 52  23  50  1   
 53  24  51  1   
 54  25  52  1   
 55  25  53  1   
 56  25  54  1   
@<TRIPOS>SUBSTRUCTURE
  1 ****  13 GROUP 4 **** **** 0

# MOE 2024.06 (io_trps.svl 2023.06)
