@<TRIPOS>MOLECULE
NONAME
50 51 1 0 0 
SMALL
USER_CHARGES


@<TRIPOS>ATOM
  1 O        0.8360    -0.8310     1.4440 O.2   1 <1>  -0.5700 
  2 C        1.4880    -0.8510     0.4290 C.2   1 <1>   0.5690 
  3 N        2.0710     0.2590    -0.0860 N.am  1 <1>  -0.7300 
  4 C        1.6560    -2.1850    -0.2940 C.3   1 <1>  -0.0190 
  5 C        1.9890     1.6010     0.5040 C.3   1 <1>   0.2200 
  6 C        0.2880    -2.7320    -0.7450 C.3   1 <1>  -0.1600 
  7 C        2.3730    -3.2070     0.6120 C.3   1 <1>  -0.1600 
  8 C        1.3160     2.5240    -0.5050 C.3   1 <1>  -0.2400 
  9 C        3.4040     2.0670     0.8260 C.3   1 <1>  -0.2400 
 10 C        0.3920    -4.1380    -1.3310 C.3   1 <1>   0.3430 
 11 C        2.4190    -4.6010    -0.0080 C.3   1 <1>   0.3430 
 12 N        1.0340    -5.0400    -0.3340 N.4   1 <1>  -0.9590 
 13 C        1.0010    -6.4620    -0.7790 C.3   1 <1>   0.3430 
 14 C       -0.0850    -7.2490    -0.0270 C.3   1 <1>  -0.0800 
 15 C       -0.0240    -8.7260    -0.4580 C.3   1 <1>  -0.1600 
 16 C       -1.5060    -6.6860    -0.2480 C.3   1 <1>  -0.1600 
 17 C       -1.0810    -9.5700     0.2670 C.3   1 <1>  -0.1600 
 18 C       -2.5640    -7.5330     0.4710 C.3   1 <1>  -0.1600 
 19 C       -2.4870    -9.0030     0.0440 C.3   1 <1>  -0.1600 
 20 H        2.6170     0.2170    -0.9450 H     1 <1>   0.3700 
 21 H        2.2620    -2.0240    -1.1680 H     1 <1>   0.0800 
 22 H        1.4040     1.5710     1.4110 H     1 <1>   0.0800 
 23 H       -0.1340    -2.0710    -1.4830 H     1 <1>   0.0800 
 24 H       -0.3940    -2.7510     0.0880 H     1 <1>   0.0800 
 25 H        1.8740    -3.2650     1.5650 H     1 <1>   0.0800 
 26 H        3.3770    -2.8700     0.8010 H     1 <1>   0.0800 
 27 H        1.8830     2.5780    -1.4170 H     1 <1>   0.0800 
 28 H        1.2370     3.5150    -0.0940 H     1 <1>   0.0800 
 29 H        0.3230     2.1720    -0.7190 H     1 <1>   0.0800 
 30 H        4.0070     2.1120    -0.0620 H     1 <1>   0.0800 
 31 H        3.8580     1.3970     1.5350 H     1 <1>   0.0800 
 32 H        3.3720     3.0470     1.2670 H     1 <1>   0.0800 
 33 H        0.9780    -4.1130    -2.2360 H     1 <1>   0.0800 
 34 H       -0.5950    -4.4970    -1.5760 H     1 <1>   0.0800 
 35 H        2.8700    -5.2880     0.6910 H     1 <1>   0.0800 
 36 H        3.0190    -4.5830    -0.9040 H     1 <1>   0.0800 
 37 H        0.4840    -4.9780     0.5340 H     1 <1>   0.4500 
 38 H        1.9530    -6.9280    -0.5820 H     1 <1>   0.0800 
 39 H        0.8190    -6.5180    -1.8400 H     1 <1>   0.0800 
 40 H        0.1410    -7.2110     1.0250 H     1 <1>   0.0800 
 41 H        0.9490    -9.1350    -0.2430 H     1 <1>   0.0800 
 42 H       -0.1890    -8.8060    -1.5190 H     1 <1>   0.0800 
 43 H       -1.7320    -6.6730    -1.3010 H     1 <1>   0.0800 
 44 H       -1.5810    -5.6800     0.1240 H     1 <1>   0.0800 
 45 H       -0.8680    -9.5890     1.3220 H     1 <1>   0.0800 
 46 H       -1.0430   -10.5840    -0.0930 H     1 <1>   0.0800 
 47 H       -3.5460    -7.1500     0.2530 H     1 <1>   0.0800 
 48 H       -2.4180    -7.4670     1.5360 H     1 <1>   0.0800 
 49 H       -3.2010    -9.5800     0.6080 H     1 <1>   0.0800 
 50 H       -2.7480    -9.0890    -0.9980 H     1 <1>   0.0800 
@<TRIPOS>BOND
  1   1   2  2   
  2   2   3  am  
  3   2   4  1   
  4   3   5  1   
  5   3  20  1   
  6   4   6  1   
  7   4   7  1   
  8   4  21  1   
  9   5   8  1   
 10   5   9  1   
 11   5  22  1   
 12   6  10  1   
 13   6  23  1   
 14   6  24  1   
 15   7  11  1   
 16   7  25  1   
 17   7  26  1   
 18   8  27  1   
 19   8  28  1   
 20   8  29  1   
 21   9  30  1   
 22   9  31  1   
 23   9  32  1   
 24  10  12  1   
 25  10  33  1   
 26  10  34  1   
 27  11  12  1   
 28  11  35  1   
 29  11  36  1   
 30  12  13  1   
 31  12  37  1   
 32  13  14  1   
 33  13  38  1   
 34  13  39  1   
 35  14  15  1   
 36  14  16  1   
 37  14  40  1   
 38  15  17  1   
 39  15  41  1   
 40  15  42  1   
 41  16  18  1   
 42  16  43  1   
 43  16  44  1   
 44  17  19  1   
 45  17  45  1   
 46  17  46  1   
 47  18  19  1   
 48  18  47  1   
 49  18  48  1   
 50  19  49  1   
 51  19  50  1   
@<TRIPOS>SUBSTRUCTURE
  1 ****  12 GROUP 4 **** **** 0

# MOE 2024.06 (io_trps.svl 2023.06)
