@<TRIPOS>MOLECULE
NONAME
50 52 1 0 0 
SMALL
USER_CHARGES


@<TRIPOS>ATOM
  1 CL       2.3010     2.2040     1.9230 Cl    1 <1>  -0.1770 
  2 C        2.3370     1.3010     0.4280 C.ar  1 <1>   0.1770 
  3 C        1.4740     1.5880    -0.6290 C.ar  1 <1>  -0.1440 
  4 C        3.2770     0.2910     0.3440 C.ar  1 <1>  -0.1500 
  5 C        1.5810     0.8250    -1.7890 C.ar  1 <1>  -0.1500 
  6 C        0.4120     2.6860    -0.5890 C.3   1 <1>   0.7330 
  7 C        3.3600    -0.4440    -0.8200 C.ar  1 <1>   0.1770 
  8 C        2.5210    -0.1880    -1.8880 C.ar  1 <1>  -0.1500 
  9 N        0.9480     4.0680    -0.5100 N.am  1 <1>  -0.6600 
 10 N       -0.4800     2.4850     0.5510 N.pl3 1 <1>  -0.8690 
 11 CL       4.5450    -1.7150    -0.9470 Cl    1 <1>  -0.1770 
 12 C        0.0660     5.0720    -0.1730 C.2   1 <1>   0.5440 
 13 C        2.2630     4.3780    -1.1670 C.3   1 <1>   0.1400 
 14 C       -1.4310     3.4470     0.8410 C.ar  1 <1>   0.1000 
 15 O        0.4050     6.2250    -0.3870 O.2   1 <1>  -0.5700 
 16 C       -1.1940     4.7730     0.4660 C.ar  1 <1>   0.0860 
 17 C        3.3540     4.7790    -0.1490 C.3   1 <1>   0.3430 
 18 C       -2.6080     3.1090     1.4970 C.ar  1 <1>  -0.1500 
 19 C       -2.1690     5.7310     0.7440 C.ar  1 <1>  -0.1500 
 20 N        2.9330     5.9330     0.7110 N.4   1 <1>  -0.9590 
 21 C       -3.5590     4.0720     1.7690 C.ar  1 <1>  -0.1500 
 22 C       -3.3410     5.3870     1.3880 C.ar  1 <1>  -0.1500 
 23 C        3.9080     7.0520     0.7160 C.3   1 <1>   0.3430 
 24 C        2.5470     5.4650     2.0690 C.3   1 <1>   0.3430 
 25 C        3.9010     7.7360    -0.6460 C.3   1 <1>  -0.2400 
 26 C        1.7950     6.5590     2.8200 C.3   1 <1>  -0.2400 
 27 H        3.9330     0.0770     1.1680 H     1 <1>   0.1500 
 28 H        0.9310     1.0060    -2.6310 H     1 <1>   0.1500 
 29 H       -0.1820     2.6180    -1.4870 H     1 <1>   0.0800 
 30 H        2.6070    -0.7800    -2.7830 H     1 <1>   0.1500 
 31 H       -0.7400     1.5040     0.6850 H     1 <1>   0.4000 
 32 H        2.1270     5.1900    -1.8620 H     1 <1>   0.0800 
 33 H        2.6110     3.5400    -1.7420 H     1 <1>   0.0800 
 34 H        4.2460     5.0410    -0.6930 H     1 <1>   0.0800 
 35 H        3.5930     3.9290     0.4680 H     1 <1>   0.0800 
 36 H       -2.7770     2.0910     1.7960 H     1 <1>   0.1500 
 37 H       -2.0010     6.7540     0.4520 H     1 <1>   0.1500 
 38 H        2.0470     6.2880     0.2880 H     1 <1>   0.4500 
 39 H       -4.4710     3.8050     2.2760 H     1 <1>   0.1500 
 40 H       -4.0860     6.1360     1.5980 H     1 <1>   0.1500 
 41 H        4.8950     6.6880     0.9510 H     1 <1>   0.0800 
 42 H        3.6290     7.7780     1.4620 H     1 <1>   0.0800 
 43 H        3.4180     5.1580     2.6260 H     1 <1>   0.0800 
 44 H        1.8880     4.6170     1.9730 H     1 <1>   0.0800 
 45 H        4.2650     7.0860    -1.4200 H     1 <1>   0.0800 
 46 H        4.5440     8.5970    -0.6110 H     1 <1>   0.0800 
 47 H        2.9090     8.0730    -0.8930 H     1 <1>   0.0800 
 48 H        2.4380     7.3800     3.0770 H     1 <1>   0.0800 
 49 H        1.4090     6.1490     3.7360 H     1 <1>   0.0800 
 50 H        0.9610     6.9150     2.2410 H     1 <1>   0.0800 
@<TRIPOS>BOND
  1   1   2  1   
  2   2   3  ar  
  3   2   4  ar  
  4   3   5  ar  
  5   3   6  1   
  6   4   7  ar  
  7   4  27  1   
  8   5   8  ar  
  9   5  28  1   
 10   6   9  1   
 11   6  10  1   
 12   6  29  1   
 13   7   8  ar  
 14   7  11  1   
 15   8  30  1   
 16   9  12  am  
 17   9  13  1   
 18  10  14  1   
 19  10  31  1   
 20  12  15  2   
 21  12  16  1   
 22  13  17  1   
 23  13  32  1   
 24  13  33  1   
 25  14  16  ar  
 26  14  18  ar  
 27  16  19  ar  
 28  17  20  1   
 29  17  34  1   
 30  17  35  1   
 31  18  21  ar  
 32  18  36  1   
 33  19  22  ar  
 34  19  37  1   
 35  20  23  1   
 36  20  24  1   
 37  20  38  1   
 38  21  22  ar  
 39  21  39  1   
 40  22  40  1   
 41  23  25  1   
 42  23  41  1   
 43  23  42  1   
 44  24  26  1   
 45  24  43  1   
 46  24  44  1   
 47  25  45  1   
 48  25  46  1   
 49  25  47  1   
 50  26  48  1   
 51  26  49  1   
 52  26  50  1   
@<TRIPOS>SUBSTRUCTURE
  1 ****   9 GROUP 4 **** **** 0

# MOE 2024.06 (io_trps.svl 2023.06)
