@<TRIPOS>MOLECULE
NONAME
40 41 1 0 0 
SMALL
USER_CHARGES


@<TRIPOS>ATOM
  1 S       -0.1270    -0.2260     0.9340 S.o2  1 <1>   1.4470 
  2 O       -0.3670     1.1120     0.4410 O.2   1 <1>  -0.6500 
  3 O       -0.3960    -0.5420     2.3220 O.2   1 <1>  -0.6500 
  4 N       -1.0020    -1.3540     0.0060 N.am  1 <1>  -0.8490 
  5 C        1.6170    -0.5920     0.5670 C.ar  1 <1>  -0.0090 
  6 C       -2.4800    -1.2730     0.1680 C.3   1 <1>   0.2760 
  7 C       -0.5460    -2.7190     0.3310 C.3   1 <1>   0.1960 
  8 C        2.5310    -0.8730     1.5750 C.ar  1 <1>  -0.1500 
  9 C        2.0840    -0.5980    -0.7400 C.ar  1 <1>  -0.1500 
 10 C       -3.1560    -2.3020    -0.7680 C.3   1 <1>  -0.1600 
 11 C       -3.0410     0.1420    -0.1200 C.3   1 <1>  -0.1600 
 12 C       -1.1310    -3.7420    -0.6390 C.3   1 <1>  -0.1600 
 13 C        3.8540    -1.1600     1.2870 C.ar  1 <1>  -0.1500 
 14 C        3.4050    -0.8870    -1.0300 C.ar  1 <1>  -0.1500 
 15 C       -2.6530    -3.7310    -0.5620 C.3   1 <1>  -0.1600 
 16 C       -4.5720     0.2590    -0.2130 C.3   1 <1>  -0.2400 
 17 C        4.3280    -1.1820    -0.0260 C.ar  1 <1>   0.0860 
 18 C        5.7110    -1.4930    -0.3530 C.2   1 <1>   0.5440 
 19 O        6.1820    -1.2360    -1.4390 O.2   1 <1>  -0.5700 
 20 N        6.5470    -2.0980     0.5230 N.am  1 <1>  -0.8000 
 21 H       -2.7310    -1.5250     1.1870 H     1 <1>   0.0800 
 22 H       -0.8270    -2.9700     1.3420 H     1 <1>   0.0800 
 23 H        0.5240    -2.7920     0.2580 H     1 <1>   0.0800 
 24 H        2.2010    -0.8640     2.6010 H     1 <1>   0.1500 
 25 H        1.3990    -0.3720    -1.5420 H     1 <1>   0.1500 
 26 H       -2.9850    -2.0040    -1.7880 H     1 <1>   0.0800 
 27 H       -4.2170    -2.3120    -0.6020 H     1 <1>   0.0800 
 28 H       -2.6100     0.5150    -1.0330 H     1 <1>   0.0800 
 29 H       -2.7540     0.7950     0.6830 H     1 <1>   0.0800 
 30 H       -0.7640    -4.7230    -0.3930 H     1 <1>   0.0800 
 31 H       -0.8080    -3.5060    -1.6380 H     1 <1>   0.0800 
 32 H        4.5280    -1.3610     2.1000 H     1 <1>   0.1500 
 33 H        3.7360    -0.8820    -2.0560 H     1 <1>   0.1500 
 34 H       -3.0670    -4.3810    -1.3140 H     1 <1>   0.0800 
 35 H       -2.9700    -4.0880     0.4040 H     1 <1>   0.0800 
 36 H       -4.9460    -0.2090    -1.1060 H     1 <1>   0.0800 
 37 H       -4.8510     1.2980    -0.2470 H     1 <1>   0.0800 
 38 H       -5.0390    -0.1880     0.6480 H     1 <1>   0.0800 
 39 H        7.4990    -2.3040     0.2160 H     1 <1>   0.3700 
 40 H        6.2690    -2.4620     1.4310 H     1 <1>   0.3700 
@<TRIPOS>BOND
  1   1   2  2   
  2   1   3  2   
  3   1   4  am  
  4   1   5  1   
  5   4   6  1   
  6   4   7  1   
  7   5   8  ar  
  8   5   9  ar  
  9   6  10  1   
 10   6  11  1   
 11   6  21  1   
 12   7  12  1   
 13   7  22  1   
 14   7  23  1   
 15   8  13  ar  
 16   8  24  1   
 17   9  14  ar  
 18   9  25  1   
 19  10  15  1   
 20  10  26  1   
 21  10  27  1   
 22  11  16  1   
 23  11  28  1   
 24  11  29  1   
 25  12  15  1   
 26  12  30  1   
 27  12  31  1   
 28  13  17  ar  
 29  13  32  1   
 30  14  17  ar  
 31  14  33  1   
 32  15  34  1   
 33  15  35  1   
 34  16  36  1   
 35  16  37  1   
 36  16  38  1   
 37  17  18  1   
 38  18  19  2   
 39  18  20  am  
 40  20  39  1   
 41  20  40  1   
@<TRIPOS>SUBSTRUCTURE
  1 ****   5 GROUP 4 **** **** 0

# MOE 2024.06 (io_trps.svl 2023.06)
