@<TRIPOS>MOLECULE
NONAME
37 39 1 0 0 
SMALL
USER_CHARGES


@<TRIPOS>ATOM
  1 BR       0.3360     1.5220    -0.4020 Br    1 <1>  -0.1110 
  2 C        2.1630     0.9440    -0.2190 C.ar  1 <1>   0.1110 
  3 C        3.1760     1.7950    -0.6160 C.ar  1 <1>  -0.1500 
  4 C        2.4170    -0.3090     0.3030 C.ar  1 <1>  -0.1500 
  5 C        4.4870     1.3720    -0.4810 C.ar  1 <1>  -0.1500 
  6 C        3.7340    -0.7180     0.4310 C.ar  1 <1>  -0.1500 
  7 C        4.7850     0.1130     0.0430 C.ar  1 <1>   0.1170 
  8 N        6.1290    -0.3080     0.1770 N.am  1 <1>  -0.2370 
  9 C        7.1010    -0.1550    -0.7760 C.2   1 <1>   0.5690 
 10 C        6.6610    -0.9360     1.2720 C.2   1 <1>   0.5690 
 11 O        6.9220     0.2140    -1.9110 O.2   1 <1>  -0.5700 
 12 C        8.4710    -0.5850    -0.2320 C.3   1 <1>   0.2510 
 13 O        6.0880    -1.2010     2.2960 O.2   1 <1>  -0.5700 
 14 C        8.1110    -1.2990     1.0720 C.3   1 <1>  -0.0990 
 15 N        9.3810     0.5480     0.0510 N.3   1 <1>  -0.9000 
 16 C       10.7790     0.1700     0.2390 C.3   1 <1>   0.1900 
 17 C       11.5100     1.3330     0.8990 C.3   1 <1>  -0.1600 
 18 C       11.4690     0.0570    -1.1160 C.3   1 <1>  -0.1600 
 19 C       11.8480     2.3110    -0.2320 C.3   1 <1>  -0.1600 
 20 C       11.8150     1.4920    -1.5270 C.3   1 <1>  -0.1600 
 21 H        2.9430     2.7630    -1.0220 H     1 <1>   0.1500 
 22 H        1.6050    -0.9460     0.6040 H     1 <1>   0.1500 
 23 H        5.2850     2.0230    -0.7910 H     1 <1>   0.1500 
 24 H        3.9440    -1.6910     0.8410 H     1 <1>   0.1500 
 25 H        8.9240    -1.2620    -0.9360 H     1 <1>   0.0800 
 26 H        8.1870    -2.3640     0.9550 H     1 <1>   0.0800 
 27 H        8.7000    -0.9780     1.9110 H     1 <1>   0.0800 
 28 H        9.0600     1.0740     0.8710 H     1 <1>   0.3600 
 29 H       10.8660    -0.7310     0.8240 H     1 <1>   0.0800 
 30 H       12.4290     0.9630     1.3180 H     1 <1>   0.0800 
 31 H       10.9370     1.7930     1.6840 H     1 <1>   0.0800 
 32 H       10.8670    -0.4400    -1.8550 H     1 <1>   0.0800 
 33 H       12.3840    -0.4960    -0.9900 H     1 <1>   0.0800 
 34 H       12.8100     2.7680    -0.0760 H     1 <1>   0.0800 
 35 H       11.0980     3.0820    -0.2810 H     1 <1>   0.0800 
 36 H       11.0400     1.8750    -2.1700 H     1 <1>   0.0800 
 37 H       12.7550     1.5320    -2.0500 H     1 <1>   0.0800 
@<TRIPOS>BOND
  1   1   2  1   
  2   2   3  ar  
  3   2   4  ar  
  4   3   5  ar  
  5   3  21  1   
  6   4   6  ar  
  7   4  22  1   
  8   5   7  ar  
  9   5  23  1   
 10   6   7  ar  
 11   6  24  1   
 12   7   8  1   
 13   8   9  am  
 14   8  10  am  
 15   9  11  2   
 16   9  12  1   
 17  10  13  2   
 18  10  14  1   
 19  12  14  1   
 20  12  15  1   
 21  12  25  1   
 22  14  26  1   
 23  14  27  1   
 24  15  16  1   
 25  15  28  1   
 26  16  17  1   
 27  16  18  1   
 28  16  29  1   
 29  17  19  1   
 30  17  30  1   
 31  17  31  1   
 32  18  20  1   
 33  18  32  1   
 34  18  33  1   
 35  19  20  1   
 36  19  34  1   
 37  19  35  1   
 38  20  36  1   
 39  20  37  1   
@<TRIPOS>SUBSTRUCTURE
  1 ****   9 GROUP 4 **** **** 0

# MOE 2024.06 (io_trps.svl 2023.06)
