@<TRIPOS>MOLECULE
NONAME
34 35 1 0 0 
SMALL
USER_CHARGES


@<TRIPOS>ATOM
  1 S        0.1540    -0.0620    -1.2860 S.2   1 <1>  -0.3800 
  2 C        0.9580    -1.3630    -0.7880 C.2   1 <1>   0.5810 
  3 S       -0.0160    -2.8010    -0.4060 S.3   1 <1>  -0.3710 
  4 N        2.3010    -1.4330    -0.6490 N.am  1 <1>  -0.6600 
  5 C       -1.8010    -2.3890    -0.7040 C.3   1 <1>   0.0700 
  6 C        3.2180    -0.2890    -0.9550 C.3   1 <1>   0.1400 
  7 C        3.0610    -2.6420    -0.1920 C.3   1 <1>   0.1400 
  8 C       -2.3600    -1.6880     0.5370 C.3   1 <1>   0.1400 
  9 C        4.2000    -0.0490     0.2040 C.3   1 <1>   0.1200 
 10 C        4.0520    -2.2740     0.9250 C.3   1 <1>   0.1200 
 11 N       -3.8080    -1.4060     0.3730 N.am  1 <1>  -0.4200 
 12 O        4.8860    -1.2260     0.5210 O.3   1 <1>  -0.5600 
 13 C       -4.3420    -0.1600     0.2790 C.2   1 <1>   0.5690 
 14 C       -4.7740    -2.3610     0.3530 C.2   1 <1>   0.5690 
 15 O       -3.7340     0.8770     0.3010 O.2   1 <1>  -0.5700 
 16 C       -5.8470    -0.2290     0.1520 C.3   1 <1>  -0.0990 
 17 O       -4.5930    -3.5480     0.4310 O.2   1 <1>  -0.5700 
 18 C       -6.1440    -1.7390     0.2120 C.3   1 <1>  -0.0990 
 19 H       -2.3000    -3.3280    -0.8690 H     1 <1>   0.0800 
 20 H       -1.8710    -1.7790    -1.5860 H     1 <1>   0.0800 
 21 H        2.6690     0.6170    -1.1340 H     1 <1>   0.0800 
 22 H        3.7780    -0.5140    -1.8460 H     1 <1>   0.0800 
 23 H        3.6070    -3.0490    -1.0250 H     1 <1>   0.0800 
 24 H        2.4070    -3.4100     0.1750 H     1 <1>   0.0800 
 25 H       -1.8310    -0.7670     0.7070 H     1 <1>   0.0800 
 26 H       -2.2270    -2.3230     1.3960 H     1 <1>   0.0800 
 27 H        3.6760     0.2940     1.0790 H     1 <1>   0.0800 
 28 H        4.9290     0.6910    -0.0750 H     1 <1>   0.0800 
 29 H        4.6770    -3.1180     1.1580 H     1 <1>   0.0800 
 30 H        3.5270    -1.9760     1.8150 H     1 <1>   0.0800 
 31 H       -6.1520     0.1980    -0.7860 H     1 <1>   0.0800 
 32 H       -6.3080     0.3000     0.9660 H     1 <1>   0.0800 
 33 H       -6.7480    -1.9900     1.0650 H     1 <1>   0.0800 
 34 H       -6.6140    -2.0880    -0.6890 H     1 <1>   0.0800 
@<TRIPOS>BOND
  1   1   2  2   
  2   2   3  1   
  3   2   4  am  
  4   3   5  1   
  5   4   6  1   
  6   4   7  1   
  7   5   8  1   
  8   5  19  1   
  9   5  20  1   
 10   6   9  1   
 11   6  21  1   
 12   6  22  1   
 13   7  10  1   
 14   7  23  1   
 15   7  24  1   
 16   8  11  1   
 17   8  25  1   
 18   8  26  1   
 19   9  12  1   
 20   9  27  1   
 21   9  28  1   
 22  10  12  1   
 23  10  29  1   
 24  10  30  1   
 25  11  13  am  
 26  11  14  am  
 27  13  15  2   
 28  13  16  1   
 29  14  17  2   
 30  14  18  1   
 31  16  18  1   
 32  16  31  1   
 33  16  32  1   
 34  18  33  1   
 35  18  34  1   
@<TRIPOS>SUBSTRUCTURE
  1 ****   5 GROUP 4 **** **** 0

# MOE 2024.06 (io_trps.svl 2023.06)
