@<TRIPOS>MOLECULE
NONAME
44 46 1 0 0 
SMALL
USER_CHARGES


@<TRIPOS>ATOM
  1 CL      -0.4290    -0.6270     1.7750 Cl    1 <1>  -0.1770 
  2 C       -1.6330    -1.2430     0.6550 C.ar  1 <1>   0.1770 
  3 C       -1.3370    -2.3200    -0.1900 C.ar  1 <1>   0.1000 
  4 C       -2.8690    -0.6270     0.6440 C.ar  1 <1>  -0.1500 
  5 N       -0.1050    -2.9870    -0.2280 N.pl3 1 <1>  -0.8380 
  6 C       -2.3390    -2.7530    -1.0500 C.ar  1 <1>  -0.1500 
  7 C       -3.8500    -1.0790    -0.2220 C.ar  1 <1>  -0.1500 
  8 C        0.2260    -3.8190     0.9690 C.3   1 <1>   0.2090 
  9 C        1.0420    -2.2120    -0.7930 C.3   1 <1>   0.2090 
 10 C       -3.5820    -2.1420    -1.0680 C.ar  1 <1>  -0.1500 
 11 C        1.4670    -4.6980     0.7100 C.3   1 <1>   0.3430 
 12 C        2.2700    -3.1170    -1.0190 C.3   1 <1>   0.3430 
 13 N        2.6500    -3.9000     0.2180 N.4   1 <1>  -0.9590 
 14 C        3.8350    -4.7800     0.0010 C.3   1 <1>   0.3430 
 15 C        5.1260    -3.9760    -0.2270 C.3   1 <1>  -0.0800 
 16 C        6.2930    -4.9580    -0.4550 C.3   1 <1>  -0.0220 
 17 C        5.4540    -3.0120     0.9370 C.3   1 <1>  -0.1600 
 18 C        7.6270    -4.2360    -0.4570 C.2   1 <1>  -0.2880 
 19 C        6.6990    -2.1620     0.6320 C.3   1 <1>  -0.0220 
 20 C        7.8020    -3.0000     0.0140 C.2   1 <1>  -0.2880 
 21 H       -3.0630     0.1970     1.3060 H     1 <1>   0.1500 
 22 H       -2.1400    -3.5780    -1.7090 H     1 <1>   0.1500 
 23 H       -4.8180    -0.6060    -0.2390 H     1 <1>   0.1500 
 24 H       -0.6150    -4.4500     1.2010 H     1 <1>   0.0800 
 25 H        0.4050    -3.1860     1.8200 H     1 <1>   0.0800 
 26 H        1.3060    -1.4090    -0.1290 H     1 <1>   0.0800 
 27 H        0.7430    -1.7770    -1.7320 H     1 <1>   0.0800 
 28 H       -4.3430    -2.4950    -1.7430 H     1 <1>   0.1500 
 29 H        1.2030    -5.4400    -0.0250 H     1 <1>   0.0800 
 30 H        1.7250    -5.2130     1.6210 H     1 <1>   0.0800 
 31 H        3.0970    -2.5030    -1.3350 H     1 <1>   0.0800 
 32 H        2.0400    -3.8000    -1.8200 H     1 <1>   0.0800 
 33 H        2.8850    -3.2190     0.9520 H     1 <1>   0.4500 
 34 H        3.6600    -5.4220    -0.8470 H     1 <1>   0.0800 
 35 H        3.9760    -5.4070     0.8670 H     1 <1>   0.0800 
 36 H        5.0280    -3.3990    -1.1300 H     1 <1>   0.0800 
 37 H        6.1640    -5.4560    -1.4020 H     1 <1>   0.0800 
 38 H        6.3200    -5.7080     0.3170 H     1 <1>   0.0800 
 39 H        5.6450    -3.5860     1.8280 H     1 <1>   0.0800 
 40 H        4.6380    -2.3430     1.1400 H     1 <1>   0.0800 
 41 H        8.4320    -4.8210    -0.8740 H     1 <1>   0.1500 
 42 H        7.0560    -1.7160     1.5440 H     1 <1>   0.0800 
 43 H        6.4480    -1.3670    -0.0500 H     1 <1>   0.0800 
 44 H        8.7560    -2.4960    -0.0100 H     1 <1>   0.1500 
@<TRIPOS>BOND
  1   1   2  1   
  2   2   3  ar  
  3   2   4  ar  
  4   3   5  1   
  5   3   6  ar  
  6   4   7  ar  
  7   4  21  1   
  8   5   8  1   
  9   5   9  1   
 10   6  10  ar  
 11   6  22  1   
 12   7  10  ar  
 13   7  23  1   
 14   8  11  1   
 15   8  24  1   
 16   8  25  1   
 17   9  12  1   
 18   9  26  1   
 19   9  27  1   
 20  10  28  1   
 21  11  13  1   
 22  11  29  1   
 23  11  30  1   
 24  12  13  1   
 25  12  31  1   
 26  12  32  1   
 27  13  14  1   
 28  13  33  1   
 29  14  15  1   
 30  14  34  1   
 31  14  35  1   
 32  15  16  1   
 33  15  17  1   
 34  15  36  1   
 35  16  18  1   
 36  16  37  1   
 37  16  38  1   
 38  17  19  1   
 39  17  39  1   
 40  17  40  1   
 41  18  20  2   
 42  18  41  1   
 43  19  20  1   
 44  19  42  1   
 45  19  43  1   
 46  20  44  1   
@<TRIPOS>SUBSTRUCTURE
  1 ****  12 GROUP 4 **** **** 0

# MOE 2024.06 (io_trps.svl 2023.06)
