@<TRIPOS>MOLECULE
NONAME
45 46 1 0 0 
SMALL
USER_CHARGES


@<TRIPOS>ATOM
  1 O        5.6100     5.4210     0.5330 O.3   1 <1>  -0.5600 
  2 C        5.7730     6.7950     0.3050 C.3   1 <1>   0.1200 
  3 C        4.9970     4.7330    -0.5240 C.3   1 <1>   0.1200 
  4 C        4.4230     7.4770    -0.0230 C.3   1 <1>   0.3430 
  5 C        3.5850     5.2980    -0.8110 C.3   1 <1>   0.3430 
  6 N        3.2840     6.5000     0.0440 N.4   1 <1>  -0.9590 
  7 C        1.9710     7.1390    -0.2350 C.3   1 <1>   0.3430 
  8 C        0.8220     6.2240     0.1960 C.3   1 <1>  -0.1600 
  9 C       -0.5260     6.9330     0.0010 C.3   1 <1>  -0.1600 
 10 C       -1.7020     6.0550     0.4340 C.3   1 <1>   0.1200 
 11 O       -2.8800     6.7880     0.2070 O.3   1 <1>  -0.3630 
 12 C       -4.1010     6.2710     0.4920 C.ar  1 <1>   0.0820 
 13 C       -5.1960     7.0760     0.2200 C.ar  1 <1>  -0.1500 
 14 C       -4.3010     5.0040     1.0330 C.ar  1 <1>  -0.1500 
 15 C       -6.4840     6.6350     0.4780 C.ar  1 <1>  -0.1440 
 16 C       -5.5850     4.5590     1.2910 C.ar  1 <1>  -0.1500 
 17 C       -6.6720     5.3710     1.0140 C.ar  1 <1>  -0.1500 
 18 C       -7.6760     7.5270     0.1740 C.3   1 <1>  -0.0170 
 19 C       -8.1830     7.2800    -1.2480 C.3   1 <1>  -0.2400 
 20 H        6.4750     6.9310    -0.5000 H     1 <1>   0.0800 
 21 H        6.1990     7.2250     1.1960 H     1 <1>   0.0800 
 22 H        4.9320     3.6950    -0.2470 H     1 <1>   0.0800 
 23 H        5.6240     4.8090    -1.3950 H     1 <1>   0.0800 
 24 H        4.4810     7.9070    -1.0090 H     1 <1>   0.0800 
 25 H        4.2620     8.2840     0.6740 H     1 <1>   0.0800 
 26 H        2.8590     4.5240    -0.6260 H     1 <1>   0.0800 
 27 H        3.5200     5.5600    -1.8540 H     1 <1>   0.0800 
 28 H        3.2970     6.1490     1.0150 H     1 <1>   0.4500 
 29 H        1.8840     7.3660    -1.2860 H     1 <1>   0.0800 
 30 H        1.8980     8.0650     0.3140 H     1 <1>   0.0800 
 31 H        0.9350     5.9690     1.2360 H     1 <1>   0.0800 
 32 H        0.8240     5.3220    -0.3890 H     1 <1>   0.0800 
 33 H       -0.6560     7.1880    -1.0370 H     1 <1>   0.0800 
 34 H       -0.5480     7.8400     0.5820 H     1 <1>   0.0800 
 35 H       -1.6470     5.8220     1.4840 H     1 <1>   0.0800 
 36 H       -1.7490     5.1520    -0.1500 H     1 <1>   0.0800 
 37 H       -5.0280     8.0510    -0.1990 H     1 <1>   0.1500 
 38 H       -3.4790     4.3530     1.2580 H     1 <1>   0.1500 
 39 H       -5.7430     3.5800     1.7070 H     1 <1>   0.1500 
 40 H       -7.6670     5.0140     1.2170 H     1 <1>   0.1500 
 41 H       -7.3920     8.5600     0.2810 H     1 <1>   0.0800 
 42 H       -8.4650     7.3320     0.8790 H     1 <1>   0.0800 
 43 H       -7.4040     7.4890    -1.9600 H     1 <1>   0.0800 
 44 H       -9.0240     7.9150    -1.4580 H     1 <1>   0.0800 
 45 H       -8.4850     6.2540    -1.3610 H     1 <1>   0.0800 
@<TRIPOS>BOND
  1   1   2  1   
  2   1   3  1   
  3   2   4  1   
  4   2  20  1   
  5   2  21  1   
  6   3   5  1   
  7   3  22  1   
  8   3  23  1   
  9   4   6  1   
 10   4  24  1   
 11   4  25  1   
 12   5   6  1   
 13   5  26  1   
 14   5  27  1   
 15   6   7  1   
 16   6  28  1   
 17   7   8  1   
 18   7  29  1   
 19   7  30  1   
 20   8   9  1   
 21   8  31  1   
 22   8  32  1   
 23   9  10  1   
 24   9  33  1   
 25   9  34  1   
 26  10  11  1   
 27  10  35  1   
 28  10  36  1   
 29  11  12  1   
 30  12  13  ar  
 31  12  14  ar  
 32  13  15  ar  
 33  13  37  1   
 34  14  16  ar  
 35  14  38  1   
 36  15  17  ar  
 37  15  18  1   
 38  16  17  ar  
 39  16  39  1   
 40  17  40  1   
 41  18  19  1   
 42  18  41  1   
 43  18  42  1   
 44  19  43  1   
 45  19  44  1   
 46  19  45  1   
@<TRIPOS>SUBSTRUCTURE
  1 ****  10 GROUP 4 **** **** 0

# MOE 2024.06 (io_trps.svl 2023.06)
