@<TRIPOS>MOLECULE
NONAME
48 52 1 0 0 
SMALL
USER_CHARGES


@<TRIPOS>ATOM
  1 BR       0.2530     2.2010    -0.6760 Br    1 <1>  -0.1110 
  2 C       -1.6090     2.6220    -0.4280 C.ar  1 <1>   0.1110 
  3 C       -2.0110     3.1980     0.7620 C.ar  1 <1>  -0.1500 
  4 C       -2.4990     2.3390    -1.4450 C.ar  1 <1>  -0.1500 
  5 C       -3.3510     3.4970     0.9330 C.ar  1 <1>  -0.1500 
  6 C       -3.8360     2.6440    -1.2590 C.ar  1 <1>  -0.1500 
  7 C       -4.2810     3.2270    -0.0710 C.ar  1 <1>   0.1170 
  8 N       -5.6500     3.5360     0.1100 N.am  1 <1>  -0.2370 
  9 C       -6.7100     2.7360    -0.2700 C.2   1 <1>   0.5690 
 10 C       -6.1460     4.6840     0.6990 C.2   1 <1>   0.5690 
 11 O       -6.6590     1.5930    -0.6560 O.2   1 <1>  -0.5700 
 12 C       -7.9710     3.5720    -0.1850 C.3   1 <1>   0.2510 
 13 O       -5.5210     5.6500     1.0550 O.2   1 <1>  -0.5700 
 14 C       -7.6120     4.5000     0.9500 C.3   1 <1>  -0.0190 
 15 N       -9.3110     3.2530     0.2600 N.3   1 <1>  -0.5400 
 16 C       -8.8120     5.4420     0.9810 C.3   1 <1>   0.3330 
 17 N       -9.8410     4.5650     0.3740 N.3   1 <1>  -0.5400 
 18 C      -10.2760     2.6040    -0.5950 C.3   1 <1>   0.1100 
 19 C       -8.5820     6.7140     0.1600 C.ar  1 <1>  -0.1430 
 20 C      -11.2030     4.3850     0.8010 C.3   1 <1>   0.1100 
 21 C      -11.6000     3.1510    -0.0270 C.3   1 <1>  -0.1600 
 22 C       -9.0920     6.8870    -1.1230 C.ar  1 <1>  -0.1500 
 23 C       -7.8260     7.7370     0.7160 C.ar  1 <1>  -0.1500 
 24 C       -8.8490     8.0530    -1.8270 C.ar  1 <1>  -0.1500 
 25 C       -7.5790     8.9040     0.0140 C.ar  1 <1>  -0.1500 
 26 C       -8.0930     9.0680    -1.2680 C.ar  1 <1>   0.0830 
 27 O       -7.8980    10.1770    -2.0260 O.3   1 <1>  -0.3630 
 28 C       -7.1140    11.2520    -1.5590 C.3   1 <1>   0.0400 
 29 H       -1.2910     3.4070     1.5330 H     1 <1>   0.1500 
 30 H       -2.1530     1.8880    -2.3580 H     1 <1>   0.1500 
 31 H       -3.6730     3.9490     1.8550 H     1 <1>   0.1500 
 32 H       -4.5390     2.4240    -2.0430 H     1 <1>   0.1500 
 33 H       -8.0350     4.1200    -1.1110 H     1 <1>   0.0800 
 34 H       -7.6510     3.9490     1.8750 H     1 <1>   0.0800 
 35 H       -9.0790     5.6850     1.9940 H     1 <1>   0.0800 
 36 H      -10.2000     1.5330    -0.5200 H     1 <1>   0.0800 
 37 H      -10.1410     2.9230    -1.6140 H     1 <1>   0.0800 
 38 H      -11.7970     5.2520     0.5700 H     1 <1>   0.0800 
 39 H      -11.2300     4.1680     1.8550 H     1 <1>   0.0800 
 40 H      -12.0780     2.4200     0.6000 H     1 <1>   0.0800 
 41 H      -12.2700     3.4160    -0.8240 H     1 <1>   0.0800 
 42 H       -9.6850     6.1200    -1.5890 H     1 <1>   0.1500 
 43 H       -7.4120     7.6270     1.7040 H     1 <1>   0.1500 
 44 H       -9.2460     8.1830    -2.8170 H     1 <1>   0.1500 
 45 H       -6.9860     9.6670     0.4800 H     1 <1>   0.1500 
 46 H       -7.0890    12.0040    -2.3260 H     1 <1>   0.0800 
 47 H       -6.1180    10.8970    -1.3620 H     1 <1>   0.0800 
 48 H       -7.5650    11.6510    -0.6680 H     1 <1>   0.0800 
@<TRIPOS>BOND
  1   1   2  1   
  2   2   3  ar  
  3   2   4  ar  
  4   3   5  ar  
  5   3  29  1   
  6   4   6  ar  
  7   4  30  1   
  8   5   7  ar  
  9   5  31  1   
 10   6   7  ar  
 11   6  32  1   
 12   7   8  1   
 13   8   9  am  
 14   8  10  am  
 15   9  11  2   
 16   9  12  1   
 17  10  13  2   
 18  10  14  1   
 19  12  14  1   
 20  12  15  1   
 21  12  33  1   
 22  14  16  1   
 23  14  34  1   
 24  15  17  1   
 25  15  18  1   
 26  16  17  1   
 27  16  19  1   
 28  16  35  1   
 29  17  20  1   
 30  18  21  1   
 31  18  36  1   
 32  18  37  1   
 33  19  22  ar  
 34  19  23  ar  
 35  20  21  1   
 36  20  38  1   
 37  20  39  1   
 38  21  40  1   
 39  21  41  1   
 40  22  24  ar  
 41  22  42  1   
 42  23  25  ar  
 43  23  43  1   
 44  24  26  ar  
 45  24  44  1   
 46  25  26  ar  
 47  25  45  1   
 48  26  27  1   
 49  27  28  1   
 50  28  46  1   
 51  28  47  1   
 52  28  48  1   
@<TRIPOS>SUBSTRUCTURE
  1 ****  10 GROUP 4 **** **** 0

# MOE 2024.06 (io_trps.svl 2023.06)
