@<TRIPOS>MOLECULE
NONAME
38 41 1 0 0 
SMALL
USER_CHARGES


@<TRIPOS>ATOM
  1 O       -0.8640     2.1120     1.0780 O.2   1 <1>  -0.5700 
  2 C       -1.7730     1.5600     0.5200 C.2   1 <1>   0.6590 
  3 O       -2.9550     2.2070     0.1830 O.3   1 <1>  -0.4300 
  4 C       -1.7670     0.0210     0.1180 C.3   1 <1>  -0.0190 
  5 C       -3.9110     1.3920    -0.5960 C.3   1 <1>   0.2000 
  6 C       -2.5460    -1.2710     1.0030 C.3   1 <1>  -0.0190 
  7 C       -2.8450     0.3600    -0.8870 C.3   1 <1>  -0.0800 
  8 C       -5.1340     0.4070     0.1620 C.3   1 <1>  -0.1600 
  9 C       -2.1520    -2.6620     0.4990 C.2   1 <1>   0.5690 
 10 C       -4.2590    -0.9200     0.8940 C.3   1 <1>  -0.0800 
 11 C       -3.5890    -0.2970     0.0810 C.3   1 <1>  -0.1600 
 12 O       -1.0400    -2.8200     0.0610 O.2   1 <1>  -0.5700 
 13 N       -3.0920    -3.6500     0.5740 N.am  1 <1>  -0.5470 
 14 C       -3.1030    -5.0050     0.1990 C.ar  1 <1>   0.1170 
 15 C       -4.3010    -5.7130     0.3280 C.ar  1 <1>   0.0820 
 16 C       -1.9910    -5.6830    -0.2900 C.ar  1 <1>  -0.1500 
 17 O       -5.4060    -5.0910     0.8030 O.3   1 <1>  -0.5320 
 18 C       -4.3840    -7.0490    -0.0230 C.ar  1 <1>  -0.1500 
 19 C       -2.0650    -7.0200    -0.6460 C.ar  1 <1>  -0.1430 
 20 C       -3.2640    -7.7010    -0.5100 C.ar  1 <1>  -0.1500 
 21 C       -0.8350    -7.7340    -1.1770 C.3   1 <1>  -0.0970 
 22 H       -0.8360    -0.2550    -0.3440 H     1 <1>   0.0800 
 23 H       -4.2410     1.9430    -1.4600 H     1 <1>   0.0800 
 24 H       -2.2190    -1.2260     2.0310 H     1 <1>   0.0800 
 25 H       -2.8300    -0.1230    -1.8550 H     1 <1>   0.0800 
 26 H       -5.8510     0.0540    -0.5700 H     1 <1>   0.0800 
 27 H       -5.6800     0.9870     0.8890 H     1 <1>   0.0800 
 28 H       -4.5540    -0.8490     1.9430 H     1 <1>   0.0800 
 29 H       -3.4970     0.3980     1.1720 H     1 <1>   0.0800 
 30 H       -3.8930    -1.1100    -0.6540 H     1 <1>   0.0800 
 31 H       -4.0030    -3.3680     0.9400 H     1 <1>   0.3700 
 32 H       -1.0550    -5.1670    -0.3940 H     1 <1>   0.1500 
 33 H       -6.1740    -5.6900     0.8480 H     1 <1>   0.4500 
 34 H       -5.3070    -7.5880     0.0770 H     1 <1>   0.1500 
 35 H       -3.3280    -8.7400    -0.7820 H     1 <1>   0.1500 
 36 H       -0.2010    -7.0450    -1.7050 H     1 <1>   0.0800 
 37 H       -1.1170    -8.5210    -1.8520 H     1 <1>   0.0800 
 38 H       -0.2800    -8.1580    -0.3590 H     1 <1>   0.0800 
@<TRIPOS>BOND
  1   1   2  2   
  2   2   3  1   
  3   2   4  1   
  4   3   5  1   
  5   4   6  1   
  6   4   7  1   
  7   4  22  1   
  8   5   7  1   
  9   5   8  1   
 10   5  23  1   
 11   6   9  1   
 12   6  10  1   
 13   6  24  1   
 14   7  11  1   
 15   7  25  1   
 16   8  10  1   
 17   8  26  1   
 18   8  27  1   
 19   9  12  2   
 20   9  13  am  
 21  10  11  1   
 22  10  28  1   
 23  11  29  1   
 24  11  30  1   
 25  13  14  1   
 26  13  31  1   
 27  14  15  ar  
 28  14  16  ar  
 29  15  17  1   
 30  15  18  ar  
 31  16  19  ar  
 32  16  32  1   
 33  17  33  1   
 34  18  20  ar  
 35  18  34  1   
 36  19  20  ar  
 37  19  21  1   
 38  20  35  1   
 39  21  36  1   
 40  21  37  1   
 41  21  38  1   
@<TRIPOS>SUBSTRUCTURE
  1 ****   9 GROUP 4 **** **** 0

# MOE 2024.06 (io_trps.svl 2023.06)
