@<TRIPOS>MOLECULE
NONAME
41 43 1 0 0 
SMALL
USER_CHARGES


@<TRIPOS>ATOM
  1 CL       0.4750     0.0110    -1.6280 Cl    1 <1>  -0.1770 
  2 C        0.2960    -1.6220    -1.0380 C.ar  1 <1>   0.1770 
  3 C        1.1750    -2.1470    -0.0920 C.ar  1 <1>   0.0860 
  4 C       -0.7320    -2.3780    -1.5690 C.ar  1 <1>  -0.1500 
  5 C        2.2690    -1.3910     0.4750 C.2   1 <1>   0.5440 
  6 C        0.9740    -3.4740     0.2890 C.ar  1 <1>  -0.1500 
  7 C       -0.8960    -3.6930    -1.1710 C.ar  1 <1>  -0.1500 
  8 O        2.1080    -0.2880     0.9550 O.2   1 <1>  -0.5700 
  9 N        3.5130    -1.9390     0.5110 N.am  1 <1>  -0.7300 
 10 C       -0.0360    -4.2660    -0.2400 C.ar  1 <1>  -0.0090 
 11 C        4.7120    -1.2850     1.0540 C.3   1 <1>   0.3200 
 12 S       -0.2140    -5.9950     0.2820 S.o2  1 <1>   1.4470 
 13 C        5.9260    -2.0250     0.5240 C.2   1 <1>  -0.0400 
 14 O       -0.5780    -6.0300     1.6810 O.2   1 <1>  -0.6500 
 15 O       -1.0060    -6.7260    -0.6840 O.2   1 <1>  -0.6500 
 16 N        1.3760    -6.5680     0.1730 N.am  1 <1>  -0.8490 
 17 O        6.0480    -3.3170     0.7760 O.3   1 <1>  -0.2800 
 18 C        6.9680    -1.5900    -0.2170 C.2   1 <1>  -0.1500 
 19 C        1.8380    -6.8490    -1.1770 C.3   1 <1>   0.1960 
 20 C        1.5910    -7.7950     0.9180 C.3   1 <1>   0.1960 
 21 C        7.1640    -3.7290     0.2100 C.2   1 <1>  -0.0100 
 22 C        7.7820    -2.7100    -0.4230 C.2   1 <1>  -0.1500 
 23 C        3.1070    -7.6640    -0.9690 C.3   1 <1>  -0.1600 
 24 C        2.9170    -8.3360     0.3920 C.3   1 <1>  -0.1600 
 25 H       -1.3960    -1.9380    -2.2930 H     1 <1>   0.1500 
 26 H        1.6300    -3.9070     1.0270 H     1 <1>   0.1500 
 27 H       -1.6960    -4.2830    -1.5890 H     1 <1>   0.1500 
 28 H        3.7000    -2.8730     0.1420 H     1 <1>   0.3700 
 29 H        4.6930    -1.3350     2.1290 H     1 <1>   0.0800 
 30 H        4.7360    -0.2520     0.7510 H     1 <1>   0.0800 
 31 H        7.1630    -0.6000    -0.5920 H     1 <1>   0.1500 
 32 H        2.0280    -5.9410    -1.7250 H     1 <1>   0.0800 
 33 H        1.1140    -7.4470    -1.7060 H     1 <1>   0.0800 
 34 H        0.7990    -8.4960     0.7060 H     1 <1>   0.0800 
 35 H        1.6250    -7.6030     1.9780 H     1 <1>   0.0800 
 36 H        7.4440    -4.7640     0.3070 H     1 <1>   0.1500 
 37 H        8.7050    -2.7210    -0.9760 H     1 <1>   0.1500 
 38 H        3.9570    -7.0050    -0.9400 H     1 <1>   0.0800 
 39 H        3.2420    -8.3790    -1.7610 H     1 <1>   0.0800 
 40 H        2.8800    -9.4080     0.3100 H     1 <1>   0.0800 
 41 H        3.7140    -8.0630     1.0610 H     1 <1>   0.0800 
@<TRIPOS>BOND
  1   1   2  1   
  2   2   3  ar  
  3   2   4  ar  
  4   3   5  1   
  5   3   6  ar  
  6   4   7  ar  
  7   4  25  1   
  8   5   8  2   
  9   5   9  am  
 10   6  10  ar  
 11   6  26  1   
 12   7  10  ar  
 13   7  27  1   
 14   9  11  1   
 15   9  28  1   
 16  10  12  1   
 17  11  13  1   
 18  11  29  1   
 19  11  30  1   
 20  12  14  2   
 21  12  15  2   
 22  12  16  am  
 23  13  17  1   
 24  13  18  2   
 25  16  19  1   
 26  16  20  1   
 27  17  21  1   
 28  18  22  1   
 29  18  31  1   
 30  19  23  1   
 31  19  32  1   
 32  19  33  1   
 33  20  24  1   
 34  20  34  1   
 35  20  35  1   
 36  21  22  2   
 37  21  36  1   
 38  22  37  1   
 39  23  24  1   
 40  23  38  1   
 41  23  39  1   
 42  24  40  1   
 43  24  41  1   
@<TRIPOS>SUBSTRUCTURE
  1 ****   6 GROUP 4 **** **** 0

# MOE 2024.06 (io_trps.svl 2023.06)
