@<TRIPOS>MOLECULE
NONAME
50 52 1 0 0 
SMALL
USER_CHARGES


@<TRIPOS>ATOM
  1 O       -1.4600    -1.8980     0.3510 O.2   1 <1>  -0.5700 
  2 C       -0.5400    -2.4870    -0.1490 C.2   1 <1>   0.6590 
  3 O       -0.6590    -3.2080    -1.2570 O.3   1 <1>  -0.4300 
  4 C        0.8490    -2.4480     0.4810 C.3   1 <1>  -0.0190 
  5 C       -1.8890    -3.3700    -1.9300 C.3   1 <1>   0.1200 
  6 C        1.8870    -1.8190    -0.4670 C.3   1 <1>  -0.1600 
  7 C        1.3100    -3.8500     0.9220 C.3   1 <1>  -0.1600 
  8 C       -2.6390    -4.5460    -1.3070 C.3   1 <1>  -0.2400 
  9 C        3.2860    -1.8230     0.1440 C.3   1 <1>   0.3430 
 10 C        2.7180    -3.8230     1.5130 C.3   1 <1>   0.3430 
 11 N        3.6550    -3.2150     0.5330 N.4   1 <1>  -0.9590 
 12 C        5.0690    -3.3160     0.9760 C.3   1 <1>   0.4860 
 13 C        5.9560    -2.9480    -0.1970 C.ar  1 <1>  -0.1440 
 14 C        6.0020    -3.8140    -1.2630 C.ar  1 <1>   0.0820 
 15 C        6.6950    -1.7380    -0.1960 C.ar  1 <1>   0.0000 
 16 O        5.2470    -4.9440    -1.2060 O.3   1 <1>  -0.3620 
 17 C        6.8000    -3.5090    -2.3800 C.ar  1 <1>  -0.1500 
 18 C        7.4830    -1.4390    -1.3320 C.ar  1 <1>   0.0000 
 19 C        6.6970    -0.7980     0.8650 C.ar  1 <1>  -0.1500 
 20 C        5.4430    -6.0100    -2.1160 C.3   1 <1>   0.0400 
 21 C        7.5170    -2.3500    -2.4050 C.ar  1 <1>  -0.1500 
 22 C        8.2150    -0.2370    -1.3710 C.ar  1 <1>  -0.1500 
 23 C        7.4190     0.3610     0.8000 C.ar  1 <1>  -0.1500 
 24 C        8.1860     0.6480    -0.3310 C.ar  1 <1>  -0.1500 
 25 H        0.7760    -1.8270     1.3580 H     1 <1>   0.0800 
 26 H       -1.6740    -3.5680    -2.9660 H     1 <1>   0.0800 
 27 H       -2.4590    -2.4580    -1.8580 H     1 <1>   0.0800 
 28 H        1.6030    -0.8040    -0.6850 H     1 <1>   0.0800 
 29 H        1.9100    -2.3530    -1.4020 H     1 <1>   0.0800 
 30 H        1.2910    -4.5280     0.0860 H     1 <1>   0.0800 
 31 H        0.6270    -4.2330     1.6610 H     1 <1>   0.0800 
 32 H       -2.0520    -5.4440    -1.3760 H     1 <1>   0.0800 
 33 H       -3.5630    -4.7020    -1.8340 H     1 <1>   0.0800 
 34 H       -2.8700    -4.3390    -0.2770 H     1 <1>   0.0800 
 35 H        3.3050    -1.1830     1.0110 H     1 <1>   0.0800 
 36 H        3.9910    -1.4380    -0.5770 H     1 <1>   0.0800 
 37 H        3.0280    -4.8300     1.7470 H     1 <1>   0.0800 
 38 H        2.7170    -3.2460     2.4240 H     1 <1>   0.0800 
 39 H        3.6380    -3.7870    -0.3290 H     1 <1>   0.4500 
 40 H        5.2880    -4.3330     1.2610 H     1 <1>   0.0800 
 41 H        5.2480    -2.6840     1.8260 H     1 <1>   0.0800 
 42 H        6.8520    -4.1740    -3.2220 H     1 <1>   0.1500 
 43 H        6.1290    -0.9780     1.7560 H     1 <1>   0.1500 
 44 H        4.8300    -6.8370    -1.8060 H     1 <1>   0.0800 
 45 H        6.4790    -6.3000    -2.1000 H     1 <1>   0.0800 
 46 H        5.1500    -5.6910    -3.1010 H     1 <1>   0.0800 
 47 H        8.1290    -2.1100    -3.2580 H     1 <1>   0.1500 
 48 H        8.8080    -0.0220    -2.2430 H     1 <1>   0.1500 
 49 H        7.4150     1.0690     1.6120 H     1 <1>   0.1500 
 50 H        8.7490     1.5650    -0.3670 H     1 <1>   0.1500 
@<TRIPOS>BOND
  1   1   2  2   
  2   2   3  1   
  3   2   4  1   
  4   3   5  1   
  5   4   6  1   
  6   4   7  1   
  7   4  25  1   
  8   5   8  1   
  9   5  26  1   
 10   5  27  1   
 11   6   9  1   
 12   6  28  1   
 13   6  29  1   
 14   7  10  1   
 15   7  30  1   
 16   7  31  1   
 17   8  32  1   
 18   8  33  1   
 19   8  34  1   
 20   9  11  1   
 21   9  35  1   
 22   9  36  1   
 23  10  11  1   
 24  10  37  1   
 25  10  38  1   
 26  11  12  1   
 27  11  39  1   
 28  12  13  1   
 29  12  40  1   
 30  12  41  1   
 31  13  14  ar  
 32  13  15  ar  
 33  14  16  1   
 34  14  17  ar  
 35  15  18  ar  
 36  15  19  ar  
 37  16  20  1   
 38  17  21  ar  
 39  17  42  1   
 40  18  21  ar  
 41  18  22  ar  
 42  19  23  ar  
 43  19  43  1   
 44  20  44  1   
 45  20  45  1   
 46  20  46  1   
 47  21  47  1   
 48  22  24  ar  
 49  22  48  1   
 50  23  24  ar  
 51  23  49  1   
 52  24  50  1   
@<TRIPOS>SUBSTRUCTURE
  1 ****   9 GROUP 4 **** **** 0

# MOE 2024.06 (io_trps.svl 2023.06)
