@<TRIPOS>MOLECULE
NONAME
30 31 1 0 0 
SMALL
USER_CHARGES


@<TRIPOS>ATOM
  1 O       -0.0280     0.8540     0.4810 O.2   1 <1>  -0.5700 
  2 C       -0.4750     1.8070    -0.1200 C.2   1 <1>   0.5690 
  3 N        0.2130     2.9070    -0.5680 N.am  1 <1>  -0.1110 
  4 C       -1.9470     1.8960    -0.4860 C.3   1 <1>  -0.0190 
  5 N        1.6650     3.1740    -0.3890 N.3   1 <1>  -0.5490 
  6 C       -0.6230     3.7630    -1.2350 C.2   1 <1>   0.5690 
  7 C       -2.0490     3.2390    -1.2450 C.3   1 <1>  -0.0190 
  8 C       -2.8740     1.8130     0.7430 C.3   1 <1>  -0.1600 
  9 C        1.9690     3.2310     1.0650 C.3   1 <1>   0.0300 
 10 C        2.4410     2.0850    -1.0410 C.3   1 <1>   0.0300 
 11 O       -0.3300     4.8040    -1.7790 O.2   1 <1>  -0.5700 
 12 C       -3.0500     4.2250    -0.6120 C.3   1 <1>  -0.1600 
 13 C       -4.3120     2.2080     0.3760 C.3   1 <1>  -0.1600 
 14 C       -4.4110     3.5550    -0.3690 C.3   1 <1>  -0.1600 
 15 H       -2.1760     1.0880    -1.1580 H     1 <1>   0.0800 
 16 H       -2.3330     3.0520    -2.2660 H     1 <1>   0.0800 
 17 H       -2.5120     2.4700     1.5160 H     1 <1>   0.0800 
 18 H       -2.8580     0.8120     1.1400 H     1 <1>   0.0800 
 19 H        1.3050     3.9270     1.5480 H     1 <1>   0.0800 
 20 H        2.9800     3.5680     1.2060 H     1 <1>   0.0800 
 21 H        1.8560     2.2610     1.5190 H     1 <1>   0.0800 
 22 H        2.1120     1.9640    -2.0580 H     1 <1>   0.0800 
 23 H        2.3150     1.1550    -0.5140 H     1 <1>   0.0800 
 24 H        3.4840     2.3460    -1.0480 H     1 <1>   0.0800 
 25 H       -3.1720     5.0790    -1.2570 H     1 <1>   0.0800 
 26 H       -2.6590     4.5860     0.3250 H     1 <1>   0.0800 
 27 H       -4.9040     2.2510     1.2750 H     1 <1>   0.0800 
 28 H       -4.7360     1.4370    -0.2450 H     1 <1>   0.0800 
 29 H       -4.8930     3.3920    -1.3180 H     1 <1>   0.0800 
 30 H       -5.0370     4.2290     0.1920 H     1 <1>   0.0800 
@<TRIPOS>BOND
  1   1   2  2   
  2   2   3  am  
  3   2   4  1   
  4   3   5  1   
  5   3   6  am  
  6   4   7  1   
  7   4   8  1   
  8   4  15  1   
  9   5   9  1   
 10   5  10  1   
 11   6   7  1   
 12   6  11  2   
 13   7  12  1   
 14   7  16  1   
 15   8  13  1   
 16   8  17  1   
 17   8  18  1   
 18   9  19  1   
 19   9  20  1   
 20   9  21  1   
 21  10  22  1   
 22  10  23  1   
 23  10  24  1   
 24  12  14  1   
 25  12  25  1   
 26  12  26  1   
 27  13  14  1   
 28  13  27  1   
 29  13  28  1   
 30  14  29  1   
 31  14  30  1   
@<TRIPOS>SUBSTRUCTURE
  1 ****   2 GROUP 4 **** **** 0

# MOE 2024.06 (io_trps.svl 2023.06)
