@<TRIPOS>MOLECULE
NONAME
42 44 1 0 0 
SMALL
USER_CHARGES


@<TRIPOS>ATOM
  1 O        0.4240    -0.1120     0.6710 O.2   1 <1>  -0.5700 
  2 C        0.8400    -1.2510     0.7790 C.2   1 <1>   0.6900 
  3 N        2.1740    -1.4760     0.9910 N.am  1 <1>  -0.6600 
  4 N        0.0060    -2.3290     0.7150 N.am  1 <1>  -0.5470 
  5 C        3.0630    -0.3670     1.4510 C.3   1 <1>   0.1400 
  6 C        2.9140    -2.5960     0.3300 C.3   1 <1>   0.1400 
  7 C       -1.3500    -2.4410     0.3740 C.ar  1 <1>   0.1170 
  8 C        3.9220     0.1660     0.2930 C.3   1 <1>   0.1400 
  9 C        3.7660    -2.0620    -0.8320 C.3   1 <1>   0.1400 
 10 C       -2.0090    -1.5070    -0.4190 C.ar  1 <1>  -0.1500 
 11 C       -2.0650    -3.5430     0.8280 C.ar  1 <1>  -0.1500 
 12 N        4.6600    -0.9530    -0.3730 N.am  1 <1>  -0.6600 
 13 C       -3.3460    -1.6590    -0.7470 C.ar  1 <1>  -0.1430 
 14 C       -3.3990    -3.7060     0.5030 C.ar  1 <1>  -0.1500 
 15 C        6.0230    -1.1350    -0.2400 C.2   1 <1>   0.7150 
 16 C       -4.0390    -2.7650    -0.2840 C.ar  1 <1>  -0.1500 
 17 C       -4.0500    -0.6270    -1.6100 C.3   1 <1>  -0.0970 
 18 O        6.4510    -2.2770    -0.2500 O.2   1 <1>  -0.5700 
 19 C        6.9240    -0.0100    -0.0970 C.2   1 <1>   0.0550 
 20 O        8.0080    -0.0880     0.6720 O.3   1 <1>  -0.2800 
 21 C        6.8850     1.2380    -0.6480 C.2   1 <1>  -0.1500 
 22 C        8.6480     1.0570     0.6270 C.2   1 <1>  -0.0100 
 23 C        8.0020     1.9280    -0.1760 C.2   1 <1>  -0.1500 
 24 H        0.4260    -3.1610     1.1120 H     1 <1>   0.3700 
 25 H        3.7070    -0.7340     2.2320 H     1 <1>   0.0800 
 26 H        2.4770     0.4360     1.8630 H     1 <1>   0.0800 
 27 H        2.2310    -3.3340    -0.0510 H     1 <1>   0.0800 
 28 H        3.5570    -3.0730     1.0490 H     1 <1>   0.0800 
 29 H        4.6030     0.9010     0.6810 H     1 <1>   0.0800 
 30 H        3.2820     0.6490    -0.4260 H     1 <1>   0.0800 
 31 H        3.1170    -1.6910    -1.6060 H     1 <1>   0.0800 
 32 H        4.3450    -2.8660    -1.2520 H     1 <1>   0.0800 
 33 H       -1.4700    -0.6520    -0.7840 H     1 <1>   0.1500 
 34 H       -1.5800    -4.2770     1.4430 H     1 <1>   0.1500 
 35 H       -3.9430    -4.5620     0.8620 H     1 <1>   0.1500 
 36 H       -5.0780    -2.8950    -0.5340 H     1 <1>   0.1500 
 37 H       -3.4960     0.2940    -1.6260 H     1 <1>   0.0800 
 38 H       -5.0320    -0.4260    -1.2200 H     1 <1>   0.0800 
 39 H       -4.1410    -0.9950    -2.6160 H     1 <1>   0.0800 
 40 H        6.1490     1.6330    -1.3260 H     1 <1>   0.1500 
 41 H        9.5560     1.1690     1.1940 H     1 <1>   0.1500 
 42 H        8.2700     2.9410    -0.4210 H     1 <1>   0.1500 
@<TRIPOS>BOND
  1   1   2  2   
  2   2   3  am  
  3   2   4  am  
  4   3   5  1   
  5   3   6  1   
  6   4   7  1   
  7   4  24  1   
  8   5   8  1   
  9   5  25  1   
 10   5  26  1   
 11   6   9  1   
 12   6  27  1   
 13   6  28  1   
 14   7  10  ar  
 15   7  11  ar  
 16   8  12  1   
 17   8  29  1   
 18   8  30  1   
 19   9  12  1   
 20   9  31  1   
 21   9  32  1   
 22  10  13  ar  
 23  10  33  1   
 24  11  14  ar  
 25  11  34  1   
 26  12  15  am  
 27  13  16  ar  
 28  13  17  1   
 29  14  16  ar  
 30  14  35  1   
 31  15  18  2   
 32  15  19  1   
 33  16  36  1   
 34  17  37  1   
 35  17  38  1   
 36  17  39  1   
 37  19  20  1   
 38  19  21  2   
 39  20  22  1   
 40  21  23  1   
 41  21  40  1   
 42  22  23  2   
 43  22  41  1   
 44  23  42  1   
@<TRIPOS>SUBSTRUCTURE
  1 ****   3 GROUP 4 **** **** 0

# MOE 2024.06 (io_trps.svl 2023.06)
