@<TRIPOS>MOLECULE
NONAME
41 42 1 0 0 
SMALL
USER_CHARGES


@<TRIPOS>ATOM
  1 CL      -0.8050     0.4880     2.0650 Cl    1 <1>  -0.1770 
  2 C       -2.3500     0.3590     1.2700 C.ar  1 <1>   0.1770 
  3 C       -2.9150    -0.8870     1.0750 C.ar  1 <1>  -0.1500 
  4 C       -2.9930     1.5040     0.8420 C.ar  1 <1>  -0.1500 
  5 C       -4.1440    -0.9800     0.4450 C.ar  1 <1>  -0.1500 
  6 C       -4.2210     1.3990     0.2130 C.ar  1 <1>  -0.1500 
  7 C       -4.8310     0.1560     0.0060 C.ar  1 <1>   0.0860 
  8 C       -6.1260     0.0310    -0.6380 C.2   1 <1>   0.5440 
  9 O       -6.3780    -0.9490    -1.3130 O.2   1 <1>  -0.5700 
 10 N       -7.0660     1.0150    -0.4760 N.am  1 <1>  -0.4930 
 11 C       -8.3600     1.1060    -1.0480 C.2   1 <1>   0.0630 
 12 C       -8.8640     2.1780    -1.7870 C.2   1 <1>   0.1080 
 13 C       -9.3760     0.2160    -0.9980 C.2   1 <1>  -0.3320 
 14 N      -10.0860     1.9830    -2.1680 N.2   1 <1>  -0.7070 
 15 C       -8.1080     3.4390    -2.1360 C.3   1 <1>  -0.0590 
 16 N      -10.4080     0.7680    -1.6870 N.pl3 1 <1>   0.3140 
 17 C       -9.4180    -1.1490    -0.3230 C.3   1 <1>  -0.0600 
 18 C      -11.7110     0.1630    -1.9900 C.3   1 <1>   0.1570 
 19 C      -12.7350     0.5940    -0.9720 C.2   1 <1>   0.6590 
 20 O      -13.7710     1.1110    -1.3060 O.2   1 <1>  -0.5700 
 21 O      -12.4610     0.3210     0.3010 O.3   1 <1>  -0.4300 
 22 C      -13.3360     0.6460     1.3590 C.3   1 <1>   0.1200 
 23 C      -14.3270    -0.5000     1.5490 C.3   1 <1>  -0.2400 
 24 H       -2.3960    -1.7670     1.4100 H     1 <1>   0.1500 
 25 H       -2.5290     2.4620     1.0000 H     1 <1>   0.1500 
 26 H       -4.5860    -1.9500     0.2850 H     1 <1>   0.1500 
 27 H       -4.7040     2.2970    -0.1310 H     1 <1>   0.1500 
 28 H       -6.8170     1.7950     0.1260 H     1 <1>   0.3700 
 29 H       -7.0870     3.2050    -2.3730 H     1 <1>   0.0800 
 30 H       -8.1400     4.1220    -1.3080 H     1 <1>   0.0800 
 31 H       -8.5630     3.9070    -2.9910 H     1 <1>   0.0800 
 32 H       -8.5280    -1.3090     0.2570 H     1 <1>   0.0800 
 33 H       -9.4760    -1.9250    -1.0650 H     1 <1>   0.0800 
 34 H      -10.2630    -1.2220     0.3360 H     1 <1>   0.0800 
 35 H      -11.6200    -0.9040    -1.9860 H     1 <1>   0.0800 
 36 H      -12.0190     0.4880    -2.9640 H     1 <1>   0.0800 
 37 H      -13.8400     1.5720     1.1330 H     1 <1>   0.0800 
 38 H      -12.7400     0.7800     2.2450 H     1 <1>   0.0800 
 39 H      -14.9310    -0.6200     0.6670 H     1 <1>   0.0800 
 40 H      -14.9770    -0.2800     2.3760 H     1 <1>   0.0800 
 41 H      -13.8030    -1.4150     1.7580 H     1 <1>   0.0800 
@<TRIPOS>BOND
  1   1   2  1   
  2   2   3  ar  
  3   2   4  ar  
  4   3   5  ar  
  5   3  24  1   
  6   4   6  ar  
  7   4  25  1   
  8   5   7  ar  
  9   5  26  1   
 10   6   7  ar  
 11   6  27  1   
 12   7   8  1   
 13   8   9  2   
 14   8  10  am  
 15  10  11  1   
 16  10  28  1   
 17  11  12  1   
 18  11  13  2   
 19  12  14  2   
 20  12  15  1   
 21  13  16  1   
 22  13  17  1   
 23  14  16  1   
 24  15  29  1   
 25  15  30  1   
 26  15  31  1   
 27  16  18  1   
 28  17  32  1   
 29  17  33  1   
 30  17  34  1   
 31  18  19  1   
 32  18  35  1   
 33  18  36  1   
 34  19  20  2   
 35  19  21  1   
 36  21  22  1   
 37  22  23  1   
 38  22  37  1   
 39  22  38  1   
 40  23  39  1   
 41  23  40  1   
 42  23  41  1   
@<TRIPOS>SUBSTRUCTURE
  1 ****  11 GROUP 4 **** **** 0

# MOE 2024.06 (io_trps.svl 2023.06)
