@<TRIPOS>MOLECULE
NONAME
29 29 1 0 0 
SMALL
USER_CHARGES


@<TRIPOS>ATOM
  1 F       -1.1770     0.6090     0.9510 F     1 <1>  -0.3400 
  2 C       -1.5660    -0.5020     0.3430 C.3   1 <1>   1.3000 
  3 F       -0.7240    -0.7230    -0.6590 F     1 <1>  -0.3400 
  4 F       -2.7740    -0.2860    -0.1610 F     1 <1>  -0.3400 
  5 O       -1.5660    -1.5730     1.2680 O.3   1 <1>  -0.3630 
  6 C       -1.8990    -2.8000     0.7930 C.ar  1 <1>   0.0830 
  7 C       -0.8940    -3.7100     0.4470 C.ar  1 <1>   0.1170 
  8 C       -3.2380    -3.1390     0.6740 C.ar  1 <1>  -0.1500 
  9 N        0.4560    -3.3540     0.6250 N.am  1 <1>  -0.5470 
 10 C       -1.2760    -4.9530    -0.0440 C.ar  1 <1>  -0.1500 
 11 C       -3.5960    -4.3820     0.1840 C.ar  1 <1>  -0.1500 
 12 C        1.5780    -3.7520    -0.0470 C.2   1 <1>   0.5690 
 13 C       -2.6130    -5.2870    -0.1770 C.ar  1 <1>  -0.1500 
 14 O        1.5580    -4.5460    -0.9570 O.2   1 <1>  -0.5700 
 15 C        2.9110    -3.1230     0.3750 C.3   1 <1>  -0.0190 
 16 C        3.2920    -1.9650    -0.5610 C.3   1 <1>  -0.2400 
 17 C        4.0540    -4.1520     0.4290 C.3   1 <1>  -0.2400 
 18 H       -4.0030    -2.4380     0.9610 H     1 <1>   0.1500 
 19 H        0.6030    -2.6250     1.3190 H     1 <1>   0.3700 
 20 H       -0.5270    -5.6730    -0.3220 H     1 <1>   0.1500 
 21 H       -4.6350    -4.6470     0.0850 H     1 <1>   0.1500 
 22 H       -2.8870    -6.2550    -0.5620 H     1 <1>   0.1500 
 23 H        2.7930    -2.7240     1.3660 H     1 <1>   0.0800 
 24 H        3.4280    -2.3310    -1.5650 H     1 <1>   0.0800 
 25 H        4.2050    -1.5000    -0.2360 H     1 <1>   0.0800 
 26 H        2.5130    -1.2240    -0.5740 H     1 <1>   0.0800 
 27 H        4.2330    -4.5640    -0.5490 H     1 <1>   0.0800 
 28 H        3.7940    -4.9580     1.0930 H     1 <1>   0.0800 
 29 H        4.9600    -3.6940     0.7830 H     1 <1>   0.0800 
@<TRIPOS>BOND
  1   1   2  1   
  2   2   3  1   
  3   2   4  1   
  4   2   5  1   
  5   5   6  1   
  6   6   7  ar  
  7   6   8  ar  
  8   7   9  1   
  9   7  10  ar  
 10   8  11  ar  
 11   8  18  1   
 12   9  12  am  
 13   9  19  1   
 14  10  13  ar  
 15  10  20  1   
 16  11  13  ar  
 17  11  21  1   
 18  12  14  2   
 19  12  15  1   
 20  13  22  1   
 21  15  16  1   
 22  15  17  1   
 23  15  23  1   
 24  16  24  1   
 25  16  25  1   
 26  16  26  1   
 27  17  27  1   
 28  17  28  1   
 29  17  29  1   
@<TRIPOS>SUBSTRUCTURE
  1 ****   7 GROUP 4 **** **** 0

# MOE 2024.06 (io_trps.svl 2023.06)
