@<TRIPOS>MOLECULE
NONAME
49 50 1 0 0 
SMALL
USER_CHARGES


@<TRIPOS>ATOM
  1 BR       0.3700     0.6400    -0.2590 Br    1 <1>  -0.1110 
  2 C        2.1660     1.2740     0.0500 C.ar  1 <1>   0.1110 
  3 C        2.7530     2.1560    -0.8450 C.ar  1 <1>  -0.1440 
  4 C        2.8190     0.8150     1.1790 C.ar  1 <1>  -0.1500 
  5 C        4.0460     2.5800    -0.5760 C.ar  1 <1>  -0.1500 
  6 C        2.0180     2.6490    -2.0820 C.3   1 <1>  -0.0960 
  7 C        4.1080     1.2490     1.4320 C.ar  1 <1>  -0.1500 
  8 C        4.7260     2.1360     0.5500 C.ar  1 <1>   0.0830 
  9 O        5.9860     2.6090     0.7210 O.3   1 <1>  -0.3630 
 10 C        6.7770     2.2060     1.8320 C.3   1 <1>   0.1810 
 11 C        8.1550     2.8510     1.7890 C.2   1 <1>   0.5690 
 12 O        8.8380     2.8190     2.7910 O.2   1 <1>  -0.5700 
 13 N        8.5750     3.4460     0.6400 N.am  1 <1>  -0.4300 
 14 N        9.9470     3.8810     0.3640 N.am  1 <1>  -0.4300 
 15 C       10.8830     3.1460    -0.3080 C.2   1 <1>   0.5440 
 16 O       10.5190     2.1810    -0.9620 O.2   1 <1>  -0.5700 
 17 C       12.2820     3.5280    -0.2650 C.ar  1 <1>   0.0860 
 18 C       12.8640     4.0630     0.8830 C.ar  1 <1>  -0.1500 
 19 C       13.1040     3.3760    -1.3770 C.ar  1 <1>  -0.1500 
 20 C       14.1930     4.4460     0.9100 C.ar  1 <1>  -0.1500 
 21 C       14.4330     3.7560    -1.3510 C.ar  1 <1>  -0.1500 
 22 C       15.0080     4.3030    -0.2090 C.ar  1 <1>  -0.1430 
 23 C       16.4970     4.7140    -0.2290 C.3   1 <1>   0.1430 
 24 C       16.7240     5.7750    -1.3170 C.3   1 <1>  -0.2400 
 25 C       16.9810     5.3080     1.1050 C.3   1 <1>  -0.2400 
 26 C       17.3650     3.4830    -0.5300 C.3   1 <1>  -0.2400 
 27 H        2.3230     0.1320     1.8450 H     1 <1>   0.1500 
 28 H        4.5420     3.2630    -1.2420 H     1 <1>   0.1500 
 29 H        1.1170     3.1610    -1.7940 H     1 <1>   0.0800 
 30 H        1.7600     1.8160    -2.7120 H     1 <1>   0.0800 
 31 H        2.6290     3.3280    -2.6480 H     1 <1>   0.0800 
 32 H        4.6050     0.8870     2.3120 H     1 <1>   0.1500 
 33 H        6.8890     1.1380     1.8020 H     1 <1>   0.0800 
 34 H        6.2750     2.5020     2.7340 H     1 <1>   0.0800 
 35 H        7.9320     3.4330    -0.1620 H     1 <1>   0.3700 
 36 H       10.2420     4.7460     0.8270 H     1 <1>   0.3700 
 37 H       12.2730     4.1740     1.7760 H     1 <1>   0.1500 
 38 H       12.6890     2.9500    -2.2750 H     1 <1>   0.1500 
 39 H       14.5740     4.8520     1.8290 H     1 <1>   0.1500 
 40 H       15.0200     3.6170    -2.2410 H     1 <1>   0.1500 
 41 H       16.4920     5.3880    -2.2920 H     1 <1>   0.0800 
 42 H       17.7490     6.1000    -1.3230 H     1 <1>   0.0800 
 43 H       16.0950     6.6280    -1.1340 H     1 <1>   0.0800 
 44 H       16.4180     6.1910     1.3510 H     1 <1>   0.0800 
 45 H       18.0190     5.5820     1.0430 H     1 <1>   0.0800 
 46 H       16.8730     4.5900     1.8980 H     1 <1>   0.0800 
 47 H       17.1380     3.0750    -1.4970 H     1 <1>   0.0800 
 48 H       17.1860     2.7200     0.2070 H     1 <1>   0.0800 
 49 H       18.4090     3.7390    -0.5120 H     1 <1>   0.0800 
@<TRIPOS>BOND
  1   1   2  1   
  2   2   3  ar  
  3   2   4  ar  
  4   3   5  ar  
  5   3   6  1   
  6   4   7  ar  
  7   4  27  1   
  8   5   8  ar  
  9   5  28  1   
 10   6  29  1   
 11   6  30  1   
 12   6  31  1   
 13   7   8  ar  
 14   7  32  1   
 15   8   9  1   
 16   9  10  1   
 17  10  11  1   
 18  10  33  1   
 19  10  34  1   
 20  11  12  2   
 21  11  13  am  
 22  13  14  1   
 23  13  35  1   
 24  14  15  am  
 25  14  36  1   
 26  15  16  2   
 27  15  17  1   
 28  17  18  ar  
 29  17  19  ar  
 30  18  20  ar  
 31  18  37  1   
 32  19  21  ar  
 33  19  38  1   
 34  20  22  ar  
 35  20  39  1   
 36  21  22  ar  
 37  21  40  1   
 38  22  23  1   
 39  23  24  1   
 40  23  25  1   
 41  23  26  1   
 42  24  41  1   
 43  24  42  1   
 44  24  43  1   
 45  25  44  1   
 46  25  45  1   
 47  25  46  1   
 48  26  47  1   
 49  26  48  1   
 50  26  49  1   
@<TRIPOS>SUBSTRUCTURE
  1 ****  13 GROUP 4 **** **** 0

# MOE 2024.06 (io_trps.svl 2023.06)
