@<TRIPOS>MOLECULE
NONAME
43 45 1 0 0 
SMALL
USER_CHARGES


@<TRIPOS>ATOM
  1 O       -0.5110    -0.1360    -0.4270 O.2   1 <1>  -0.5700 
  2 C       -0.9290    -1.2630    -0.6160 C.2   1 <1>   0.6900 
  3 N       -2.2390    -1.4630    -0.9650 N.am  1 <1>  -0.6600 
  4 N       -0.1090    -2.3500    -0.5160 N.am  1 <1>  -0.5470 
  5 C       -3.0250    -2.6620    -0.5390 C.3   1 <1>   0.1400 
  6 C       -3.0940    -0.3190    -1.4060 C.3   1 <1>   0.1400 
  7 C        1.2010    -2.4830    -0.0350 C.ar  1 <1>   0.1170 
  8 C       -4.0500    -2.2860     0.5420 C.3   1 <1>   0.1400 
  9 C       -4.1250     0.0540    -0.3290 C.3   1 <1>   0.1400 
 10 C        1.9720    -3.5540    -0.4730 C.ar  1 <1>  -0.1500 
 11 C        1.7600    -1.5980     0.8820 C.ar  1 <1>  -0.1500 
 12 N       -4.9110    -1.1470     0.0970 N.am  1 <1>  -0.6600 
 13 C        3.2640    -3.7370    -0.0120 C.ar  1 <1>  -0.1500 
 14 C        3.0510    -1.7750     1.3440 C.ar  1 <1>  -0.1500 
 15 C       -6.2870    -1.2270     0.1340 C.2   1 <1>   0.5690 
 16 C        3.8060    -2.8460     0.8980 C.ar  1 <1>  -0.1500 
 17 O       -6.8270    -2.2780     0.4030 O.2   1 <1>  -0.5700 
 18 C       -7.1860    -0.0120    -0.2100 C.3   1 <1>   0.2610 
 19 O       -6.8340     1.1610     0.4910 O.3   1 <1>  -0.5600 
 20 C       -8.6810    -0.1970     0.0580 C.3   1 <1>  -0.1600 
 21 C       -7.9530     1.8900     0.8960 C.3   1 <1>   0.1200 
 22 C       -9.1610     1.2250     0.2550 C.3   1 <1>  -0.1600 
 23 H       -0.4860    -3.1610    -0.9910 H     1 <1>   0.3700 
 24 H       -2.3790    -3.4270    -0.1480 H     1 <1>   0.0800 
 25 H       -3.5450    -3.0670    -1.3910 H     1 <1>   0.0800 
 26 H       -3.6100    -0.5950    -2.3080 H     1 <1>   0.0800 
 27 H       -2.4870     0.5420    -1.6300 H     1 <1>   0.0800 
 28 H       -3.5290    -1.9990     1.4390 H     1 <1>   0.0800 
 29 H       -4.6480    -3.1490     0.7760 H     1 <1>   0.0800 
 30 H       -4.7650     0.8200    -0.7230 H     1 <1>   0.0800 
 31 H       -3.6120     0.4620     0.5250 H     1 <1>   0.0800 
 32 H        1.5630    -4.2500    -1.1810 H     1 <1>   0.1500 
 33 H        1.1840    -0.7640     1.2390 H     1 <1>   0.1500 
 34 H        3.8500    -4.5690    -0.3610 H     1 <1>   0.1500 
 35 H        3.4680    -1.0790     2.0500 H     1 <1>   0.1500 
 36 H        4.8110    -2.9840     1.2570 H     1 <1>   0.1500 
 37 H       -7.0540     0.2100    -1.2530 H     1 <1>   0.0800 
 38 H       -8.8210    -0.7610     0.9640 H     1 <1>   0.0800 
 39 H       -9.1760    -0.7030    -0.7520 H     1 <1>   0.0800 
 40 H       -7.8370     2.9150     0.5890 H     1 <1>   0.0800 
 41 H       -8.0060     1.8310     1.9700 H     1 <1>   0.0800 
 42 H      -10.0350     1.2860     0.8790 H     1 <1>   0.0800 
 43 H       -9.3660     1.6900    -0.6930 H     1 <1>   0.0800 
@<TRIPOS>BOND
  1   1   2  2   
  2   2   3  am  
  3   2   4  am  
  4   3   5  1   
  5   3   6  1   
  6   4   7  1   
  7   4  23  1   
  8   5   8  1   
  9   5  24  1   
 10   5  25  1   
 11   6   9  1   
 12   6  26  1   
 13   6  27  1   
 14   7  10  ar  
 15   7  11  ar  
 16   8  12  1   
 17   8  28  1   
 18   8  29  1   
 19   9  12  1   
 20   9  30  1   
 21   9  31  1   
 22  10  13  ar  
 23  10  32  1   
 24  11  14  ar  
 25  11  33  1   
 26  12  15  am  
 27  13  16  ar  
 28  13  34  1   
 29  14  16  ar  
 30  14  35  1   
 31  15  17  2   
 32  15  18  1   
 33  16  36  1   
 34  18  19  1   
 35  18  20  1   
 36  18  37  1   
 37  19  21  1   
 38  20  22  1   
 39  20  38  1   
 40  20  39  1   
 41  21  22  1   
 42  21  40  1   
 43  21  41  1   
 44  22  42  1   
 45  22  43  1   
@<TRIPOS>SUBSTRUCTURE
  1 ****   3 GROUP 4 **** **** 0

# MOE 2024.06 (io_trps.svl 2023.06)
