@<TRIPOS>MOLECULE
NONAME
32 34 1 0 0 
SMALL
USER_CHARGES


@<TRIPOS>ATOM
  1 O       -0.1280     0.3010    -0.0760 O.3   1 <1>  -0.2800 
  2 C       -1.0750     1.2270    -0.1110 C.2   1 <1>  -0.0400 
  3 C        0.6970     0.6000     0.9060 C.2   1 <1>  -0.0100 
  4 C       -0.8550     2.1420     0.8630 C.2   1 <1>  -0.1500 
  5 C       -2.1680     1.0940    -1.1800 C.3   1 <1>   0.6260 
  6 C        0.3050     1.7300     1.5300 C.2   1 <1>  -0.1500 
  7 N       -3.1610     2.2140    -1.2490 N.4   1 <1>  -0.1220 
  8 N       -2.9890    -0.1090    -0.8620 N.3   1 <1>  -0.6400 
  9 O       -2.6980     3.4800    -1.0040 O.2   1 <1>  -0.7500 
 10 C       -4.1740     1.8180    -0.2790 C.3   1 <1>   0.1760 
 11 O       -2.9840    -0.9820    -1.9150 O.3   1 <1>  -0.3000 
 12 C       -4.3480     0.3540    -0.6070 C.3   1 <1>   0.1900 
 13 C       -5.5260     2.5310    -0.2920 C.3   1 <1>  -0.1600 
 14 C       -5.0930    -0.3310     0.5330 C.3   1 <1>  -0.1600 
 15 C       -6.4080     1.8780     0.7940 C.3   1 <1>  -0.1600 
 16 C       -6.4790     0.3370     0.6790 C.3   1 <1>  -0.1600 
 17 H        1.5380    -0.0440     1.0930 H     1 <1>   0.1500 
 18 H       -1.4310     3.0210     1.0960 H     1 <1>   0.1500 
 19 H       -1.7040     0.9770    -2.1430 H     1 <1>   0.0800 
 20 H        0.7580     2.2380     2.3620 H     1 <1>   0.1500 
 21 H       -3.5600     2.2000    -2.1880 H     1 <1>   0.3600 
 22 H       -3.7410     1.9010     0.7010 H     1 <1>   0.0800 
 23 H       -2.5910    -1.8420    -1.6430 H     1 <1>   0.4000 
 24 H       -4.9340     0.2640    -1.5090 H     1 <1>   0.0800 
 25 H       -5.9940     2.4380    -1.2560 H     1 <1>   0.0800 
 26 H       -5.3830     3.5750    -0.0710 H     1 <1>   0.0800 
 27 H       -4.5350    -0.2260     1.4480 H     1 <1>   0.0800 
 28 H       -5.2110    -1.3780     0.3170 H     1 <1>   0.0800 
 29 H       -7.4020     2.2900     0.7460 H     1 <1>   0.0800 
 30 H       -6.0030     2.1310     1.7600 H     1 <1>   0.0800 
 31 H       -6.9790    -0.0630     1.5450 H     1 <1>   0.0800 
 32 H       -7.0770     0.0840    -0.1800 H     1 <1>   0.0800 
@<TRIPOS>BOND
  1   1   2  1   
  2   1   3  1   
  3   2   4  2   
  4   2   5  1   
  5   3   6  2   
  6   3  17  1   
  7   4   6  1   
  8   4  18  1   
  9   5   7  1   
 10   5   8  1   
 11   5  19  1   
 12   6  20  1   
 13   7   9  2   
 14   7  10  1   
 15   7  21  1   
 16   8  11  1   
 17   8  12  1   
 18  10  12  1   
 19  10  13  1   
 20  10  22  1   
 21  11  23  1   
 22  12  14  1   
 23  12  24  1   
 24  13  15  1   
 25  13  25  1   
 26  13  26  1   
 27  14  16  1   
 28  14  27  1   
 29  14  28  1   
 30  15  16  1   
 31  15  29  1   
 32  15  30  1   
 33  16  31  1   
 34  16  32  1   
@<TRIPOS>SUBSTRUCTURE
  1 ****   5 GROUP 4 **** **** 0

# MOE 2024.06 (io_trps.svl 2023.06)
