@<TRIPOS>MOLECULE
NONAME
47 48 1 0 0 
SMALL
USER_CHARGES


@<TRIPOS>ATOM
  1 CL       1.7360    -3.4260     2.2980 Cl    1 <1>  -0.1770 
  2 C        2.8450    -2.4750     1.3410 C.ar  1 <1>   0.1770 
  3 C        3.3180    -2.9850     0.1460 C.ar  1 <1>  -0.1500 
  4 C        3.2330    -1.2280     1.7930 C.ar  1 <1>  -0.1500 
  5 C        4.1990    -2.2330    -0.6140 C.ar  1 <1>  -0.1500 
  6 C        4.1140    -0.4790     1.0320 C.ar  1 <1>  -0.1500 
  7 C        4.6030    -0.9740    -0.1700 C.ar  1 <1>   0.0830 
  8 O        5.4680    -0.1710    -0.8390 O.3   1 <1>  -0.3630 
  9 C        6.0850    -0.5620    -2.0610 C.3   1 <1>   0.2610 
 10 C        7.0810    -1.7300    -1.8960 C.2   1 <1>   0.5690 
 11 C        6.7390     0.6770    -2.7020 C.3   1 <1>  -0.1600 
 12 O        6.9760    -2.6280    -2.7010 O.2   1 <1>  -0.5700 
 13 N        8.0570    -1.7780    -0.9210 N.am  1 <1>  -0.6600 
 14 C        5.7450     1.8180    -2.9680 C.3   1 <1>  -0.2400 
 15 C        8.1900    -0.7780     0.1930 C.3   1 <1>   0.1400 
 16 C        9.0730    -2.8810    -0.9220 C.3   1 <1>   0.1400 
 17 C        9.2520    -1.1600     1.2380 C.3   1 <1>   0.1400 
 18 C       10.4860    -2.3460    -0.6430 C.3   1 <1>   0.1400 
 19 N       10.5520    -1.5100     0.5930 N.am  1 <1>  -0.6600 
 20 C       11.7420    -1.0430     1.0790 C.2   1 <1>   0.7800 
 21 O       11.8190    -0.3470     2.0730 O.2   1 <1>  -0.5700 
 22 O       12.8490    -1.3790     0.4150 O.3   1 <1>  -0.4300 
 23 C       14.1130    -0.9350     0.8500 C.3   1 <1>   0.1200 
 24 C       15.1630    -1.4800    -0.1130 C.3   1 <1>  -0.2400 
 25 H        2.9990    -3.9580    -0.1820 H     1 <1>   0.1500 
 26 H        2.8490    -0.8530     2.7250 H     1 <1>   0.1500 
 27 H        4.5530    -2.6490    -1.5400 H     1 <1>   0.1500 
 28 H        4.4260     0.4940     1.3650 H     1 <1>   0.1500 
 29 H        5.2970    -0.8870    -2.7170 H     1 <1>   0.0800 
 30 H        7.1780     0.3780    -3.6380 H     1 <1>   0.0800 
 31 H        7.5360     1.0330    -2.0750 H     1 <1>   0.0800 
 32 H        4.9450     1.4820    -3.6050 H     1 <1>   0.0800 
 33 H        6.2460     2.6380    -3.4510 H     1 <1>   0.0800 
 34 H        5.3220     2.1760    -2.0450 H     1 <1>   0.0800 
 35 H        7.2510    -0.6800     0.7050 H     1 <1>   0.0800 
 36 H        8.4500     0.1800    -0.2190 H     1 <1>   0.0800 
 37 H        9.0800    -3.3890    -1.8710 H     1 <1>   0.0800 
 38 H        8.8090    -3.6030    -0.1690 H     1 <1>   0.0800 
 39 H        8.9040    -2.0040     1.8060 H     1 <1>   0.0800 
 40 H        9.3830    -0.3380     1.9210 H     1 <1>   0.0800 
 41 H       10.8060    -1.7520    -1.4820 H     1 <1>   0.0800 
 42 H       11.1660    -3.1750    -0.5480 H     1 <1>   0.0800 
 43 H       14.2770    -1.2990     1.8500 H     1 <1>   0.0800 
 44 H       14.1120     0.1430     0.8530 H     1 <1>   0.0800 
 45 H       15.1440    -2.5550    -0.1120 H     1 <1>   0.0800 
 46 H       16.1400    -1.1540     0.1950 H     1 <1>   0.0800 
 47 H       14.9780    -1.1160    -1.1080 H     1 <1>   0.0800 
@<TRIPOS>BOND
  1   1   2  1   
  2   2   3  ar  
  3   2   4  ar  
  4   3   5  ar  
  5   3  25  1   
  6   4   6  ar  
  7   4  26  1   
  8   5   7  ar  
  9   5  27  1   
 10   6   7  ar  
 11   6  28  1   
 12   7   8  1   
 13   8   9  1   
 14   9  10  1   
 15   9  11  1   
 16   9  29  1   
 17  10  12  2   
 18  10  13  am  
 19  11  14  1   
 20  11  30  1   
 21  11  31  1   
 22  13  15  1   
 23  13  16  1   
 24  14  32  1   
 25  14  33  1   
 26  14  34  1   
 27  15  17  1   
 28  15  35  1   
 29  15  36  1   
 30  16  18  1   
 31  16  37  1   
 32  16  38  1   
 33  17  19  1   
 34  17  39  1   
 35  17  40  1   
 36  18  19  1   
 37  18  41  1   
 38  18  42  1   
 39  19  20  am  
 40  20  21  2   
 41  20  22  1   
 42  22  23  1   
 43  23  24  1   
 44  23  43  1   
 45  23  44  1   
 46  24  45  1   
 47  24  46  1   
 48  24  47  1   
@<TRIPOS>SUBSTRUCTURE
  1 ****  15 GROUP 4 **** **** 0

# MOE 2024.06 (io_trps.svl 2023.06)
