@<TRIPOS>MOLECULE
NONAME
45 48 1 0 0 
SMALL
USER_CHARGES


@<TRIPOS>ATOM
  1 CL      -0.3580     0.1370    -0.1830 Cl    1 <1>  -0.1770 
  2 C       -1.9010     0.9480    -0.1970 C.ar  1 <1>   0.1770 
  3 C       -3.0470     0.2380     0.1030 C.ar  1 <1>  -0.1500 
  4 C       -1.9600     2.2920    -0.5090 C.ar  1 <1>  -0.1500 
  5 C       -4.2670     0.8890     0.0920 C.ar  1 <1>  -0.1500 
  6 C       -3.1860     2.9340    -0.5180 C.ar  1 <1>  -0.1500 
  7 C       -4.3670     2.2500    -0.2100 C.ar  1 <1>   0.0860 
  8 C       -5.6550     2.9150    -0.2040 C.2   1 <1>   0.3490 
  9 N       -6.6920     2.3270    -0.7270 N.2   1 <1>  -0.5760 
 10 C       -5.7760     4.2130     0.3900 C.2   1 <1>  -0.1360 
 11 C       -7.8860     3.0040    -0.7040 C.2   1 <1>  -0.0260 
 12 C       -6.9670     4.8760     0.4070 C.2   1 <1>  -0.1690 
 13 N       -8.0510     4.2560    -0.1640 N.pl3 1 <1>   0.6010 
 14 C       -9.1010     2.6390    -1.1730 C.2   1 <1>  -0.1500 
 15 C       -7.2300     6.2410     1.0010 C.3   1 <1>   1.1580 
 16 N       -9.3200     4.6740    -0.2790 N.2   1 <1>  -0.7070 
 17 C       -9.9690     3.6940    -0.8960 C.2   1 <1>   0.2030 
 18 F       -6.1210     6.7470     1.5290 F     1 <1>  -0.3400 
 19 F       -7.6390     7.1350     0.1110 F     1 <1>  -0.3400 
 20 F       -8.1160     6.2240     1.9880 F     1 <1>  -0.3400 
 21 C      -11.3880     3.6760    -1.2410 C.2   1 <1>   0.7160 
 22 O      -12.0110     4.6920    -1.4940 O.2   1 <1>  -0.5700 
 23 N      -12.0600     2.4850    -1.2830 N.am  1 <1>  -0.7300 
 24 C      -13.5250     2.3130    -1.4300 C.3   1 <1>   0.1400 
 25 C      -14.0860     1.6030    -0.1890 C.3   1 <1>   0.2000 
 26 O      -13.3060     0.4890     0.1210 O.3   1 <1>  -0.5600 
 27 C      -15.4900     1.0430    -0.3580 C.3   1 <1>  -0.1600 
 28 C      -14.0350    -0.4000     0.9050 C.3   1 <1>   0.1200 
 29 C      -15.5110    -0.1140     0.6270 C.3   1 <1>  -0.1600 
 30 H       -2.9800    -0.8100     0.3380 H     1 <1>   0.1500 
 31 H       -1.0540     2.8230    -0.7460 H     1 <1>   0.1500 
 32 H       -5.1650     0.3380     0.3190 H     1 <1>   0.1500 
 33 H       -3.2250     3.9770    -0.7770 H     1 <1>   0.1500 
 34 H       -4.8890     4.6360     0.8290 H     1 <1>   0.1500 
 35 H       -9.3460     1.7170    -1.6680 H     1 <1>   0.1500 
 36 H      -11.6260     1.6610    -0.8570 H     1 <1>   0.3700 
 37 H      -13.7200     1.7190    -2.3060 H     1 <1>   0.0800 
 38 H      -14.0110     3.2660    -1.5560 H     1 <1>   0.0800 
 39 H      -14.0520     2.2670     0.6590 H     1 <1>   0.0800 
 40 H      -15.6220     0.6760    -1.3610 H     1 <1>   0.0800 
 41 H      -16.2440     1.7820    -0.1470 H     1 <1>   0.0800 
 42 H      -13.7890    -0.2190     1.9380 H     1 <1>   0.0800 
 43 H      -13.7570    -1.4030     0.6300 H     1 <1>   0.0800 
 44 H      -16.0040    -0.9780     0.2170 H     1 <1>   0.0800 
 45 H      -16.0010     0.1660     1.5430 H     1 <1>   0.0800 
@<TRIPOS>BOND
  1   1   2  1   
  2   2   3  ar  
  3   2   4  ar  
  4   3   5  ar  
  5   3  30  1   
  6   4   6  ar  
  7   4  31  1   
  8   5   7  ar  
  9   5  32  1   
 10   6   7  ar  
 11   6  33  1   
 12   7   8  1   
 13   8   9  2   
 14   8  10  1   
 15   9  11  1   
 16  10  12  2   
 17  10  34  1   
 18  11  13  1   
 19  11  14  2   
 20  12  13  1   
 21  12  15  1   
 22  13  16  1   
 23  14  17  1   
 24  14  35  1   
 25  15  18  1   
 26  15  19  1   
 27  15  20  1   
 28  16  17  2   
 29  17  21  1   
 30  21  22  2   
 31  21  23  am  
 32  23  24  1   
 33  23  36  1   
 34  24  25  1   
 35  24  37  1   
 36  24  38  1   
 37  25  26  1   
 38  25  27  1   
 39  25  39  1   
 40  26  28  1   
 41  27  29  1   
 42  27  40  1   
 43  27  41  1   
 44  28  29  1   
 45  28  42  1   
 46  28  43  1   
 47  29  44  1   
 48  29  45  1   
@<TRIPOS>SUBSTRUCTURE
  1 ****  11 GROUP 4 **** **** 0

# MOE 2024.06 (io_trps.svl 2023.06)
