@<TRIPOS>MOLECULE
NONAME
53 55 1 0 0 
SMALL
USER_CHARGES


@<TRIPOS>ATOM
  1 CL      -0.5030    -0.1730    -0.9290 Cl    1 <1>  -0.1770 
  2 C       -2.1320    -0.6400    -0.5130 C.ar  1 <1>   0.1770 
  3 C       -2.3670    -1.2820     0.6890 C.ar  1 <1>  -0.1500 
  4 C       -3.1630    -0.3630    -1.3900 C.ar  1 <1>  -0.1500 
  5 C       -3.6610    -1.6520     1.0170 C.ar  1 <1>  -0.1500 
  6 C       -4.4540    -0.7350    -1.0560 C.ar  1 <1>  -0.1500 
  7 C       -4.7080    -1.3810     0.1460 C.ar  1 <1>  -0.1430 
  8 C       -6.1300    -1.7880     0.4980 C.3   1 <1>  -0.0160 
  9 C       -6.4810    -3.1170    -0.1720 C.3   1 <1>   0.1400 
 10 N       -7.8680    -3.5150     0.1800 N.am  1 <1>  -0.7300 
 11 C       -8.9830    -3.1580    -0.5290 C.2   1 <1>   0.5440 
 12 O       -8.8400    -2.4370    -1.4970 O.2   1 <1>  -0.5700 
 13 C      -10.3040    -3.6340    -0.1480 C.ar  1 <1>   0.0860 
 14 C      -11.3400    -3.6900    -1.0800 C.ar  1 <1>  -0.1500 
 15 C      -10.6070    -4.0490     1.1500 C.ar  1 <1>  -0.1500 
 16 C      -12.6010    -4.1470    -0.7400 C.ar  1 <1>  -0.1500 
 17 C      -11.8690    -4.5080     1.4880 C.ar  1 <1>  -0.1500 
 18 C      -12.8910    -4.5720     0.5490 C.ar  1 <1>  -0.0090 
 19 S      -14.5510    -5.1810     0.9830 S.o2  1 <1>   1.4470 
 20 O      -14.4940    -5.8330     2.2750 O.2   1 <1>  -0.6500 
 21 O      -15.4580    -4.0730     0.7800 O.2   1 <1>  -0.6500 
 22 N      -14.8560    -6.4050    -0.1610 N.am  1 <1>  -0.8490 
 23 C      -16.1780    -7.0550    -0.0080 C.3   1 <1>   0.2760 
 24 C      -13.7950    -7.4270    -0.0830 C.3   1 <1>   0.1960 
 25 C      -16.3790    -8.1110    -1.1130 C.3   1 <1>  -0.1600 
 26 C      -17.3480    -6.0700    -0.1120 C.3   1 <1>  -0.2400 
 27 C      -13.9200    -8.4520    -1.2100 C.3   1 <1>  -0.1600 
 28 C      -15.2690    -9.1620    -1.1380 C.3   1 <1>  -0.1600 
 29 H       -1.5480    -1.4850     1.3540 H     1 <1>   0.1500 
 30 H       -2.9560     0.1380    -2.3190 H     1 <1>   0.1500 
 31 H       -3.8460    -2.1510     1.9520 H     1 <1>   0.1500 
 32 H       -5.2630    -0.5230    -1.7360 H     1 <1>   0.1500 
 33 H       -6.8120    -1.0280     0.1580 H     1 <1>   0.0800 
 34 H       -6.2300    -1.8800     1.5640 H     1 <1>   0.0800 
 35 H       -5.7940    -3.8820     0.1450 H     1 <1>   0.0800 
 36 H       -6.3960    -3.0120    -1.2410 H     1 <1>   0.0800 
 37 H       -7.9560    -4.1710     0.9560 H     1 <1>   0.3700 
 38 H      -11.1480    -3.3660    -2.0900 H     1 <1>   0.1500 
 39 H       -9.8520    -4.0040     1.9140 H     1 <1>   0.1500 
 40 H      -13.3780    -4.1740    -1.4870 H     1 <1>   0.1500 
 41 H      -12.0680    -4.8190     2.5010 H     1 <1>   0.1500 
 42 H      -16.2250    -7.5440     0.9530 H     1 <1>   0.0800 
 43 H      -13.8390    -7.9300     0.8700 H     1 <1>   0.0800 
 44 H      -12.8250    -6.9710    -0.1720 H     1 <1>   0.0800 
 45 H      -16.4180    -7.6130    -2.0660 H     1 <1>   0.0800 
 46 H      -17.3200    -8.6100    -0.9670 H     1 <1>   0.0800 
 47 H      -17.2090    -5.4050    -0.9460 H     1 <1>   0.0800 
 48 H      -17.4530    -5.5020     0.7930 H     1 <1>   0.0800 
 49 H      -18.2740    -6.5990    -0.2480 H     1 <1>   0.0800 
 50 H      -13.1270    -9.1740    -1.1290 H     1 <1>   0.0800 
 51 H      -13.8160    -7.9490    -2.1560 H     1 <1>   0.0800 
 52 H      -15.3920    -9.8120    -1.9870 H     1 <1>   0.0800 
 53 H      -15.3170    -9.7610    -0.2440 H     1 <1>   0.0800 
@<TRIPOS>BOND
  1   1   2  1   
  2   2   3  ar  
  3   2   4  ar  
  4   3   5  ar  
  5   3  29  1   
  6   4   6  ar  
  7   4  30  1   
  8   5   7  ar  
  9   5  31  1   
 10   6   7  ar  
 11   6  32  1   
 12   7   8  1   
 13   8   9  1   
 14   8  33  1   
 15   8  34  1   
 16   9  10  1   
 17   9  35  1   
 18   9  36  1   
 19  10  11  am  
 20  10  37  1   
 21  11  12  2   
 22  11  13  1   
 23  13  14  ar  
 24  13  15  ar  
 25  14  16  ar  
 26  14  38  1   
 27  15  17  ar  
 28  15  39  1   
 29  16  18  ar  
 30  16  40  1   
 31  17  18  ar  
 32  17  41  1   
 33  18  19  1   
 34  19  20  2   
 35  19  21  2   
 36  19  22  am  
 37  22  23  1   
 38  22  24  1   
 39  23  25  1   
 40  23  26  1   
 41  23  42  1   
 42  24  27  1   
 43  24  43  1   
 44  24  44  1   
 45  25  28  1   
 46  25  45  1   
 47  25  46  1   
 48  26  47  1   
 49  26  48  1   
 50  26  49  1   
 51  27  28  1   
 52  27  50  1   
 53  27  51  1   
 54  28  52  1   
 55  28  53  1   
@<TRIPOS>SUBSTRUCTURE
  1 ****  13 GROUP 4 **** **** 0

# MOE 2024.06 (io_trps.svl 2023.06)
