@<TRIPOS>MOLECULE
NONAME
47 48 1 0 0 
SMALL
USER_CHARGES


@<TRIPOS>ATOM
  1 O        0.6650    -0.3410    -0.4590 O.3   1 <1>  -0.5600 
  2 C       -0.3650    -0.2140     0.4710 C.3   1 <1>   0.1200 
  3 C        1.8050    -0.9660     0.0370 C.3   1 <1>   0.1200 
  4 C       -1.5190     0.5440    -0.1850 C.3   1 <1>   0.1200 
  5 C        2.8600    -0.9680    -1.0720 C.3   1 <1>   0.1100 
  6 O       -2.5920     0.5990     0.6940 O.3   1 <1>  -0.6800 
  7 N        4.1190    -1.6110    -0.6350 N.3   1 <1>  -0.8100 
  8 C        4.0180    -3.0920    -0.6090 C.3   1 <1>   0.1100 
  9 C        5.2430    -1.1910    -1.5110 C.3   1 <1>   0.1100 
 10 C        5.3330    -3.7650    -0.1420 C.3   1 <1>   0.3430 
 11 C        6.5800    -1.8800    -1.1450 C.3   1 <1>   0.3430 
 12 N        6.4180    -2.7540     0.0630 N.4   1 <1>  -0.9590 
 13 C        7.6930    -3.3160     0.5810 C.3   1 <1>   0.4860 
 14 C        8.6630    -2.1770     0.8410 C.ar  1 <1>  -0.1430 
 15 C        9.7900    -1.9810     0.0470 C.ar  1 <1>  -0.1430 
 16 C        8.4030    -1.3070     1.8920 C.ar  1 <1>  -0.1500 
 17 C       10.6280    -0.9080     0.3110 C.ar  1 <1>  -0.1500 
 18 C       10.1490    -2.9150    -1.1030 C.3   1 <1>  -0.0970 
 19 C        9.2450    -0.2410     2.1460 C.ar  1 <1>  -0.1500 
 20 C       10.3570    -0.0400     1.3520 C.ar  1 <1>  -0.1500 
 21 H       -0.0010     0.3380     1.3210 H     1 <1>   0.0800 
 22 H       -0.6800    -1.2000     0.7660 H     1 <1>   0.0800 
 23 H        1.5410    -1.9670     0.3260 H     1 <1>   0.0800 
 24 H        2.1630    -0.4090     0.8860 H     1 <1>   0.0800 
 25 H       -1.8420     0.0500    -1.0850 H     1 <1>   0.0800 
 26 H       -1.2210     1.5530    -0.4080 H     1 <1>   0.0800 
 27 H        3.0540     0.0600    -1.3290 H     1 <1>   0.0800 
 28 H        2.4690    -1.4670    -1.9430 H     1 <1>   0.0800 
 29 H       -3.0100    -0.2790     0.7880 H     1 <1>   0.4000 
 30 H        3.7660    -3.4560    -1.5910 H     1 <1>   0.0800 
 31 H        3.2270    -3.3920     0.0560 H     1 <1>   0.0800 
 32 H        5.3750    -0.1250    -1.4290 H     1 <1>   0.0800 
 33 H        5.0070    -1.4070    -2.5400 H     1 <1>   0.0800 
 34 H        5.6370    -4.4920    -0.8770 H     1 <1>   0.0800 
 35 H        5.1450    -4.2900     0.7800 H     1 <1>   0.0800 
 36 H        7.3210    -1.1190    -0.9570 H     1 <1>   0.0800 
 37 H        6.9200    -2.4660    -1.9830 H     1 <1>   0.0800 
 38 H        6.0400    -2.1000     0.7640 H     1 <1>   0.4500 
 39 H        8.1110    -4.0050    -0.1330 H     1 <1>   0.0800 
 40 H        7.5170    -3.8470     1.5020 H     1 <1>   0.0800 
 41 H        7.5460    -1.4450     2.5290 H     1 <1>   0.1500 
 42 H       11.5050    -0.7370    -0.2900 H     1 <1>   0.1500 
 43 H        9.3600    -2.9450    -1.8320 H     1 <1>   0.0800 
 44 H       10.3310    -3.9080    -0.7320 H     1 <1>   0.0800 
 45 H       11.0440    -2.5830    -1.6000 H     1 <1>   0.0800 
 46 H        9.0410     0.4330     2.9620 H     1 <1>   0.1500 
 47 H       11.0170     0.7890     1.5480 H     1 <1>   0.1500 
@<TRIPOS>BOND
  1   1   2  1   
  2   1   3  1   
  3   2   4  1   
  4   2  21  1   
  5   2  22  1   
  6   3   5  1   
  7   3  23  1   
  8   3  24  1   
  9   4   6  1   
 10   4  25  1   
 11   4  26  1   
 12   5   7  1   
 13   5  27  1   
 14   5  28  1   
 15   6  29  1   
 16   7   8  1   
 17   7   9  1   
 18   8  10  1   
 19   8  30  1   
 20   8  31  1   
 21   9  11  1   
 22   9  32  1   
 23   9  33  1   
 24  10  12  1   
 25  10  34  1   
 26  10  35  1   
 27  11  12  1   
 28  11  36  1   
 29  11  37  1   
 30  12  13  1   
 31  12  38  1   
 32  13  14  1   
 33  13  39  1   
 34  13  40  1   
 35  14  15  ar  
 36  14  16  ar  
 37  15  17  ar  
 38  15  18  1   
 39  16  19  ar  
 40  16  41  1   
 41  17  20  ar  
 42  17  42  1   
 43  18  43  1   
 44  18  44  1   
 45  18  45  1   
 46  19  20  ar  
 47  19  46  1   
 48  20  47  1   
@<TRIPOS>SUBSTRUCTURE
  1 ****   7 GROUP 4 **** **** 0

# MOE 2024.06 (io_trps.svl 2023.06)
