@<TRIPOS>MOLECULE
NONAME
46 48 1 0 0 
SMALL
USER_CHARGES


@<TRIPOS>ATOM
  1 N       -0.0260     0.0480    -0.1130 N.pl3 1 <1>  -0.8380 
  2 C       -1.2350     0.7170    -0.2640 C.ar  1 <1>   0.1000 
  3 C        0.1550    -0.7040     1.1600 C.3   1 <1>   0.2090 
  4 C        1.1880     0.7670    -0.5910 C.3   1 <1>   0.2090 
  5 C       -2.1610     0.2600    -1.1910 C.ar  1 <1>  -0.1500 
  6 C       -1.5450     1.8410     0.4940 C.ar  1 <1>  -0.1500 
  7 C        1.3720    -1.6480     1.0660 C.3   1 <1>   0.3430 
  8 C        2.3950    -0.1910    -0.6660 C.3   1 <1>   0.3430 
  9 C       -3.3710     0.9070    -1.3610 C.ar  1 <1>  -0.1500 
 10 C       -2.7540     2.4920     0.3280 C.ar  1 <1>  -0.1500 
 11 N        2.6340    -0.9370     0.6320 N.4   1 <1>  -0.9590 
 12 C       -3.6690     2.0250    -0.6010 C.ar  1 <1>  -0.1500 
 13 C        3.7710    -1.8940     0.5370 C.3   1 <1>   0.3430 
 14 C        5.0920    -1.1370     0.4210 C.3   1 <1>  -0.1600 
 15 C        6.2890    -2.0950     0.4520 C.3   1 <1>  -0.0170 
 16 C        7.5720    -1.2980     0.3130 C.ar  1 <1>  -0.1430 
 17 C        8.1240    -1.0730    -0.9390 C.ar  1 <1>  -0.1500 
 18 C        8.2000    -0.7790     1.4360 C.ar  1 <1>  -0.1500 
 19 C        9.2870    -0.3330    -1.0680 C.ar  1 <1>  -0.1500 
 20 C        9.3620    -0.0400     1.3080 C.ar  1 <1>  -0.1500 
 21 C        9.9060     0.1850     0.0560 C.ar  1 <1>  -0.1500 
 22 H       -0.7330    -1.2820     1.3560 H     1 <1>   0.0800 
 23 H        0.2850    -0.0130     1.9750 H     1 <1>   0.0800 
 24 H        1.4090     1.5870     0.0710 H     1 <1>   0.0800 
 25 H        0.9940     1.1750    -1.5690 H     1 <1>   0.0800 
 26 H       -1.9270    -0.6080    -1.7800 H     1 <1>   0.1500 
 27 H       -0.8410     2.2090     1.2160 H     1 <1>   0.1500 
 28 H        1.1340    -2.4220     0.3550 H     1 <1>   0.0800 
 29 H        1.5250    -2.1160     2.0240 H     1 <1>   0.0800 
 30 H        3.2700     0.3770    -0.9320 H     1 <1>   0.0800 
 31 H        2.2070    -0.8980    -1.4570 H     1 <1>   0.0800 
 32 H       -4.0810     0.5440    -2.0830 H     1 <1>   0.1500 
 33 H       -2.9870     3.3610     0.9180 H     1 <1>   0.1500 
 34 H        2.8560    -0.2380     1.3520 H     1 <1>   0.4500 
 35 H       -4.6110     2.5300    -0.7320 H     1 <1>   0.1500 
 36 H        3.6410    -2.5420    -0.3150 H     1 <1>   0.0800 
 37 H        3.8000    -2.5060     1.4240 H     1 <1>   0.0800 
 38 H        5.1910    -0.4440     1.2380 H     1 <1>   0.0800 
 39 H        5.1300    -0.5880    -0.5030 H     1 <1>   0.0800 
 40 H        6.2230    -2.8080    -0.3520 H     1 <1>   0.0800 
 41 H        6.3090    -2.6430     1.3790 H     1 <1>   0.0800 
 42 H        7.6580    -1.4700    -1.8230 H     1 <1>   0.1500 
 43 H        7.7910    -0.9470     2.4170 H     1 <1>   0.1500 
 44 H        9.7130    -0.1610    -2.0410 H     1 <1>   0.1500 
 45 H        9.8460     0.3610     2.1820 H     1 <1>   0.1500 
 46 H       10.8100     0.7600    -0.0430 H     1 <1>   0.1500 
@<TRIPOS>BOND
  1   1   2  1   
  2   1   3  1   
  3   1   4  1   
  4   2   5  ar  
  5   2   6  ar  
  6   3   7  1   
  7   3  22  1   
  8   3  23  1   
  9   4   8  1   
 10   4  24  1   
 11   4  25  1   
 12   5   9  ar  
 13   5  26  1   
 14   6  10  ar  
 15   6  27  1   
 16   7  11  1   
 17   7  28  1   
 18   7  29  1   
 19   8  11  1   
 20   8  30  1   
 21   8  31  1   
 22   9  12  ar  
 23   9  32  1   
 24  10  12  ar  
 25  10  33  1   
 26  11  13  1   
 27  11  34  1   
 28  12  35  1   
 29  13  14  1   
 30  13  36  1   
 31  13  37  1   
 32  14  15  1   
 33  14  38  1   
 34  14  39  1   
 35  15  16  1   
 36  15  40  1   
 37  15  41  1   
 38  16  17  ar  
 39  16  18  ar  
 40  17  19  ar  
 41  17  42  1   
 42  18  20  ar  
 43  18  43  1   
 44  19  21  ar  
 45  19  44  1   
 46  20  21  ar  
 47  20  45  1   
 48  21  46  1   
@<TRIPOS>SUBSTRUCTURE
  1 ****   8 GROUP 4 **** **** 0

# MOE 2024.06 (io_trps.svl 2023.06)
