@<TRIPOS>MOLECULE
NONAME
47 50 1 0 0 
SMALL
USER_CHARGES


@<TRIPOS>ATOM
  1 CL      -0.2450     0.8620     1.8520 Cl    1 <1>  -0.1770 
  2 C       -1.8130     1.4790     1.4060 C.ar  1 <1>   0.1770 
  3 C       -2.8480     0.5980     1.1620 C.ar  1 <1>  -0.1500 
  4 C       -2.0030     2.8440     1.3050 C.ar  1 <1>  -0.1500 
  5 C       -4.0890     1.0950     0.8060 C.ar  1 <1>  -0.1500 
  6 C       -3.2490     3.3300     0.9490 C.ar  1 <1>  -0.1500 
  7 C       -4.3180     2.4680     0.6830 C.ar  1 <1>   0.0860 
  8 C       -5.6230     2.9680     0.2980 C.2   1 <1>   0.3490 
  9 N       -6.6980     2.4440     0.8140 N.2   1 <1>  -0.5760 
 10 C       -5.7170     4.0300    -0.6590 C.2   1 <1>  -0.1360 
 11 C       -7.9080     2.9640     0.4250 C.2   1 <1>  -0.0260 
 12 C       -6.9240     4.5360    -1.0400 C.2   1 <1>  -0.1690 
 13 N       -8.0510     3.9910    -0.4760 N.pl3 1 <1>   0.6010 
 14 C       -9.1620     2.6240     0.8020 C.2   1 <1>  -0.1500 
 15 C       -7.1620     5.6470    -2.0370 C.3   1 <1>   1.1580 
 16 N       -9.3430     4.2880    -0.6790 N.2   1 <1>  -0.7070 
 17 C      -10.0270     3.4640     0.1050 C.2   1 <1>   0.2030 
 18 F       -6.0110     6.0990    -2.5230 F     1 <1>  -0.3400 
 19 F       -7.7650     6.7060    -1.5150 F     1 <1>  -0.3400 
 20 F       -7.8670     5.2650    -3.0930 F     1 <1>  -0.3400 
 21 C      -11.4790     3.3930     0.2390 C.2   1 <1>   0.7160 
 22 O      -12.1380     4.4080     0.3820 O.2   1 <1>  -0.5700 
 23 N      -12.1150     2.1630     0.1890 N.am  1 <1>  -0.6600 
 24 C      -13.4530     1.8600     0.7710 C.3   1 <1>   0.2200 
 25 C      -11.7630     1.2250    -0.9110 C.3   1 <1>   0.1400 
 26 C      -14.5170     2.0720    -0.3120 C.3   1 <1>  -0.1600 
 27 C      -13.7570     2.6270     2.0610 C.3   1 <1>  -0.2400 
 28 C      -12.7910     1.3800    -2.0390 C.3   1 <1>  -0.1600 
 29 C      -14.2330     1.1890    -1.5400 C.3   1 <1>  -0.1600 
 30 H       -2.6810    -0.4610     1.2530 H     1 <1>   0.1500 
 31 H       -1.1830     3.5100     1.5060 H     1 <1>   0.1500 
 32 H       -4.9010     0.4120     0.6210 H     1 <1>   0.1500 
 33 H       -3.3930     4.3950     0.8860 H     1 <1>   0.1500 
 34 H       -4.7940     4.4030    -1.0690 H     1 <1>   0.1500 
 35 H       -9.4450     1.8600     1.5020 H     1 <1>   0.1500 
 36 H      -13.4550     0.8150     1.0330 H     1 <1>   0.0800 
 37 H      -11.7720     0.2150    -0.5360 H     1 <1>   0.0800 
 38 H      -10.7770     1.4300    -1.2930 H     1 <1>   0.0800 
 39 H      -14.5230     3.1100    -0.5990 H     1 <1>   0.0800 
 40 H      -15.4880     1.8330     0.0830 H     1 <1>   0.0800 
 41 H      -13.9620     3.6620     1.8610 H     1 <1>   0.0800 
 42 H      -12.9330     2.5480     2.7450 H     1 <1>   0.0800 
 43 H      -14.6280     2.2080     2.5300 H     1 <1>   0.0800 
 44 H      -12.5800     0.6660    -2.8160 H     1 <1>   0.0800 
 45 H      -12.6870     2.3630    -2.4650 H     1 <1>   0.0800 
 46 H      -14.9260     1.4290    -2.3280 H     1 <1>   0.0800 
 47 H      -14.3790     0.1560    -1.2730 H     1 <1>   0.0800 
@<TRIPOS>BOND
  1   1   2  1   
  2   2   3  ar  
  3   2   4  ar  
  4   3   5  ar  
  5   3  30  1   
  6   4   6  ar  
  7   4  31  1   
  8   5   7  ar  
  9   5  32  1   
 10   6   7  ar  
 11   6  33  1   
 12   7   8  1   
 13   8   9  2   
 14   8  10  1   
 15   9  11  1   
 16  10  12  2   
 17  10  34  1   
 18  11  13  1   
 19  11  14  2   
 20  12  13  1   
 21  12  15  1   
 22  13  16  1   
 23  14  17  1   
 24  14  35  1   
 25  15  18  1   
 26  15  19  1   
 27  15  20  1   
 28  16  17  2   
 29  17  21  1   
 30  21  22  2   
 31  21  23  am  
 32  23  24  1   
 33  23  25  1   
 34  24  26  1   
 35  24  27  1   
 36  24  36  1   
 37  25  28  1   
 38  25  37  1   
 39  25  38  1   
 40  26  29  1   
 41  26  39  1   
 42  26  40  1   
 43  27  41  1   
 44  27  42  1   
 45  27  43  1   
 46  28  29  1   
 47  28  44  1   
 48  28  45  1   
 49  29  46  1   
 50  29  47  1   
@<TRIPOS>SUBSTRUCTURE
  1 ****  11 GROUP 4 **** **** 0

# MOE 2024.06 (io_trps.svl 2023.06)
