@<TRIPOS>MOLECULE
NONAME
31 31 1 0 0 
SMALL
USER_CHARGES


@<TRIPOS>ATOM
  1 S       -0.2490    -0.0590     0.0950 S.o2  1 <1>   1.4470 
  2 O       -0.7110    -0.2900    -1.2560 O.2   1 <1>  -0.6500 
  3 O       -1.1540    -0.2010     1.2120 O.2   1 <1>  -0.6500 
  4 N        0.8810    -1.2610     0.4210 N.am  1 <1>  -0.9140 
  5 C        0.7010     1.4860     0.1870 C.ar  1 <1>  -0.0090 
  6 C        0.5360    -2.5590    -0.1520 C.3   1 <1>   0.1160 
  7 C        0.0320     2.7050     0.2020 C.ar  1 <1>   0.0830 
  8 C        2.0900     1.4990     0.2240 C.ar  1 <1>  -0.1500 
  9 O       -1.3180     2.6780     0.1420 O.3   1 <1>  -0.3630 
 10 C        0.7500     3.8970     0.2750 C.ar  1 <1>  -0.1500 
 11 C        2.8360     2.6750     0.2900 C.ar  1 <1>   0.0860 
 12 C       -2.1150     3.8410     0.1720 C.3   1 <1>   0.0400 
 13 C        2.1290     3.8760     0.3220 C.ar  1 <1>  -0.1500 
 14 C        4.2870     2.6360     0.3270 C.2   1 <1>   0.5440 
 15 O        4.8640     1.7050     0.8520 O.2   1 <1>  -0.5700 
 16 N        5.0280     3.6380    -0.2390 N.am  1 <1>  -0.7300 
 17 C        6.5130     3.7070    -0.2560 C.3   1 <1>   0.0600 
 18 H        0.8210    -1.3490     1.4350 H     1 <1>   0.4200 
 19 H        0.5610    -2.5060    -1.2280 H     1 <1>   0.0800 
 20 H       -0.4530    -2.8550     0.1600 H     1 <1>   0.0800 
 21 H        1.2450    -3.3010     0.1720 H     1 <1>   0.0800 
 22 H        2.6330     0.5690     0.1990 H     1 <1>   0.1500 
 23 H        0.2480     4.8460     0.2980 H     1 <1>   0.1500 
 24 H       -3.1460     3.5390     0.1210 H     1 <1>   0.0800 
 25 H       -1.8720     4.4540    -0.6770 H     1 <1>   0.0800 
 26 H       -1.9350     4.3650     1.0940 H     1 <1>   0.0800 
 27 H        2.6660     4.8050     0.3920 H     1 <1>   0.1500 
 28 H        4.5480     4.3550    -0.7850 H     1 <1>   0.3700 
 29 H        6.9330     2.9310     0.3620 H     1 <1>   0.0800 
 30 H        6.8380     4.6610     0.1210 H     1 <1>   0.0800 
 31 H        6.8710     3.5800    -1.2620 H     1 <1>   0.0800 
@<TRIPOS>BOND
  1   1   2  2   
  2   1   3  2   
  3   1   4  am  
  4   1   5  1   
  5   4   6  1   
  6   4  18  1   
  7   5   7  ar  
  8   5   8  ar  
  9   6  19  1   
 10   6  20  1   
 11   6  21  1   
 12   7   9  1   
 13   7  10  ar  
 14   8  11  ar  
 15   8  22  1   
 16   9  12  1   
 17  10  13  ar  
 18  10  23  1   
 19  11  13  ar  
 20  11  14  1   
 21  12  24  1   
 22  12  25  1   
 23  12  26  1   
 24  13  27  1   
 25  14  15  2   
 26  14  16  am  
 27  16  17  1   
 28  16  28  1   
 29  17  29  1   
 30  17  30  1   
 31  17  31  1   
@<TRIPOS>SUBSTRUCTURE
  1 ****   8 GROUP 4 **** **** 0

# MOE 2024.06 (io_trps.svl 2023.06)
