@<TRIPOS>MOLECULE
NONAME
46 48 1 0 0 
SMALL
USER_CHARGES


@<TRIPOS>ATOM
  1 F        0.2250    -0.4410    -0.9070 F     1 <1>  -0.1900 
  2 C        1.0170    -1.4560    -0.6870 C.ar  1 <1>   0.1900 
  3 C        2.3780    -1.2380    -0.6240 C.ar  1 <1>  -0.1500 
  4 C        0.4560    -2.7090    -0.5310 C.ar  1 <1>  -0.1500 
  5 C        3.2290    -2.3150    -0.3920 C.ar  1 <1>   0.1170 
  6 C        1.3000    -3.7830    -0.3030 C.ar  1 <1>  -0.1500 
  7 N        4.6220    -2.1770    -0.3310 N.am  1 <1>  -0.5470 
  8 C        2.6700    -3.5820    -0.2360 C.ar  1 <1>  -0.1500 
  9 C        5.4020    -1.1050     0.0000 C.2   1 <1>   0.6900 
 10 O        4.9080    -0.0930     0.4580 O.2   1 <1>  -0.5700 
 11 N        6.7600    -1.1960    -0.1640 N.am  1 <1>  -0.6600 
 12 C        7.6830    -0.1760     0.4280 C.3   1 <1>   0.1400 
 13 C        7.4720    -2.1940    -1.0220 C.3   1 <1>   0.1400 
 14 C        8.8450    -0.8340     1.1940 C.3   1 <1>   0.2090 
 15 C        8.6030    -2.8950    -0.2490 C.3   1 <1>   0.2090 
 16 N        9.5150    -1.9200     0.4130 N.pl3 1 <1>  -0.8380 
 17 C       10.7440    -1.6580    -0.1940 C.ar  1 <1>   0.1000 
 18 C       11.9170    -2.2950     0.2270 C.ar  1 <1>  -0.1430 
 19 C       10.8040    -0.7570    -1.2510 C.ar  1 <1>  -0.1500 
 20 C       13.1200    -2.0330    -0.4260 C.ar  1 <1>  -0.1430 
 21 C       11.8500    -3.2760     1.3990 C.3   1 <1>  -0.0970 
 22 C       11.9970    -0.4900    -1.8880 C.ar  1 <1>  -0.1500 
 23 C       13.1510    -1.1290    -1.4770 C.ar  1 <1>  -0.1500 
 24 C       14.4240    -2.7130    -0.0310 C.3   1 <1>  -0.0970 
 25 H        2.7630    -0.2440    -0.7550 H     1 <1>   0.1500 
 26 H       -0.6100    -2.8350    -0.5880 H     1 <1>   0.1500 
 27 H        0.8890    -4.7710    -0.1770 H     1 <1>   0.1500 
 28 H        5.1530    -3.0330    -0.4210 H     1 <1>   0.3700 
 29 H        3.3120    -4.4240    -0.0560 H     1 <1>   0.1500 
 30 H        7.1490     0.4700     1.1040 H     1 <1>   0.0800 
 31 H        8.0790     0.4380    -0.3600 H     1 <1>   0.0800 
 32 H        7.9020    -1.6810    -1.8650 H     1 <1>   0.0800 
 33 H        6.7930    -2.9320    -1.4070 H     1 <1>   0.0800 
 34 H        8.4670    -1.2530     2.1100 H     1 <1>   0.0800 
 35 H        9.5710    -0.0830     1.4550 H     1 <1>   0.0800 
 36 H        9.1720    -3.5100    -0.9250 H     1 <1>   0.0800 
 37 H        8.1780    -3.5370     0.5030 H     1 <1>   0.0800 
 38 H        9.9080    -0.2670    -1.5750 H     1 <1>   0.1500 
 39 H       11.1170    -2.9590     2.1170 H     1 <1>   0.0800 
 40 H       12.7860    -3.3460     1.9180 H     1 <1>   0.0800 
 41 H       11.5760    -4.2490     1.0350 H     1 <1>   0.0800 
 42 H       12.0310     0.2110    -2.7040 H     1 <1>   0.1500 
 43 H       14.0750    -0.9150    -1.9840 H     1 <1>   0.1500 
 44 H       14.2870    -3.7780     0.0180 H     1 <1>   0.0800 
 45 H       14.7470    -2.3530     0.9300 H     1 <1>   0.0800 
 46 H       15.1990    -2.5100    -0.7470 H     1 <1>   0.0800 
@<TRIPOS>BOND
  1   1   2  1   
  2   2   3  ar  
  3   2   4  ar  
  4   3   5  ar  
  5   3  25  1   
  6   4   6  ar  
  7   4  26  1   
  8   5   7  1   
  9   5   8  ar  
 10   6   8  ar  
 11   6  27  1   
 12   7   9  am  
 13   7  28  1   
 14   8  29  1   
 15   9  10  2   
 16   9  11  am  
 17  11  12  1   
 18  11  13  1   
 19  12  14  1   
 20  12  30  1   
 21  12  31  1   
 22  13  15  1   
 23  13  32  1   
 24  13  33  1   
 25  14  16  1   
 26  14  34  1   
 27  14  35  1   
 28  15  16  1   
 29  15  36  1   
 30  15  37  1   
 31  16  17  1   
 32  17  18  ar  
 33  17  19  ar  
 34  18  20  ar  
 35  18  21  1   
 36  19  22  ar  
 37  19  38  1   
 38  20  23  ar  
 39  20  24  1   
 40  21  39  1   
 41  21  40  1   
 42  21  41  1   
 43  22  23  ar  
 44  22  42  1   
 45  23  43  1   
 46  24  44  1   
 47  24  45  1   
 48  24  46  1   
@<TRIPOS>SUBSTRUCTURE
  1 ****  11 GROUP 4 **** **** 0

# MOE 2024.06 (io_trps.svl 2023.06)
