@<TRIPOS>MOLECULE
NONAME
37 37 1 0 0 
SMALL
USER_CHARGES


@<TRIPOS>ATOM
  1 S       -0.0350    -0.0400    -0.0950 S.o2  1 <1>   1.4470 
  2 O       -0.0950    -0.9330    -1.2280 O.2   1 <1>  -0.6500 
  3 O       -0.2240    -0.5410     1.2470 O.2   1 <1>  -0.6500 
  4 N       -1.2660     1.0580    -0.3930 N.am  1 <1>  -0.9140 
  5 C        1.4540     0.9880    -0.1670 C.ar  1 <1>  -0.0090 
  6 C       -2.5530     0.6060     0.0990 C.3   1 <1>   0.1960 
  7 C        2.4680     0.7330    -1.0830 C.ar  1 <1>  -0.1500 
  8 C        1.6150     2.0630     0.7000 C.ar  1 <1>  -0.1500 
  9 C       -3.6260     1.5930    -0.3540 C.3   1 <1>  -0.1600 
 10 C        3.6010     1.5240    -1.1320 C.ar  1 <1>  -0.1500 
 11 C        2.7450     2.8610     0.6600 C.ar  1 <1>  -0.1500 
 12 C       -5.0140     1.1750     0.1480 C.3   1 <1>  -0.1600 
 13 C        3.7490     2.5910    -0.2640 C.ar  1 <1>   0.0830 
 14 C       -6.0870     2.1670    -0.3070 C.3   1 <1>  -0.2400 
 15 O        4.8870     3.3150    -0.3740 O.3   1 <1>  -0.3620 
 16 C        5.1480     4.4170     0.4850 C.3   1 <1>   0.1810 
 17 C        6.4980     5.0530     0.1730 C.2   1 <1>   0.5690 
 18 O        6.8620     6.0080     0.8080 O.2   1 <1>  -0.5700 
 19 N        7.2790     4.5520    -0.8050 N.am  1 <1>  -0.8000 
 20 H       -1.3300     1.0670    -1.4090 H     1 <1>   0.4200 
 21 H       -2.5330     0.5580     1.1770 H     1 <1>   0.0800 
 22 H       -2.7700    -0.3790    -0.2840 H     1 <1>   0.0800 
 23 H        2.3700    -0.0950    -1.7670 H     1 <1>   0.1500 
 24 H        0.8390     2.2750     1.4180 H     1 <1>   0.1500 
 25 H       -3.6390     1.6400    -1.4290 H     1 <1>   0.0800 
 26 H       -3.3890     2.5700     0.0310 H     1 <1>   0.0800 
 27 H        4.3780     1.3150    -1.8470 H     1 <1>   0.1500 
 28 H        2.8200     3.6790     1.3520 H     1 <1>   0.1500 
 29 H       -5.0110     1.1280     1.2250 H     1 <1>   0.0800 
 30 H       -5.2570     0.1950    -0.2270 H     1 <1>   0.0800 
 31 H       -5.8780     3.1510     0.0750 H     1 <1>   0.0800 
 32 H       -7.0520     1.8580     0.0560 H     1 <1>   0.0800 
 33 H       -6.1260     2.2140    -1.3820 H     1 <1>   0.0800 
 34 H        5.1510     4.0660     1.5000 H     1 <1>   0.0800 
 35 H        4.3730     5.1480     0.3480 H     1 <1>   0.0800 
 36 H        8.1820     4.9760    -1.0160 H     1 <1>   0.3700 
 37 H        6.9920     3.7430    -1.3600 H     1 <1>   0.3700 
@<TRIPOS>BOND
  1   1   2  2   
  2   1   3  2   
  3   1   4  am  
  4   1   5  1   
  5   4   6  1   
  6   4  20  1   
  7   5   7  ar  
  8   5   8  ar  
  9   6   9  1   
 10   6  21  1   
 11   6  22  1   
 12   7  10  ar  
 13   7  23  1   
 14   8  11  ar  
 15   8  24  1   
 16   9  12  1   
 17   9  25  1   
 18   9  26  1   
 19  10  13  ar  
 20  10  27  1   
 21  11  13  ar  
 22  11  28  1   
 23  12  14  1   
 24  12  29  1   
 25  12  30  1   
 26  13  15  1   
 27  14  31  1   
 28  14  32  1   
 29  14  33  1   
 30  15  16  1   
 31  16  17  1   
 32  16  34  1   
 33  16  35  1   
 34  17  18  2   
 35  17  19  am  
 36  19  36  1   
 37  19  37  1   
@<TRIPOS>SUBSTRUCTURE
  1 ****   8 GROUP 4 **** **** 0

# MOE 2024.06 (io_trps.svl 2023.06)
