@<TRIPOS>MOLECULE
NONAME
34 35 1 0 0 
SMALL
USER_CHARGES


@<TRIPOS>ATOM
  1 S        0.3500    -0.6750    -1.3010 S.3   1 <1>  -0.4600 
  2 C        2.0270    -0.0120    -1.4830 C.3   1 <1>   0.0700 
  3 C        0.6470    -2.2960    -0.5510 C.3   1 <1>   0.0700 
  4 C        2.7430    -0.0850    -0.1290 C.3   1 <1>   0.3430 
  5 C        1.5140    -2.1150     0.7020 C.3   1 <1>   0.3430 
  6 N        2.8490    -1.4950     0.3970 N.4   1 <1>  -0.9590 
  7 C        3.7450    -1.5530     1.5850 C.3   1 <1>   0.4860 
  8 C        5.1450    -1.1650     1.1500 C.ar  1 <1>  -0.1430 
  9 C        5.8540    -1.9870     0.2870 C.ar  1 <1>  -0.1500 
 10 C        5.7270     0.0110     1.5980 C.ar  1 <1>  -0.1500 
 11 C        7.1230    -1.6510    -0.1540 C.ar  1 <1>   0.0820 
 12 C        6.9970     0.3620     1.1740 C.ar  1 <1>  -0.1500 
 13 O        7.6710    -2.5610    -1.0080 O.3   1 <1>  -0.3630 
 14 C        7.7000    -0.4520     0.2990 C.ar  1 <1>   0.0820 
 15 C        9.0240    -2.5240    -1.4060 C.3   1 <1>   0.0400 
 16 O        8.9240    -0.0290    -0.0780 O.3   1 <1>  -0.5320 
 17 H        1.9280     1.0070    -1.8150 H     1 <1>   0.0800 
 18 H        2.5330    -0.5880    -2.2380 H     1 <1>   0.0800 
 19 H        1.1240    -2.9190    -1.2860 H     1 <1>   0.0800 
 20 H       -0.3170    -2.7060    -0.3010 H     1 <1>   0.0800 
 21 H        2.2100     0.5280     0.5790 H     1 <1>   0.0800 
 22 H        3.7310     0.3310    -0.2490 H     1 <1>   0.0800 
 23 H        1.6610    -3.0820     1.1560 H     1 <1>   0.0800 
 24 H        0.9790    -1.4970     1.4050 H     1 <1>   0.0800 
 25 H        3.3130    -2.0500    -0.3350 H     1 <1>   0.4500 
 26 H        3.7670    -2.5530     1.9880 H     1 <1>   0.0800 
 27 H        3.3950    -0.8820     2.3530 H     1 <1>   0.0800 
 28 H        5.4410    -2.9170    -0.0630 H     1 <1>   0.1500 
 29 H        5.2080     0.6640     2.2800 H     1 <1>   0.1500 
 30 H        7.4360     1.2770     1.5300 H     1 <1>   0.1500 
 31 H        9.2310    -3.4110    -1.9770 H     1 <1>   0.0800 
 32 H        9.6460    -2.5000    -0.5290 H     1 <1>   0.0800 
 33 H        9.1850    -1.6530    -2.0150 H     1 <1>   0.0800 
 34 H        9.1950     0.8060     0.3440 H     1 <1>   0.4500 
@<TRIPOS>BOND
  1   1   2  1   
  2   1   3  1   
  3   2   4  1   
  4   2  17  1   
  5   2  18  1   
  6   3   5  1   
  7   3  19  1   
  8   3  20  1   
  9   4   6  1   
 10   4  21  1   
 11   4  22  1   
 12   5   6  1   
 13   5  23  1   
 14   5  24  1   
 15   6   7  1   
 16   6  25  1   
 17   7   8  1   
 18   7  26  1   
 19   7  27  1   
 20   8   9  ar  
 21   8  10  ar  
 22   9  11  ar  
 23   9  28  1   
 24  10  12  ar  
 25  10  29  1   
 26  11  13  1   
 27  11  14  ar  
 28  12  14  ar  
 29  12  30  1   
 30  13  15  1   
 31  14  16  1   
 32  15  31  1   
 33  15  32  1   
 34  15  33  1   
 35  16  34  1   
@<TRIPOS>SUBSTRUCTURE
  1 ****   8 GROUP 4 **** **** 0

# MOE 2024.06 (io_trps.svl 2023.06)
