@<TRIPOS>MOLECULE
NONAME
31 31 1 0 0 
SMALL
USER_CHARGES


@<TRIPOS>ATOM
  1 BR      -0.0620    -0.5540     1.2740 Br    1 <1>  -0.1110 
  2 C       -1.2390     0.8740     0.7240 C.ar  1 <1>   0.1110 
  3 C       -2.4360     0.5990     0.0800 C.ar  1 <1>  -0.1440 
  4 C       -0.8290     2.1620     1.0030 C.ar  1 <1>  -0.1500 
  5 C       -3.2370     1.6740    -0.2770 C.ar  1 <1>  -0.1500 
  6 C       -2.8960    -0.8140    -0.2450 C.3   1 <1>   0.2640 
  7 C       -1.6270     3.2310     0.6350 C.ar  1 <1>   0.0830 
  8 C       -2.8580     2.9890    -0.0020 C.ar  1 <1>   0.0830 
  9 O       -4.0570    -1.0590     0.4630 O.3   1 <1>  -0.6800 
 10 O       -1.1200     4.4560     0.9480 O.3   1 <1>  -0.3630 
 11 O       -3.6700     4.0370    -0.3260 O.3   1 <1>  -0.3630 
 12 C       -1.4080     5.5920     0.1650 C.3   1 <1>   0.2580 
 13 C       -5.0260     3.8540    -0.6610 C.3   1 <1>   0.1200 
 14 C       -0.3330     6.6290     0.4330 C.2   1 <1>  -0.2880 
 15 C       -5.6720     5.2320    -0.7660 C.3   1 <1>  -0.2400 
 16 C        0.4600     7.1820    -0.4910 C.2   1 <1>  -0.3000 
 17 H        0.1060     2.3400     1.5000 H     1 <1>   0.1500 
 18 H       -4.1650     1.4580    -0.7740 H     1 <1>   0.1500 
 19 H       -2.1750    -1.5640     0.0260 H     1 <1>   0.0800 
 20 H       -3.1200    -0.9100    -1.2940 H     1 <1>   0.0800 
 21 H       -3.9160    -0.8250     1.4010 H     1 <1>   0.4000 
 22 H       -2.3720     5.9690     0.4560 H     1 <1>   0.0800 
 23 H       -1.4180     5.3050    -0.8720 H     1 <1>   0.0800 
 24 H       -5.4950     3.2720     0.1140 H     1 <1>   0.0800 
 25 H       -5.0810     3.3380    -1.6040 H     1 <1>   0.0800 
 26 H       -0.2700     6.8790     1.4780 H     1 <1>   0.1500 
 27 H       -5.5990     5.7470     0.1750 H     1 <1>   0.0800 
 28 H       -6.7120     5.1280    -1.0200 H     1 <1>   0.0800 
 29 H       -5.1880     5.8110    -1.5320 H     1 <1>   0.0800 
 30 H        1.2170     7.9140    -0.2700 H     1 <1>   0.1500 
 31 H        0.4230     6.9490    -1.5410 H     1 <1>   0.1500 
@<TRIPOS>BOND
  1   1   2  1   
  2   2   3  ar  
  3   2   4  ar  
  4   3   5  ar  
  5   3   6  1   
  6   4   7  ar  
  7   4  17  1   
  8   5   8  ar  
  9   5  18  1   
 10   6   9  1   
 11   6  19  1   
 12   6  20  1   
 13   7   8  ar  
 14   7  10  1   
 15   8  11  1   
 16   9  21  1   
 17  10  12  1   
 18  11  13  1   
 19  12  14  1   
 20  12  22  1   
 21  12  23  1   
 22  13  15  1   
 23  13  24  1   
 24  13  25  1   
 25  14  16  2   
 26  14  26  1   
 27  15  27  1   
 28  15  28  1   
 29  15  29  1   
 30  16  30  1   
 31  16  31  1   
@<TRIPOS>SUBSTRUCTURE
  1 ****   8 GROUP 4 **** **** 0

# MOE 2024.06 (io_trps.svl 2023.06)
