@<TRIPOS>MOLECULE
NONAME
49 51 1 0 0 
SMALL
USER_CHARGES


@<TRIPOS>ATOM
  1 S       -0.1760    -0.0580    -2.5390 S.3   1 <1>  -0.4600 
  2 C       -0.9800     0.8130    -1.1760 C.3   1 <1>   0.5940 
  3 C       -1.3820     0.3500    -3.8210 C.3   1 <1>   0.1310 
  4 N       -2.1550     1.4620    -1.7960 N.am  1 <1>  -0.6600 
  5 C       -0.0050     1.8170    -0.5730 C.ar  1 <1>  -0.1440 
  6 C       -2.3790     1.2420    -3.1200 C.2   1 <1>   0.5690 
  7 C       -2.9930     2.3680    -0.9630 C.3   1 <1>   0.1400 
  8 C        0.5050     2.8670    -1.3250 C.ar  1 <1>  -0.1500 
  9 C        0.3720     1.6930     0.7550 C.ar  1 <1>  -0.1500 
 10 O       -3.3080     1.7150    -3.7300 O.2   1 <1>  -0.5700 
 11 C       -3.8870     1.5640    -0.0190 C.3   1 <1>  -0.0160 
 12 C        1.3760     3.7950    -0.7590 C.ar  1 <1>   0.0830 
 13 C        1.2420     2.5980     1.3390 C.ar  1 <1>   0.0830 
 14 C       -4.6960     2.5060     0.8570 C.ar  1 <1>  -0.1430 
 15 O        1.8930     4.8370    -1.4740 O.3   1 <1>  -0.3630 
 16 C        1.7350     3.6700     0.5860 C.ar  1 <1>   0.0830 
 17 O        1.5450     2.3650     2.6450 O.3   1 <1>  -0.3630 
 18 C       -4.1720     2.9690     2.0540 C.ar  1 <1>  -0.1500 
 19 C       -5.9600     2.9160     0.4620 C.ar  1 <1>  -0.1500 
 20 C        1.7540     4.9110    -2.8750 C.3   1 <1>   0.0400 
 21 O        2.5560     4.5970     1.1510 O.3   1 <1>  -0.3630 
 22 C        2.8820     2.5010     3.0790 C.3   1 <1>   0.0400 
 23 C       -4.9070     3.8310     2.8510 C.ar  1 <1>  -0.1500 
 24 C       -6.6950     3.7770     1.2580 C.ar  1 <1>  -0.1500 
 25 C        1.9330     5.8040     1.5260 C.3   1 <1>   0.0400 
 26 C       -6.1690     4.2350     2.4530 C.ar  1 <1>  -0.1500 
 27 H       -1.2850     0.0700    -0.4600 H     1 <1>   0.0800 
 28 H       -1.8370    -0.5600    -4.1650 H     1 <1>   0.0800 
 29 H       -0.8760     0.8650    -4.6150 H     1 <1>   0.0800 
 30 H       -3.6130     2.9770    -1.5990 H     1 <1>   0.0800 
 31 H       -2.3630     3.0310    -0.3950 H     1 <1>   0.0800 
 32 H        0.2060     2.9500    -2.3520 H     1 <1>   0.1500 
 33 H       -0.0010     0.8870     1.3610 H     1 <1>   0.1500 
 34 H       -3.2900     0.9280     0.6080 H     1 <1>   0.0800 
 35 H       -4.5520     0.9460    -0.5970 H     1 <1>   0.0800 
 36 H       -3.1910     2.6640     2.3740 H     1 <1>   0.1500 
 37 H       -6.3780     2.5680    -0.4670 H     1 <1>   0.1500 
 38 H        2.3200     5.7570    -3.2210 H     1 <1>   0.0800 
 39 H        0.7150     5.0440    -3.1180 H     1 <1>   0.0800 
 40 H        2.1420     4.0080    -3.3130 H     1 <1>   0.0800 
 41 H        3.0130     1.8950     3.9570 H     1 <1>   0.0800 
 42 H        3.0680     3.5320     3.3190 H     1 <1>   0.0800 
 43 H        3.5430     2.1690     2.2980 H     1 <1>   0.0800 
 44 H       -4.4950     4.1870     3.7790 H     1 <1>   0.1500 
 45 H       -7.6760     4.0910     0.9470 H     1 <1>   0.1500 
 46 H        2.6710     6.4350     1.9850 H     1 <1>   0.0800 
 47 H        1.1450     5.5830     2.2250 H     1 <1>   0.0800 
 48 H        1.5340     6.2810     0.6490 H     1 <1>   0.0800 
 49 H       -6.7410     4.9040     3.0720 H     1 <1>   0.1500 
@<TRIPOS>BOND
  1   1   2  1   
  2   1   3  1   
  3   2   4  1   
  4   2   5  1   
  5   2  27  1   
  6   3   6  1   
  7   3  28  1   
  8   3  29  1   
  9   4   6  am  
 10   4   7  1   
 11   5   8  ar  
 12   5   9  ar  
 13   6  10  2   
 14   7  11  1   
 15   7  30  1   
 16   7  31  1   
 17   8  12  ar  
 18   8  32  1   
 19   9  13  ar  
 20   9  33  1   
 21  11  14  1   
 22  11  34  1   
 23  11  35  1   
 24  12  15  1   
 25  12  16  ar  
 26  13  16  ar  
 27  13  17  1   
 28  14  18  ar  
 29  14  19  ar  
 30  15  20  1   
 31  16  21  1   
 32  17  22  1   
 33  18  23  ar  
 34  18  36  1   
 35  19  24  ar  
 36  19  37  1   
 37  20  38  1   
 38  20  39  1   
 39  20  40  1   
 40  21  25  1   
 41  22  41  1   
 42  22  42  1   
 43  22  43  1   
 44  23  26  ar  
 45  23  44  1   
 46  24  26  ar  
 47  24  45  1   
 48  25  46  1   
 49  25  47  1   
 50  25  48  1   
 51  26  49  1   
@<TRIPOS>SUBSTRUCTURE
  1 ****   5 GROUP 4 **** **** 0

# MOE 2024.06 (io_trps.svl 2023.06)
