@<TRIPOS>MOLECULE
NONAME
51 54 1 0 0 
SMALL
USER_CHARGES


@<TRIPOS>ATOM
  1 CL      -2.0790     2.5280     3.4630 Cl    1 <1>  -0.1770 
  2 C       -2.8420     2.2950     1.9120 C.ar  1 <1>   0.1770 
  3 C       -4.0610     1.6550     1.8470 C.ar  1 <1>  -0.1500 
  4 C       -2.2050     2.7590     0.7730 C.ar  1 <1>  -0.1500 
  5 C       -4.6870     1.4620     0.6130 C.ar  1 <1>   0.0860 
  6 C       -2.8080     2.5760    -0.4570 C.ar  1 <1>  -0.1500 
  7 C       -5.9640     0.8140     0.4660 C.2   1 <1>   0.4690 
  8 C       -4.0370     1.9330    -0.5380 C.ar  1 <1>   0.0830 
  9 O       -6.6340     0.4590     1.4210 O.2   1 <1>  -0.5700 
 10 C       -6.4580     0.6400    -0.8630 C.2   1 <1>  -0.1240 
 11 O       -4.6000     1.7670    -1.7550 O.3   1 <1>  -0.1590 
 12 C       -5.7590     1.1240    -1.9140 C.2   1 <1>  -0.0730 
 13 C       -7.7660    -0.1140    -1.0310 C.3   1 <1>   0.4810 
 14 N       -8.8390     0.5230    -0.2240 N.4   1 <1>  -0.9590 
 15 C      -10.0630    -0.3510    -0.1070 C.3   1 <1>   0.3430 
 16 C       -9.1870     1.9180    -0.6870 C.3   1 <1>   0.3430 
 17 C      -11.1700     0.2950     0.7520 C.3   1 <1>   0.2090 
 18 C      -10.2900     2.5670     0.1740 C.3   1 <1>   0.2090 
 19 N      -11.4750     1.6680     0.2620 N.pl3 1 <1>  -0.8380 
 20 C      -12.6550     2.2400     0.7370 C.ar  1 <1>   0.1000 
 21 C      -13.7770     2.4000    -0.0840 C.ar  1 <1>  -0.1430 
 22 C      -12.7190     2.6540     2.0630 C.ar  1 <1>  -0.1500 
 23 C      -14.9420     2.9560     0.4390 C.ar  1 <1>  -0.1430 
 24 C      -13.7370     1.9610    -1.5490 C.3   1 <1>  -0.0970 
 25 C      -13.8710     3.2130     2.5760 C.ar  1 <1>  -0.1500 
 26 C      -14.9790     3.3620     1.7640 C.ar  1 <1>  -0.1500 
 27 C      -16.2000     3.1380    -0.4010 C.3   1 <1>  -0.0970 
 28 H       -4.5270     1.3070     2.7520 H     1 <1>   0.1500 
 29 H       -1.2530     3.2540     0.8590 H     1 <1>   0.1500 
 30 H       -2.3290     2.9280    -1.3550 H     1 <1>   0.1500 
 31 H       -6.0550     1.0350    -2.9480 H     1 <1>   0.1500 
 32 H       -7.6200    -1.1290    -0.6960 H     1 <1>   0.0800 
 33 H       -8.0500    -0.1390    -2.0710 H     1 <1>   0.0800 
 34 H       -8.4280     0.6060     0.7290 H     1 <1>   0.4500 
 35 H       -9.7980    -1.3010     0.3240 H     1 <1>   0.0800 
 36 H      -10.4710    -0.5320    -1.0880 H     1 <1>   0.0800 
 37 H       -9.5400     1.8820    -1.7040 H     1 <1>   0.0800 
 38 H       -8.3120     2.5450    -0.6610 H     1 <1>   0.0800 
 39 H      -10.8590     0.3370     1.7820 H     1 <1>   0.0800 
 40 H      -12.0640    -0.3050     0.7000 H     1 <1>   0.0800 
 41 H      -10.5900     3.5020    -0.2680 H     1 <1>   0.0800 
 42 H       -9.9130     2.7720     1.1610 H     1 <1>   0.0800 
 43 H      -11.8640     2.5360     2.7000 H     1 <1>   0.1500 
 44 H      -14.2580     1.0280    -1.6590 H     1 <1>   0.0800 
 45 H      -12.7330     1.8350    -1.9040 H     1 <1>   0.0800 
 46 H      -14.2040     2.6980    -2.1760 H     1 <1>   0.0800 
 47 H      -13.9100     3.5310     3.6030 H     1 <1>   0.1500 
 48 H      -15.8730     3.7970     2.1750 H     1 <1>   0.1500 
 49 H      -16.0410     3.9040    -1.1380 H     1 <1>   0.0800 
 50 H      -17.0350     3.4270     0.2120 H     1 <1>   0.0800 
 51 H      -16.4550     2.2190    -0.8950 H     1 <1>   0.0800 
@<TRIPOS>BOND
  1   1   2  1   
  2   2   3  ar  
  3   2   4  ar  
  4   3   5  ar  
  5   3  28  1   
  6   4   6  ar  
  7   4  29  1   
  8   5   7  1   
  9   5   8  ar  
 10   6   8  ar  
 11   6  30  1   
 12   7   9  2   
 13   7  10  1   
 14   8  11  1   
 15  10  12  2   
 16  10  13  1   
 17  11  12  1   
 18  12  31  1   
 19  13  14  1   
 20  13  32  1   
 21  13  33  1   
 22  14  15  1   
 23  14  16  1   
 24  14  34  1   
 25  15  17  1   
 26  15  35  1   
 27  15  36  1   
 28  16  18  1   
 29  16  37  1   
 30  16  38  1   
 31  17  19  1   
 32  17  39  1   
 33  17  40  1   
 34  18  19  1   
 35  18  41  1   
 36  18  42  1   
 37  19  20  1   
 38  20  21  ar  
 39  20  22  ar  
 40  21  23  ar  
 41  21  24  1   
 42  22  25  ar  
 43  22  43  1   
 44  23  26  ar  
 45  23  27  1   
 46  24  44  1   
 47  24  45  1   
 48  24  46  1   
 49  25  26  ar  
 50  25  47  1   
 51  26  48  1   
 52  27  49  1   
 53  27  50  1   
 54  27  51  1   
@<TRIPOS>SUBSTRUCTURE
  1 ****  16 GROUP 4 **** **** 0

# MOE 2024.06 (io_trps.svl 2023.06)
