@<TRIPOS>MOLECULE
NONAME
41 44 1 0 0 
SMALL
USER_CHARGES


@<TRIPOS>ATOM
  1 O        0.0900     0.5760    -0.8790 O.3   1 <1>  -0.3630 
  2 C        0.7970     1.6390    -0.4160 C.ar  1 <1>   0.0830 
  3 C       -1.2640     0.4830    -0.4770 C.3   1 <1>   0.1200 
  4 C        0.1530     2.7380     0.1530 C.ar  1 <1>   0.0820 
  5 C        2.1750     1.6160    -0.5140 C.ar  1 <1>  -0.1500 
  6 C       -1.9320     1.8640    -0.5320 C.3   1 <1>   0.1200 
  7 O       -1.1970     2.7960     0.2380 O.3   1 <1>  -0.3630 
  8 C        0.9040     3.7950     0.6330 C.ar  1 <1>  -0.1500 
  9 C        2.9520     2.6720    -0.0290 C.ar  1 <1>   0.0860 
 10 C        2.2850     3.7590     0.5370 C.ar  1 <1>  -0.1430 
 11 C        4.4080     2.7020    -0.1060 C.2   1 <1>   0.2780 
 12 C        3.1410     4.9070     1.0440 C.3   1 <1>  -0.0160 
 13 N        5.0800     3.7900    -0.0430 N.2   1 <1>  -0.6960 
 14 C        5.1130     1.4440    -0.2700 C.ar  1 <1>   0.0860 
 15 C        4.4200     5.0720     0.1930 C.3   1 <1>   0.2460 
 16 C        6.0480     1.2780    -1.2890 C.ar  1 <1>  -0.1500 
 17 C        4.8900     0.3620     0.5830 C.ar  1 <1>  -0.1500 
 18 C        5.4240     5.9560     0.9330 C.3   1 <1>  -0.2400 
 19 C        4.1110     5.6870    -1.1750 C.3   1 <1>  -0.2400 
 20 C        6.7190     0.0810    -1.4660 C.ar  1 <1>  -0.1500 
 21 C        5.5560    -0.8380     0.4130 C.ar  1 <1>  -0.1500 
 22 C        6.4710    -0.9810    -0.6150 C.ar  1 <1>  -0.1500 
 23 H       -1.2880     0.0960     0.5270 H     1 <1>   0.0800 
 24 H       -1.7580    -0.2080    -1.1340 H     1 <1>   0.0800 
 25 H        2.6390     0.7650    -0.9770 H     1 <1>   0.1500 
 26 H       -2.9310     1.8220    -0.1370 H     1 <1>   0.0800 
 27 H       -1.9670     2.2220    -1.5460 H     1 <1>   0.0800 
 28 H        0.3990     4.6370     1.0720 H     1 <1>   0.1500 
 29 H        3.4170     4.6970     2.0620 H     1 <1>   0.0800 
 30 H        2.5820     5.8240     1.0390 H     1 <1>   0.0800 
 31 H        6.2460     2.1080    -1.9450 H     1 <1>   0.1500 
 32 H        4.1860     0.4680     1.3890 H     1 <1>   0.1500 
 33 H        5.6930     5.5070     1.8730 H     1 <1>   0.0800 
 34 H        5.0030     6.9260     1.1220 H     1 <1>   0.0800 
 35 H        6.3150     6.0780     0.3440 H     1 <1>   0.0800 
 36 H        3.4180     5.0710    -1.7180 H     1 <1>   0.0800 
 37 H        5.0140     5.7830    -1.7510 H     1 <1>   0.0800 
 38 H        3.6760     6.6630    -1.0570 H     1 <1>   0.0800 
 39 H        7.4350    -0.0210    -2.2630 H     1 <1>   0.1500 
 40 H        5.3660    -1.6600     1.0810 H     1 <1>   0.1500 
 41 H        6.9920    -1.9130    -0.7500 H     1 <1>   0.1500 
@<TRIPOS>BOND
  1   1   2  1   
  2   1   3  1   
  3   2   4  ar  
  4   2   5  ar  
  5   3   6  1   
  6   3  23  1   
  7   3  24  1   
  8   4   7  1   
  9   4   8  ar  
 10   5   9  ar  
 11   5  25  1   
 12   6   7  1   
 13   6  26  1   
 14   6  27  1   
 15   8  10  ar  
 16   8  28  1   
 17   9  10  ar  
 18   9  11  1   
 19  10  12  1   
 20  11  13  2   
 21  11  14  1   
 22  12  15  1   
 23  12  29  1   
 24  12  30  1   
 25  13  15  1   
 26  14  16  ar  
 27  14  17  ar  
 28  15  18  1   
 29  15  19  1   
 30  16  20  ar  
 31  16  31  1   
 32  17  21  ar  
 33  17  32  1   
 34  18  33  1   
 35  18  34  1   
 36  18  35  1   
 37  19  36  1   
 38  19  37  1   
 39  19  38  1   
 40  20  22  ar  
 41  20  39  1   
 42  21  22  ar  
 43  21  40  1   
 44  22  41  1   
@<TRIPOS>SUBSTRUCTURE
  1 ****   9 GROUP 4 **** **** 0

# MOE 2024.06 (io_trps.svl 2023.06)
