@<TRIPOS>MOLECULE
NONAME
44 45 1 0 0 
SMALL
USER_CHARGES


@<TRIPOS>ATOM
  1 CL      -0.3900    -0.6230    -0.1730 Cl    1 <1>  -0.1770 
  2 C       -1.5440     0.6660     0.1190 C.ar  1 <1>   0.1770 
  3 C       -1.1850     2.0080     0.3450 C.ar  1 <1>   0.0830 
  4 C       -2.8730     0.2750     0.1200 C.ar  1 <1>  -0.1500 
  5 O        0.0700     2.5430     0.3720 O.3   1 <1>  -0.3630 
  6 C       -2.2000     2.9270     0.5700 C.ar  1 <1>  -0.1500 
  7 C       -3.8730     1.2070     0.3450 C.ar  1 <1>  -0.1500 
  8 C        1.2440     1.8190     0.0990 C.3   1 <1>   0.1200 
  9 C       -3.5210     2.5240     0.5680 C.ar  1 <1>   0.1770 
 10 C        2.4250     2.7920     0.1770 C.3   1 <1>   0.3430 
 11 CL      -4.7750     3.7030     0.8530 Cl    1 <1>  -0.1770 
 12 N        3.7320     2.1470    -0.1850 N.4   1 <1>  -0.9590 
 13 C        4.1340     1.0840     0.7870 C.3   1 <1>   0.3430 
 14 C        4.7940     3.1850    -0.3260 C.3   1 <1>   0.3430 
 15 C        5.4010     0.3900     0.2910 C.3   1 <1>  -0.1600 
 16 C        6.0750     2.5410    -0.8500 C.3   1 <1>  -0.1600 
 17 C        6.5510     1.3850     0.0500 C.3   1 <1>  -0.0190 
 18 C        7.7620     0.6800    -0.5530 C.2   1 <1>   0.6590 
 19 O        7.7190     0.2010    -1.6560 O.2   1 <1>  -0.5700 
 20 O        8.8430     0.6280     0.2100 O.3   1 <1>  -0.4300 
 21 C       10.0250     0.0010    -0.2330 C.3   1 <1>   0.1200 
 22 C       11.0660     0.1170     0.8760 C.3   1 <1>  -0.2400 
 23 H       -3.1250    -0.7560    -0.0550 H     1 <1>   0.1500 
 24 H       -1.9640     3.9610     0.7480 H     1 <1>   0.1500 
 25 H       -4.9100     0.9200     0.3480 H     1 <1>   0.1500 
 26 H        1.1580     1.4070    -0.8910 H     1 <1>   0.0800 
 27 H        1.3350     1.0490     0.8430 H     1 <1>   0.0800 
 28 H        2.4820     3.1920     1.1760 H     1 <1>   0.0800 
 29 H        2.2310     3.6050    -0.5030 H     1 <1>   0.0800 
 30 H        3.6300     1.6990    -1.1080 H     1 <1>   0.4500 
 31 H        3.3490     0.3530     0.8890 H     1 <1>   0.0800 
 32 H        4.3170     1.5230     1.7550 H     1 <1>   0.0800 
 33 H        4.9850     3.6460     0.6310 H     1 <1>   0.0800 
 34 H        4.4730     3.9520    -1.0140 H     1 <1>   0.0800 
 35 H        5.1800    -0.1450    -0.6180 H     1 <1>   0.0800 
 36 H        5.7090    -0.3400     1.0210 H     1 <1>   0.0800 
 37 H        6.8480     3.2890    -0.9050 H     1 <1>   0.0800 
 38 H        5.9070     2.1840    -1.8520 H     1 <1>   0.0800 
 39 H        6.8520     1.7950     0.9990 H     1 <1>   0.0800 
 40 H       10.3590     0.4950    -1.1300 H     1 <1>   0.0800 
 41 H        9.8060    -1.0310    -0.4500 H     1 <1>   0.0800 
 42 H       11.2700     1.1520     1.0880 H     1 <1>   0.0800 
 43 H       11.9810    -0.3530     0.5630 H     1 <1>   0.0800 
 44 H       10.7180    -0.3730     1.7670 H     1 <1>   0.0800 
@<TRIPOS>BOND
  1   1   2  1   
  2   2   3  ar  
  3   2   4  ar  
  4   3   5  1   
  5   3   6  ar  
  6   4   7  ar  
  7   4  23  1   
  8   5   8  1   
  9   6   9  ar  
 10   6  24  1   
 11   7   9  ar  
 12   7  25  1   
 13   8  10  1   
 14   8  26  1   
 15   8  27  1   
 16   9  11  1   
 17  10  12  1   
 18  10  28  1   
 19  10  29  1   
 20  12  13  1   
 21  12  14  1   
 22  12  30  1   
 23  13  15  1   
 24  13  31  1   
 25  13  32  1   
 26  14  16  1   
 27  14  33  1   
 28  14  34  1   
 29  15  17  1   
 30  15  35  1   
 31  15  36  1   
 32  16  17  1   
 33  16  37  1   
 34  16  38  1   
 35  17  18  1   
 36  17  39  1   
 37  18  19  2   
 38  18  20  1   
 39  20  21  1   
 40  21  22  1   
 41  21  40  1   
 42  21  41  1   
 43  22  42  1   
 44  22  43  1   
 45  22  44  1   
@<TRIPOS>SUBSTRUCTURE
  1 ****  12 GROUP 4 **** **** 0

# MOE 2024.06 (io_trps.svl 2023.06)
