@<TRIPOS>MOLECULE
NONAME
38 39 1 0 0 
SMALL
USER_CHARGES


@<TRIPOS>ATOM
  1 BR      -0.0760    -0.3360    -0.2190 Br    1 <1>  -0.1110 
  2 C       -1.8310    -1.0600     0.1070 C.ar  1 <1>   0.1110 
  3 C       -2.7300    -1.1250    -0.9400 C.ar  1 <1>  -0.1500 
  4 C       -2.1470    -1.4960     1.3760 C.ar  1 <1>  -0.1500 
  5 C       -3.9960    -1.6440    -0.7130 C.ar  1 <1>  -0.1440 
  6 C       -3.4100    -2.0150     1.5970 C.ar  1 <1>  -0.1500 
  7 C       -4.3470    -2.0930     0.5660 C.ar  1 <1>   0.1170 
  8 C       -4.9810    -1.7040    -1.8760 C.3   1 <1>  -0.0960 
  9 N       -5.6290    -2.6290     0.7730 N.am  1 <1>  -0.5470 
 10 C       -6.3930    -2.7550     1.8990 C.2   1 <1>   0.5690 
 11 O       -6.0470    -2.4090     3.0000 O.2   1 <1>  -0.5700 
 12 C       -7.7740    -3.3600     1.7320 C.3   1 <1>  -0.0990 
 13 C       -8.7220    -2.4210     0.9670 C.3   1 <1>  -0.1600 
 14 C      -10.0730    -3.0890     0.6950 C.3   1 <1>   0.1400 
 15 N      -10.9000    -2.2180    -0.1680 N.am  1 <1>  -0.4200 
 16 C      -11.9720    -1.5050     0.2640 C.2   1 <1>   0.5690 
 17 C      -10.6960    -2.0530    -1.5020 C.2   1 <1>   0.5690 
 18 O      -12.3880    -1.4680     1.3920 O.2   1 <1>  -0.5700 
 19 C      -12.6030    -0.7410    -0.8790 C.3   1 <1>  -0.0990 
 20 O       -9.8140    -2.5580    -2.1480 O.2   1 <1>  -0.5700 
 21 C      -11.7330    -1.1240    -2.0920 C.3   1 <1>  -0.0990 
 22 H       -2.4330    -0.7710    -1.9110 H     1 <1>   0.1500 
 23 H       -1.4260    -1.4330     2.1710 H     1 <1>   0.1500 
 24 H       -3.6630    -2.3630     2.5820 H     1 <1>   0.1500 
 25 H       -4.5650    -1.2490    -2.7570 H     1 <1>   0.0800 
 26 H       -5.8850    -1.1780    -1.6250 H     1 <1>   0.0800 
 27 H       -5.2190    -2.7270    -2.1080 H     1 <1>   0.0800 
 28 H       -6.0970    -2.9020    -0.0880 H     1 <1>   0.3700 
 29 H       -8.1800    -3.5680     2.7070 H     1 <1>   0.0800 
 30 H       -7.6740    -4.2950     1.2110 H     1 <1>   0.0800 
 31 H       -8.2680    -2.1480     0.0310 H     1 <1>   0.0800 
 32 H       -8.8750    -1.5260     1.5460 H     1 <1>   0.0800 
 33 H      -10.5880    -3.2760     1.6220 H     1 <1>   0.0800 
 34 H       -9.9260    -4.0300     0.1920 H     1 <1>   0.0800 
 35 H      -12.5620     0.3140    -0.6780 H     1 <1>   0.0800 
 36 H      -13.6230    -1.0540    -1.0080 H     1 <1>   0.0800 
 37 H      -12.3030    -1.6420    -2.8410 H     1 <1>   0.0800 
 38 H      -11.2520    -0.2640    -2.5220 H     1 <1>   0.0800 
@<TRIPOS>BOND
  1   1   2  1   
  2   2   3  ar  
  3   2   4  ar  
  4   3   5  ar  
  5   3  22  1   
  6   4   6  ar  
  7   4  23  1   
  8   5   7  ar  
  9   5   8  1   
 10   6   7  ar  
 11   6  24  1   
 12   7   9  1   
 13   8  25  1   
 14   8  26  1   
 15   8  27  1   
 16   9  10  am  
 17   9  28  1   
 18  10  11  2   
 19  10  12  1   
 20  12  13  1   
 21  12  29  1   
 22  12  30  1   
 23  13  14  1   
 24  13  31  1   
 25  13  32  1   
 26  14  15  1   
 27  14  33  1   
 28  14  34  1   
 29  15  16  am  
 30  15  17  am  
 31  16  18  2   
 32  16  19  1   
 33  17  20  2   
 34  17  21  1   
 35  19  21  1   
 36  19  35  1   
 37  19  36  1   
 38  21  37  1   
 39  21  38  1   
@<TRIPOS>SUBSTRUCTURE
  1 ****   9 GROUP 4 **** **** 0

# MOE 2024.06 (io_trps.svl 2023.06)
