@<TRIPOS>MOLECULE
NONAME
41 42 1 0 0 
SMALL
USER_CHARGES


@<TRIPOS>ATOM
  1 O       -0.5670     0.2500    -1.0720 O.2   1 <1>  -0.5700 
  2 C       -0.2430     1.1910    -0.3750 C.2   1 <1>   0.5440 
  3 N        0.9840     1.2240     0.2400 N.am  1 <1>  -0.5390 
  4 C       -1.1520     2.2980    -0.1660 C.ar  1 <1>   0.0860 
  5 C        2.2080     0.7280    -0.2700 C.2   1 <1>   0.1230 
  6 C       -0.7060     3.6210    -0.2070 C.ar  1 <1>  -0.1500 
  7 C       -2.5060     2.0810     0.0870 C.ar  1 <1>  -0.1500 
  8 C        3.1880     1.7880    -0.5180 C.2   1 <1>   0.6160 
  9 C        2.4180    -0.5980    -0.4920 C.2   1 <1>  -0.2760 
 10 C       -1.5690     4.6770     0.0200 C.ar  1 <1>  -0.1500 
 11 C       -3.3740     3.1340     0.3130 C.ar  1 <1>  -0.1500 
 12 O        2.8650     2.7520    -1.1890 O.2   1 <1>  -0.5700 
 13 N        4.4420     1.7870     0.0590 N.am  1 <1>  -0.6600 
 14 C        3.6390    -1.1630    -1.2140 C.3   1 <1>  -0.1020 
 15 C        1.4670    -1.7190    -0.0760 C.3   1 <1>  -0.1020 
 16 C       -2.9050     4.4350     0.2830 C.ar  1 <1>  -0.1500 
 17 C        4.8390     0.9310     1.2160 C.3   1 <1>   0.1400 
 18 C        5.4940     2.7700    -0.3350 C.3   1 <1>   0.1400 
 19 C        6.2440     0.3440     0.9990 C.3   1 <1>   0.1200 
 20 C        6.8630     2.0790    -0.4570 C.3   1 <1>   0.1200 
 21 O        7.1620     1.3580     0.7050 O.3   1 <1>  -0.5600 
 22 H        1.1100     2.0730     0.7900 H     1 <1>   0.3700 
 23 H        0.3280     3.8260    -0.4320 H     1 <1>   0.1500 
 24 H       -2.8740     1.0690     0.1030 H     1 <1>   0.1500 
 25 H       -1.2030     5.6900    -0.0150 H     1 <1>   0.1500 
 26 H       -4.4150     2.9410     0.5090 H     1 <1>   0.1500 
 27 H        3.3190    -1.7580    -2.0510 H     1 <1>   0.0800 
 28 H        4.2110    -1.7850    -0.5500 H     1 <1>   0.0800 
 29 H        4.2770    -0.3870    -1.5950 H     1 <1>   0.0800 
 30 H        2.0010    -2.4910     0.4470 H     1 <1>   0.0800 
 31 H        1.0030    -2.1460    -0.9480 H     1 <1>   0.0800 
 32 H        0.6900    -1.3620     0.5740 H     1 <1>   0.0800 
 33 H       -3.5780     5.2560     0.4590 H     1 <1>   0.1500 
 34 H        4.8500     1.5330     2.1080 H     1 <1>   0.0800 
 35 H        4.1370     0.1320     1.3680 H     1 <1>   0.0800 
 36 H        5.2460     3.2290    -1.2770 H     1 <1>   0.0800 
 37 H        5.5510     3.5460     0.4080 H     1 <1>   0.0800 
 38 H        6.2420    -0.3630     0.1890 H     1 <1>   0.0800 
 39 H        6.5800    -0.1540     1.8910 H     1 <1>   0.0800 
 40 H        7.6360     2.8130    -0.5980 H     1 <1>   0.0800 
 41 H        6.8710     1.4030    -1.2950 H     1 <1>   0.0800 
@<TRIPOS>BOND
  1   1   2  2   
  2   2   3  am  
  3   2   4  1   
  4   3   5  1   
  5   3  22  1   
  6   4   6  ar  
  7   4   7  ar  
  8   5   8  1   
  9   5   9  2   
 10   6  10  ar  
 11   6  23  1   
 12   7  11  ar  
 13   7  24  1   
 14   8  12  2   
 15   8  13  am  
 16   9  14  1   
 17   9  15  1   
 18  10  16  ar  
 19  10  25  1   
 20  11  16  ar  
 21  11  26  1   
 22  13  17  1   
 23  13  18  1   
 24  14  27  1   
 25  14  28  1   
 26  14  29  1   
 27  15  30  1   
 28  15  31  1   
 29  15  32  1   
 30  16  33  1   
 31  17  19  1   
 32  17  34  1   
 33  17  35  1   
 34  18  20  1   
 35  18  36  1   
 36  18  37  1   
 37  19  21  1   
 38  19  38  1   
 39  19  39  1   
 40  20  21  1   
 41  20  40  1   
 42  20  41  1   
@<TRIPOS>SUBSTRUCTURE
  1 ****   5 GROUP 4 **** **** 0

# MOE 2024.06 (io_trps.svl 2023.06)
