@<TRIPOS>MOLECULE
NONAME
40 41 1 0 0 
SMALL
USER_CHARGES


@<TRIPOS>ATOM
  1 O       -2.3500     6.7580     0.1130 O.3   1 <1>  -0.3630 
  2 C       -3.5960     6.2320     0.2510 C.ar  1 <1>   0.0830 
  3 C       -1.1960     6.0260     0.4580 C.3   1 <1>   0.1200 
  4 C       -4.6700     6.9860    -0.2140 C.ar  1 <1>  -0.1440 
  5 C       -3.8320     4.9870     0.8310 C.ar  1 <1>  -0.1500 
  6 C        0.0230     6.8950     0.1370 C.3   1 <1>   0.1100 
  7 C       -5.9580     6.4890    -0.0980 C.ar  1 <1>  -0.1500 
  8 C       -4.4420     8.3500    -0.8490 C.3   1 <1>  -0.0960 
  9 C       -5.1230     4.5030     0.9400 C.ar  1 <1>  -0.1500 
 10 N        1.2950     6.1970     0.4320 N.3   1 <1>  -0.8100 
 11 C       -6.1930     5.2510     0.4770 C.ar  1 <1>  -0.1430 
 12 C        1.6270     5.1860    -0.5960 C.3   1 <1>   0.1100 
 13 C        2.3920     7.1700     0.6090 C.3   1 <1>   0.1100 
 14 C       -7.6100     4.7200     0.5950 C.3   1 <1>  -0.0970 
 15 C        2.9420     4.4530    -0.2590 C.3   1 <1>   0.3430 
 16 C        3.7160     6.4650     0.9670 C.3   1 <1>   0.3430 
 17 N        4.0720     5.4170    -0.0460 N.4   1 <1>  -0.9060 
 18 H       -1.1960     5.1210    -0.1210 H     1 <1>   0.0800 
 19 H       -1.2340     5.8100     1.5110 H     1 <1>   0.0800 
 20 H       -3.0310     4.3810     1.2040 H     1 <1>   0.1500 
 21 H       -0.0500     7.7810     0.7460 H     1 <1>   0.0800 
 22 H       -0.0070     7.1920    -0.8980 H     1 <1>   0.0800 
 23 H       -6.7880     7.0680    -0.4590 H     1 <1>   0.1500 
 24 H       -3.8120     8.2470    -1.7140 H     1 <1>   0.0800 
 25 H       -3.9570     9.0020    -0.1440 H     1 <1>   0.0800 
 26 H       -5.3700     8.7990    -1.1500 H     1 <1>   0.0800 
 27 H       -5.2930     3.5400     1.3880 H     1 <1>   0.1500 
 28 H        1.7090     5.6540    -1.5630 H     1 <1>   0.0800 
 29 H        0.8380     4.4550    -0.6520 H     1 <1>   0.0800 
 30 H        2.1380     7.8460     1.4080 H     1 <1>   0.0800 
 31 H        2.5180     7.7530    -0.2880 H     1 <1>   0.0800 
 32 H       -8.2980     5.5270     0.7730 H     1 <1>   0.0800 
 33 H       -7.6870     4.0240     1.4100 H     1 <1>   0.0800 
 34 H       -7.8880     4.2210    -0.3160 H     1 <1>   0.0800 
 35 H        3.1840     3.7690    -1.0560 H     1 <1>   0.0800 
 36 H        2.7850     3.8760     0.6380 H     1 <1>   0.0800 
 37 H        3.6020     6.0080     1.9370 H     1 <1>   0.0800 
 38 H        4.5040     7.1980     1.0360 H     1 <1>   0.0800 
 39 H        4.2880     5.8780    -0.9370 H     1 <1>   0.4500 
 40 H        4.9140     4.9110     0.2550 H     1 <1>   0.4500 
@<TRIPOS>BOND
  1   1   2  1   
  2   1   3  1   
  3   2   4  ar  
  4   2   5  ar  
  5   3   6  1   
  6   3  18  1   
  7   3  19  1   
  8   4   7  ar  
  9   4   8  1   
 10   5   9  ar  
 11   5  20  1   
 12   6  10  1   
 13   6  21  1   
 14   6  22  1   
 15   7  11  ar  
 16   7  23  1   
 17   8  24  1   
 18   8  25  1   
 19   8  26  1   
 20   9  11  ar  
 21   9  27  1   
 22  10  12  1   
 23  10  13  1   
 24  11  14  1   
 25  12  15  1   
 26  12  28  1   
 27  12  29  1   
 28  13  16  1   
 29  13  30  1   
 30  13  31  1   
 31  14  32  1   
 32  14  33  1   
 33  14  34  1   
 34  15  17  1   
 35  15  35  1   
 36  15  36  1   
 37  16  17  1   
 38  16  37  1   
 39  16  38  1   
 40  17  39  1   
 41  17  40  1   
@<TRIPOS>SUBSTRUCTURE
  1 ****   3 GROUP 4 **** **** 0

# MOE 2024.06 (io_trps.svl 2023.06)
