@<TRIPOS>MOLECULE
NONAME
33 34 1 0 0 
SMALL
USER_CHARGES


@<TRIPOS>ATOM
  1 O       -0.0080     0.2220     0.0030 O.2   1 <1>  -0.5700 
  2 C       -0.0350     1.4420     0.0010 C.2   1 <1>   0.4690 
  3 C        1.1680     2.2720     0.0010 C.2   1 <1>  -0.1360 
  4 C       -1.3200     2.1050     0.0000 C.ar  1 <1>   0.0860 
  5 O        2.2990     1.7430     0.0010 O.3   1 <1>  -0.8500 
  6 C        1.0710     3.6690    -0.0010 C.2   1 <1>  -0.1240 
  7 C       -1.3960     3.5060    -0.0020 C.ar  1 <1>   0.0860 
  8 C       -2.5110     1.3710     0.0010 C.ar  1 <1>  -0.1500 
  9 C       -0.1820     4.3000    -0.0020 C.2   1 <1>   0.4690 
 10 C        2.4260     4.4100    -0.0020 C.3   1 <1>  -0.0220 
 11 C       -2.6610     4.1060    -0.0030 C.ar  1 <1>  -0.1500 
 12 C       -3.7470     1.9830     0.0000 C.ar  1 <1>  -0.1500 
 13 O       -0.3280     5.5370    -0.0040 O.2   1 <1>  -0.5700 
 14 C        2.4600     5.9480    -0.0030 C.3   1 <1>  -0.1600 
 15 C       -3.8230     3.3620    -0.0020 C.ar  1 <1>  -0.1500 
 16 C        3.9010     6.4760    -0.0030 C.3   1 <1>  -0.1600 
 17 C        3.9270     8.0090    -0.0040 C.3   1 <1>  -0.1600 
 18 C        5.3640     8.5370    -0.0040 C.3   1 <1>  -0.2400 
 19 H       -2.4560     0.2950     0.0020 H     1 <1>   0.1500 
 20 H        2.9710     4.0640    -0.8630 H     1 <1>   0.0800 
 21 H        2.9710     4.0650     0.8600 H     1 <1>   0.0800 
 22 H       -2.7310     5.1800    -0.0040 H     1 <1>   0.1500 
 23 H       -4.6460     1.3900     0.0000 H     1 <1>   0.1500 
 24 H        1.9470     6.3110     0.8710 H     1 <1>   0.0800 
 25 H        1.9480     6.3100    -0.8770 H     1 <1>   0.0800 
 26 H       -4.7810     3.8520    -0.0030 H     1 <1>   0.1500 
 27 H        4.4140     6.1060    -0.8740 H     1 <1>   0.0800 
 28 H        4.4140     6.1070     0.8690 H     1 <1>   0.0800 
 29 H        3.4110     8.3770     0.8670 H     1 <1>   0.0800 
 30 H        3.4120     8.3760    -0.8750 H     1 <1>   0.0800 
 31 H        5.8880     8.1960     0.8720 H     1 <1>   0.0800 
 32 H        5.3600     9.6120    -0.0040 H     1 <1>   0.0800 
 33 H        5.8880     8.1940    -0.8780 H     1 <1>   0.0800 
@<TRIPOS>BOND
  1   1   2  2   
  2   2   3  1   
  3   2   4  1   
  4   3   5  1   
  5   3   6  2   
  6   4   7  ar  
  7   4   8  ar  
  8   6   9  1   
  9   6  10  1   
 10   7   9  1   
 11   7  11  ar  
 12   8  12  ar  
 13   8  19  1   
 14   9  13  2   
 15  10  14  1   
 16  10  20  1   
 17  10  21  1   
 18  11  15  ar  
 19  11  22  1   
 20  12  15  ar  
 21  12  23  1   
 22  14  16  1   
 23  14  24  1   
 24  14  25  1   
 25  15  26  1   
 26  16  17  1   
 27  16  27  1   
 28  16  28  1   
 29  17  18  1   
 30  17  29  1   
 31  17  30  1   
 32  18  31  1   
 33  18  32  1   
 34  18  33  1   
@<TRIPOS>SUBSTRUCTURE
  1 ****   9 GROUP 4 **** **** 0

# MOE 2024.06 (io_trps.svl 2023.06)
