@<TRIPOS>MOLECULE
NONAME
54 56 1 0 0 
SMALL
USER_CHARGES


@<TRIPOS>ATOM
  1 O        1.0860    -4.5090     1.9320 O.2   1 <1>  -0.5700 
  2 C        1.0260    -3.5120     1.2620 C.2   1 <1>   0.6590 
  3 O        0.2490    -2.4870     1.5770 O.3   1 <1>  -0.4300 
  4 C        1.8570    -3.3380    -0.0080 C.3   1 <1>  -0.0190 
  5 C       -0.5680    -2.5090     2.7260 C.3   1 <1>   0.1200 
  6 C        2.3190    -4.6850    -0.6010 C.3   1 <1>  -0.1600 
  7 C        3.0770    -2.4360     0.2560 C.3   1 <1>  -0.1600 
  8 C       -1.3180    -1.1840     2.7990 C.3   1 <1>  -0.2400 
  9 C        3.2080    -4.4960    -1.8280 C.3   1 <1>   0.3430 
 10 C        3.9570    -2.2870    -0.9830 C.3   1 <1>   0.3430 
 11 N        4.3690    -3.6360    -1.4710 N.4   1 <1>  -0.9590 
 12 C        5.3430    -3.5410    -2.5940 C.3   1 <1>   0.4860 
 13 C        6.5960    -2.8540    -2.0900 C.ar  1 <1>  -0.1440 
 14 C        7.4150    -3.4900    -1.1700 C.ar  1 <1>  -0.1500 
 15 C        6.9340    -1.5840    -2.5360 C.ar  1 <1>  -0.1500 
 16 C        8.5500    -2.8660    -0.6810 C.ar  1 <1>   0.0820 
 17 C        8.0710    -0.9570    -2.0560 C.ar  1 <1>  -0.1500 
 18 O        9.2740    -3.5660     0.2230 O.3   1 <1>  -0.3620 
 19 C        8.8790    -1.5910    -1.1290 C.ar  1 <1>  -0.1500 
 20 C       10.4850    -3.0640     0.7480 C.3   1 <1>   0.2630 
 21 C       11.0630    -4.0920     1.7060 C.ar  1 <1>  -0.1440 
 22 C       10.9540    -3.9170     3.0780 C.ar  1 <1>  -0.1500 
 23 C       11.7090    -5.2160     1.2140 C.ar  1 <1>  -0.1500 
 24 C       11.4900    -4.8520     3.9470 C.ar  1 <1>  -0.1500 
 25 C       12.2450    -6.1520     2.0810 C.ar  1 <1>  -0.1500 
 26 C       12.1360    -5.9700     3.4490 C.ar  1 <1>  -0.1500 
 27 H        1.2230    -2.8530    -0.7300 H     1 <1>   0.0800 
 28 H        0.0590    -2.6470     3.5910 H     1 <1>   0.0800 
 29 H       -1.2530    -3.3370     2.6420 H     1 <1>   0.0800 
 30 H        1.4560    -5.2660    -0.8780 H     1 <1>   0.0800 
 31 H        2.8580    -5.2520     0.1400 H     1 <1>   0.0800 
 32 H        3.6640    -2.8390     1.0640 H     1 <1>   0.0800 
 33 H        2.7400    -1.4610     0.5630 H     1 <1>   0.0800 
 34 H       -0.6240    -0.3660     2.8750 H     1 <1>   0.0800 
 35 H       -1.9520    -1.1750     3.6670 H     1 <1>   0.0800 
 36 H       -1.9340    -1.0550     1.9270 H     1 <1>   0.0800 
 37 H        2.6380    -4.0350    -2.6190 H     1 <1>   0.0800 
 38 H        3.5500    -5.4600    -2.1720 H     1 <1>   0.0800 
 39 H        4.8280    -1.7010    -0.7310 H     1 <1>   0.0800 
 40 H        3.4120    -1.7680    -1.7550 H     1 <1>   0.0800 
 41 H        4.8750    -4.0840    -0.6950 H     1 <1>   0.4500 
 42 H        4.9180    -2.9830    -3.4120 H     1 <1>   0.0800 
 43 H        5.6000    -4.5270    -2.9480 H     1 <1>   0.0800 
 44 H        7.1980    -4.4810    -0.8110 H     1 <1>   0.1500 
 45 H        6.3250    -1.0670    -3.2590 H     1 <1>   0.1500 
 46 H        8.3320     0.0280    -2.4050 H     1 <1>   0.1500 
 47 H        9.7540    -1.0790    -0.7730 H     1 <1>   0.1500 
 48 H       10.2790    -2.1400     1.2590 H     1 <1>   0.0800 
 49 H       11.1640    -2.8900    -0.0680 H     1 <1>   0.0800 
 50 H       10.4510    -3.0540     3.4770 H     1 <1>   0.1500 
 51 H       11.7940    -5.3670     0.1520 H     1 <1>   0.1500 
 52 H       11.4030    -4.7110     5.0100 H     1 <1>   0.1500 
 53 H       12.7450    -7.0210     1.6930 H     1 <1>   0.1500 
 54 H       12.5520    -6.6970     4.1240 H     1 <1>   0.1500 
@<TRIPOS>BOND
  1   1   2  2   
  2   2   3  1   
  3   2   4  1   
  4   3   5  1   
  5   4   6  1   
  6   4   7  1   
  7   4  27  1   
  8   5   8  1   
  9   5  28  1   
 10   5  29  1   
 11   6   9  1   
 12   6  30  1   
 13   6  31  1   
 14   7  10  1   
 15   7  32  1   
 16   7  33  1   
 17   8  34  1   
 18   8  35  1   
 19   8  36  1   
 20   9  11  1   
 21   9  37  1   
 22   9  38  1   
 23  10  11  1   
 24  10  39  1   
 25  10  40  1   
 26  11  12  1   
 27  11  41  1   
 28  12  13  1   
 29  12  42  1   
 30  12  43  1   
 31  13  14  ar  
 32  13  15  ar  
 33  14  16  ar  
 34  14  44  1   
 35  15  17  ar  
 36  15  45  1   
 37  16  18  1   
 38  16  19  ar  
 39  17  19  ar  
 40  17  46  1   
 41  18  20  1   
 42  19  47  1   
 43  20  21  1   
 44  20  48  1   
 45  20  49  1   
 46  21  22  ar  
 47  21  23  ar  
 48  22  24  ar  
 49  22  50  1   
 50  23  25  ar  
 51  23  51  1   
 52  24  26  ar  
 53  24  52  1   
 54  25  26  ar  
 55  25  53  1   
 56  26  54  1   
@<TRIPOS>SUBSTRUCTURE
  1 ****  14 GROUP 4 **** **** 0

# MOE 2024.06 (io_trps.svl 2023.06)
