@<TRIPOS>MOLECULE
NONAME
51 53 1 0 0 
SMALL
USER_CHARGES


@<TRIPOS>ATOM
  1 O       -4.1440     6.7400    -2.1340 O.2   1 <1>  -0.5700 
  2 C       -4.4780     6.3570    -1.0370 C.2   1 <1>   0.5690 
  3 N       -5.7880     6.3950    -0.6300 N.am  1 <1>  -0.6600 
  4 C       -3.3620     5.8120    -0.1360 C.3   1 <1>  -0.0190 
  5 C       -6.7980     7.0840    -1.4970 C.3   1 <1>   0.1400 
  6 C       -6.3120     5.7520     0.6170 C.3   1 <1>   0.1400 
  7 C       -2.1510     6.7680    -0.1070 C.3   1 <1>  -0.1600 
  8 C       -2.9240     4.4180    -0.6210 C.3   1 <1>  -0.1600 
  9 C       -7.9190     7.6880    -0.6450 C.3   1 <1>  -0.1600 
 10 C       -7.7950     5.3930     0.4750 C.3   1 <1>  -0.1600 
 11 C       -0.9720     6.1860     0.6670 C.3   1 <1>   0.3430 
 12 C       -1.7210     3.8830     0.1540 C.3   1 <1>   0.3430 
 13 C       -8.6660     6.6250     0.1780 C.3   1 <1>  -0.1600 
 14 N       -0.6050     4.8630     0.0820 N.4   1 <1>  -0.9590 
 15 C        0.6450     4.3190     0.6800 C.3   1 <1>   0.4860 
 16 C        1.7830     5.2760     0.3850 C.ar  1 <1>  -0.1440 
 17 C        2.3060     5.3730    -0.8960 C.ar  1 <1>  -0.1500 
 18 C        2.3070     6.0700     1.3950 C.ar  1 <1>  -0.1500 
 19 C        3.3310     6.2620    -1.1640 C.ar  1 <1>  -0.1500 
 20 C        3.3320     6.9580     1.1230 C.ar  1 <1>  -0.1500 
 21 C        3.8480     7.0590    -0.1580 C.ar  1 <1>  -0.1440 
 22 C        4.9730     8.0350    -0.4570 C.3   1 <1>  -0.0970 
 23 H       -3.7210     5.7310     0.8730 H     1 <1>   0.0800 
 24 H       -7.2080     6.3710    -2.1920 H     1 <1>   0.0800 
 25 H       -6.3230     7.8670    -2.0640 H     1 <1>   0.0800 
 26 H       -6.1880     6.4340     1.4410 H     1 <1>   0.0800 
 27 H       -5.7620     4.8520     0.8260 H     1 <1>   0.0800 
 28 H       -2.4450     7.7000     0.3450 H     1 <1>   0.0800 
 29 H       -1.8270     6.9930    -1.1090 H     1 <1>   0.0800 
 30 H       -2.6780     4.4590    -1.6690 H     1 <1>   0.0800 
 31 H       -3.7450     3.7300    -0.5160 H     1 <1>   0.0800 
 32 H       -8.6150     8.2060    -1.2820 H     1 <1>   0.0800 
 33 H       -7.4820     8.4180     0.0140 H     1 <1>   0.0800 
 34 H       -8.1430     4.9170     1.3750 H     1 <1>   0.0800 
 35 H       -7.8960     4.6800    -0.3260 H     1 <1>   0.0800 
 36 H       -1.2360     6.0700     1.7050 H     1 <1>   0.0800 
 37 H       -0.1360     6.8660     0.6010 H     1 <1>   0.0800 
 38 H       -1.4150     2.9390    -0.2710 H     1 <1>   0.0800 
 39 H       -1.9980     3.7180     1.1830 H     1 <1>   0.0800 
 40 H       -9.5450     6.3050    -0.3550 H     1 <1>   0.0800 
 41 H       -8.9920     7.0720     1.1020 H     1 <1>   0.0800 
 42 H       -0.3970     5.0420    -0.9100 H     1 <1>   0.4500 
 43 H        0.8750     3.3570     0.2520 H     1 <1>   0.0800 
 44 H        0.5310     4.2020     1.7450 H     1 <1>   0.0800 
 45 H        1.9320     4.7610    -1.7000 H     1 <1>   0.1500 
 46 H        1.9310     6.0090     2.4030 H     1 <1>   0.1500 
 47 H        3.7310     6.3330    -2.1620 H     1 <1>   0.1500 
 48 H        3.7320     7.5710     1.9130 H     1 <1>   0.1500 
 49 H        5.6190     7.6410    -1.2210 H     1 <1>   0.0800 
 50 H        5.5640     8.2130     0.4240 H     1 <1>   0.0800 
 51 H        4.5650     8.9700    -0.7950 H     1 <1>   0.0800 
@<TRIPOS>BOND
  1   1   2  2   
  2   2   3  am  
  3   2   4  1   
  4   3   5  1   
  5   3   6  1   
  6   4   7  1   
  7   4   8  1   
  8   4  23  1   
  9   5   9  1   
 10   5  24  1   
 11   5  25  1   
 12   6  10  1   
 13   6  26  1   
 14   6  27  1   
 15   7  11  1   
 16   7  28  1   
 17   7  29  1   
 18   8  12  1   
 19   8  30  1   
 20   8  31  1   
 21   9  13  1   
 22   9  32  1   
 23   9  33  1   
 24  10  13  1   
 25  10  34  1   
 26  10  35  1   
 27  11  14  1   
 28  11  36  1   
 29  11  37  1   
 30  12  14  1   
 31  12  38  1   
 32  12  39  1   
 33  13  40  1   
 34  13  41  1   
 35  14  15  1   
 36  14  42  1   
 37  15  16  1   
 38  15  43  1   
 39  15  44  1   
 40  16  17  ar  
 41  16  18  ar  
 42  17  19  ar  
 43  17  45  1   
 44  18  20  ar  
 45  18  46  1   
 46  19  21  ar  
 47  19  47  1   
 48  20  21  ar  
 49  20  48  1   
 50  21  22  1   
 51  22  49  1   
 52  22  50  1   
 53  22  51  1   
@<TRIPOS>SUBSTRUCTURE
  1 ****   7 GROUP 4 **** **** 0

# MOE 2024.06 (io_trps.svl 2023.06)
