@<TRIPOS>MOLECULE
NONAME
39 39 1 0 0 
SMALL
USER_CHARGES


@<TRIPOS>ATOM
  1 O       -0.1250     0.1660     1.2650 O.2   1 <1>  -0.5700 
  2 C       -0.3880    -0.5740     0.3380 C.2   1 <1>   0.6900 
  3 N       -1.6060    -0.5810    -0.2330 N.am  1 <1>  -0.7300 
  4 N        0.5370    -1.4190    -0.1530 N.am  1 <1>  -0.7300 
  5 C       -2.7590     0.1420     0.3050 C.3   1 <1>   0.3640 
  6 C        1.9720    -1.4090     0.2660 C.3   1 <1>   0.2010 
  7 C       -4.0080    -0.6810     0.0100 C.ar  1 <1>  -0.1430 
  8 C       -2.8220     1.5270    -0.3340 C.3   1 <1>  -0.2400 
  9 C        2.9240    -1.8920    -0.8280 C.2   1 <1>   0.6590 
 10 C       -4.7740    -1.1690     1.0590 C.ar  1 <1>  -0.1500 
 11 C       -4.3970    -0.9650    -1.2920 C.ar  1 <1>  -0.1500 
 12 O        2.5250    -2.3150    -1.8860 O.2   1 <1>  -0.5700 
 13 O        4.2180    -1.8230    -0.5400 O.3   1 <1>  -0.4300 
 14 C       -5.9080    -1.9230     0.8110 C.ar  1 <1>  -0.1500 
 15 C       -5.5310    -1.7200    -1.5400 C.ar  1 <1>  -0.1500 
 16 C        5.2000    -2.2360    -1.4620 C.3   1 <1>   0.1200 
 17 C       -6.2940    -2.2020    -0.4900 C.ar  1 <1>  -0.1440 
 18 C        6.5690    -2.0260    -0.8220 C.3   1 <1>  -0.2400 
 19 C       -7.5360    -3.0310    -0.7600 C.3   1 <1>  -0.0970 
 20 H       -1.8690    -1.3900    -0.7880 H     1 <1>   0.3700 
 21 H        0.3770    -1.8430    -1.0690 H     1 <1>   0.3700 
 22 H       -2.6430     0.2540     1.3710 H     1 <1>   0.0800 
 23 H        2.0870    -2.0430     1.1260 H     1 <1>   0.0800 
 24 H        2.2550    -0.4100     0.5470 H     1 <1>   0.0800 
 25 H       -2.8680     1.4570    -1.4050 H     1 <1>   0.0800 
 26 H       -1.9530     2.0940    -0.0530 H     1 <1>   0.0800 
 27 H       -3.6950     2.0450     0.0160 H     1 <1>   0.0800 
 28 H       -4.4910    -0.9670     2.0770 H     1 <1>   0.1500 
 29 H       -3.8200    -0.6000    -2.1230 H     1 <1>   0.1500 
 30 H       -6.4890    -2.2940     1.6370 H     1 <1>   0.1500 
 31 H       -5.8160    -1.9300    -2.5550 H     1 <1>   0.1500 
 32 H        5.0980    -1.6470    -2.3580 H     1 <1>   0.0800 
 33 H        5.0360    -3.2760    -1.6930 H     1 <1>   0.0800 
 34 H        6.7130    -0.9870    -0.5880 H     1 <1>   0.0800 
 35 H        7.3390    -2.3350    -1.5050 H     1 <1>   0.0800 
 36 H        6.6520    -2.6130     0.0760 H     1 <1>   0.0800 
 37 H       -7.2770    -4.0730    -0.7940 H     1 <1>   0.0800 
 38 H       -7.9780    -2.7510    -1.6990 H     1 <1>   0.0800 
 39 H       -8.2650    -2.8790     0.0160 H     1 <1>   0.0800 
@<TRIPOS>BOND
  1   1   2  2   
  2   2   3  am  
  3   2   4  am  
  4   3   5  1   
  5   3  20  1   
  6   4   6  1   
  7   4  21  1   
  8   5   7  1   
  9   5   8  1   
 10   5  22  1   
 11   6   9  1   
 12   6  23  1   
 13   6  24  1   
 14   7  10  ar  
 15   7  11  ar  
 16   8  25  1   
 17   8  26  1   
 18   8  27  1   
 19   9  12  2   
 20   9  13  1   
 21  10  14  ar  
 22  10  28  1   
 23  11  15  ar  
 24  11  29  1   
 25  13  16  1   
 26  14  17  ar  
 27  14  30  1   
 28  15  17  ar  
 29  15  31  1   
 30  16  18  1   
 31  16  32  1   
 32  16  33  1   
 33  17  19  1   
 34  18  34  1   
 35  18  35  1   
 36  18  36  1   
 37  19  37  1   
 38  19  38  1   
 39  19  39  1   
@<TRIPOS>SUBSTRUCTURE
  1 ****   3 GROUP 4 **** **** 0

# MOE 2024.06 (io_trps.svl 2023.06)
