@<TRIPOS>MOLECULE
NONAME
38 39 1 0 0 
SMALL
USER_CHARGES


@<TRIPOS>ATOM
  1 O        3.5460    -1.3940     2.2350 O.co2 1 <1>  -0.9000 
  2 C        3.6560    -2.6210     2.1820 C.2   1 <1>   0.9060 
  3 O        4.5830    -3.2040     2.7590 O.co2 1 <1>  -0.9000 
  4 C        2.6530    -3.4370     1.3760 C.3   1 <1>  -0.1860 
  5 C        3.1800    -4.8190     0.9090 C.3   1 <1>  -0.0190 
  6 C        2.1120    -2.6490     0.1700 C.3   1 <1>  -0.0220 
  7 C        4.3750    -4.7480    -0.0590 C.2   1 <1>   0.5690 
  8 C        1.9930    -5.6260     0.3440 C.3   1 <1>  -0.0220 
  9 C        1.1890    -3.4880    -0.7150 C.2   1 <1>  -0.2760 
 10 O        4.3310    -5.2630    -1.1550 O.2   1 <1>  -0.5700 
 11 N        5.5090    -4.1500     0.3670 N.am  1 <1>  -0.7300 
 12 C        1.1190    -4.8260    -0.6240 C.2   1 <1>  -0.2760 
 13 C        0.4130    -2.5990    -1.6780 C.3   1 <1>  -0.1020 
 14 C        6.7160    -3.9000    -0.4380 C.3   1 <1>   0.3200 
 15 C        0.2110    -5.7470    -1.4300 C.3   1 <1>  -0.1020 
 16 C        7.2790    -2.5110    -0.1800 C.2   1 <1>  -0.0400 
 17 O        8.3750    -2.1490    -0.8240 O.3   1 <1>  -0.2800 
 18 C        6.8590    -1.5100     0.6270 C.2   1 <1>  -0.1500 
 19 C        8.6730    -0.9210    -0.4470 C.2   1 <1>  -0.0100 
 20 C        7.7740    -0.4660     0.4510 C.2   1 <1>  -0.1500 
 21 H        1.8300    -3.6080     2.0430 H     1 <1>   0.0800 
 22 H        3.5340    -5.3480     1.7750 H     1 <1>   0.0800 
 23 H        2.9360    -2.2850    -0.4200 H     1 <1>   0.0800 
 24 H        1.5790    -1.7920     0.5440 H     1 <1>   0.0800 
 25 H        1.3740    -5.9510     1.1610 H     1 <1>   0.0800 
 26 H        2.3710    -6.5090    -0.1420 H     1 <1>   0.0800 
 27 H        5.4910    -3.7220     1.3160 H     1 <1>   0.3700 
 28 H       -0.2540    -1.9600    -1.1260 H     1 <1>   0.0800 
 29 H       -0.1630    -3.1560    -2.3880 H     1 <1>   0.0800 
 30 H        1.1000    -1.9820    -2.2300 H     1 <1>   0.0800 
 31 H        6.4810    -3.9980    -1.4830 H     1 <1>   0.0800 
 32 H        7.4600    -4.6340    -0.1850 H     1 <1>   0.0800 
 33 H       -0.3500    -6.3780    -0.7650 H     1 <1>   0.0800 
 34 H        0.8080    -6.3680    -2.0740 H     1 <1>   0.0800 
 35 H       -0.4900    -5.2110    -2.0370 H     1 <1>   0.0800 
 36 H        6.0040    -1.4800     1.2850 H     1 <1>   0.1500 
 37 H        9.5410    -0.4460    -0.8660 H     1 <1>   0.1500 
 38 H        7.7240     0.4830     0.9520 H     1 <1>   0.1500 
@<TRIPOS>BOND
  1   1   2  ar  
  2   2   3  ar  
  3   2   4  1   
  4   4   5  1   
  5   4   6  1   
  6   4  21  1   
  7   5   7  1   
  8   5   8  1   
  9   5  22  1   
 10   6   9  1   
 11   6  23  1   
 12   6  24  1   
 13   7  10  2   
 14   7  11  am  
 15   8  12  1   
 16   8  25  1   
 17   8  26  1   
 18   9  12  2   
 19   9  13  1   
 20  11  14  1   
 21  11  27  1   
 22  12  15  1   
 23  13  28  1   
 24  13  29  1   
 25  13  30  1   
 26  14  16  1   
 27  14  31  1   
 28  14  32  1   
 29  15  33  1   
 30  15  34  1   
 31  15  35  1   
 32  16  17  1   
 33  16  18  2   
 34  17  19  1   
 35  18  20  1   
 36  18  36  1   
 37  19  20  2   
 38  19  37  1   
 39  20  38  1   
@<TRIPOS>SUBSTRUCTURE
  1 ****   7 GROUP 4 **** **** 0

# MOE 2024.06 (io_trps.svl 2023.06)
