@<TRIPOS>MOLECULE
NONAME
33 35 1 0 0 
SMALL
USER_CHARGES


@<TRIPOS>ATOM
  1 N       -1.6340    -0.2840    -1.3700 N.1   1 <1>  -0.5570 
  2 C       -1.9090     0.6320    -0.7510 C.1   1 <1>   0.3570 
  3 C       -2.2690     1.8040     0.1100 C.3   1 <1>   0.3000 
  4 C       -3.7510     2.1770     0.0380 C.2   1 <1>  -0.3320 
  5 C       -1.3990     3.0250    -0.2710 C.3   1 <1>  -0.1600 
  6 N       -4.8220     1.3160     0.0760 N.pl3 1 <1>   0.0480 
  7 C       -4.2010     3.4490    -0.0570 C.2   1 <1>  -0.1810 
  8 C       -1.9010     4.3350     0.3690 C.3   1 <1>  -0.1600 
  9 C       -5.9680     2.0750    -0.0220 C.ar  1 <1>  -0.1520 
 10 C       -4.7990    -0.1550     0.2150 C.3   1 <1>   0.0160 
 11 C       -5.6090     3.4160    -0.1040 C.ar  1 <1>   0.0000 
 12 C       -3.3240     4.6830    -0.1000 C.3   1 <1>   0.0210 
 13 C       -7.3180     1.7070    -0.0500 C.ar  1 <1>  -0.1500 
 14 C       -6.5970     4.4000    -0.2090 C.ar  1 <1>  -0.1500 
 15 C       -8.2800     2.6860    -0.1530 C.ar  1 <1>  -0.1500 
 16 C       -7.9250     4.0380    -0.2320 C.ar  1 <1>  -0.1430 
 17 C       -9.0210     5.0820    -0.3440 C.3   1 <1>  -0.0970 
 18 H       -2.0530     1.5350     1.1280 H     1 <1>   0.0800 
 19 H       -1.4130     3.1440    -1.3410 H     1 <1>   0.0800 
 20 H       -0.3810     2.8430     0.0260 H     1 <1>   0.0800 
 21 H       -1.2360     5.1440     0.1210 H     1 <1>   0.0800 
 22 H       -1.9050     4.2260     1.4400 H     1 <1>   0.0800 
 23 H       -4.6680    -0.5990    -0.7550 H     1 <1>   0.0800 
 24 H       -5.7230    -0.4930     0.6440 H     1 <1>   0.0800 
 25 H       -3.9900    -0.4460     0.8590 H     1 <1>   0.0800 
 26 H       -3.7380     5.4490     0.5310 H     1 <1>   0.0800 
 27 H       -3.3000     5.0520    -1.1110 H     1 <1>   0.0800 
 28 H       -7.5980     0.6720     0.0070 H     1 <1>   0.1500 
 29 H       -6.2950     5.4280    -0.2700 H     1 <1>   0.1500 
 30 H       -9.3200     2.4140    -0.1750 H     1 <1>   0.1500 
 31 H       -8.6050     6.0720    -0.3960 H     1 <1>   0.0800 
 32 H       -9.6670     5.0260     0.5130 H     1 <1>   0.0800 
 33 H       -9.6020     4.9070    -1.2320 H     1 <1>   0.0800 
@<TRIPOS>BOND
  1   1   2  3   
  2   2   3  1   
  3   3   4  1   
  4   3   5  1   
  5   3  18  1   
  6   4   6  1   
  7   4   7  2   
  8   5   8  1   
  9   5  19  1   
 10   5  20  1   
 11   6   9  1   
 12   6  10  1   
 13   7  11  1   
 14   7  12  1   
 15   8  12  1   
 16   8  21  1   
 17   8  22  1   
 18   9  11  ar  
 19   9  13  ar  
 20  10  23  1   
 21  10  24  1   
 22  10  25  1   
 23  11  14  ar  
 24  12  26  1   
 25  12  27  1   
 26  13  15  ar  
 27  13  28  1   
 28  14  16  ar  
 29  14  29  1   
 30  15  16  ar  
 31  15  30  1   
 32  16  17  1   
 33  17  31  1   
 34  17  32  1   
 35  17  33  1   
@<TRIPOS>SUBSTRUCTURE
  1 ****   7 GROUP 4 **** **** 0

# MOE 2024.06 (io_trps.svl 2023.06)
