@<TRIPOS>MOLECULE
NONAME
41 44 1 0 0 
SMALL
USER_CHARGES


@<TRIPOS>ATOM
  1 CL      -0.5530    -0.2670     1.6570 Cl    1 <1>  -0.1770 
  2 C       -1.0450    -1.2100     0.2720 C.ar  1 <1>   0.1770 
  3 C       -2.3430    -1.1250    -0.2180 C.ar  1 <1>  -0.0090 
  4 C       -0.0880    -2.0320    -0.3010 C.ar  1 <1>  -0.1500 
  5 S       -3.5400    -0.0290     0.5790 S.o2  1 <1>   1.4470 
  6 C       -2.6580    -1.9070    -1.3280 C.ar  1 <1>  -0.1500 
  7 C       -0.4190    -2.8020    -1.4010 C.ar  1 <1>  -0.1500 
  8 O       -3.1220     1.3420     0.3850 O.2   1 <1>  -0.6500 
  9 O       -3.7990    -0.5100     1.9200 O.2   1 <1>  -0.6500 
 10 N       -4.9660    -0.2610    -0.3280 N.am  1 <1>  -0.8490 
 11 C       -1.7040    -2.7280    -1.9010 C.ar  1 <1>   0.1770 
 12 C       -6.0790    -0.9470     0.3640 C.3   1 <1>   0.1960 
 13 C       -5.4390     0.9100    -1.0800 C.3   1 <1>   0.1960 
 14 CL      -2.1360    -3.6930    -3.2880 Cl    1 <1>  -0.1770 
 15 C       -7.0710     0.0070     1.0800 C.3   1 <1>   0.0580 
 16 C       -6.2380     1.9180    -0.2110 C.3   1 <1>  -0.0800 
 17 C       -8.3800     0.0570     0.2820 C.2   1 <1>  -0.0290 
 18 C       -6.5040     1.4230     1.2190 C.3   1 <1>  -0.1600 
 19 C       -7.6030     2.1830    -0.8650 C.3   1 <1>   0.1400 
 20 N       -8.5550     1.0350    -0.7000 N.am  1 <1>  -0.4690 
 21 C       -9.3600    -0.8600     0.5180 C.2   1 <1>  -0.1500 
 22 C       -9.7170     1.0600    -1.4590 C.2   1 <1>   0.6160 
 23 C      -10.5590    -0.8500    -0.2320 C.2   1 <1>  -0.1500 
 24 O       -9.8740     1.9080    -2.3310 O.2   1 <1>  -0.5700 
 25 C      -10.7210     0.0900    -1.1980 C.2   1 <1>  -0.1360 
 26 H        0.9050    -2.0640     0.1150 H     1 <1>   0.1500 
 27 H       -3.6430    -1.8870    -1.7590 H     1 <1>   0.1500 
 28 H        0.3040    -3.4500    -1.8660 H     1 <1>   0.1500 
 29 H       -5.6950    -1.6650     1.0690 H     1 <1>   0.0800 
 30 H       -6.6240    -1.5150    -0.3710 H     1 <1>   0.0800 
 31 H       -6.0710     0.5470    -1.8750 H     1 <1>   0.0800 
 32 H       -4.6110     1.4100    -1.5540 H     1 <1>   0.0800 
 33 H       -7.2770    -0.3900     2.0590 H     1 <1>   0.0800 
 34 H       -5.6930     2.8450    -0.1740 H     1 <1>   0.0800 
 35 H       -5.6050     1.4230     1.8070 H     1 <1>   0.0800 
 36 H       -7.2140     2.0600     1.7170 H     1 <1>   0.0800 
 37 H       -7.4690     2.3950    -1.9130 H     1 <1>   0.0800 
 38 H       -8.0500     3.0520    -0.4140 H     1 <1>   0.0800 
 39 H       -9.2510    -1.6200     1.2720 H     1 <1>   0.1500 
 40 H      -11.3140    -1.5890    -0.0200 H     1 <1>   0.1500 
 41 H      -11.6050     0.1480    -1.8020 H     1 <1>   0.1500 
@<TRIPOS>BOND
  1   1   2  1   
  2   2   3  ar  
  3   2   4  ar  
  4   3   5  1   
  5   3   6  ar  
  6   4   7  ar  
  7   4  26  1   
  8   5   8  2   
  9   5   9  2   
 10   5  10  am  
 11   6  11  ar  
 12   6  27  1   
 13   7  11  ar  
 14   7  28  1   
 15  10  12  1   
 16  10  13  1   
 17  11  14  1   
 18  12  15  1   
 19  12  29  1   
 20  12  30  1   
 21  13  16  1   
 22  13  31  1   
 23  13  32  1   
 24  15  17  1   
 25  15  18  1   
 26  15  33  1   
 27  16  18  1   
 28  16  19  1   
 29  16  34  1   
 30  17  20  1   
 31  17  21  2   
 32  18  35  1   
 33  18  36  1   
 34  19  20  1   
 35  19  37  1   
 36  19  38  1   
 37  20  22  am  
 38  21  23  1   
 39  21  39  1   
 40  22  24  2   
 41  22  25  1   
 42  23  25  2   
 43  23  40  1   
 44  25  41  1   
@<TRIPOS>SUBSTRUCTURE
  1 ****  10 GROUP 4 **** **** 0

# MOE 2024.06 (io_trps.svl 2023.06)
