@<TRIPOS>MOLECULE
NONAME
40 42 1 0 0 
SMALL
USER_CHARGES


@<TRIPOS>ATOM
  1 O        0.4060    -0.4980    -1.4480 O.2   1 <1>  -0.5700 
  2 C        0.2330    -1.3350    -0.5830 C.2   1 <1>   0.5440 
  3 N       -1.0220    -1.5010    -0.0700 N.am  1 <1>  -0.7300 
  4 C        1.3450    -2.1330    -0.0940 C.ar  1 <1>   0.0860 
  5 C       -2.2290    -0.7660    -0.4850 C.3   1 <1>   0.2200 
  6 C        2.6500    -1.6490    -0.1650 C.ar  1 <1>  -0.1500 
  7 C        1.1610    -3.4020     0.4580 C.ar  1 <1>  -0.1500 
  8 C       -2.7860    -0.0210     0.7220 C.3   1 <1>  -0.1600 
  9 C       -3.3250    -1.7730    -0.8110 C.3   1 <1>  -0.1600 
 10 C        3.7400    -2.3720     0.2970 C.ar  1 <1>   0.1170 
 11 C        2.2320    -4.1410     0.9250 C.ar  1 <1>  -0.1500 
 12 C       -3.5870    -1.0560     1.5210 C.3   1 <1>  -0.1600 
 13 C       -3.9310    -2.1830     0.5370 C.3   1 <1>  -0.1600 
 14 N        5.0190    -1.8110     0.1710 N.am  1 <1>  -0.5470 
 15 C        3.5130    -3.6300     0.8440 C.ar  1 <1>  -0.1500 
 16 C        6.1820    -2.0250     0.8770 C.2   1 <1>   0.7150 
 17 O        6.1680    -2.7480     1.8550 O.2   1 <1>  -0.5700 
 18 C        7.3910    -1.3620     0.4370 C.2   1 <1>   0.0550 
 19 O        8.5020    -1.4010     1.1680 O.3   1 <1>  -0.2800 
 20 C        7.6510    -0.6290    -0.6860 C.2   1 <1>  -0.1500 
 21 C        9.4460    -0.7260     0.5550 C.2   1 <1>  -0.0100 
 22 C        8.9820    -0.2190    -0.6060 C.2   1 <1>  -0.1500 
 23 H       -1.1690    -2.1160     0.7270 H     1 <1>   0.3700 
 24 H       -2.0180    -0.1090    -1.3120 H     1 <1>   0.0800 
 25 H        2.8060    -0.6750    -0.5930 H     1 <1>   0.1500 
 26 H        0.1730    -3.8220     0.5160 H     1 <1>   0.1500 
 27 H       -3.4570     0.7420     0.3670 H     1 <1>   0.0800 
 28 H       -2.0120     0.4480     1.3020 H     1 <1>   0.0800 
 29 H       -2.9530    -2.6100    -1.3750 H     1 <1>   0.0800 
 30 H       -4.0790    -1.2750    -1.3950 H     1 <1>   0.0800 
 31 H        2.0740    -5.1180     1.3490 H     1 <1>   0.1500 
 32 H       -4.4760    -0.6130     1.9370 H     1 <1>   0.0800 
 33 H       -2.9850    -1.4450     2.3240 H     1 <1>   0.0800 
 34 H       -3.4880    -3.1050     0.8730 H     1 <1>   0.0800 
 35 H       -4.9950    -2.3210     0.4520 H     1 <1>   0.0800 
 36 H        5.0900    -1.0660    -0.5160 H     1 <1>   0.3700 
 37 H        4.3370    -4.2190     1.2060 H     1 <1>   0.1500 
 38 H        6.9910    -0.3940    -1.5020 H     1 <1>   0.1500 
 39 H       10.4180    -0.6560     1.0120 H     1 <1>   0.1500 
 40 H        9.5060     0.3770    -1.3330 H     1 <1>   0.1500 
@<TRIPOS>BOND
  1   1   2  2   
  2   2   3  am  
  3   2   4  1   
  4   3   5  1   
  5   3  23  1   
  6   4   6  ar  
  7   4   7  ar  
  8   5   8  1   
  9   5   9  1   
 10   5  24  1   
 11   6  10  ar  
 12   6  25  1   
 13   7  11  ar  
 14   7  26  1   
 15   8  12  1   
 16   8  27  1   
 17   8  28  1   
 18   9  13  1   
 19   9  29  1   
 20   9  30  1   
 21  10  14  1   
 22  10  15  ar  
 23  11  15  ar  
 24  11  31  1   
 25  12  13  1   
 26  12  32  1   
 27  12  33  1   
 28  13  34  1   
 29  13  35  1   
 30  14  16  am  
 31  14  36  1   
 32  15  37  1   
 33  16  17  2   
 34  16  18  1   
 35  18  19  1   
 36  18  20  2   
 37  19  21  1   
 38  20  22  1   
 39  20  38  1   
 40  21  22  2   
 41  21  39  1   
 42  22  40  1   
@<TRIPOS>SUBSTRUCTURE
  1 ****   6 GROUP 4 **** **** 0

# MOE 2024.06 (io_trps.svl 2023.06)
