@<TRIPOS>MOLECULE
NONAME
41 43 1 0 0 
SMALL
USER_CHARGES


@<TRIPOS>ATOM
  1 S        0.3240     0.0570    -0.2450 S.3   1 <1>  -0.0800 
  2 C        1.2440    -1.3670     0.1200 C.2   1 <1>   0.4420 
  3 C       -1.0280    -0.7140     0.5080 C.2   1 <1>   0.1980 
  4 N        0.5440    -2.2520     0.7300 N.2   1 <1>  -0.3380 
  5 N        2.5660    -1.3640    -0.2750 N.am  1 <1>  -0.4940 
  6 N       -0.7520    -1.8720     0.9470 N.2   1 <1>  -0.3380 
  7 C       -2.3390     0.0370     0.5620 C.3   1 <1>  -0.0600 
  8 C        3.5090    -2.3420    -0.1330 C.2   1 <1>   0.5690 
  9 O        3.2820    -3.4170     0.3590 O.2   1 <1>  -0.5700 
 10 C        4.9130    -2.0530    -0.6470 C.3   1 <1>  -0.0190 
 11 C        5.9520    -3.1100    -0.2420 C.3   1 <1>   0.1400 
 12 C        5.5080    -0.7270    -0.1480 C.3   1 <1>  -0.0990 
 13 N        7.2230    -2.3630    -0.1410 N.am  1 <1>  -0.4770 
 14 C        6.9810    -1.0210    -0.0830 C.2   1 <1>   0.5690 
 15 C        8.4620    -3.0370    -0.1450 C.ar  1 <1>   0.1170 
 16 O        7.7900    -0.1310     0.0000 O.2   1 <1>  -0.5700 
 17 C        8.5970    -4.2890     0.4480 C.ar  1 <1>  -0.1500 
 18 C        9.5840    -2.4790    -0.7500 C.ar  1 <1>  -0.1500 
 19 C        9.8050    -4.9630     0.4290 C.ar  1 <1>  -0.1500 
 20 C       10.7940    -3.1500    -0.7700 C.ar  1 <1>  -0.1500 
 21 C       10.9130    -4.3990    -0.1830 C.ar  1 <1>  -0.1440 
 22 C       12.2420    -5.1360    -0.2040 C.3   1 <1>  -0.0170 
 23 C       13.0730    -4.7800     1.0310 C.3   1 <1>  -0.2400 
 24 H        2.8650    -0.5090    -0.7320 H     1 <1>   0.3700 
 25 H       -2.2150     0.9530     1.1090 H     1 <1>   0.0800 
 26 H       -3.0810    -0.5660     1.0550 H     1 <1>   0.0800 
 27 H       -2.6760     0.2590    -0.4340 H     1 <1>   0.0800 
 28 H        4.8780    -2.0370    -1.7210 H     1 <1>   0.0800 
 29 H        6.0210    -3.8960    -0.9750 H     1 <1>   0.0800 
 30 H        5.7230    -3.5320     0.7230 H     1 <1>   0.0800 
 31 H        5.1690    -0.4870     0.8440 H     1 <1>   0.0800 
 32 H        5.3130     0.0890    -0.8190 H     1 <1>   0.0800 
 33 H        7.7580    -4.7450     0.9380 H     1 <1>   0.1500 
 34 H        9.5140    -1.5110    -1.2120 H     1 <1>   0.1500 
 35 H        9.8830    -5.9280     0.8960 H     1 <1>   0.1500 
 36 H       11.6440    -2.6920    -1.2430 H     1 <1>   0.1500 
 37 H       12.7870    -4.8740    -1.0940 H     1 <1>   0.0800 
 38 H       12.0680    -6.1970    -0.2290 H     1 <1>   0.0800 
 39 H       13.2640    -3.7220     1.0550 H     1 <1>   0.0800 
 40 H       14.0120    -5.3030     1.0100 H     1 <1>   0.0800 
 41 H       12.5420    -5.0530     1.9260 H     1 <1>   0.0800 
@<TRIPOS>BOND
  1   1   2  1   
  2   1   3  1   
  3   2   4  2   
  4   2   5  1   
  5   3   6  2   
  6   3   7  1   
  7   4   6  1   
  8   5   8  am  
  9   5  24  1   
 10   7  25  1   
 11   7  26  1   
 12   7  27  1   
 13   8   9  2   
 14   8  10  1   
 15  10  11  1   
 16  10  12  1   
 17  10  28  1   
 18  11  13  1   
 19  11  29  1   
 20  11  30  1   
 21  12  14  1   
 22  12  31  1   
 23  12  32  1   
 24  13  14  am  
 25  13  15  1   
 26  14  16  2   
 27  15  17  ar  
 28  15  18  ar  
 29  17  19  ar  
 30  17  33  1   
 31  18  20  ar  
 32  18  34  1   
 33  19  21  ar  
 34  19  35  1   
 35  20  21  ar  
 36  20  36  1   
 37  21  22  1   
 38  22  23  1   
 39  22  37  1   
 40  22  38  1   
 41  23  39  1   
 42  23  40  1   
 43  23  41  1   
@<TRIPOS>SUBSTRUCTURE
  1 ****  11 GROUP 4 **** **** 0

# MOE 2024.06 (io_trps.svl 2023.06)
