@<TRIPOS>MOLECULE
NONAME
38 39 1 0 0 
SMALL
USER_CHARGES


@<TRIPOS>ATOM
  1 O       -0.0640     0.5330    -1.1790 O.2   1 <1>  -0.5700 
  2 C       -0.1900     1.4950    -0.4570 C.2   1 <1>   0.5690 
  3 N       -1.3890     1.9040     0.0680 N.am  1 <1>  -0.5470 
  4 C        1.0920     2.2790    -0.1250 C.3   1 <1>   0.4040 
  5 C       -2.6720     1.3360    -0.0450 C.ar  1 <1>   0.1170 
  6 N        2.3530     1.4670    -0.3230 N.4   1 <1>  -0.9590 
  7 C       -3.8070     2.1520     0.0420 C.ar  1 <1>  -0.1430 
  8 C       -2.8340    -0.0360    -0.2080 C.ar  1 <1>  -0.1500 
  9 C        2.4990     0.3500     0.6400 C.3   1 <1>   0.3430 
 10 C        3.6200     2.2310    -0.2950 C.3   1 <1>   0.3430 
 11 C       -5.0770     1.5790    -0.0150 C.ar  1 <1>  -0.1430 
 12 C       -3.6440     3.6680     0.1980 C.3   1 <1>  -0.0970 
 13 C       -4.0910    -0.5970    -0.2790 C.ar  1 <1>  -0.1500 
 14 C        3.9650    -0.0450     0.5280 C.3   1 <1>  -0.1600 
 15 C        4.6900     1.1730    -0.0550 C.3   1 <1>  -0.1600 
 16 C       -5.2070     0.2090    -0.1800 C.ar  1 <1>  -0.1500 
 17 C       -6.3580     2.3970     0.0990 C.3   1 <1>  -0.0970 
 18 H       -1.4120     2.7860     0.5780 H     1 <1>   0.3700 
 19 H        1.0390     2.6210     0.8940 H     1 <1>   0.0800 
 20 H        1.1220     3.1400    -0.7690 H     1 <1>   0.0800 
 21 H        2.2530     1.0140    -1.2470 H     1 <1>   0.4500 
 22 H       -1.9810    -0.6830    -0.2760 H     1 <1>   0.1500 
 23 H        1.8420    -0.4720     0.3990 H     1 <1>   0.0800 
 24 H        2.2940     0.6950     1.6410 H     1 <1>   0.0800 
 25 H        3.6120     2.9270     0.5280 H     1 <1>   0.0800 
 26 H        3.7870     2.7640    -1.2180 H     1 <1>   0.0800 
 27 H       -2.8470     4.0320    -0.4240 H     1 <1>   0.0800 
 28 H       -3.4340     3.9080     1.2250 H     1 <1>   0.0800 
 29 H       -4.5260     4.2020    -0.0990 H     1 <1>   0.0800 
 30 H       -4.2030    -1.6590    -0.4090 H     1 <1>   0.1500 
 31 H        4.0600    -0.8890    -0.1340 H     1 <1>   0.0800 
 32 H        4.3560    -0.3230     1.4910 H     1 <1>   0.0800 
 33 H        5.4420     1.5490     0.6180 H     1 <1>   0.0800 
 34 H        5.1650     0.9170    -0.9860 H     1 <1>   0.0800 
 35 H       -6.1820    -0.2450    -0.2330 H     1 <1>   0.1500 
 36 H       -6.3250     3.0200     0.9740 H     1 <1>   0.0800 
 37 H       -7.2200     1.7590     0.1810 H     1 <1>   0.0800 
 38 H       -6.4790     3.0130    -0.7730 H     1 <1>   0.0800 
@<TRIPOS>BOND
  1   1   2  2   
  2   2   3  am  
  3   2   4  1   
  4   3   5  1   
  5   3  18  1   
  6   4   6  1   
  7   4  19  1   
  8   4  20  1   
  9   5   7  ar  
 10   5   8  ar  
 11   6   9  1   
 12   6  10  1   
 13   6  21  1   
 14   7  11  ar  
 15   7  12  1   
 16   8  13  ar  
 17   8  22  1   
 18   9  14  1   
 19   9  23  1   
 20   9  24  1   
 21  10  15  1   
 22  10  25  1   
 23  10  26  1   
 24  11  16  ar  
 25  11  17  1   
 26  12  27  1   
 27  12  28  1   
 28  12  29  1   
 29  13  16  ar  
 30  13  30  1   
 31  14  15  1   
 32  14  31  1   
 33  14  32  1   
 34  15  33  1   
 35  15  34  1   
 36  16  35  1   
 37  17  36  1   
 38  17  37  1   
 39  17  38  1   
@<TRIPOS>SUBSTRUCTURE
  1 ****   3 GROUP 4 **** **** 0

# MOE 2024.06 (io_trps.svl 2023.06)
