@<TRIPOS>MOLECULE
NONAME
44 46 1 0 0 
SMALL
USER_CHARGES


@<TRIPOS>ATOM
  1 O        0.2190    -0.4970    -1.2380 O.2   1 <1>  -0.5700 
  2 C       -0.0200    -1.3080    -0.3650 C.2   1 <1>   0.6340 
  3 O        0.8050    -1.3880     0.6850 O.3   1 <1>  -0.4300 
  4 C       -1.1860    -2.1370    -0.4010 C.ar  1 <1>   0.0860 
  5 C        1.9540    -0.5790     0.8310 C.3   1 <1>   0.1200 
  6 C       -1.2240    -3.4850    -0.0420 C.ar  1 <1>   0.4100 
  7 C       -2.3880    -1.6010    -0.8070 C.ar  1 <1>   0.1600 
  8 C        3.1240    -1.2410     0.1060 C.3   1 <1>  -0.2400 
  9 N       -2.3610    -4.1560    -0.0210 N.ar  1 <1>  -0.6200 
 10 N       -0.1030    -4.2190     0.2800 N.pl3 1 <1>  -0.8380 
 11 N       -3.5170    -2.2650    -0.8200 N.ar  1 <1>  -0.6200 
 12 C       -3.4670    -3.5380    -0.4100 C.ar  1 <1>   0.6200 
 13 C        1.0670    -4.3090    -0.6340 C.3   1 <1>   0.2090 
 14 C       -0.1240    -5.2320     1.3710 C.3   1 <1>   0.2090 
 15 C       -4.7120    -4.2960    -0.3950 C.ar  1 <1>   0.0000 
 16 C        1.1430    -5.7140    -1.2400 C.3   1 <1>  -0.1600 
 17 C       -0.0520    -6.6410     0.7740 C.3   1 <1>  -0.1600 
 18 C       -4.7220    -5.6910    -0.4910 C.ar  1 <1>  -0.1500 
 19 C       -5.9570    -3.6670    -0.2830 C.ar  1 <1>  -0.1500 
 20 C        1.1580    -6.8030    -0.1580 C.3   1 <1>  -0.1600 
 21 C       -5.8990    -6.4160    -0.4760 C.ar  1 <1>  -0.1500 
 22 C       -7.1390    -4.3850    -0.2670 C.ar  1 <1>  -0.1500 
 23 C       -7.1130    -5.7630    -0.3640 C.ar  1 <1>  -0.1500 
 24 H        2.1630    -0.5000     1.8840 H     1 <1>   0.0800 
 25 H        1.7510     0.4040     0.4410 H     1 <1>   0.0800 
 26 H       -2.4120    -0.5720    -1.1290 H     1 <1>   0.1500 
 27 H        3.3210    -2.2100     0.5260 H     1 <1>   0.0800 
 28 H        4.0050    -0.6350     0.2190 H     1 <1>   0.0800 
 29 H        2.9090    -1.3330    -0.9440 H     1 <1>   0.0800 
 30 H        1.9640    -4.1010    -0.0770 H     1 <1>   0.0800 
 31 H        0.9830    -3.5860    -1.4270 H     1 <1>   0.0800 
 32 H       -1.0200    -5.1280     1.9590 H     1 <1>   0.0800 
 33 H        0.7200    -5.0650     2.0180 H     1 <1>   0.0800 
 34 H        2.0270    -5.7930    -1.8460 H     1 <1>   0.0800 
 35 H        0.2900    -5.8550    -1.8810 H     1 <1>   0.0800 
 36 H       -0.9600    -6.8230     0.2250 H     1 <1>   0.0800 
 37 H        0.0010    -7.3610     1.5700 H     1 <1>   0.0800 
 38 H       -3.7880    -6.2190    -0.5810 H     1 <1>   0.1500 
 39 H       -6.0000    -2.5940    -0.2060 H     1 <1>   0.1500 
 40 H        2.0650    -6.7260     0.4170 H     1 <1>   0.0800 
 41 H        1.1340    -7.7760    -0.6190 H     1 <1>   0.0800 
 42 H       -5.8720    -7.4890    -0.5520 H     1 <1>   0.1500 
 43 H       -8.0800    -3.8700    -0.1800 H     1 <1>   0.1500 
 44 H       -8.0310    -6.3250    -0.3520 H     1 <1>   0.1500 
@<TRIPOS>BOND
  1   1   2  2   
  2   2   3  1   
  3   2   4  1   
  4   3   5  1   
  5   4   6  ar  
  6   4   7  ar  
  7   5   8  1   
  8   5  24  1   
  9   5  25  1   
 10   6   9  ar  
 11   6  10  1   
 12   7  11  ar  
 13   7  26  1   
 14   8  27  1   
 15   8  28  1   
 16   8  29  1   
 17   9  12  ar  
 18  10  13  1   
 19  10  14  1   
 20  11  12  ar  
 21  12  15  1   
 22  13  16  1   
 23  13  30  1   
 24  13  31  1   
 25  14  17  1   
 26  14  32  1   
 27  14  33  1   
 28  15  18  ar  
 29  15  19  ar  
 30  16  20  1   
 31  16  34  1   
 32  16  35  1   
 33  17  20  1   
 34  17  36  1   
 35  17  37  1   
 36  18  21  ar  
 37  18  38  1   
 38  19  22  ar  
 39  19  39  1   
 40  20  40  1   
 41  20  41  1   
 42  21  23  ar  
 43  21  42  1   
 44  22  23  ar  
 45  22  43  1   
 46  23  44  1   
@<TRIPOS>SUBSTRUCTURE
  1 ****   6 GROUP 4 **** **** 0

# MOE 2024.06 (io_trps.svl 2023.06)
