@<TRIPOS>MOLECULE
NONAME
36 37 1 0 0 
SMALL
USER_CHARGES


@<TRIPOS>ATOM
  1 F       -8.5210    -1.0700     2.6190 F     1 <1>  -0.1900 
  2 C       -7.9090    -1.0710     1.4670 C.ar  1 <1>   0.1900 
  3 C       -6.8120    -1.8890     1.2980 C.ar  1 <1>  -0.1500 
  4 C       -8.3820    -0.2480     0.4640 C.ar  1 <1>  -0.1500 
  5 C       -6.1330    -1.9010     0.0790 C.ar  1 <1>   0.0860 
  6 C       -7.7280    -0.2570    -0.7550 C.ar  1 <1>  -0.1500 
  7 C       -4.9620    -2.7400    -0.1140 C.2   1 <1>   0.5440 
  8 C       -6.6230    -1.0750    -0.9390 C.ar  1 <1>  -0.1500 
  9 O       -4.8000    -3.7490     0.5450 O.2   1 <1>  -0.5700 
 10 N       -3.9580    -2.4000    -0.9920 N.am  1 <1>  -0.6600 
 11 C       -3.2360    -1.1120    -0.7990 C.3   1 <1>   0.1400 
 12 C       -3.0910    -3.4830    -1.5410 C.3   1 <1>   0.1400 
 13 C       -2.0100    -1.3310     0.1160 C.3   1 <1>   0.3430 
 14 C       -1.8920    -3.7130    -0.6030 C.3   1 <1>   0.3430 
 15 N       -1.1070    -2.4410    -0.3680 N.4   1 <1>  -0.9590 
 16 C        0.0020    -2.6490     0.6200 C.3   1 <1>   0.3430 
 17 C        1.0980    -3.5950     0.1080 C.3   1 <1>   0.1200 
 18 O        2.1040    -3.6170     1.0550 O.3   1 <1>  -0.6800 
 19 H       -6.4860    -2.5180     2.1080 H     1 <1>   0.1500 
 20 H       -9.2420     0.3760     0.6350 H     1 <1>   0.1500 
 21 H       -8.0810     0.3680    -1.5580 H     1 <1>   0.1500 
 22 H       -6.1350    -1.0770    -1.8990 H     1 <1>   0.1500 
 23 H       -3.8890    -0.3850    -0.3460 H     1 <1>   0.0800 
 24 H       -2.9240    -0.7250    -1.7530 H     1 <1>   0.0800 
 25 H       -2.7540    -3.2170    -2.5270 H     1 <1>   0.0800 
 26 H       -3.6600    -4.3950    -1.6220 H     1 <1>   0.0800 
 27 H       -2.3710    -1.5710     1.1030 H     1 <1>   0.0800 
 28 H       -1.4540    -0.4100     0.1860 H     1 <1>   0.0800 
 29 H       -1.2550    -4.4710    -1.0280 H     1 <1>   0.0800 
 30 H       -2.2710    -4.0860     0.3350 H     1 <1>   0.0800 
 31 H       -0.7000    -2.1420    -1.2640 H     1 <1>   0.4500 
 32 H       -0.4000    -3.0490     1.5370 H     1 <1>   0.0800 
 33 H        0.4630    -1.7010     0.8430 H     1 <1>   0.0800 
 34 H        1.5210    -3.2370    -0.8150 H     1 <1>   0.0800 
 35 H        0.7300    -4.6000    -0.0080 H     1 <1>   0.0800 
 36 H        2.8420    -4.2090     0.7930 H     1 <1>   0.4000 
@<TRIPOS>BOND
  1   1   2  1   
  2   2   3  ar  
  3   2   4  ar  
  4   3   5  ar  
  5   3  19  1   
  6   4   6  ar  
  7   4  20  1   
  8   5   7  1   
  9   5   8  ar  
 10   6   8  ar  
 11   6  21  1   
 12   7   9  2   
 13   7  10  am  
 14   8  22  1   
 15  10  11  1   
 16  10  12  1   
 17  11  13  1   
 18  11  23  1   
 19  11  24  1   
 20  12  14  1   
 21  12  25  1   
 22  12  26  1   
 23  13  15  1   
 24  13  27  1   
 25  13  28  1   
 26  14  15  1   
 27  14  29  1   
 28  14  30  1   
 29  15  16  1   
 30  15  31  1   
 31  16  17  1   
 32  16  32  1   
 33  16  33  1   
 34  17  18  1   
 35  17  34  1   
 36  17  35  1   
 37  18  36  1   
@<TRIPOS>SUBSTRUCTURE
  1 ****   7 GROUP 4 **** **** 0

# MOE 2024.06 (io_trps.svl 2023.06)
