@<TRIPOS>MOLECULE
NONAME
38 40 1 0 0 
SMALL
USER_CHARGES


@<TRIPOS>ATOM
  1 O       -1.0690    -0.7290     2.9870 O.2   1 <1>  -0.5700 
  2 C       -1.1940    -1.4990     2.0450 C.2   1 <1>   0.6300 
  3 N       -2.1230    -1.1700     1.0630 N.am  1 <1>  -0.6600 
  4 C       -0.3560    -2.6990     1.9610 C.2   1 <1>   0.6560 
  5 C       -2.4940    -2.0730    -0.0640 C.3   1 <1>   0.1400 
  6 C       -2.7900     0.1610     1.0090 C.3   1 <1>   0.1400 
  7 O       -0.4640    -3.5970     2.7830 O.2   1 <1>  -0.5700 
  8 C        0.5630    -2.8430     0.8540 C.2   1 <1>  -0.0860 
  9 C       -2.1280    -1.4080    -1.3950 C.3   1 <1>  -0.1600 
 10 C       -2.4320     0.8550    -0.3100 C.3   1 <1>  -0.1600 
 11 C        1.2210    -1.7590     0.1980 C.ar  1 <1>   0.0000 
 12 C        0.9740    -3.9810     0.1980 C.2   1 <1>  -0.3320 
 13 C       -2.7740    -0.0200    -1.5260 C.3   1 <1>  -0.1600 
 14 C        1.9730    -2.3040    -0.8360 C.ar  1 <1>  -0.1520 
 15 C        1.2570    -0.3700     0.3880 C.ar  1 <1>  -0.1500 
 16 N        1.8190    -3.6620    -0.8100 N.pl3 1 <1>   0.0330 
 17 C        0.6030    -5.4330     0.4600 C.3   1 <1>  -0.0600 
 18 C        2.7290    -1.5060    -1.6960 C.ar  1 <1>  -0.1500 
 19 C        2.0010     0.4220    -0.4570 C.ar  1 <1>  -0.1500 
 20 C        2.7360    -0.1450    -1.5030 C.ar  1 <1>  -0.1500 
 21 H       -3.5560    -2.2500    -0.0300 H     1 <1>   0.0800 
 22 H       -2.0020    -3.0260     0.0150 H     1 <1>   0.0800 
 23 H       -2.4840     0.7820     1.8350 H     1 <1>   0.0800 
 24 H       -3.8550     0.0230     1.0760 H     1 <1>   0.0800 
 25 H       -2.4520    -2.0340    -2.2070 H     1 <1>   0.0800 
 26 H       -1.0580    -1.3170    -1.4620 H     1 <1>   0.0800 
 27 H       -1.3790     1.0770    -0.3100 H     1 <1>   0.0800 
 28 H       -2.9630     1.7880    -0.3760 H     1 <1>   0.0800 
 29 H       -3.8430    -0.1290    -1.5960 H     1 <1>   0.0800 
 30 H       -2.4280     0.4580    -2.4260 H     1 <1>   0.0800 
 31 H        0.7100     0.0840     1.1940 H     1 <1>   0.1500 
 32 H        2.2800    -4.3120    -1.4540 H     1 <1>   0.2700 
 33 H       -0.1720    -5.5140     1.2000 H     1 <1>   0.0800 
 34 H        1.4630    -5.9730     0.8150 H     1 <1>   0.0800 
 35 H        0.2500    -5.8970    -0.4430 H     1 <1>   0.0800 
 36 H        3.2950    -1.9540    -2.4930 H     1 <1>   0.1500 
 37 H        2.0270     1.4880    -0.3160 H     1 <1>   0.1500 
 38 H        3.3090     0.4950    -2.1500 H     1 <1>   0.1500 
@<TRIPOS>BOND
  1   1   2  2   
  2   2   3  am  
  3   2   4  1   
  4   3   5  1   
  5   3   6  1   
  6   4   7  2   
  7   4   8  1   
  8   5   9  1   
  9   5  21  1   
 10   5  22  1   
 11   6  10  1   
 12   6  23  1   
 13   6  24  1   
 14   8  11  1   
 15   8  12  2   
 16   9  13  1   
 17   9  25  1   
 18   9  26  1   
 19  10  13  1   
 20  10  27  1   
 21  10  28  1   
 22  11  14  ar  
 23  11  15  ar  
 24  12  16  1   
 25  12  17  1   
 26  13  29  1   
 27  13  30  1   
 28  14  16  1   
 29  14  18  ar  
 30  15  19  ar  
 31  15  31  1   
 32  16  32  1   
 33  17  33  1   
 34  17  34  1   
 35  17  35  1   
 36  18  20  ar  
 37  18  36  1   
 38  19  20  ar  
 39  19  37  1   
 40  20  38  1   
@<TRIPOS>SUBSTRUCTURE
  1 ****  11 GROUP 4 **** **** 0

# MOE 2024.06 (io_trps.svl 2023.06)
