@<TRIPOS>MOLECULE
NONAME
46 47 1 0 0 
SMALL
USER_CHARGES


@<TRIPOS>ATOM
  1 O        0.8580    -0.4330    -1.0650 O.3   1 <1>  -0.3630 
  2 C        0.3020    -1.5740    -0.5660 C.ar  1 <1>   0.0830 
  3 C        2.0830     0.0880    -0.6000 C.3   1 <1>   0.0400 
  4 C        0.7260    -2.3110     0.5500 C.ar  1 <1>   0.0830 
  5 C       -0.8060    -2.0140    -1.2710 C.ar  1 <1>  -0.1500 
  6 O        1.7830    -1.9650     1.3200 O.3   1 <1>  -0.5330 
  7 C        0.0450    -3.4660     0.9270 C.ar  1 <1>   0.0830 
  8 C       -1.5020    -3.1500    -0.8910 C.ar  1 <1>  -0.1430 
  9 O        0.5170    -4.1410     2.0170 O.3   1 <1>  -0.3630 
 10 C       -1.0690    -3.8830     0.2050 C.ar  1 <1>  -0.1500 
 11 C       -2.7390    -3.5680    -1.6600 C.3   1 <1>   0.4860 
 12 C        0.0500    -5.4300     2.3550 C.3   1 <1>   0.0400 
 13 N       -3.9240    -3.1530    -0.8650 N.4   1 <1>  -0.9590 
 14 C       -5.1740    -3.8300    -1.2620 C.3   1 <1>   0.3430 
 15 C       -4.0880    -1.6870    -0.7650 C.3   1 <1>   0.3430 
 16 C       -5.4540    -4.9270    -0.2380 C.3   1 <1>  -0.1600 
 17 C       -4.1390    -1.3160     0.7170 C.3   1 <1>  -0.1600 
 18 C       -5.9930    -4.4220     1.1160 C.3   1 <1>  -0.1600 
 19 C       -5.2920    -1.9500     1.5200 C.3   1 <1>  -0.1600 
 20 C       -5.1120    -3.4350     1.9100 C.3   1 <1>  -0.1600 
 21 H        2.3470     0.9280    -1.2150 H     1 <1>   0.0800 
 22 H        2.8390    -0.6740    -0.6760 H     1 <1>   0.0800 
 23 H        1.9620     0.4070     0.4200 H     1 <1>   0.0800 
 24 H       -1.1100    -1.4370    -2.1270 H     1 <1>   0.1500 
 25 H        1.8880    -2.6270     2.0340 H     1 <1>   0.4500 
 26 H       -1.6000    -4.7700     0.4930 H     1 <1>   0.1500 
 27 H       -2.7330    -4.6390    -1.7890 H     1 <1>   0.0800 
 28 H       -2.7540    -3.1030    -2.6320 H     1 <1>   0.0800 
 29 H        0.6330    -5.7890     3.1840 H     1 <1>   0.0800 
 30 H        0.1820    -6.0840     1.5100 H     1 <1>   0.0800 
 31 H       -0.9840    -5.3660     2.6410 H     1 <1>   0.0800 
 32 H       -3.7440    -3.4470     0.1030 H     1 <1>   0.4500 
 33 H       -5.0740    -4.2560    -2.2470 H     1 <1>   0.0800 
 34 H       -5.9990    -3.1350    -1.2710 H     1 <1>   0.0800 
 35 H       -4.9940    -1.3710    -1.2570 H     1 <1>   0.0800 
 36 H       -3.2560    -1.1800    -1.2260 H     1 <1>   0.0800 
 37 H       -4.5760    -5.5310    -0.0880 H     1 <1>   0.0800 
 38 H       -6.2040    -5.5750    -0.6570 H     1 <1>   0.0800 
 39 H       -4.2550    -0.2460     0.7670 H     1 <1>   0.0800 
 40 H       -3.1930    -1.5370     1.1820 H     1 <1>   0.0800 
 41 H       -6.1400    -5.2910     1.7360 H     1 <1>   0.0800 
 42 H       -6.9710    -3.9930     0.9750 H     1 <1>   0.0800 
 43 H       -6.2290    -1.7970     1.0110 H     1 <1>   0.0800 
 44 H       -5.3630    -1.3940     2.4400 H     1 <1>   0.0800 
 45 H       -4.0780    -3.7320     1.9050 H     1 <1>   0.0800 
 46 H       -5.4290    -3.5160     2.9370 H     1 <1>   0.0800 
@<TRIPOS>BOND
  1   1   2  1   
  2   1   3  1   
  3   2   4  ar  
  4   2   5  ar  
  5   3  21  1   
  6   3  22  1   
  7   3  23  1   
  8   4   6  1   
  9   4   7  ar  
 10   5   8  ar  
 11   5  24  1   
 12   6  25  1   
 13   7   9  1   
 14   7  10  ar  
 15   8  10  ar  
 16   8  11  1   
 17   9  12  1   
 18  10  26  1   
 19  11  13  1   
 20  11  27  1   
 21  11  28  1   
 22  12  29  1   
 23  12  30  1   
 24  12  31  1   
 25  13  14  1   
 26  13  15  1   
 27  13  32  1   
 28  14  16  1   
 29  14  33  1   
 30  14  34  1   
 31  15  17  1   
 32  15  35  1   
 33  15  36  1   
 34  16  18  1   
 35  16  37  1   
 36  16  38  1   
 37  17  19  1   
 38  17  39  1   
 39  17  40  1   
 40  18  20  1   
 41  18  41  1   
 42  18  42  1   
 43  19  20  1   
 44  19  43  1   
 45  19  44  1   
 46  20  45  1   
 47  20  46  1   
@<TRIPOS>SUBSTRUCTURE
  1 ****   8 GROUP 4 **** **** 0

# MOE 2024.06 (io_trps.svl 2023.06)
