@<TRIPOS>MOLECULE
NONAME
50 51 1 0 0 
SMALL
USER_CHARGES


@<TRIPOS>ATOM
  1 S        0.9400    -1.1580    -1.3820 S.o2  1 <1>   1.4470 
  2 O        0.0550    -1.9870    -2.1660 O.2   1 <1>  -0.6500 
  3 O        2.0620    -1.7850    -0.7220 O.2   1 <1>  -0.6500 
  4 N        1.5910    -0.1880    -2.5850 N.am  1 <1>  -0.9140 
  5 C        0.0490    -0.0430    -0.2260 C.ar  1 <1>  -0.0090 
  6 C        2.6950    -0.8360    -3.3310 C.3   1 <1>   0.2570 
  7 C        0.6030     1.1740     0.2020 C.ar  1 <1>  -0.1430 
  8 C       -1.2070    -0.3920     0.2940 C.ar  1 <1>  -0.1430 
  9 C        4.1160    -0.4550    -2.8800 C.2   1 <1>   0.5690 
 10 C       -0.0950     2.0120     1.0570 C.ar  1 <1>  -0.1500 
 11 C        1.9890     1.6560    -0.2160 C.3   1 <1>  -0.0960 
 12 C       -1.8870     0.4610     1.1490 C.ar  1 <1>  -0.1500 
 13 C       -1.8970    -1.7140    -0.0290 C.3   1 <1>  -0.0960 
 14 O        4.8460     0.0520    -3.6990 O.2   1 <1>  -0.5700 
 15 N        4.4980    -0.7050    -1.5900 N.am  1 <1>  -0.5470 
 16 C       -1.3410     1.6670     1.5330 C.ar  1 <1>  -0.1430 
 17 C        5.6600    -0.3920    -0.8580 C.ar  1 <1>   0.1170 
 18 C       -2.0980     2.5960     2.4650 C.3   1 <1>  -0.0970 
 19 C        5.5870    -0.3870     0.5400 C.ar  1 <1>   0.0820 
 20 C        6.8770    -0.1000    -1.4630 C.ar  1 <1>  -0.1500 
 21 O        4.3750    -0.6760     1.0980 O.3   1 <1>  -0.3620 
 22 C        6.7150    -0.0930     1.2990 C.ar  1 <1>  -0.1500 
 23 C        7.9960     0.1940    -0.7050 C.ar  1 <1>  -0.1500 
 24 C        4.1780    -0.7100     2.4900 C.3   1 <1>   0.1200 
 25 C        7.9160     0.1980     0.6760 C.ar  1 <1>  -0.1500 
 26 C        2.7090    -1.0330     2.7430 C.3   1 <1>  -0.2400 
 27 H        0.8100    -0.1040    -3.2340 H     1 <1>   0.4200 
 28 H        2.6130    -0.5440    -4.3630 H     1 <1>   0.0800 
 29 H        2.5960    -1.9080    -3.3000 H     1 <1>   0.0800 
 30 H        0.3370     2.9500     1.3620 H     1 <1>   0.1500 
 31 H        1.9560     2.0840    -1.2010 H     1 <1>   0.0800 
 32 H        2.6950     0.8490    -0.2050 H     1 <1>   0.0800 
 33 H        2.3590     2.4050     0.4600 H     1 <1>   0.0800 
 34 H       -2.8570     0.1860     1.5270 H     1 <1>   0.1500 
 35 H       -2.2630    -1.7040    -1.0410 H     1 <1>   0.0800 
 36 H       -2.7340    -1.8860     0.6230 H     1 <1>   0.0800 
 37 H       -1.2180    -2.5380     0.0940 H     1 <1>   0.0800 
 38 H        3.7600    -1.1070    -0.9910 H     1 <1>   0.3700 
 39 H       -2.7140     3.2640     1.8910 H     1 <1>   0.0800 
 40 H       -1.4130     3.1770     3.0560 H     1 <1>   0.0800 
 41 H       -2.7250     2.0320     3.1320 H     1 <1>   0.0800 
 42 H        6.9600    -0.1040    -2.5340 H     1 <1>   0.1500 
 43 H        6.6810    -0.0850     2.3720 H     1 <1>   0.1500 
 44 H        8.9290     0.4200    -1.1920 H     1 <1>   0.1500 
 45 H        4.4310     0.2530     2.8970 H     1 <1>   0.0800 
 46 H        4.8140    -1.4740     2.9040 H     1 <1>   0.0800 
 47 H        8.7880     0.4260     1.2640 H     1 <1>   0.1500 
 48 H        2.0830    -0.2610     2.3330 H     1 <1>   0.0800 
 49 H        2.5250    -1.0980     3.8000 H     1 <1>   0.0800 
 50 H        2.4550    -1.9750     2.2900 H     1 <1>   0.0800 
@<TRIPOS>BOND
  1   1   2  2   
  2   1   3  2   
  3   1   4  am  
  4   1   5  1   
  5   4   6  1   
  6   4  27  1   
  7   5   7  ar  
  8   5   8  ar  
  9   6   9  1   
 10   6  28  1   
 11   6  29  1   
 12   7  10  ar  
 13   7  11  1   
 14   8  12  ar  
 15   8  13  1   
 16   9  14  2   
 17   9  15  am  
 18  10  16  ar  
 19  10  30  1   
 20  11  31  1   
 21  11  32  1   
 22  11  33  1   
 23  12  16  ar  
 24  12  34  1   
 25  13  35  1   
 26  13  36  1   
 27  13  37  1   
 28  15  17  1   
 29  15  38  1   
 30  16  18  1   
 31  17  19  ar  
 32  17  20  ar  
 33  18  39  1   
 34  18  40  1   
 35  18  41  1   
 36  19  21  1   
 37  19  22  ar  
 38  20  23  ar  
 39  20  42  1   
 40  21  24  1   
 41  22  25  ar  
 42  22  43  1   
 43  23  25  ar  
 44  23  44  1   
 45  24  26  1   
 46  24  45  1   
 47  24  46  1   
 48  25  47  1   
 49  26  48  1   
 50  26  49  1   
 51  26  50  1   
@<TRIPOS>SUBSTRUCTURE
  1 ****   3 GROUP 4 **** **** 0

# MOE 2024.06 (io_trps.svl 2023.06)
