@<TRIPOS>MOLECULE
NONAME
38 39 1 0 0 
SMALL
USER_CHARGES


@<TRIPOS>ATOM
  1 O       -0.4180    -2.0330     1.7610 O.2   1 <1>  -0.5700 
  2 C       -1.4210    -1.9590     1.0640 C.2   1 <1>   0.6900 
  3 N       -1.8630    -2.9510     0.2370 N.am  1 <1>  -0.4770 
  4 N       -2.2440    -0.8720     0.9640 N.am  1 <1>  -0.4770 
  5 C       -2.9790    -2.4660    -0.4350 C.ar  1 <1>   0.1170 
  6 C       -1.2180    -4.2830     0.0740 C.3   1 <1>   0.2010 
  7 C       -3.2190    -1.1790     0.0220 C.ar  1 <1>   0.1170 
  8 C       -2.0870     0.4140     1.6760 C.3   1 <1>   0.0600 
  9 C       -3.7940    -3.0360    -1.4030 C.ar  1 <1>  -0.1500 
 10 C        0.0810    -4.2230    -0.7250 C.2   1 <1>   0.5690 
 11 C       -4.2840    -0.4380    -0.4710 C.ar  1 <1>  -0.1500 
 12 C       -4.8570    -2.2980    -1.8970 C.ar  1 <1>  -0.1500 
 13 O        0.1920    -4.9170    -1.7080 O.2   1 <1>  -0.5700 
 14 N        1.0810    -3.4080    -0.2970 N.am  1 <1>  -0.7300 
 15 C       -5.1020    -1.0080    -1.4330 C.ar  1 <1>  -0.1500 
 16 C        2.3950    -3.2310    -0.9420 C.3   1 <1>   0.1400 
 17 C        3.4890    -3.3730     0.1150 C.3   1 <1>  -0.1600 
 18 C        4.8830    -3.1960    -0.5020 C.3   1 <1>  -0.1600 
 19 C        5.9770    -3.3410     0.5590 C.3   1 <1>  -0.2400 
 20 H       -1.8980    -4.9530    -0.4170 H     1 <1>   0.0800 
 21 H       -0.9990    -4.6830     1.0470 H     1 <1>   0.0800 
 22 H       -1.2490     0.3610     2.3490 H     1 <1>   0.0800 
 23 H       -2.9780     0.6240     2.2400 H     1 <1>   0.0800 
 24 H       -1.9180     1.2020     0.9630 H     1 <1>   0.0800 
 25 H       -3.5980    -4.0300    -1.7630 H     1 <1>   0.1500 
 26 H       -4.4630     0.5570    -0.1090 H     1 <1>   0.1500 
 27 H       -5.5010    -2.7230    -2.6480 H     1 <1>   0.1500 
 28 H        0.8940    -2.8080     0.5220 H     1 <1>   0.3700 
 29 H       -5.9340    -0.4500    -1.8290 H     1 <1>   0.1500 
 30 H        2.4370    -2.2550    -1.3950 H     1 <1>   0.0800 
 31 H        2.5260    -3.9730    -1.7130 H     1 <1>   0.0800 
 32 H        3.4190    -4.3500     0.5620 H     1 <1>   0.0800 
 33 H        3.3410    -2.6310     0.8800 H     1 <1>   0.0800 
 34 H        4.9570    -2.2230    -0.9570 H     1 <1>   0.0800 
 35 H        5.0340    -3.9360    -1.2700 H     1 <1>   0.0800 
 36 H        5.8580    -2.5970     1.3270 H     1 <1>   0.0800 
 37 H        6.9460    -3.2160     0.1080 H     1 <1>   0.0800 
 38 H        5.9350    -4.3160     1.0120 H     1 <1>   0.0800 
@<TRIPOS>BOND
  1   1   2  2   
  2   2   3  am  
  3   2   4  am  
  4   3   5  1   
  5   3   6  1   
  6   4   7  1   
  7   4   8  1   
  8   5   7  ar  
  9   5   9  ar  
 10   6  10  1   
 11   6  20  1   
 12   6  21  1   
 13   7  11  ar  
 14   8  22  1   
 15   8  23  1   
 16   8  24  1   
 17   9  12  ar  
 18   9  25  1   
 19  10  13  2   
 20  10  14  am  
 21  11  15  ar  
 22  11  26  1   
 23  12  15  ar  
 24  12  27  1   
 25  14  16  1   
 26  14  28  1   
 27  15  29  1   
 28  16  17  1   
 29  16  30  1   
 30  16  31  1   
 31  17  18  1   
 32  17  32  1   
 33  17  33  1   
 34  18  19  1   
 35  18  34  1   
 36  18  35  1   
 37  19  36  1   
 38  19  37  1   
 39  19  38  1   
@<TRIPOS>SUBSTRUCTURE
  1 ****   3 GROUP 4 **** **** 0

# MOE 2024.06 (io_trps.svl 2023.06)
