@<TRIPOS>MOLECULE
NONAME
31 31 1 0 0 
SMALL
USER_CHARGES


@<TRIPOS>ATOM
  1 O       -0.3740     0.0470     0.6010 O.2   1 <1>  -0.5700 
  2 C       -0.2330     1.1880     0.2310 C.2   1 <1>   0.5690 
  3 N        0.9710     1.7570    -0.0710 N.am  1 <1>  -0.5470 
  4 C       -1.4800     2.0580     0.0880 C.3   1 <1>   0.1810 
  5 C        2.3050     1.3040    -0.0670 C.ar  1 <1>   0.1170 
  6 O       -1.1700     3.3610    -0.3510 O.3   1 <1>  -0.5600 
  7 C        3.3090     2.2010    -0.4500 C.ar  1 <1>   0.0830 
  8 C        2.6650     0.0130     0.2980 C.ar  1 <1>  -0.1500 
  9 C       -2.2800     4.1870    -0.4940 C.3   1 <1>   0.0400 
 10 O        2.9180     3.4650    -0.8030 O.3   1 <1>  -0.3630 
 11 C        4.6400     1.7950    -0.4600 C.ar  1 <1>  -0.1500 
 12 C        3.9880    -0.3930     0.2880 C.ar  1 <1>   0.0830 
 13 C        3.8580     4.4380    -1.2020 C.3   1 <1>   0.0400 
 14 C        4.9800     0.5040    -0.0940 C.ar  1 <1>  -0.1500 
 15 O        4.2380    -1.6760     0.6620 O.3   1 <1>  -0.3630 
 16 C        5.5510    -2.1890     0.6860 C.3   1 <1>   0.0400 
 17 H        0.8810     2.7360    -0.3670 H     1 <1>   0.3700 
 18 H       -1.9700     2.1230     1.0430 H     1 <1>   0.0800 
 19 H       -2.1420     1.6020    -0.6260 H     1 <1>   0.0800 
 20 H        1.9190    -0.6980     0.5960 H     1 <1>   0.1500 
 21 H       -1.9390     5.1510    -0.8300 H     1 <1>   0.0800 
 22 H       -2.7740     4.2890     0.4570 H     1 <1>   0.0800 
 23 H       -2.9470     3.7640    -1.2260 H     1 <1>   0.0800 
 24 H        5.4270     2.4640    -0.7500 H     1 <1>   0.1500 
 25 H        3.3240     5.3440    -1.4290 H     1 <1>   0.0800 
 26 H        4.3720     4.0890    -2.0800 H     1 <1>   0.0800 
 27 H        4.5450     4.6130    -0.3930 H     1 <1>   0.0800 
 28 H        6.0140     0.2190    -0.1110 H     1 <1>   0.1500 
 29 H        5.5030    -3.2130     1.0100 H     1 <1>   0.0800 
 30 H        6.1380    -1.6140     1.3800 H     1 <1>   0.0800 
 31 H        5.9640    -2.1390    -0.3060 H     1 <1>   0.0800 
@<TRIPOS>BOND
  1   1   2  2   
  2   2   3  am  
  3   2   4  1   
  4   3   5  1   
  5   3  17  1   
  6   4   6  1   
  7   4  18  1   
  8   4  19  1   
  9   5   7  ar  
 10   5   8  ar  
 11   6   9  1   
 12   7  10  1   
 13   7  11  ar  
 14   8  12  ar  
 15   8  20  1   
 16   9  21  1   
 17   9  22  1   
 18   9  23  1   
 19  10  13  1   
 20  11  14  ar  
 21  11  24  1   
 22  12  14  ar  
 23  12  15  1   
 24  13  25  1   
 25  13  26  1   
 26  13  27  1   
 27  14  28  1   
 28  15  16  1   
 29  16  29  1   
 30  16  30  1   
 31  16  31  1   
@<TRIPOS>SUBSTRUCTURE
  1 ****   5 GROUP 4 **** **** 0

# MOE 2024.06 (io_trps.svl 2023.06)
