@<TRIPOS>MOLECULE
NONAME
51 51 1 0 0 
SMALL
USER_CHARGES


@<TRIPOS>ATOM
  1 N       -0.1580    -0.0190     0.1160 N.4   1 <1>  -0.9590 
  2 C        1.1340    -0.7580    -0.1520 C.3   1 <1>   0.3430 
  3 C       -1.2830    -0.9970     0.2170 C.3   1 <1>   0.3430 
  4 C       -0.4810     1.0260    -0.9040 C.3   1 <1>   0.3430 
  5 C        2.4220     0.1120    -0.0700 C.3   1 <1>   0.3430 
  6 C       -2.4270    -0.3710     1.0060 C.3   1 <1>  -0.2400 
  7 C       -0.0840     2.3920    -0.3590 C.3   1 <1>  -0.2400 
  8 N        3.7160    -0.6540    -0.2090 N.4   1 <1>  -0.9590 
  9 C        4.8800     0.2280     0.1450 C.3   1 <1>   0.4230 
 10 C        3.8770    -1.3110    -1.5570 C.3   1 <1>   0.2630 
 11 C        5.1590     1.3100    -0.9110 C.3   1 <1>  -0.1600 
 12 C        6.1320    -0.6190     0.3980 C.3   1 <1>  -0.1600 
 13 C        6.3240     2.2040    -0.4610 C.3   1 <1>  -0.1600 
 14 C        7.3050     0.2660     0.8450 C.3   1 <1>  -0.1600 
 15 C        7.5960     1.3870    -0.1720 C.3   1 <1>  -0.0800 
 16 C        8.7130     2.3310     0.3120 C.3   1 <1>  -0.1600 
 17 C       10.0750     1.6390     0.4610 C.3   1 <1>  -0.2400 
 18 H       -0.1270     0.4490     1.0350 H     1 <1>   0.4500 
 19 H        1.0790    -1.2060    -1.1300 H     1 <1>   0.0800 
 20 H        1.2240    -1.5520     0.5710 H     1 <1>   0.0800 
 21 H       -0.9560    -1.8840     0.7380 H     1 <1>   0.0800 
 22 H       -1.6230    -1.2880    -0.7650 H     1 <1>   0.0800 
 23 H       -1.5420     1.0350    -1.1030 H     1 <1>   0.0800 
 24 H        0.0250     0.8250    -1.8350 H     1 <1>   0.0800 
 25 H        2.4240     0.6170     0.8820 H     1 <1>   0.0800 
 26 H        2.3800     0.8620    -0.8420 H     1 <1>   0.0800 
 27 H       -2.1090    -0.0930     1.9950 H     1 <1>   0.0800 
 28 H       -3.2180    -1.0950     1.1090 H     1 <1>   0.0800 
 29 H       -2.8390     0.4860     0.5040 H     1 <1>   0.0800 
 30 H       -0.6200     2.6100     0.5480 H     1 <1>   0.0800 
 31 H       -0.3530     3.1450    -1.0800 H     1 <1>   0.0800 
 32 H        0.9720     2.4730    -0.1860 H     1 <1>   0.0800 
 33 H        3.7510    -1.4020     0.5020 H     1 <1>   0.4500 
 34 H        4.6550     0.7340     1.0710 H     1 <1>   0.0800 
 35 H        3.8620    -0.5730    -2.3420 H     1 <1>   0.0800 
 36 H        3.0850    -2.0200    -1.7350 H     1 <1>   0.0800 
 37 H        4.8140    -1.8410    -1.6090 H     1 <1>   0.0800 
 38 H        4.2970     1.9330    -1.0590 H     1 <1>   0.0800 
 39 H        5.4330     0.8640    -1.8510 H     1 <1>   0.0800 
 40 H        6.4310    -1.1360    -0.4960 H     1 <1>   0.0800 
 41 H        5.9400    -1.3440     1.1690 H     1 <1>   0.0800 
 42 H        6.0400     2.7500     0.4240 H     1 <1>   0.0800 
 43 H        6.5330     2.9270    -1.2330 H     1 <1>   0.0800 
 44 H        8.1760    -0.3550     0.9630 H     1 <1>   0.0800 
 45 H        7.0860     0.7030     1.8060 H     1 <1>   0.0800 
 46 H        7.9220     0.9350    -1.0960 H     1 <1>   0.0800 
 47 H        8.4390     2.7750     1.2530 H     1 <1>   0.0800 
 48 H        8.8270     3.1310    -0.4010 H     1 <1>   0.0800 
 49 H       10.0600     0.9180     1.2590 H     1 <1>   0.0800 
 50 H       10.8290     2.3710     0.6910 H     1 <1>   0.0800 
 51 H       10.3510     1.1450    -0.4530 H     1 <1>   0.0800 
@<TRIPOS>BOND
  1   1   2  1   
  2   1   3  1   
  3   1   4  1   
  4   1  18  1   
  5   2   5  1   
  6   2  19  1   
  7   2  20  1   
  8   3   6  1   
  9   3  21  1   
 10   3  22  1   
 11   4   7  1   
 12   4  23  1   
 13   4  24  1   
 14   5   8  1   
 15   5  25  1   
 16   5  26  1   
 17   6  27  1   
 18   6  28  1   
 19   6  29  1   
 20   7  30  1   
 21   7  31  1   
 22   7  32  1   
 23   8   9  1   
 24   8  10  1   
 25   8  33  1   
 26   9  11  1   
 27   9  12  1   
 28   9  34  1   
 29  10  35  1   
 30  10  36  1   
 31  10  37  1   
 32  11  13  1   
 33  11  38  1   
 34  11  39  1   
 35  12  14  1   
 36  12  40  1   
 37  12  41  1   
 38  13  15  1   
 39  13  42  1   
 40  13  43  1   
 41  14  15  1   
 42  14  44  1   
 43  14  45  1   
 44  15  16  1   
 45  15  46  1   
 46  16  17  1   
 47  16  47  1   
 48  16  48  1   
 49  17  49  1   
 50  17  50  1   
 51  17  51  1   
@<TRIPOS>SUBSTRUCTURE
  1 ****   8 GROUP 4 **** **** 0

# MOE 2024.06 (io_trps.svl 2023.06)
