@<TRIPOS>MOLECULE
NONAME
37 38 1 0 0 
SMALL
USER_CHARGES


@<TRIPOS>ATOM
  1 S       -0.1890     0.2900     0.1060 S.3   1 <1>  -0.0800 
  2 C        1.2470    -0.3820    -0.6030 C.2   1 <1>   0.4420 
  3 C       -1.0970    -0.7860    -0.9000 C.2   1 <1>   0.1980 
  4 N        0.9800    -1.2860    -1.4730 N.2   1 <1>  -0.3380 
  5 N        2.5090     0.0390    -0.2430 N.am  1 <1>  -0.4940 
  6 N       -0.3580    -1.5100    -1.6390 N.2   1 <1>  -0.3380 
  7 C       -2.6120    -0.7490    -0.8120 C.3   1 <1>   0.0200 
  8 C        2.9510     0.9700     0.6550 C.2   1 <1>   0.5690 
  9 C       -3.1890    -1.8840     0.0560 C.3   1 <1>  -0.0800 
 10 O        2.2190     1.6330     1.3460 O.2   1 <1>  -0.5700 
 11 C        4.4530     1.1800     0.7920 C.3   1 <1>   0.1810 
 12 C       -4.7220    -1.8660     0.0060 C.3   1 <1>  -0.2400 
 13 C       -2.7210    -1.7930     1.5160 C.3   1 <1>  -0.2400 
 14 O        5.1720     0.3270    -0.0900 O.3   1 <1>  -0.3630 
 15 C        6.5270     0.3500    -0.1360 C.ar  1 <1>   0.0820 
 16 C        7.3160     1.1830     0.6550 C.ar  1 <1>  -0.1500 
 17 C        7.1350    -0.5170    -1.0300 C.ar  1 <1>  -0.1500 
 18 C        8.6950     1.1410     0.5420 C.ar  1 <1>  -0.1500 
 19 C        8.5140    -0.5580    -1.1410 C.ar  1 <1>  -0.1500 
 20 C        9.2940     0.2720    -0.3540 C.ar  1 <1>  -0.1500 
 21 H        3.2570    -0.4380    -0.7460 H     1 <1>   0.3700 
 22 H       -2.9980    -0.8420    -1.8110 H     1 <1>   0.0800 
 23 H       -2.9250     0.2050    -0.4290 H     1 <1>   0.0800 
 24 H       -2.8490    -2.8240    -0.3490 H     1 <1>   0.0800 
 25 H        4.7520     0.9590     1.8000 H     1 <1>   0.0800 
 26 H        4.6910     2.2000     0.5510 H     1 <1>   0.0800 
 27 H       -5.1050    -0.9440     0.4090 H     1 <1>   0.0800 
 28 H       -5.1230    -2.6830     0.5800 H     1 <1>   0.0800 
 29 H       -5.0660    -1.9690    -1.0080 H     1 <1>   0.0800 
 30 H       -2.9920    -0.8440     1.9460 H     1 <1>   0.0800 
 31 H       -1.6540    -1.9090     1.5820 H     1 <1>   0.0800 
 32 H       -3.1720    -2.5750     2.1020 H     1 <1>   0.0800 
 33 H        6.8840     1.8690     1.3590 H     1 <1>   0.1500 
 34 H        6.5260    -1.1600    -1.6400 H     1 <1>   0.1500 
 35 H        9.3060     1.7840     1.1520 H     1 <1>   0.1500 
 36 H        8.9790    -1.2330    -1.8370 H     1 <1>   0.1500 
 37 H       10.3670     0.2410    -0.4390 H     1 <1>   0.1500 
@<TRIPOS>BOND
  1   1   2  1   
  2   1   3  1   
  3   2   4  2   
  4   2   5  1   
  5   3   6  2   
  6   3   7  1   
  7   4   6  1   
  8   5   8  am  
  9   5  21  1   
 10   7   9  1   
 11   7  22  1   
 12   7  23  1   
 13   8  10  2   
 14   8  11  1   
 15   9  12  1   
 16   9  13  1   
 17   9  24  1   
 18  11  14  1   
 19  11  25  1   
 20  11  26  1   
 21  12  27  1   
 22  12  28  1   
 23  12  29  1   
 24  13  30  1   
 25  13  31  1   
 26  13  32  1   
 27  14  15  1   
 28  15  16  ar  
 29  15  17  ar  
 30  16  18  ar  
 31  16  33  1   
 32  17  19  ar  
 33  17  34  1   
 34  18  20  ar  
 35  18  35  1   
 36  19  20  ar  
 37  19  36  1   
 38  20  37  1   
@<TRIPOS>SUBSTRUCTURE
  1 ****   5 GROUP 4 **** **** 0

# MOE 2024.06 (io_trps.svl 2023.06)
