@<TRIPOS>MOLECULE
NONAME
41 42 1 0 0 
SMALL
USER_CHARGES


@<TRIPOS>ATOM
  1 BR       1.0220    -0.1480    -1.8270 Br    1 <1>  -0.1110 
  2 C        0.3320    -1.7840    -1.0830 C.ar  1 <1>   0.1110 
  3 C       -1.0040    -2.0820    -1.2650 C.ar  1 <1>  -0.1500 
  4 C        1.1890    -2.6140    -0.3890 C.ar  1 <1>  -0.1500 
  5 C       -1.5050    -3.2590    -0.7270 C.ar  1 <1>  -0.1440 
  6 C        0.6870    -3.7880     0.1460 C.ar  1 <1>  -0.1500 
  7 C       -0.6600    -4.1150    -0.0210 C.ar  1 <1>   0.0830 
  8 C       -2.9680    -3.6140    -0.9130 C.3   1 <1>   0.4870 
  9 O       -1.2080    -5.2510     0.4910 O.3   1 <1>  -0.3620 
 10 N       -3.6060    -3.7100     0.4290 N.4   1 <1>  -0.9590 
 11 C       -0.3940    -6.2870     1.0050 C.3   1 <1>   0.0400 
 12 C       -4.9180    -4.4090     0.4570 C.3   1 <1>   0.4230 
 13 C       -3.6480    -2.3860     1.1220 C.3   1 <1>   0.2630 
 14 C       -4.7260    -5.9040     0.1660 C.3   1 <1>  -0.1600 
 15 C       -5.9380    -3.7810    -0.5070 C.3   1 <1>  -0.1600 
 16 C       -6.0660    -6.6480     0.2460 C.3   1 <1>  -0.1600 
 17 C       -7.2810    -4.5230    -0.4290 C.3   1 <1>  -0.1600 
 18 C       -7.1050    -6.0240    -0.6960 C.3   1 <1>  -0.1600 
 19 H       -1.6210    -1.3980    -1.8220 H     1 <1>   0.1500 
 20 H        2.2250    -2.3450    -0.2710 H     1 <1>   0.1500 
 21 H        1.3600    -4.4270     0.6870 H     1 <1>   0.1500 
 22 H       -3.0280    -4.5610    -1.4230 H     1 <1>   0.0800 
 23 H       -3.4640    -2.8690    -1.5120 H     1 <1>   0.0800 
 24 H       -2.9400    -4.3100     0.9470 H     1 <1>   0.4500 
 25 H       -1.0240    -7.1220     1.2550 H     1 <1>   0.0800 
 26 H        0.1090    -5.9350     1.8890 H     1 <1>   0.0800 
 27 H        0.3170    -6.5820     0.2530 H     1 <1>   0.0800 
 28 H       -5.3210    -4.3320     1.4540 H     1 <1>   0.0800 
 29 H       -4.2810    -1.7000     0.5830 H     1 <1>   0.0800 
 30 H       -2.6570    -1.9650     1.1840 H     1 <1>   0.0800 
 31 H       -4.0330    -2.5000     2.1220 H     1 <1>   0.0800 
 32 H       -4.0490    -6.3320     0.8850 H     1 <1>   0.0800 
 33 H       -4.3190    -6.0510    -0.8180 H     1 <1>   0.0800 
 34 H       -5.5870    -3.8390    -1.5210 H     1 <1>   0.0800 
 35 H       -6.1040    -2.7490    -0.2560 H     1 <1>   0.0800 
 36 H       -6.4390    -6.6190     1.2560 H     1 <1>   0.0800 
 37 H       -5.9220    -7.6840    -0.0170 H     1 <1>   0.0800 
 38 H       -7.9670    -4.1100    -1.1500 H     1 <1>   0.0800 
 39 H       -7.7160    -4.3850     0.5480 H     1 <1>   0.0800 
 40 H       -8.0500    -6.5240    -0.5690 H     1 <1>   0.0800 
 41 H       -6.7970    -6.1720    -1.7180 H     1 <1>   0.0800 
@<TRIPOS>BOND
  1   1   2  1   
  2   2   3  ar  
  3   2   4  ar  
  4   3   5  ar  
  5   3  19  1   
  6   4   6  ar  
  7   4  20  1   
  8   5   7  ar  
  9   5   8  1   
 10   6   7  ar  
 11   6  21  1   
 12   7   9  1   
 13   8  10  1   
 14   8  22  1   
 15   8  23  1   
 16   9  11  1   
 17  10  12  1   
 18  10  13  1   
 19  10  24  1   
 20  11  25  1   
 21  11  26  1   
 22  11  27  1   
 23  12  14  1   
 24  12  15  1   
 25  12  28  1   
 26  13  29  1   
 27  13  30  1   
 28  13  31  1   
 29  14  16  1   
 30  14  32  1   
 31  14  33  1   
 32  15  17  1   
 33  15  34  1   
 34  15  35  1   
 35  16  18  1   
 36  16  36  1   
 37  16  37  1   
 38  17  18  1   
 39  17  38  1   
 40  17  39  1   
 41  18  40  1   
 42  18  41  1   
@<TRIPOS>SUBSTRUCTURE
  1 ****   8 GROUP 4 **** **** 0

# MOE 2024.06 (io_trps.svl 2023.06)
