@<TRIPOS>MOLECULE
NONAME
43 43 1 0 0 
SMALL
USER_CHARGES


@<TRIPOS>ATOM
  1 O       -1.3580    -0.2730     1.1520 O.2   1 <1>  -0.5700 
  2 C       -0.7890    -1.3320     1.0270 C.2   1 <1>   0.6590 
  3 O        0.3460    -1.4140     0.3370 O.3   1 <1>  -0.4300 
  4 C       -1.3160    -2.6400     1.6510 C.3   1 <1>   0.2810 
  5 C        0.9440    -0.2890    -0.2700 C.3   1 <1>   0.0400 
  6 N       -1.5130    -3.7340     0.6250 N.am  1 <1>  -0.4770 
  7 C       -2.5830    -2.4240     2.5050 C.3   1 <1>  -0.2400 
  8 C       -2.7980    -3.9430     0.0760 C.ar  1 <1>   0.1170 
  9 C       -0.4170    -4.5020     0.2840 C.2   1 <1>   0.5690 
 10 C       -3.2510    -3.1770    -1.0050 C.ar  1 <1>  -0.1440 
 11 C       -3.6320    -4.9420     0.5980 C.ar  1 <1>  -0.1440 
 12 O        0.6140    -4.4420     0.9160 O.2   1 <1>  -0.5700 
 13 C       -0.4600    -5.4710    -0.9130 C.3   1 <1>  -0.0190 
 14 C       -4.5190    -3.3890    -1.5200 C.ar  1 <1>  -0.1500 
 15 C       -2.4000    -2.1020    -1.6700 C.3   1 <1>  -0.0970 
 16 C       -4.8930    -5.1370     0.0630 C.ar  1 <1>  -0.1500 
 17 C       -3.2320    -5.8590     1.7510 C.3   1 <1>  -0.0970 
 18 C       -0.2340    -6.9270    -0.4710 C.3   1 <1>  -0.2400 
 19 C        0.5830    -5.0850    -1.9760 C.3   1 <1>  -0.2400 
 20 C       -5.3410    -4.3630    -0.9890 C.ar  1 <1>  -0.1500 
 21 H       -0.5530    -2.9600     2.3370 H     1 <1>   0.0800 
 22 H        1.8450    -0.6090    -0.7630 H     1 <1>   0.0800 
 23 H        1.1740     0.4350     0.4910 H     1 <1>   0.0800 
 24 H        0.2560     0.1270    -0.9850 H     1 <1>   0.0800 
 25 H       -3.3940    -2.0580     1.9010 H     1 <1>   0.0800 
 26 H       -2.3820    -1.6920     3.2660 H     1 <1>   0.0800 
 27 H       -2.8730    -3.3360     2.9900 H     1 <1>   0.0800 
 28 H       -1.4220    -5.4270    -1.3880 H     1 <1>   0.0800 
 29 H       -4.8770    -2.7960    -2.3430 H     1 <1>   0.1500 
 30 H       -1.3590    -2.3650    -1.6540 H     1 <1>   0.0800 
 31 H       -2.5370    -1.1640    -1.1630 H     1 <1>   0.0800 
 32 H       -2.6870    -1.9750    -2.6980 H     1 <1>   0.0800 
 33 H       -5.5390    -5.8990     0.4650 H     1 <1>   0.1500 
 34 H       -3.2840    -6.8840     1.4320 H     1 <1>   0.0800 
 35 H       -3.9120    -5.7230     2.5730 H     1 <1>   0.0800 
 36 H       -2.2370    -5.6720     2.1080 H     1 <1>   0.0800 
 37 H        0.7360    -7.0320    -0.0160 H     1 <1>   0.0800 
 38 H       -0.2950    -7.5910    -1.3150 H     1 <1>   0.0800 
 39 H       -0.9800    -7.2150     0.2460 H     1 <1>   0.0800 
 40 H        1.5760    -5.1470    -1.5640 H     1 <1>   0.0800 
 41 H        0.4150    -4.0760    -2.3070 H     1 <1>   0.0800 
 42 H        0.5170    -5.7410    -2.8250 H     1 <1>   0.0800 
 43 H       -6.3250    -4.5200    -1.3950 H     1 <1>   0.1500 
@<TRIPOS>BOND
  1   1   2  2   
  2   2   3  1   
  3   2   4  1   
  4   3   5  1   
  5   4   6  1   
  6   4   7  1   
  7   4  21  1   
  8   5  22  1   
  9   5  23  1   
 10   5  24  1   
 11   6   8  1   
 12   6   9  am  
 13   7  25  1   
 14   7  26  1   
 15   7  27  1   
 16   8  10  ar  
 17   8  11  ar  
 18   9  12  2   
 19   9  13  1   
 20  10  14  ar  
 21  10  15  1   
 22  11  16  ar  
 23  11  17  1   
 24  13  18  1   
 25  13  19  1   
 26  13  28  1   
 27  14  20  ar  
 28  14  29  1   
 29  15  30  1   
 30  15  31  1   
 31  15  32  1   
 32  16  20  ar  
 33  16  33  1   
 34  17  34  1   
 35  17  35  1   
 36  17  36  1   
 37  18  37  1   
 38  18  38  1   
 39  18  39  1   
 40  19  40  1   
 41  19  41  1   
 42  19  42  1   
 43  20  43  1   
@<TRIPOS>SUBSTRUCTURE
  1 ****   6 GROUP 4 **** **** 0

# MOE 2024.06 (io_trps.svl 2023.06)
