@<TRIPOS>MOLECULE
NONAME
44 45 1 0 0 
SMALL
USER_CHARGES


@<TRIPOS>ATOM
  1 CL       0.1360    -0.4910     0.3600 Cl    1 <1>  -0.1770 
  2 C       -1.5000    -1.0750     0.1820 C.ar  1 <1>   0.1770 
  3 C       -1.7180    -2.3250    -0.3670 C.ar  1 <1>  -0.1500 
  4 C       -2.5520    -0.2770     0.5930 C.ar  1 <1>  -0.1500 
  5 C       -3.0180    -2.7820    -0.5060 C.ar  1 <1>  -0.1500 
  6 C       -3.8520    -0.7370     0.4530 C.ar  1 <1>  -0.1500 
  7 C       -4.0870    -1.9970    -0.0990 C.ar  1 <1>   0.0830 
  8 O       -5.3250    -2.5240    -0.2730 O.3   1 <1>  -0.3630 
  9 C       -6.4840    -1.8210     0.1010 C.3   1 <1>   0.1200 
 10 C       -7.6850    -2.7090    -0.2360 C.3   1 <1>  -0.1600 
 11 C       -9.0170    -2.0380     0.1310 C.3   1 <1>  -0.1600 
 12 C      -10.1890    -2.9530    -0.2190 C.3   1 <1>   0.3430 
 13 N      -11.4570    -2.2800     0.1490 N.4   1 <1>  -0.9060 
 14 C      -12.6650    -3.0630    -0.1780 C.3   1 <1>   0.4230 
 15 C      -13.8800    -2.1380    -0.0540 C.3   1 <1>  -0.1600 
 16 C      -12.7880    -4.2660     0.7680 C.3   1 <1>  -0.1600 
 17 C      -15.1870    -2.9030    -0.3080 C.3   1 <1>  -0.1600 
 18 C      -14.0940    -5.0350     0.5200 C.3   1 <1>  -0.1600 
 19 C      -15.3130    -4.1100     0.6290 C.3   1 <1>  -0.1600 
 20 H       -0.8840    -2.9260    -0.6790 H     1 <1>   0.1500 
 21 H       -2.3510     0.6910     1.0160 H     1 <1>   0.1500 
 22 H       -3.2100    -3.7510    -0.9300 H     1 <1>   0.1500 
 23 H       -4.6560    -0.1060     0.7770 H     1 <1>   0.1500 
 24 H       -6.5140    -0.9000    -0.4550 H     1 <1>   0.0800 
 25 H       -6.4330    -1.6220     1.1580 H     1 <1>   0.0800 
 26 H       -7.5830    -3.6360     0.3040 H     1 <1>   0.0800 
 27 H       -7.6630    -2.9230    -1.2910 H     1 <1>   0.0800 
 28 H       -9.1020    -1.1120    -0.4130 H     1 <1>   0.0800 
 29 H       -9.0210    -1.8270     1.1870 H     1 <1>   0.0800 
 30 H      -10.0910    -3.8830     0.3200 H     1 <1>   0.0800 
 31 H      -10.1770    -3.1690    -1.2760 H     1 <1>   0.0800 
 32 H      -11.5160    -1.3790    -0.3390 H     1 <1>   0.4500 
 33 H      -11.4680    -2.0760     1.1540 H     1 <1>   0.4500 
 34 H      -12.6080    -3.4190    -1.1950 H     1 <1>   0.0800 
 35 H      -13.8080    -1.3380    -0.7690 H     1 <1>   0.0800 
 36 H      -13.9220    -1.7140     0.9350 H     1 <1>   0.0800 
 37 H      -12.7790    -3.9320     1.7910 H     1 <1>   0.0800 
 38 H      -11.9680    -4.9470     0.6220 H     1 <1>   0.0800 
 39 H      -15.2200    -3.2410    -1.3310 H     1 <1>   0.0800 
 40 H      -16.0280    -2.2450    -0.1580 H     1 <1>   0.0800 
 41 H      -14.1880    -5.8330     1.2380 H     1 <1>   0.0800 
 42 H      -14.0740    -5.4810    -0.4600 H     1 <1>   0.0800 
 43 H      -16.2060    -4.6630     0.3840 H     1 <1>   0.0800 
 44 H      -15.4160    -3.7680     1.6450 H     1 <1>   0.0800 
@<TRIPOS>BOND
  1   1   2  1   
  2   2   3  ar  
  3   2   4  ar  
  4   3   5  ar  
  5   3  20  1   
  6   4   6  ar  
  7   4  21  1   
  8   5   7  ar  
  9   5  22  1   
 10   6   7  ar  
 11   6  23  1   
 12   7   8  1   
 13   8   9  1   
 14   9  10  1   
 15   9  24  1   
 16   9  25  1   
 17  10  11  1   
 18  10  26  1   
 19  10  27  1   
 20  11  12  1   
 21  11  28  1   
 22  11  29  1   
 23  12  13  1   
 24  12  30  1   
 25  12  31  1   
 26  13  14  1   
 27  13  32  1   
 28  13  33  1   
 29  14  15  1   
 30  14  16  1   
 31  14  34  1   
 32  15  17  1   
 33  15  35  1   
 34  15  36  1   
 35  16  18  1   
 36  16  37  1   
 37  16  38  1   
 38  17  19  1   
 39  17  39  1   
 40  17  40  1   
 41  18  19  1   
 42  18  41  1   
 43  18  42  1   
 44  19  43  1   
 45  19  44  1   
@<TRIPOS>SUBSTRUCTURE
  1 ****  10 GROUP 4 **** **** 0

# MOE 2024.06 (io_trps.svl 2023.06)
