@<TRIPOS>MOLECULE
NONAME
35 35 1 0 0 
SMALL
USER_CHARGES


@<TRIPOS>ATOM
  1 BR      -0.5430    -0.1030    -0.8740 Br    1 <1>  -0.1110 
  2 C       -0.4150     1.7330    -0.2920 C.ar  1 <1>   0.1110 
  3 C       -1.5770     2.4610    -0.0540 C.ar  1 <1>   0.0830 
  4 C        0.8470     2.2690    -0.1290 C.ar  1 <1>  -0.1500 
  5 O       -2.7730     1.8430    -0.2430 O.3   1 <1>  -0.3630 
  6 C       -1.4530     3.7850     0.3660 C.ar  1 <1>  -0.1500 
  7 C        0.9380     3.5830     0.2880 C.ar  1 <1>   0.1770 
  8 C       -3.9940     2.5130    -0.0240 C.3   1 <1>   0.1200 
  9 C       -0.1930     4.3430     0.5360 C.ar  1 <1>  -0.1500 
 10 CL       2.5140     4.3020     0.5080 Cl    1 <1>  -0.1770 
 11 C       -5.1260     1.5360    -0.3280 C.3   1 <1>   0.1200 
 12 O       -6.3460     2.1810    -0.1130 O.3   1 <1>  -0.5600 
 13 C       -7.4600     1.3880    -0.3580 C.3   1 <1>   0.1200 
 14 C       -8.7020     2.2470    -0.0900 C.3   1 <1>   0.3430 
 15 N       -9.9900     1.5250    -0.3710 N.4   1 <1>  -0.9590 
 16 C      -11.1340     2.4880    -0.3240 C.3   1 <1>   0.2630 
 17 C      -10.2270     0.3950     0.5840 C.3   1 <1>   0.2630 
 18 H        1.7290     1.6870    -0.3190 H     1 <1>   0.1500 
 19 H       -2.3150     4.3950     0.5650 H     1 <1>   0.1500 
 20 H       -4.0410     3.3600    -0.6850 H     1 <1>   0.0800 
 21 H       -4.0310     2.8220     1.0060 H     1 <1>   0.0800 
 22 H       -0.0840     5.3630     0.8600 H     1 <1>   0.1500 
 23 H       -5.0600     0.6840     0.3280 H     1 <1>   0.0800 
 24 H       -5.0730     1.2240    -1.3570 H     1 <1>   0.0800 
 25 H       -7.4220     0.5410     0.3040 H     1 <1>   0.0800 
 26 H       -7.4300     1.0710    -1.3860 H     1 <1>   0.0800 
 27 H       -8.6400     3.1210    -0.7170 H     1 <1>   0.0800 
 28 H       -8.6850     2.5700     0.9380 H     1 <1>   0.0800 
 29 H       -9.9410     1.1430    -1.3290 H     1 <1>   0.4500 
 30 H      -11.2210     2.9200     0.6610 H     1 <1>   0.0800 
 31 H      -12.0580     1.9860    -0.5620 H     1 <1>   0.0800 
 32 H      -10.9840     3.2840    -1.0360 H     1 <1>   0.0800 
 33 H      -10.2680     0.7630     1.5970 H     1 <1>   0.0800 
 34 H       -9.4360    -0.3330     0.5140 H     1 <1>   0.0800 
 35 H      -11.1610    -0.0950     0.3590 H     1 <1>   0.0800 
@<TRIPOS>BOND
  1   1   2  1   
  2   2   3  ar  
  3   2   4  ar  
  4   3   5  1   
  5   3   6  ar  
  6   4   7  ar  
  7   4  18  1   
  8   5   8  1   
  9   6   9  ar  
 10   6  19  1   
 11   7   9  ar  
 12   7  10  1   
 13   8  11  1   
 14   8  20  1   
 15   8  21  1   
 16   9  22  1   
 17  11  12  1   
 18  11  23  1   
 19  11  24  1   
 20  12  13  1   
 21  13  14  1   
 22  13  25  1   
 23  13  26  1   
 24  14  15  1   
 25  14  27  1   
 26  14  28  1   
 27  15  16  1   
 28  15  17  1   
 29  15  29  1   
 30  16  30  1   
 31  16  31  1   
 32  16  32  1   
 33  17  33  1   
 34  17  34  1   
 35  17  35  1   
@<TRIPOS>SUBSTRUCTURE
  1 ****   8 GROUP 4 **** **** 0

# MOE 2024.06 (io_trps.svl 2023.06)
