@<TRIPOS>MOLECULE
NONAME
49 51 1 0 0 
SMALL
USER_CHARGES


@<TRIPOS>ATOM
  1 O        1.8390     0.4850    -1.9340 O.3   1 <1>  -0.3630 
  2 C        2.2200     1.0930    -0.7740 C.ar  1 <1>   0.0830 
  3 C        0.4950     0.4590    -2.3620 C.3   1 <1>   0.0400 
  4 C        1.5450     2.1350    -0.1150 C.ar  1 <1>   0.0830 
  5 C        3.3980     0.5990    -0.2400 C.ar  1 <1>  -0.1500 
  6 O        0.4020     2.6570    -0.6480 O.3   1 <1>  -0.3630 
  7 C        2.0770     2.6290     1.0740 C.ar  1 <1>  -0.1500 
  8 C        3.9290     1.1080     0.9330 C.ar  1 <1>  -0.1430 
  9 C       -0.2760     3.7500    -0.0660 C.3   1 <1>   0.0400 
 10 C        3.2560     2.1220     1.5930 C.ar  1 <1>  -0.1500 
 11 C        5.2380     0.5630     1.4660 C.3   1 <1>  -0.0170 
 12 C        6.3720     1.1550     0.6320 C.3   1 <1>   0.3430 
 13 N        7.6930     0.6240     1.0730 N.4   1 <1>  -0.9060 
 14 C        8.8240     1.1190     0.2490 C.3   1 <1>   0.4230 
 15 C       10.0640     0.2550     0.5010 C.3   1 <1>  -0.0170 
 16 C        9.1240     2.5820     0.5880 C.3   1 <1>  -0.1600 
 17 C       11.2960     0.8340    -0.1730 C.ar  1 <1>  -0.1430 
 18 C       10.1910     3.1300    -0.3670 C.3   1 <1>  -0.0170 
 19 C       11.3550     2.1680    -0.5630 C.ar  1 <1>  -0.1430 
 20 C       12.3870     0.0060    -0.3890 C.ar  1 <1>  -0.1500 
 21 C       12.5060     2.6510    -1.1660 C.ar  1 <1>  -0.1500 
 22 C       13.5310     0.4960    -0.9910 C.ar  1 <1>  -0.1500 
 23 C       13.5910     1.8200    -1.3800 C.ar  1 <1>  -0.1500 
 24 H        0.3990    -0.2990    -3.1180 H     1 <1>   0.0800 
 25 H        0.2440     1.4190    -2.7760 H     1 <1>   0.0800 
 26 H       -0.1370     0.2260    -1.5230 H     1 <1>   0.0800 
 27 H        3.8870    -0.1990    -0.7690 H     1 <1>   0.1500 
 28 H        1.5900     3.4150     1.6180 H     1 <1>   0.1500 
 29 H       -1.1230     3.9850    -0.6850 H     1 <1>   0.0800 
 30 H        0.3900     4.5930    -0.0250 H     1 <1>   0.0800 
 31 H       -0.6100     3.4700     0.9180 H     1 <1>   0.0800 
 32 H        3.6360     2.5300     2.5140 H     1 <1>   0.1500 
 33 H        5.2280    -0.5100     1.3830 H     1 <1>   0.0800 
 34 H        5.3510     0.8320     2.5010 H     1 <1>   0.0800 
 35 H        6.3500     2.2290     0.7270 H     1 <1>   0.0800 
 36 H        6.2060     0.9110    -0.4060 H     1 <1>   0.0800 
 37 H        7.6730    -0.4020     1.0180 H     1 <1>   0.4500 
 38 H        7.8650     0.8720     2.0540 H     1 <1>   0.4500 
 39 H        8.5700     1.0490    -0.7980 H     1 <1>   0.0800 
 40 H        9.8920    -0.7360     0.1210 H     1 <1>   0.0800 
 41 H       10.2670     0.1940     1.5560 H     1 <1>   0.0800 
 42 H        9.4970     2.6560     1.5950 H     1 <1>   0.0800 
 43 H        8.2480     3.1980     0.4970 H     1 <1>   0.0800 
 44 H       10.5600     4.0680     0.0110 H     1 <1>   0.0800 
 45 H        9.7490     3.3200    -1.3310 H     1 <1>   0.0800 
 46 H       12.3620    -1.0280    -0.0890 H     1 <1>   0.1500 
 47 H       12.5680     3.6800    -1.4760 H     1 <1>   0.1500 
 48 H       14.3760    -0.1510    -1.1570 H     1 <1>   0.1500 
 49 H       14.4810     2.2040    -1.8490 H     1 <1>   0.1500 
@<TRIPOS>BOND
  1   1   2  1   
  2   1   3  1   
  3   2   4  ar  
  4   2   5  ar  
  5   3  24  1   
  6   3  25  1   
  7   3  26  1   
  8   4   6  1   
  9   4   7  ar  
 10   5   8  ar  
 11   5  27  1   
 12   6   9  1   
 13   7  10  ar  
 14   7  28  1   
 15   8  10  ar  
 16   8  11  1   
 17   9  29  1   
 18   9  30  1   
 19   9  31  1   
 20  10  32  1   
 21  11  12  1   
 22  11  33  1   
 23  11  34  1   
 24  12  13  1   
 25  12  35  1   
 26  12  36  1   
 27  13  14  1   
 28  13  37  1   
 29  13  38  1   
 30  14  15  1   
 31  14  16  1   
 32  14  39  1   
 33  15  17  1   
 34  15  40  1   
 35  15  41  1   
 36  16  18  1   
 37  16  42  1   
 38  16  43  1   
 39  17  19  ar  
 40  17  20  ar  
 41  18  19  1   
 42  18  44  1   
 43  18  45  1   
 44  19  21  ar  
 45  20  22  ar  
 46  20  46  1   
 47  21  23  ar  
 48  21  47  1   
 49  22  23  ar  
 50  22  48  1   
 51  23  49  1   
@<TRIPOS>SUBSTRUCTURE
  1 ****  12 GROUP 4 **** **** 0

# MOE 2024.06 (io_trps.svl 2023.06)
