@<TRIPOS>MOLECULE
NONAME
44 46 1 0 0 
SMALL
USER_CHARGES


@<TRIPOS>ATOM
  1 O       -2.1220     1.2430    -0.6030 O.3   1 <1>  -0.5600 
  2 C       -2.2030     2.2870     0.3230 C.3   1 <1>   0.1200 
  3 C       -3.1680     0.3180    -0.5440 C.3   1 <1>   0.1200 
  4 C       -3.5050     3.0840     0.1130 C.3   1 <1>   0.3430 
  5 C       -4.5160     1.0220    -0.7960 C.3   1 <1>   0.3430 
  6 N       -4.7160     2.1890     0.1380 N.4   1 <1>  -0.9590 
  7 C       -5.9480     2.9790    -0.1800 C.3   1 <1>   0.3430 
  8 C       -7.2430     2.1840     0.0600 C.3   1 <1>   0.1100 
  9 N       -8.3930     3.0740    -0.0860 N.3   1 <1>  -0.9000 
 10 C       -9.6440     2.4690     0.3930 C.3   1 <1>   0.2900 
 11 C      -10.8190     3.3820     0.0970 C.2   1 <1>  -0.0400 
 12 O      -12.0350     2.9000     0.2460 O.3   1 <1>  -0.2800 
 13 C      -10.8780     4.6680    -0.3120 C.2   1 <1>  -0.1500 
 14 C      -12.9180     3.8440    -0.0610 C.2   1 <1>   0.0870 
 15 C      -12.2370     4.9670    -0.4160 C.2   1 <1>  -0.1500 
 16 C      -14.3380     3.5730     0.0180 C.ar  1 <1>   0.0530 
 17 C      -15.2810     4.5410    -0.3300 C.ar  1 <1>  -0.1500 
 18 C      -14.8210     2.3360     0.4440 C.ar  1 <1>  -0.1500 
 19 C      -16.6390     4.2870    -0.2570 C.ar  1 <1>  -0.1500 
 20 C      -16.1770     2.0750     0.5200 C.ar  1 <1>  -0.1500 
 21 C      -17.0910     3.0520     0.1690 C.ar  1 <1>  -0.1500 
 22 H       -1.3490     2.9250     0.1710 H     1 <1>   0.0800 
 23 H       -2.1510     1.8770     1.3170 H     1 <1>   0.0800 
 24 H       -3.1510    -0.1650     0.4180 H     1 <1>   0.0800 
 25 H       -2.9890    -0.4240    -1.3020 H     1 <1>   0.0800 
 26 H       -3.4420     3.5850    -0.8400 H     1 <1>   0.0800 
 27 H       -3.5880     3.8390     0.8780 H     1 <1>   0.0800 
 28 H       -5.3140     0.3090    -0.6760 H     1 <1>   0.0800 
 29 H       -4.5290     1.3660    -1.8170 H     1 <1>   0.0800 
 30 H       -4.8010     1.8220     1.0950 H     1 <1>   0.4500 
 31 H       -5.9180     3.3060    -1.2060 H     1 <1>   0.0800 
 32 H       -5.9800     3.8540     0.4500 H     1 <1>   0.0800 
 33 H       -7.2330     1.7930     1.0640 H     1 <1>   0.0800 
 34 H       -7.3290     1.3710    -0.6400 H     1 <1>   0.0800 
 35 H       -8.5570     3.3100    -1.0760 H     1 <1>   0.3600 
 36 H       -9.5920     2.2960     1.4550 H     1 <1>   0.0800 
 37 H       -9.8110     1.5280    -0.1030 H     1 <1>   0.0800 
 38 H      -10.0690     5.3450    -0.5180 H     1 <1>   0.1500 
 39 H      -12.6340     5.9170    -0.7200 H     1 <1>   0.1500 
 40 H      -14.9500     5.5070    -0.6630 H     1 <1>   0.1500 
 41 H      -14.1230     1.5660     0.7210 H     1 <1>   0.1500 
 42 H      -17.3460     5.0510    -0.5310 H     1 <1>   0.1500 
 43 H      -16.5210     1.1110     0.8520 H     1 <1>   0.1500 
 44 H      -18.1470     2.8510     0.2270 H     1 <1>   0.1500 
@<TRIPOS>BOND
  1   1   2  1   
  2   1   3  1   
  3   2   4  1   
  4   2  22  1   
  5   2  23  1   
  6   3   5  1   
  7   3  24  1   
  8   3  25  1   
  9   4   6  1   
 10   4  26  1   
 11   4  27  1   
 12   5   6  1   
 13   5  28  1   
 14   5  29  1   
 15   6   7  1   
 16   6  30  1   
 17   7   8  1   
 18   7  31  1   
 19   7  32  1   
 20   8   9  1   
 21   8  33  1   
 22   8  34  1   
 23   9  10  1   
 24   9  35  1   
 25  10  11  1   
 26  10  36  1   
 27  10  37  1   
 28  11  12  1   
 29  11  13  2   
 30  12  14  1   
 31  13  15  1   
 32  13  38  1   
 33  14  15  2   
 34  14  16  1   
 35  15  39  1   
 36  16  17  ar  
 37  16  18  ar  
 38  17  19  ar  
 39  17  40  1   
 40  18  20  ar  
 41  18  41  1   
 42  19  21  ar  
 43  19  42  1   
 44  20  21  ar  
 45  20  43  1   
 46  21  44  1   
@<TRIPOS>SUBSTRUCTURE
  1 ****  10 GROUP 4 **** **** 0

# MOE 2024.06 (io_trps.svl 2023.06)
