@<TRIPOS>MOLECULE
NONAME
39 40 1 0 0 
SMALL
USER_CHARGES


@<TRIPOS>ATOM
  1 S        0.0920    -0.4710     0.1800 S.o2  1 <1>   1.4470 
  2 O       -0.1560    -0.4820     1.6030 O.2   1 <1>  -0.6500 
  3 O       -0.1800    -1.6710    -0.5850 O.2   1 <1>  -0.6500 
  4 N       -0.7340     0.7860    -0.5700 N.am  1 <1>  -0.9140 
  5 C        1.8160     0.0260    -0.0880 C.ar  1 <1>  -0.0090 
  6 C       -2.0100     1.2310     0.0340 C.3   1 <1>   0.2500 
  7 C        2.6220    -0.6050    -1.0300 C.ar  1 <1>  -0.1500 
  8 C        2.3680     1.0780     0.6350 C.ar  1 <1>  -0.1500 
  9 C       -1.6790     2.1400     1.2740 C.2   1 <1>   0.9060 
 10 C       -2.6410     2.1050    -1.0750 C.3   1 <1>  -0.1600 
 11 C       -2.9480     0.0240     0.3120 C.3   1 <1>  -0.1600 
 12 C        3.9310    -0.2060    -1.2360 C.ar  1 <1>  -0.1500 
 13 C        3.6750     1.4870     0.4350 C.ar  1 <1>  -0.1500 
 14 O       -2.4970     2.3920     2.1700 O.co2 1 <1>  -0.9000 
 15 O       -0.5380     2.6480     1.2750 O.co2 1 <1>  -0.9000 
 16 C       -4.0930     2.5150    -0.7850 C.3   1 <1>  -0.1600 
 17 C       -4.4180     0.4110     0.5520 C.3   1 <1>  -0.1600 
 18 C        4.4680     0.8410    -0.5070 C.ar  1 <1>   0.0830 
 19 C       -4.9710     1.2780    -0.5820 C.3   1 <1>  -0.1600 
 20 O        5.7560     1.1750    -0.7680 O.3   1 <1>  -0.3630 
 21 C        6.3820     2.2450    -0.0970 C.3   1 <1>   0.0400 
 22 H       -0.1800     1.5990    -0.2510 H     1 <1>   0.4200 
 23 H        2.2160    -1.4190    -1.6080 H     1 <1>   0.1500 
 24 H        1.7580     1.5870     1.3680 H     1 <1>   0.1500 
 25 H       -2.6250     1.5600    -2.0020 H     1 <1>   0.0800 
 26 H       -2.0480     2.9950    -1.2000 H     1 <1>   0.0800 
 27 H       -2.6130    -0.5030     1.1860 H     1 <1>   0.0800 
 28 H       -2.9080    -0.6470    -0.5270 H     1 <1>   0.0800 
 29 H        4.5430    -0.7040    -1.9660 H     1 <1>   0.1500 
 30 H        4.0470     2.3050     1.0210 H     1 <1>   0.1500 
 31 H       -4.4730     3.1010    -1.6020 H     1 <1>   0.0800 
 32 H       -4.1220     3.1260     0.1040 H     1 <1>   0.0800 
 33 H       -4.4930     0.9530     1.4800 H     1 <1>   0.0800 
 34 H       -5.0110    -0.4810     0.6500 H     1 <1>   0.0800 
 35 H       -5.0010     0.7040    -1.4920 H     1 <1>   0.0800 
 36 H       -5.9750     1.5840    -0.3440 H     1 <1>   0.0800 
 37 H        7.3860     2.3330    -0.4720 H     1 <1>   0.0800 
 38 H        6.4020     2.0320     0.9570 H     1 <1>   0.0800 
 39 H        5.8360     3.1500    -0.2970 H     1 <1>   0.0800 
@<TRIPOS>BOND
  1   1   2  2   
  2   1   3  2   
  3   1   4  am  
  4   1   5  1   
  5   4   6  1   
  6   4  22  1   
  7   5   7  ar  
  8   5   8  ar  
  9   6   9  1   
 10   6  10  1   
 11   6  11  1   
 12   7  12  ar  
 13   7  23  1   
 14   8  13  ar  
 15   8  24  1   
 16   9  14  ar  
 17   9  15  ar  
 18  10  16  1   
 19  10  25  1   
 20  10  26  1   
 21  11  17  1   
 22  11  27  1   
 23  11  28  1   
 24  12  18  ar  
 25  12  29  1   
 26  13  18  ar  
 27  13  30  1   
 28  16  19  1   
 29  16  31  1   
 30  16  32  1   
 31  17  19  1   
 32  17  33  1   
 33  17  34  1   
 34  18  20  1   
 35  19  35  1   
 36  19  36  1   
 37  20  21  1   
 38  21  37  1   
 39  21  38  1   
 40  21  39  1   
@<TRIPOS>SUBSTRUCTURE
  1 ****   4 GROUP 4 **** **** 0

# MOE 2024.06 (io_trps.svl 2023.06)
