@<TRIPOS>MOLECULE
NONAME
47 49 1 0 0 
SMALL
USER_CHARGES


@<TRIPOS>ATOM
  1 O        2.0010    -4.6910     0.4940 O.3   1 <1>  -0.3630 
  2 C        3.2490    -5.0590     0.1130 C.ar  1 <1>   0.0830 
  3 C        0.8510    -5.2550    -0.0860 C.3   1 <1>   0.1200 
  4 C        4.3030    -4.5130     0.7950 C.ar  1 <1>  -0.1500 
  5 C        3.4990    -5.9640    -0.9380 C.ar  1 <1>  -0.1500 
  6 C       -0.3590    -4.6350     0.6200 C.3   1 <1>   0.3430 
  7 C        5.6370    -4.8340     0.4790 C.ar  1 <1>   0.0000 
  8 C        4.7860    -6.2910    -1.2640 C.ar  1 <1>  -0.1500 
  9 N       -1.6670    -5.1420     0.0890 N.4   1 <1>  -0.9590 
 10 C        5.8850    -5.7420    -0.5720 C.ar  1 <1>   0.0000 
 11 C        6.7340    -4.2830     1.1710 C.ar  1 <1>  -0.1500 
 12 C       -2.8000    -4.3310     0.6160 C.3   1 <1>   0.3430 
 13 C       -1.8750    -6.6070     0.3650 C.3   1 <1>   0.3430 
 14 C        7.2190    -6.0640    -0.8890 C.ar  1 <1>  -0.1500 
 15 C        8.0200    -4.6130     0.8420 C.ar  1 <1>  -0.1500 
 16 C       -4.0730    -4.6270    -0.2010 C.3   1 <1>  -0.0800 
 17 C       -3.3440    -7.0540     0.1820 C.3   1 <1>  -0.0800 
 18 C        8.2650    -5.5140    -0.2000 C.ar  1 <1>  -0.1500 
 19 C       -4.1320    -6.0830    -0.7160 C.3   1 <1>  -0.1600 
 20 C       -4.2150    -3.6460    -1.3750 C.3   1 <1>  -0.2400 
 21 C       -4.0440    -7.2530     1.5380 C.3   1 <1>  -0.2400 
 22 H        0.8930    -6.3190     0.0670 H     1 <1>   0.0800 
 23 H        0.8520    -5.0120    -1.1340 H     1 <1>   0.0800 
 24 H        4.1200    -3.8210     1.5960 H     1 <1>   0.1500 
 25 H        2.6940    -6.4040    -1.4930 H     1 <1>   0.1500 
 26 H       -0.3110    -3.5670     0.4850 H     1 <1>   0.0800 
 27 H       -0.2920    -4.8460     1.6740 H     1 <1>   0.0800 
 28 H        4.9870    -6.9810    -2.0650 H     1 <1>   0.1500 
 29 H       -1.6930    -5.0110    -0.9310 H     1 <1>   0.4500 
 30 H        6.5400    -3.5910     1.9710 H     1 <1>   0.1500 
 31 H       -2.5750    -3.2780     0.5580 H     1 <1>   0.0800 
 32 H       -2.9690    -4.5820     1.6500 H     1 <1>   0.0800 
 33 H       -1.5690    -6.8370     1.3730 H     1 <1>   0.0800 
 34 H       -1.2540    -7.1810    -0.3030 H     1 <1>   0.0800 
 35 H        7.4040    -6.7570    -1.6900 H     1 <1>   0.1500 
 36 H        8.8540    -4.1890     1.3740 H     1 <1>   0.1500 
 37 H       -4.9110    -4.4640     0.4570 H     1 <1>   0.0800 
 38 H       -3.3290    -8.0180    -0.2990 H     1 <1>   0.0800 
 39 H        9.2830    -5.7640    -0.4460 H     1 <1>   0.1500 
 40 H       -3.7120    -6.1350    -1.7070 H     1 <1>   0.0800 
 41 H       -5.1590    -6.3980    -0.7980 H     1 <1>   0.0800 
 42 H       -3.3960    -3.7360    -2.0660 H     1 <1>   0.0800 
 43 H       -4.2510    -2.6310    -1.0170 H     1 <1>   0.0800 
 44 H       -5.1310    -3.8390    -1.9080 H     1 <1>   0.0800 
 45 H       -4.0930    -6.3440     2.1100 H     1 <1>   0.0800 
 46 H       -3.5240    -7.9920     2.1230 H     1 <1>   0.0800 
 47 H       -5.0490    -7.6070     1.3860 H     1 <1>   0.0800 
@<TRIPOS>BOND
  1   1   2  1   
  2   1   3  1   
  3   2   4  ar  
  4   2   5  ar  
  5   3   6  1   
  6   3  22  1   
  7   3  23  1   
  8   4   7  ar  
  9   4  24  1   
 10   5   8  ar  
 11   5  25  1   
 12   6   9  1   
 13   6  26  1   
 14   6  27  1   
 15   7  10  ar  
 16   7  11  ar  
 17   8  10  ar  
 18   8  28  1   
 19   9  12  1   
 20   9  13  1   
 21   9  29  1   
 22  10  14  ar  
 23  11  15  ar  
 24  11  30  1   
 25  12  16  1   
 26  12  31  1   
 27  12  32  1   
 28  13  17  1   
 29  13  33  1   
 30  13  34  1   
 31  14  18  ar  
 32  14  35  1   
 33  15  18  ar  
 34  15  36  1   
 35  16  19  1   
 36  16  20  1   
 37  16  37  1   
 38  17  19  1   
 39  17  21  1   
 40  17  38  1   
 41  18  39  1   
 42  19  40  1   
 43  19  41  1   
 44  20  42  1   
 45  20  43  1   
 46  20  44  1   
 47  21  45  1   
 48  21  46  1   
 49  21  47  1   
@<TRIPOS>SUBSTRUCTURE
  1 ****   3 GROUP 4 **** **** 0

# MOE 2024.06 (io_trps.svl 2023.06)
