@<TRIPOS>MOLECULE
NONAME
32 32 1 0 0 
SMALL
USER_CHARGES


@<TRIPOS>ATOM
  1 BR       0.4430     0.5630    -1.8630 Br    1 <1>  -0.1110 
  2 C        1.1300    -1.0980    -1.1770 C.ar  1 <1>   0.1110 
  3 C        0.4720    -2.2700    -1.4980 C.ar  1 <1>  -0.1500 
  4 C        2.2600    -1.0750    -0.3840 C.ar  1 <1>  -0.1500 
  5 C        0.9640    -3.4700    -1.0040 C.ar  1 <1>  -0.1440 
  6 C        2.7490    -2.2720     0.1090 C.ar  1 <1>  -0.1500 
  7 C        2.1030    -3.4700    -0.1980 C.ar  1 <1>   0.0830 
  8 C        0.2750    -4.7740    -1.3570 C.3   1 <1>   0.4870 
  9 O        2.5300    -4.6700     0.2730 O.3   1 <1>  -0.3630 
 10 N       -0.1500    -5.4100    -0.0960 N.4   1 <1>  -0.9060 
 11 C        3.8710    -4.8620     0.6730 C.3   1 <1>   0.2580 
 12 C       -0.6930    -6.7700    -0.2590 C.3   1 <1>   0.3430 
 13 C        4.0420    -6.3390     0.9620 C.2   1 <1>  -0.2880 
 14 C       -1.0090    -7.3200     1.1230 C.3   1 <1>  -0.2400 
 15 C        4.8240    -7.1760     0.2720 C.2   1 <1>  -0.3000 
 16 H       -0.4020    -2.2210    -2.1250 H     1 <1>   0.1500 
 17 H        2.7430    -0.1400    -0.1590 H     1 <1>   0.1500 
 18 H        3.6250    -2.2460     0.7320 H     1 <1>   0.1500 
 19 H        0.9720    -5.4110    -1.8770 H     1 <1>   0.0800 
 20 H       -0.5750    -4.5890    -1.9930 H     1 <1>   0.0800 
 21 H       -0.8080    -4.7950     0.3930 H     1 <1>   0.4500 
 22 H        0.7050    -5.4380     0.4840 H     1 <1>   0.4500 
 23 H        4.0630    -4.2800     1.5580 H     1 <1>   0.0800 
 24 H        4.5170    -4.5460    -0.1290 H     1 <1>   0.0800 
 25 H        0.0320    -7.4050    -0.7460 H     1 <1>   0.0800 
 26 H       -1.5910    -6.7460    -0.8580 H     1 <1>   0.0800 
 27 H        3.4600    -6.6610     1.8090 H     1 <1>   0.1500 
 28 H       -0.1200    -7.3730     1.7270 H     1 <1>   0.0800 
 29 H       -1.4040    -8.3160     1.0280 H     1 <1>   0.0800 
 30 H       -1.7480    -6.7160     1.6190 H     1 <1>   0.0800 
 31 H        4.9340    -8.2230     0.5010 H     1 <1>   0.1500 
 32 H        5.4230    -6.8930    -0.5770 H     1 <1>   0.1500 
@<TRIPOS>BOND
  1   1   2  1   
  2   2   3  ar  
  3   2   4  ar  
  4   3   5  ar  
  5   3  16  1   
  6   4   6  ar  
  7   4  17  1   
  8   5   7  ar  
  9   5   8  1   
 10   6   7  ar  
 11   6  18  1   
 12   7   9  1   
 13   8  10  1   
 14   8  19  1   
 15   8  20  1   
 16   9  11  1   
 17  10  12  1   
 18  10  21  1   
 19  10  22  1   
 20  11  13  1   
 21  11  23  1   
 22  11  24  1   
 23  12  14  1   
 24  12  25  1   
 25  12  26  1   
 26  13  15  2   
 27  13  27  1   
 28  14  28  1   
 29  14  29  1   
 30  14  30  1   
 31  15  31  1   
 32  15  32  1   
@<TRIPOS>SUBSTRUCTURE
  1 ****   7 GROUP 4 **** **** 0

# MOE 2024.06 (io_trps.svl 2023.06)
