@<TRIPOS>MOLECULE
NONAME
40 41 1 0 0 
SMALL
USER_CHARGES


@<TRIPOS>ATOM
  1 O        0.7840     0.9630     0.2940 O.2   1 <1>  -0.5200 
  2 N        1.5440     0.7080     1.2410 N.pl3 1 <1>   0.8000 
  3 O        1.2810     1.0410     2.4040 O.2   1 <1>  -0.5200 
  4 C        2.8030    -0.0420     0.9940 C.3   1 <1>   0.1600 
  5 C        4.0080     0.8600     0.5700 C.3   1 <1>   0.0000 
  6 C        2.5360    -1.1840     0.0000 C.3   1 <1>   0.1100 
  7 C        5.2190    -0.0930     0.3090 C.3   1 <1>   0.1600 
  8 C        4.3560     1.8310     1.7220 C.3   1 <1>  -0.2400 
  9 C        3.6740     1.7180    -0.6770 C.3   1 <1>  -0.2400 
 10 N        3.7460    -2.0160    -0.1630 N.3   1 <1>  -0.8100 
 11 N        6.4510     0.6020    -0.1430 N.pl3 1 <1>   0.8000 
 12 C        4.8800    -1.2300    -0.6710 C.3   1 <1>   0.1100 
 13 C        3.4880    -3.1860    -1.0270 C.3   1 <1>   0.2540 
 14 O        7.2990     0.9000     0.7090 O.2   1 <1>  -0.5200 
 15 O        6.6220     0.8260    -1.3510 O.2   1 <1>  -0.5200 
 16 C        2.4370    -4.0980    -0.4090 C.ar  1 <1>  -0.1440 
 17 C        2.6670    -4.6890     0.8240 C.ar  1 <1>  -0.1500 
 18 C        1.2410    -4.3440    -1.0670 C.ar  1 <1>  -0.1500 
 19 C        1.7150    -5.5170     1.3930 C.ar  1 <1>  -0.1500 
 20 C        0.2880    -5.1700    -0.4990 C.ar  1 <1>  -0.1500 
 21 C        0.5240    -5.7570     0.7320 C.ar  1 <1>  -0.1500 
 22 H        3.0510    -0.5100     1.9290 H     1 <1>   0.0800 
 23 H        2.2320    -0.7930    -0.9570 H     1 <1>   0.0800 
 24 H        1.7330    -1.7890     0.3880 H     1 <1>   0.0800 
 25 H        5.4750    -0.5650     1.2400 H     1 <1>   0.0800 
 26 H        5.1970     2.4530     1.4690 H     1 <1>   0.0800 
 27 H        4.5990     1.2920     2.6220 H     1 <1>   0.0800 
 28 H        3.5310     2.4880     1.9410 H     1 <1>   0.0800 
 29 H        3.4130     1.1110    -1.5250 H     1 <1>   0.0800 
 30 H        4.5070     2.3390    -0.9580 H     1 <1>   0.0800 
 31 H        2.8500     2.3820    -0.4820 H     1 <1>   0.0800 
 32 H        5.7380    -1.8750    -0.7670 H     1 <1>   0.0800 
 33 H        4.6410    -0.8330    -1.6450 H     1 <1>   0.0800 
 34 H        4.3960    -3.7510    -1.1450 H     1 <1>   0.0800 
 35 H        3.1690    -2.8590    -2.0020 H     1 <1>   0.0800 
 36 H        3.5910    -4.4990     1.3430 H     1 <1>   0.1500 
 37 H        1.0430    -3.8940    -2.0240 H     1 <1>   0.1500 
 38 H        1.9010    -5.9720     2.3500 H     1 <1>   0.1500 
 39 H       -0.6390    -5.3570    -1.0130 H     1 <1>   0.1500 
 40 H       -0.2170    -6.4010     1.1730 H     1 <1>   0.1500 
@<TRIPOS>BOND
  1   1   2  2   
  2   2   3  2   
  3   2   4  1   
  4   4   5  1   
  5   4   6  1   
  6   4  22  1   
  7   5   7  1   
  8   5   8  1   
  9   5   9  1   
 10   6  10  1   
 11   6  23  1   
 12   6  24  1   
 13   7  11  1   
 14   7  12  1   
 15   7  25  1   
 16   8  26  1   
 17   8  27  1   
 18   8  28  1   
 19   9  29  1   
 20   9  30  1   
 21   9  31  1   
 22  10  12  1   
 23  10  13  1   
 24  11  14  2   
 25  11  15  2   
 26  12  32  1   
 27  12  33  1   
 28  13  16  1   
 29  13  34  1   
 30  13  35  1   
 31  16  17  ar  
 32  16  18  ar  
 33  17  19  ar  
 34  17  36  1   
 35  18  20  ar  
 36  18  37  1   
 37  19  21  ar  
 38  19  38  1   
 39  20  21  ar  
 40  20  39  1   
 41  21  40  1   
@<TRIPOS>SUBSTRUCTURE
  1 ****   6 GROUP 4 **** **** 0

# MOE 2024.06 (io_trps.svl 2023.06)
