@<TRIPOS>MOLECULE
NONAME
34 34 1 0 0 
SMALL
USER_CHARGES


@<TRIPOS>ATOM
  1 O       -0.8390    -0.1430    -0.8500 O.2   1 <1>  -0.5700 
  2 C       -1.7810    -0.9010    -0.7390 C.2   1 <1>   0.5440 
  3 N       -3.0090    -0.3190    -0.6770 N.am  1 <1>  -0.7300 
  4 C       -1.5680    -2.3370    -0.6740 C.ar  1 <1>   0.0860 
  5 C       -4.2640    -0.8860    -0.1350 C.3   1 <1>   0.1400 
  6 C       -2.4290    -3.2510    -1.2860 C.ar  1 <1>  -0.1500 
  7 C       -0.4610    -2.8590    -0.0010 C.ar  1 <1>  -0.1500 
  8 C       -4.9790     0.1870     0.6700 C.3   1 <1>  -0.2660 
  9 C       -2.2010    -4.6130    -1.2190 C.ar  1 <1>  -0.1500 
 10 C       -0.2240    -4.2200     0.0690 C.ar  1 <1>  -0.1500 
 11 C       -6.2750    -0.3750     1.1800 C.2   1 <1>   0.9060 
 12 C       -1.0990    -5.1110    -0.5450 C.ar  1 <1>   0.0820 
 13 O       -6.4180    -0.5210     2.3950 O.co2 1 <1>  -0.9000 
 14 O       -7.1370    -0.6870     0.3550 O.co2 1 <1>  -0.9000 
 15 O       -0.9410    -6.4540    -0.5300 O.3   1 <1>  -0.3630 
 16 C        0.1590    -7.0650     0.1050 C.3   1 <1>   0.1200 
 17 C        0.0370    -8.5780    -0.0790 C.3   1 <1>  -0.1600 
 18 C        1.2020    -9.3180     0.5880 C.3   1 <1>  -0.2400 
 19 H       -3.0070     0.6990    -0.7450 H     1 <1>   0.3700 
 20 H       -4.0560    -1.7340     0.4960 H     1 <1>   0.0800 
 21 H       -4.8970    -1.2050    -0.9480 H     1 <1>   0.0800 
 22 H       -3.2850    -2.8840    -1.8240 H     1 <1>   0.1500 
 23 H        0.2210    -2.1720     0.4710 H     1 <1>   0.1500 
 24 H       -5.2110     1.0330     0.0550 H     1 <1>   0.0800 
 25 H       -4.3830     0.4910     1.5090 H     1 <1>   0.0800 
 26 H       -2.8770    -5.3010    -1.6930 H     1 <1>   0.1500 
 27 H        0.6420    -4.5650     0.6010 H     1 <1>   0.1500 
 28 H        0.1350    -6.8060     1.1490 H     1 <1>   0.0800 
 29 H        1.0610    -6.6980    -0.3520 H     1 <1>   0.0800 
 30 H        0.0270    -8.8060    -1.1310 H     1 <1>   0.0800 
 31 H       -0.8900    -8.9130     0.3540 H     1 <1>   0.0800 
 32 H        2.1390    -9.0110     0.1580 H     1 <1>   0.0800 
 33 H        1.0930   -10.3790     0.4440 H     1 <1>   0.0800 
 34 H        1.2210    -9.1180     1.6450 H     1 <1>   0.0800 
@<TRIPOS>BOND
  1   1   2  2   
  2   2   3  am  
  3   2   4  1   
  4   3   5  1   
  5   3  19  1   
  6   4   6  ar  
  7   4   7  ar  
  8   5   8  1   
  9   5  20  1   
 10   5  21  1   
 11   6   9  ar  
 12   6  22  1   
 13   7  10  ar  
 14   7  23  1   
 15   8  11  1   
 16   8  24  1   
 17   8  25  1   
 18   9  12  ar  
 19   9  26  1   
 20  10  12  ar  
 21  10  27  1   
 22  11  13  ar  
 23  11  14  ar  
 24  12  15  1   
 25  15  16  1   
 26  16  17  1   
 27  16  28  1   
 28  16  29  1   
 29  17  18  1   
 30  17  30  1   
 31  17  31  1   
 32  18  32  1   
 33  18  33  1   
 34  18  34  1   
@<TRIPOS>SUBSTRUCTURE
  1 ****   6 GROUP 4 **** **** 0

# MOE 2024.06 (io_trps.svl 2023.06)
