@<TRIPOS>MOLECULE
NONAME
40 41 1 0 0 
SMALL
USER_CHARGES


@<TRIPOS>ATOM
  1 S       -0.2590     0.0330    -0.6640 S.o2  1 <1>   1.3330 
  2 O        0.8080     0.9310    -1.0390 O.2   1 <1>  -0.6500 
  3 O       -0.8910    -0.8030    -1.6590 O.2   1 <1>  -0.6500 
  4 N       -1.4710     0.9370     0.1000 N.am  1 <1>  -0.8490 
  5 C        0.3400    -0.9950     0.6590 C.3   1 <1>  -0.1350 
  6 C       -1.6120     2.2780    -0.5030 C.3   1 <1>   0.1960 
  7 C       -2.7760     0.2500     0.0970 C.3   1 <1>   0.1960 
  8 C       -2.6540     3.1370     0.2330 C.3   1 <1>   0.1400 
  9 C       -3.8470     1.0430     0.8690 C.3   1 <1>   0.1400 
 10 N       -3.9710     2.4320     0.3290 N.am  1 <1>  -0.6600 
 11 C       -5.1330     3.0340    -0.0860 C.2   1 <1>   0.5690 
 12 O       -5.1310     4.1460    -0.5590 O.2   1 <1>  -0.5700 
 13 C       -6.4600     2.3010     0.0430 C.3   1 <1>  -0.0990 
 14 C       -7.6840     3.1450    -0.3420 C.3   1 <1>  -0.0170 
 15 C       -8.9550     2.3300    -0.1650 C.ar  1 <1>  -0.1440 
 16 C       -9.4650     1.5900    -1.2210 C.ar  1 <1>  -0.1500 
 17 C       -9.6110     2.3150     1.0560 C.ar  1 <1>  -0.1500 
 18 C      -10.6170     0.8400    -1.0570 C.ar  1 <1>  -0.1500 
 19 C      -10.7640     1.5660     1.2210 C.ar  1 <1>  -0.1500 
 20 C      -11.2670     0.8270     0.1640 C.ar  1 <1>  -0.1500 
 21 H        0.7060    -0.3840     1.4600 H     1 <1>   0.0800 
 22 H        1.1410    -1.6140     0.3050 H     1 <1>   0.0800 
 23 H       -0.4440    -1.6240     1.0290 H     1 <1>   0.0800 
 24 H       -1.8930     2.1870    -1.5390 H     1 <1>   0.0800 
 25 H       -0.6680     2.7950    -0.4630 H     1 <1>   0.0800 
 26 H       -2.6730    -0.7210     0.5480 H     1 <1>   0.0800 
 27 H       -3.1150     0.1080    -0.9160 H     1 <1>   0.0800 
 28 H       -2.7610     4.0740    -0.2840 H     1 <1>   0.0800 
 29 H       -2.2970     3.3500     1.2250 H     1 <1>   0.0800 
 30 H       -3.5650     1.0950     1.9060 H     1 <1>   0.0800 
 31 H       -4.7800     0.5150     0.8040 H     1 <1>   0.0800 
 32 H       -6.5760     1.9800     1.0620 H     1 <1>   0.0800 
 33 H       -6.4310     1.4320    -0.5870 H     1 <1>   0.0800 
 34 H       -7.5970     3.4690    -1.3640 H     1 <1>   0.0800 
 35 H       -7.7270     4.0260     0.2750 H     1 <1>   0.0800 
 36 H       -8.9660     1.5940    -2.1740 H     1 <1>   0.1500 
 37 H       -9.2280     2.8860     1.8830 H     1 <1>   0.1500 
 38 H      -11.0080     0.2690    -1.8800 H     1 <1>   0.1500 
 39 H      -11.2690     1.5580     2.1710 H     1 <1>   0.1500 
 40 H      -12.1620     0.2450     0.2920 H     1 <1>   0.1500 
@<TRIPOS>BOND
  1   1   2  2   
  2   1   3  2   
  3   1   4  am  
  4   1   5  1   
  5   4   6  1   
  6   4   7  1   
  7   5  21  1   
  8   5  22  1   
  9   5  23  1   
 10   6   8  1   
 11   6  24  1   
 12   6  25  1   
 13   7   9  1   
 14   7  26  1   
 15   7  27  1   
 16   8  10  1   
 17   8  28  1   
 18   8  29  1   
 19   9  10  1   
 20   9  30  1   
 21   9  31  1   
 22  10  11  am  
 23  11  12  2   
 24  11  13  1   
 25  13  14  1   
 26  13  32  1   
 27  13  33  1   
 28  14  15  1   
 29  14  34  1   
 30  14  35  1   
 31  15  16  ar  
 32  15  17  ar  
 33  16  18  ar  
 34  16  36  1   
 35  17  19  ar  
 36  17  37  1   
 37  18  20  ar  
 38  18  38  1   
 39  19  20  ar  
 40  19  39  1   
 41  20  40  1   
@<TRIPOS>SUBSTRUCTURE
  1 ****  11 GROUP 4 **** **** 0

# MOE 2024.06 (io_trps.svl 2023.06)
