@<TRIPOS>MOLECULE
NONAME
36 36 1 0 0 
SMALL
USER_CHARGES


@<TRIPOS>ATOM
  1 S        0.2200     0.1150     0.4250 S.3   1 <1>  -0.3710 
  2 C       -1.3910     0.8200     0.0530 C.2   1 <1>   0.6510 
  3 C        1.3350     1.5870     0.4760 C.3   1 <1>   0.0700 
  4 N       -1.4000     2.0900    -0.0820 N.2   1 <1>  -0.6210 
  5 N       -2.4760    -0.0330    -0.0630 N.am  1 <1>  -0.4200 
  6 C        2.7480     1.0980     0.7880 C.3   1 <1>  -0.2400 
  7 C       -2.5790     2.7020    -0.3800 C.2   1 <1>   0.0210 
  8 C       -3.6870     0.5740    -0.4050 C.2   1 <1>   0.6160 
  9 C       -2.3730    -1.5120     0.1760 C.3   1 <1>   0.2200 
 10 O       -2.5370     3.9330    -0.4850 O.3   1 <1>  -0.8500 
 11 C       -3.7380     1.9580    -0.5530 C.2   1 <1>  -0.1240 
 12 O       -4.6960    -0.1390    -0.5740 O.2   1 <1>  -0.5700 
 13 C       -2.6400    -2.3040    -1.1190 C.3   1 <1>  -0.1600 
 14 C       -3.2540    -1.9460     1.3570 C.3   1 <1>  -0.2400 
 15 C       -5.0470     2.6630    -0.9020 C.3   1 <1>  -0.0220 
 16 C       -2.2100    -3.7760    -1.0250 C.3   1 <1>  -0.2400 
 17 C       -5.8650     2.9460     0.3600 C.3   1 <1>  -0.2400 
 18 H        0.9570     2.2490     1.2360 H     1 <1>   0.0800 
 19 H        1.2740     2.0680    -0.4850 H     1 <1>   0.0800 
 20 H        2.7620     0.5970     1.7390 H     1 <1>   0.0800 
 21 H        3.4210     1.9340     0.8240 H     1 <1>   0.0800 
 22 H        3.0780     0.4170     0.0230 H     1 <1>   0.0800 
 23 H       -1.3740    -1.7610     0.4690 H     1 <1>   0.0800 
 24 H       -2.0890    -1.8420    -1.9200 H     1 <1>   0.0800 
 25 H       -3.6850    -2.2670    -1.3700 H     1 <1>   0.0800 
 26 H       -4.2960    -1.9290     1.0960 H     1 <1>   0.0800 
 27 H       -3.0890    -1.2930     2.1950 H     1 <1>   0.0800 
 28 H       -3.0020    -2.9460     1.6570 H     1 <1>   0.0800 
 29 H       -5.6180     2.0580    -1.5830 H     1 <1>   0.0800 
 30 H       -4.8270     3.5920    -1.3990 H     1 <1>   0.0800 
 31 H       -1.1680    -3.8480    -0.7660 H     1 <1>   0.0800 
 32 H       -2.3600    -4.2590    -1.9740 H     1 <1>   0.0800 
 33 H       -2.7920    -4.2970    -0.2860 H     1 <1>   0.0800 
 34 H       -6.1070     2.0240     0.8590 H     1 <1>   0.0800 
 35 H       -6.7710     3.4630     0.1070 H     1 <1>   0.0800 
 36 H       -5.2830     3.5610     1.0250 H     1 <1>   0.0800 
@<TRIPOS>BOND
  1   1   2  1   
  2   1   3  1   
  3   2   4  2   
  4   2   5  1   
  5   3   6  1   
  6   3  18  1   
  7   3  19  1   
  8   4   7  1   
  9   5   8  am  
 10   5   9  1   
 11   6  20  1   
 12   6  21  1   
 13   6  22  1   
 14   7  10  1   
 15   7  11  2   
 16   8  11  1   
 17   8  12  2   
 18   9  13  1   
 19   9  14  1   
 20   9  23  1   
 21  11  15  1   
 22  13  16  1   
 23  13  24  1   
 24  13  25  1   
 25  14  26  1   
 26  14  27  1   
 27  14  28  1   
 28  15  17  1   
 29  15  29  1   
 30  15  30  1   
 31  16  31  1   
 32  16  32  1   
 33  16  33  1   
 34  17  34  1   
 35  17  35  1   
 36  17  36  1   
@<TRIPOS>SUBSTRUCTURE
  1 ****   5 GROUP 4 **** **** 0

# MOE 2024.06 (io_trps.svl 2023.06)
