@<TRIPOS>MOLECULE
NONAME
45 46 1 0 0 
SMALL
USER_CHARGES


@<TRIPOS>ATOM
  1 O       -9.1400     3.9140    -0.8670 O.co2 1 <1>  -0.9000 
  2 C       -8.3040     3.4670    -0.0750 C.2   1 <1>   1.0330 
  3 O       -7.7620     4.2610     0.7220 O.co2 1 <1>  -0.9000 
  4 C       -7.8440     2.0880    -0.1270 C.2   1 <1>  -0.2330 
  5 C       -6.6920     1.5550     0.5130 C.2   1 <1>  -0.1810 
  6 C       -8.3660     1.0200    -0.7910 C.2   1 <1>  -0.0400 
  7 C       -6.6330     0.2490     0.1780 C.2   1 <1>  -0.0400 
  8 C       -5.7320     2.3310     1.3950 C.3   1 <1>   0.5240 
  9 O       -7.6390    -0.0580    -0.6070 O.3   1 <1>  -0.2800 
 10 C       -9.5960     0.8920    -1.6660 C.3   1 <1>  -0.0600 
 11 C       -5.6410    -0.8430     0.5400 C.3   1 <1>   0.0200 
 12 N       -5.2210     3.5150     0.6670 N.4   1 <1>  -0.9590 
 13 C       -6.0620    -1.6420     1.7890 C.3   1 <1>  -0.0800 
 14 C       -4.7180     3.2270    -0.7020 C.3   1 <1>   0.3430 
 15 C       -4.3550     4.3860     1.4880 C.3   1 <1>   0.3430 
 16 C       -4.9520    -2.6200     2.1950 C.3   1 <1>  -0.2400 
 17 C       -7.3700    -2.4150     1.5670 C.3   1 <1>  -0.2400 
 18 C       -4.4870     4.5440    -1.4440 C.3   1 <1>  -0.1600 
 19 C       -4.1250     5.7090     0.7550 C.3   1 <1>  -0.1600 
 20 C       -3.5710     5.4940    -0.6600 C.3   1 <1>  -0.1600 
 21 H       -4.9170     1.6960     1.6940 H     1 <1>   0.0800 
 22 H       -6.2640     2.6570     2.2740 H     1 <1>   0.0800 
 23 H      -10.1410     1.8160    -1.7080 H     1 <1>   0.0800 
 24 H      -10.2420     0.1310    -1.2690 H     1 <1>   0.0800 
 25 H       -9.3030     0.6190    -2.6630 H     1 <1>   0.0800 
 26 H       -4.6840    -0.3900     0.7220 H     1 <1>   0.0800 
 27 H       -5.5300    -1.5060    -0.3010 H     1 <1>   0.0800 
 28 H       -6.1140     4.0570     0.5340 H     1 <1>   0.4500 
 29 H       -6.2160    -0.9500     2.6000 H     1 <1>   0.0800 
 30 H       -5.4400     2.6390    -1.2470 H     1 <1>   0.0800 
 31 H       -3.7970     2.6730    -0.6430 H     1 <1>   0.0800 
 32 H       -3.4110     3.8990     1.6660 H     1 <1>   0.0800 
 33 H       -4.8310     4.5830     2.4350 H     1 <1>   0.0800 
 34 H       -4.7740    -3.3360     1.4110 H     1 <1>   0.0800 
 35 H       -5.2340    -3.1540     3.0860 H     1 <1>   0.0800 
 36 H       -4.0360    -2.0930     2.3960 H     1 <1>   0.0800 
 37 H       -7.2790    -3.0840     0.7300 H     1 <1>   0.0800 
 38 H       -8.1820    -1.7360     1.3730 H     1 <1>   0.0800 
 39 H       -7.6210    -2.9890     2.4410 H     1 <1>   0.0800 
 40 H       -5.4420     5.0130    -1.6140 H     1 <1>   0.0800 
 41 H       -4.0560     4.3350    -2.4070 H     1 <1>   0.0800 
 42 H       -3.4410     6.3150     1.3230 H     1 <1>   0.0800 
 43 H       -5.0610     6.2410     0.7010 H     1 <1>   0.0800 
 44 H       -3.5060     6.4390    -1.1730 H     1 <1>   0.0800 
 45 H       -2.5800     5.0780    -0.6040 H     1 <1>   0.0800 
@<TRIPOS>BOND
  1   1   2  ar  
  2   2   3  ar  
  3   2   4  1   
  4   4   5  1   
  5   4   6  2   
  6   5   7  2   
  7   5   8  1   
  8   6   9  1   
  9   6  10  1   
 10   7   9  1   
 11   7  11  1   
 12   8  12  1   
 13   8  21  1   
 14   8  22  1   
 15  10  23  1   
 16  10  24  1   
 17  10  25  1   
 18  11  13  1   
 19  11  26  1   
 20  11  27  1   
 21  12  14  1   
 22  12  15  1   
 23  12  28  1   
 24  13  16  1   
 25  13  17  1   
 26  13  29  1   
 27  14  18  1   
 28  14  30  1   
 29  14  31  1   
 30  15  19  1   
 31  15  32  1   
 32  15  33  1   
 33  16  34  1   
 34  16  35  1   
 35  16  36  1   
 36  17  37  1   
 37  17  38  1   
 38  17  39  1   
 39  18  20  1   
 40  18  40  1   
 41  18  41  1   
 42  19  20  1   
 43  19  42  1   
 44  19  43  1   
 45  20  44  1   
 46  20  45  1   
@<TRIPOS>SUBSTRUCTURE
  1 ****   5 GROUP 4 **** **** 0

# MOE 2024.06 (io_trps.svl 2023.06)
