@<TRIPOS>MOLECULE
NONAME
42 43 1 0 0 
SMALL
USER_CHARGES


@<TRIPOS>ATOM
  1 S       -0.2630    -0.2300    -0.3720 S.o2  1 <1>   1.3330 
  2 O       -0.3960     1.1620    -0.0040 O.2   1 <1>  -0.6500 
  3 O       -0.0230    -0.5850    -1.7530 O.2   1 <1>  -0.6500 
  4 N       -1.6660    -1.0440     0.1240 N.am  1 <1>  -0.8490 
  5 C        1.0090    -0.9620     0.6690 C.3   1 <1>  -0.0550 
  6 C       -1.8190    -2.3420    -0.5430 C.3   1 <1>   0.1960 
  7 C       -2.8630    -0.2150    -0.0500 C.3   1 <1>   0.1960 
  8 C        2.4230    -0.3980     0.4390 C.3   1 <1>  -0.2400 
  9 C       -2.9920    -3.1120     0.0640 C.3   1 <1>  -0.1600 
 10 C       -4.0850    -0.9100     0.5570 C.3   1 <1>  -0.1600 
 11 C       -4.3010    -2.3090    -0.0450 C.3   1 <1>  -0.0190 
 12 C       -5.4950    -3.0130     0.5990 C.2   1 <1>   0.6590 
 13 O       -5.3850    -4.0090     1.2670 O.2   1 <1>  -0.5700 
 14 O       -6.6730    -2.4570     0.3690 O.3   1 <1>  -0.4300 
 15 C       -7.8510    -3.0050     0.9130 C.3   1 <1>   0.2630 
 16 C       -9.0220    -2.1280     0.5030 C.ar  1 <1>  -0.1440 
 17 C       -9.5100    -1.1600     1.3680 C.ar  1 <1>  -0.1500 
 18 C       -9.6130    -2.2890    -0.7410 C.ar  1 <1>  -0.1500 
 19 C      -10.5800    -0.3650     0.9950 C.ar  1 <1>  -0.1500 
 20 C      -10.6830    -1.4940    -1.1150 C.ar  1 <1>  -0.1500 
 21 C      -11.1670    -0.5320    -0.2470 C.ar  1 <1>  -0.1500 
 22 H        1.0340    -2.0200     0.5000 H     1 <1>   0.0800 
 23 H        0.7410    -0.8050     1.6960 H     1 <1>   0.0800 
 24 H       -0.9200    -2.9220    -0.4240 H     1 <1>   0.0800 
 25 H       -1.9840    -2.1950    -1.5990 H     1 <1>   0.0800 
 26 H       -3.0230    -0.0190    -1.0980 H     1 <1>   0.0800 
 27 H       -2.7310     0.7300     0.4510 H     1 <1>   0.0800 
 28 H        2.7260    -0.5640    -0.5810 H     1 <1>   0.0800 
 29 H        3.1270    -0.8780     1.0940 H     1 <1>   0.0800 
 30 H        2.4340     0.6610     0.6320 H     1 <1>   0.0800 
 31 H       -2.7730    -3.3220     1.0970 H     1 <1>   0.0800 
 32 H       -3.1020    -4.0540    -0.4440 H     1 <1>   0.0800 
 33 H       -4.9550    -0.3000     0.3860 H     1 <1>   0.0800 
 34 H       -3.9440    -0.9880     1.6220 H     1 <1>   0.0800 
 35 H       -4.5340    -2.1920    -1.0890 H     1 <1>   0.0800 
 36 H       -7.7500    -3.0400     1.9840 H     1 <1>   0.0800 
 37 H       -7.9700    -4.0060     0.5330 H     1 <1>   0.0800 
 38 H       -9.0590    -1.0190     2.3350 H     1 <1>   0.1500 
 39 H       -9.2400    -3.0320    -1.4240 H     1 <1>   0.1500 
 40 H      -10.9560     0.3840     1.6700 H     1 <1>   0.1500 
 41 H      -11.1380    -1.6240    -2.0820 H     1 <1>   0.1500 
 42 H      -11.9990     0.0860    -0.5370 H     1 <1>   0.1500 
@<TRIPOS>BOND
  1   1   2  2   
  2   1   3  2   
  3   1   4  am  
  4   1   5  1   
  5   4   6  1   
  6   4   7  1   
  7   5   8  1   
  8   5  22  1   
  9   5  23  1   
 10   6   9  1   
 11   6  24  1   
 12   6  25  1   
 13   7  10  1   
 14   7  26  1   
 15   7  27  1   
 16   8  28  1   
 17   8  29  1   
 18   8  30  1   
 19   9  11  1   
 20   9  31  1   
 21   9  32  1   
 22  10  11  1   
 23  10  33  1   
 24  10  34  1   
 25  11  12  1   
 26  11  35  1   
 27  12  13  2   
 28  12  14  1   
 29  14  15  1   
 30  15  16  1   
 31  15  36  1   
 32  15  37  1   
 33  16  17  ar  
 34  16  18  ar  
 35  17  19  ar  
 36  17  38  1   
 37  18  20  ar  
 38  18  39  1   
 39  19  21  ar  
 40  19  40  1   
 41  20  21  ar  
 42  20  41  1   
 43  21  42  1   
@<TRIPOS>SUBSTRUCTURE
  1 ****  11 GROUP 4 **** **** 0

# MOE 2024.06 (io_trps.svl 2023.06)
