@<TRIPOS>MOLECULE
NONAME
41 42 1 0 0 
SMALL
USER_CHARGES


@<TRIPOS>ATOM
  1 O        0.4380     0.4260     0.3780 O.3   1 <1>  -0.3630 
  2 C       -0.8030     0.9650     0.2610 C.ar  1 <1>   0.0830 
  3 C        1.5920     1.1870     0.1340 C.3   1 <1>   0.1200 
  4 C       -1.0470     2.2890    -0.0930 C.ar  1 <1>  -0.1500 
  5 C       -1.8710     0.1250     0.5160 C.ar  1 <1>  -0.1500 
  6 C        2.7910     0.2650     0.3480 C.3   1 <1>  -0.1600 
  7 C       -2.3460     2.7660    -0.1920 C.ar  1 <1>  -0.1440 
  8 C       -3.1670     0.5950     0.4190 C.ar  1 <1>  -0.1500 
  9 C        4.1000     1.0050     0.0860 C.3   1 <1>   0.3430 
 10 C       -3.4150     1.9130     0.0650 C.ar  1 <1>  -0.1440 
 11 C       -2.5740     4.2200    -0.5830 C.3   1 <1>  -0.0960 
 12 N        5.2590     0.1160     0.3750 N.4   1 <1>  -0.9590 
 13 C       -4.8570     2.3910    -0.0310 C.3   1 <1>  -0.0970 
 14 C        6.5570     0.8320     0.3530 C.3   1 <1>   0.3430 
 15 C        5.4090    -1.0210    -0.5690 C.3   1 <1>   0.3430 
 16 C        7.5950    -0.2730     0.2100 C.3   1 <1>  -0.1600 
 17 C        6.8550    -1.4660    -0.4010 C.3   1 <1>  -0.1600 
 18 H        1.6020     2.0130     0.8250 H     1 <1>   0.0800 
 19 H        1.5480     1.5440    -0.8810 H     1 <1>   0.0800 
 20 H       -0.2370     2.9600    -0.2950 H     1 <1>   0.1500 
 21 H       -1.6850    -0.8970     0.7910 H     1 <1>   0.1500 
 22 H        2.6950    -0.5700    -0.3230 H     1 <1>   0.0800 
 23 H        2.7700    -0.0870     1.3650 H     1 <1>   0.0800 
 24 H       -3.9840    -0.0750     0.6210 H     1 <1>   0.1500 
 25 H        4.1450     1.8740     0.7230 H     1 <1>   0.0800 
 26 H        4.1350     1.3360    -0.9400 H     1 <1>   0.0800 
 27 H       -1.6420     4.7300    -0.7440 H     1 <1>   0.0800 
 28 H       -3.1070     4.7310     0.1980 H     1 <1>   0.0800 
 29 H       -3.1470     4.2710    -1.4910 H     1 <1>   0.0800 
 30 H        5.1460    -0.2830     1.3170 H     1 <1>   0.4500 
 31 H       -5.0650     2.7350    -1.0270 H     1 <1>   0.0800 
 32 H       -5.0250     3.1950     0.6630 H     1 <1>   0.0800 
 33 H       -5.5430     1.5970     0.2020 H     1 <1>   0.0800 
 34 H        6.7130     1.4130     1.2480 H     1 <1>   0.0800 
 35 H        6.6030     1.4800    -0.5090 H     1 <1>   0.0800 
 36 H        5.2530    -0.6800    -1.5800 H     1 <1>   0.0800 
 37 H        4.7170    -1.8190    -0.3490 H     1 <1>   0.0800 
 38 H        7.9880    -0.5300     1.1780 H     1 <1>   0.0800 
 39 H        8.4100     0.0550    -0.4130 H     1 <1>   0.0800 
 40 H        7.2720    -1.7510    -1.3520 H     1 <1>   0.0800 
 41 H        6.9020    -2.3160     0.2590 H     1 <1>   0.0800 
@<TRIPOS>BOND
  1   1   2  1   
  2   1   3  1   
  3   2   4  ar  
  4   2   5  ar  
  5   3   6  1   
  6   3  18  1   
  7   3  19  1   
  8   4   7  ar  
  9   4  20  1   
 10   5   8  ar  
 11   5  21  1   
 12   6   9  1   
 13   6  22  1   
 14   6  23  1   
 15   7  10  ar  
 16   7  11  1   
 17   8  10  ar  
 18   8  24  1   
 19   9  12  1   
 20   9  25  1   
 21   9  26  1   
 22  10  13  1   
 23  11  27  1   
 24  11  28  1   
 25  11  29  1   
 26  12  14  1   
 27  12  15  1   
 28  12  30  1   
 29  13  31  1   
 30  13  32  1   
 31  13  33  1   
 32  14  16  1   
 33  14  34  1   
 34  14  35  1   
 35  15  17  1   
 36  15  36  1   
 37  15  37  1   
 38  16  17  1   
 39  16  38  1   
 40  16  39  1   
 41  17  40  1   
 42  17  41  1   
@<TRIPOS>SUBSTRUCTURE
  1 ****   3 GROUP 4 **** **** 0

# MOE 2024.06 (io_trps.svl 2023.06)
