@<TRIPOS>MOLECULE
NONAME
63 65 1 0 0 
SMALL
USER_CHARGES


@<TRIPOS>ATOM
  1 O       -6.3320     0.7140     1.0600 O.3   1 <1>  -0.5600 
  2 C       -5.5440    -0.3260     0.5420 C.3   1 <1>   0.2000 
  3 C       -7.3750     1.2090     0.2530 C.3   1 <1>   0.2640 
  4 C       -5.9190    -1.6160     1.3130 C.3   1 <1>   0.3430 
  5 C       -4.0430     0.0230     0.7190 C.3   1 <1>   0.3430 
  6 C       -8.2930     0.0860    -0.2100 C.ar  1 <1>  -0.1440 
  7 N       -5.7050    -2.9010     0.5600 N.4   1 <1>  -0.9590 
  8 N       -3.6970     1.4460     0.3750 N.4   1 <1>  -0.9590 
  9 C       -9.0460    -0.6290     0.7090 C.ar  1 <1>  -0.1500 
 10 C       -8.3970    -0.2210    -1.5600 C.ar  1 <1>  -0.1500 
 11 C       -6.7300    -3.0760    -0.5090 C.3   1 <1>   0.3430 
 12 C       -5.8010    -4.0650     1.4880 C.3   1 <1>   0.3430 
 13 C       -2.2940     1.5930    -0.0960 C.3   1 <1>   0.3430 
 14 C       -3.9310     2.3710     1.5240 C.3   1 <1>   0.3430 
 15 C       -9.8710    -1.6580     0.2890 C.ar  1 <1>  -0.1500 
 16 C       -9.2250    -1.2480    -1.9810 C.ar  1 <1>  -0.1500 
 17 C       -6.0840    -3.6300    -1.7780 C.3   1 <1>  -0.1600 
 18 C       -5.0250    -5.2670     0.9410 C.3   1 <1>  -0.1600 
 19 C       -2.2480     2.4990    -1.3270 C.3   1 <1>  -0.1600 
 20 C       -4.2580     3.7820     1.0270 C.3   1 <1>  -0.1600 
 21 C       -9.9580    -1.9700    -1.0560 C.ar  1 <1>  -0.1500 
 22 C       -5.0590    -4.7610    -1.5790 C.3   1 <1>  -0.1600 
 23 C       -5.4260    -5.7530    -0.4640 C.3   1 <1>  -0.1600 
 24 C       -3.1400     3.7540    -1.2860 C.3   1 <1>  -0.1600 
 25 C       -3.2190     4.4290     0.0920 C.3   1 <1>  -0.1600 
 26 H       -5.7590    -0.4380    -0.5060 H     1 <1>   0.0800 
 27 H       -6.9450     1.7290    -0.5850 H     1 <1>   0.0800 
 28 H       -7.9350     1.9180     0.8400 H     1 <1>   0.0800 
 29 H       -6.9600    -1.5540     1.5820 H     1 <1>   0.0800 
 30 H       -5.3540    -1.6410     2.2290 H     1 <1>   0.0800 
 31 H       -3.4730    -0.6420     0.0910 H     1 <1>   0.0800 
 32 H       -3.7510    -0.1730     1.7370 H     1 <1>   0.0800 
 33 H       -4.7840    -2.9650     0.1110 H     1 <1>   0.4500 
 34 H       -4.3030     1.7790    -0.3840 H     1 <1>   0.4500 
 35 H       -9.0040    -0.3790     1.7570 H     1 <1>   0.1500 
 36 H       -7.8490     0.3400    -2.2990 H     1 <1>   0.1500 
 37 H       -7.2030    -2.1390    -0.7360 H     1 <1>   0.0800 
 38 H       -7.5000    -3.7530    -0.1730 H     1 <1>   0.0800 
 39 H       -6.8340    -4.3350     1.6380 H     1 <1>   0.0800 
 40 H       -5.3860    -3.8040     2.4490 H     1 <1>   0.0800 
 41 H       -1.8730     0.6340    -0.3510 H     1 <1>   0.0800 
 42 H       -1.6890     2.0230     0.6870 H     1 <1>   0.0800 
 43 H       -3.0610     2.4010     2.1600 H     1 <1>   0.0800 
 44 H       -4.7620     2.0220     2.1170 H     1 <1>   0.0800 
 45 H      -10.4610    -2.2060     1.0060 H     1 <1>   0.1500 
 46 H       -9.3120    -1.4780    -3.0310 H     1 <1>   0.1500 
 47 H       -5.6240    -2.8260    -2.3260 H     1 <1>   0.0800 
 48 H       -6.8820    -4.0000    -2.3990 H     1 <1>   0.0800 
 49 H       -5.1790    -6.0830     1.6260 H     1 <1>   0.0800 
 50 H       -3.9710    -5.0510     0.9620 H     1 <1>   0.0800 
 51 H       -2.4930     1.9230    -2.2020 H     1 <1>   0.0800 
 52 H       -1.2260     2.8140    -1.4490 H     1 <1>   0.0800 
 53 H       -4.3560     4.4100     1.8960 H     1 <1>   0.0800 
 54 H       -5.2220     3.7740     0.5500 H     1 <1>   0.0800 
 55 H      -10.6100    -2.7620    -1.3850 H     1 <1>   0.1500 
 56 H       -4.0800    -4.3540    -1.3920 H     1 <1>   0.0800 
 57 H       -4.9870    -5.3050    -2.5080 H     1 <1>   0.0800 
 58 H       -6.4750    -5.9960    -0.5020 H     1 <1>   0.0800 
 59 H       -4.8910    -6.6690    -0.6530 H     1 <1>   0.0800 
 60 H       -4.1330     3.5190    -1.6300 H     1 <1>   0.0800 
 61 H       -2.7380     4.4640    -1.9900 H     1 <1>   0.0800 
 62 H       -2.2480     4.4590     0.5570 H     1 <1>   0.0800 
 63 H       -3.5190     5.4530    -0.0630 H     1 <1>   0.0800 
@<TRIPOS>BOND
  1   1   2  1   
  2   1   3  1   
  3   2   4  1   
  4   2   5  1   
  5   2  26  1   
  6   3   6  1   
  7   3  27  1   
  8   3  28  1   
  9   4   7  1   
 10   4  29  1   
 11   4  30  1   
 12   5   8  1   
 13   5  31  1   
 14   5  32  1   
 15   6   9  ar  
 16   6  10  ar  
 17   7  11  1   
 18   7  12  1   
 19   7  33  1   
 20   8  13  1   
 21   8  14  1   
 22   8  34  1   
 23   9  15  ar  
 24   9  35  1   
 25  10  16  ar  
 26  10  36  1   
 27  11  17  1   
 28  11  37  1   
 29  11  38  1   
 30  12  18  1   
 31  12  39  1   
 32  12  40  1   
 33  13  19  1   
 34  13  41  1   
 35  13  42  1   
 36  14  20  1   
 37  14  43  1   
 38  14  44  1   
 39  15  21  ar  
 40  15  45  1   
 41  16  21  ar  
 42  16  46  1   
 43  17  22  1   
 44  17  47  1   
 45  17  48  1   
 46  18  23  1   
 47  18  49  1   
 48  18  50  1   
 49  19  24  1   
 50  19  51  1   
 51  19  52  1   
 52  20  25  1   
 53  20  53  1   
 54  20  54  1   
 55  21  55  1   
 56  22  23  1   
 57  22  56  1   
 58  22  57  1   
 59  23  58  1   
 60  23  59  1   
 61  24  25  1   
 62  24  60  1   
 63  24  61  1   
 64  25  62  1   
 65  25  63  1   
@<TRIPOS>SUBSTRUCTURE
  1 ****   2 GROUP 4 **** **** 0

# MOE 2024.06 (io_trps.svl 2023.06)
