@<TRIPOS>MOLECULE
NONAME
42 43 1 0 0 
SMALL
USER_CHARGES


@<TRIPOS>ATOM
  1 F       -1.2550     0.5520    -1.4960 F     1 <1>  -0.1900 
  2 C       -0.6880     1.5280    -0.8370 C.ar  1 <1>   0.1900 
  3 C       -0.8780     1.6080     0.5290 C.ar  1 <1>  -0.1500 
  4 C        0.0790     2.4450    -1.5320 C.ar  1 <1>  -0.1500 
  5 C       -0.2740     2.6460     1.2190 C.ar  1 <1>  -0.1500 
  6 C        0.6790     3.4790    -0.8320 C.ar  1 <1>  -0.1500 
  7 C        0.5050     3.5810     0.5490 C.ar  1 <1>   0.0830 
  8 O        1.0560     4.5590     1.3140 O.3   1 <1>  -0.3630 
  9 C        2.0220     5.4680     0.8320 C.3   1 <1>   0.1200 
 10 C        3.3870     4.7710     0.7710 C.3   1 <1>  -0.1600 
 11 C        4.5000     5.7430     0.3550 C.3   1 <1>  -0.1600 
 12 C        5.8660     5.0400     0.3420 C.3   1 <1>  -0.1600 
 13 C        6.9810     6.0140    -0.0450 C.3   1 <1>   0.3430 
 14 N        8.3130     5.3590     0.0770 N.4   1 <1>  -0.9590 
 15 C        9.4160     6.3820     0.0250 C.3   1 <1>   0.3430 
 16 C        8.5390     4.3020    -0.9750 C.3   1 <1>   0.3430 
 17 C       10.8080     5.7190     0.0450 C.3   1 <1>   0.1200 
 18 C        9.9700     3.7350    -0.9120 C.3   1 <1>   0.1200 
 19 O       10.9060     4.7710    -0.9770 O.3   1 <1>  -0.5600 
 20 H       -1.4820     0.8780     1.0360 H     1 <1>   0.1500 
 21 H        0.1980     2.3460    -2.5960 H     1 <1>   0.1500 
 22 H       -0.4030     2.7380     2.2830 H     1 <1>   0.1500 
 23 H        1.2690     4.1900    -1.3770 H     1 <1>   0.1500 
 24 H        2.0570     6.2830     1.5340 H     1 <1>   0.0800 
 25 H        1.7070     5.8550    -0.1200 H     1 <1>   0.0800 
 26 H        3.3410     3.9550     0.0700 H     1 <1>   0.0800 
 27 H        3.6050     4.3690     1.7460 H     1 <1>   0.0800 
 28 H        4.5230     6.5670     1.0500 H     1 <1>   0.0800 
 29 H        4.2800     6.1350    -0.6240 H     1 <1>   0.0800 
 30 H        5.8240     4.2250    -0.3580 H     1 <1>   0.0800 
 31 H        6.0590     4.6450     1.3250 H     1 <1>   0.0800 
 32 H        6.9380     6.8660     0.6140 H     1 <1>   0.0800 
 33 H        6.8300     6.3630    -1.0550 H     1 <1>   0.0800 
 34 H        8.3620     4.9000     0.9960 H     1 <1>   0.4500 
 35 H        9.3340     7.0580     0.8600 H     1 <1>   0.0800 
 36 H        9.3340     6.9610    -0.8800 H     1 <1>   0.0800 
 37 H        8.3860     4.7250    -1.9540 H     1 <1>   0.0800 
 38 H        7.8350     3.4970    -0.8490 H     1 <1>   0.0800 
 39 H       10.9980     5.2360     0.9880 H     1 <1>   0.0800 
 40 H       11.5730     6.4580    -0.1220 H     1 <1>   0.0800 
 41 H       10.1470     3.0820    -1.7500 H     1 <1>   0.0800 
 42 H       10.1310     3.1770    -0.0050 H     1 <1>   0.0800 
@<TRIPOS>BOND
  1   1   2  1   
  2   2   3  ar  
  3   2   4  ar  
  4   3   5  ar  
  5   3  20  1   
  6   4   6  ar  
  7   4  21  1   
  8   5   7  ar  
  9   5  22  1   
 10   6   7  ar  
 11   6  23  1   
 12   7   8  1   
 13   8   9  1   
 14   9  10  1   
 15   9  24  1   
 16   9  25  1   
 17  10  11  1   
 18  10  26  1   
 19  10  27  1   
 20  11  12  1   
 21  11  28  1   
 22  11  29  1   
 23  12  13  1   
 24  12  30  1   
 25  12  31  1   
 26  13  14  1   
 27  13  32  1   
 28  13  33  1   
 29  14  15  1   
 30  14  16  1   
 31  14  34  1   
 32  15  17  1   
 33  15  35  1   
 34  15  36  1   
 35  16  18  1   
 36  16  37  1   
 37  16  38  1   
 38  17  19  1   
 39  17  39  1   
 40  17  40  1   
 41  18  19  1   
 42  18  41  1   
 43  18  42  1   
@<TRIPOS>SUBSTRUCTURE
  1 ****  10 GROUP 4 **** **** 0

# MOE 2024.06 (io_trps.svl 2023.06)
