@<TRIPOS>MOLECULE
NONAME
44 46 1 0 0 
SMALL
USER_CHARGES


@<TRIPOS>ATOM
  1 O        0.2500     0.3220     0.1090 O.2   1 <1>  -0.5700 
  2 C       -0.6850     1.0330    -0.1590 C.2   1 <1>   0.5690 
  3 N       -0.6550     2.3910    -0.1990 N.am  1 <1>  -0.4200 
  4 C       -2.0610     0.5090    -0.5190 C.3   1 <1>  -0.0190 
  5 C       -1.8600     2.9080    -0.5590 C.2   1 <1>   0.5690 
  6 C        0.5420     3.1970     0.1310 C.3   1 <1>   0.1400 
  7 C       -2.8720     1.8040    -0.7960 C.3   1 <1>  -0.0190 
  8 C       -2.6220    -0.4350     0.5620 C.3   1 <1>  -0.0220 
  9 O       -2.1130     4.0780    -0.6860 O.2   1 <1>  -0.5700 
 10 C        1.5110     3.2130    -1.0500 C.3   1 <1>  -0.0990 
 11 C       -4.1530     2.0020     0.0380 C.3   1 <1>  -0.0220 
 12 C       -4.1380    -0.4350     0.5470 C.2   1 <1>  -0.2880 
 13 C        2.8020     3.8670    -0.6290 C.2   1 <1>   0.5690 
 14 C       -4.8350     0.6760     0.3080 C.2   1 <1>  -0.2880 
 15 O        2.9120     5.0640    -0.7250 O.2   1 <1>  -0.5700 
 16 N        3.7910     3.0850    -0.1390 N.am  1 <1>  -0.7300 
 17 C        5.1370     3.5450     0.2760 C.3   1 <1>   0.1400 
 18 C        6.2080     2.5800    -0.2550 C.3   1 <1>   0.2000 
 19 O        5.8690     1.2640     0.0550 O.3   1 <1>  -0.5600 
 20 C        7.5860     2.7710     0.3580 C.3   1 <1>  -0.1600 
 21 C        7.0050     0.4570     0.0760 C.3   1 <1>   0.1200 
 22 C        8.2060     1.3920     0.2110 C.3   1 <1>  -0.1600 
 23 H       -1.9780    -0.0430    -1.4380 H     1 <1>   0.0800 
 24 H        1.0240     2.7660     0.9930 H     1 <1>   0.0800 
 25 H        0.2500     4.2050     0.3770 H     1 <1>   0.0800 
 26 H       -3.1430     1.8190    -1.8370 H     1 <1>   0.0800 
 27 H       -2.2910    -0.1280     1.5400 H     1 <1>   0.0800 
 28 H       -2.2490    -1.4290     0.3860 H     1 <1>   0.0800 
 29 H        1.0860     3.7710    -1.8640 H     1 <1>   0.0800 
 30 H        1.7190     2.2120    -1.3800 H     1 <1>   0.0800 
 31 H       -4.8190     2.6600    -0.4950 H     1 <1>   0.0800 
 32 H       -3.9210     2.4650     0.9820 H     1 <1>   0.0800 
 33 H       -4.5860    -1.3910     0.7670 H     1 <1>   0.1500 
 34 H       -5.9120     0.7220     0.3120 H     1 <1>   0.1500 
 35 H        3.6960     2.0640    -0.1000 H     1 <1>   0.3700 
 36 H        5.1790     3.5740     1.3500 H     1 <1>   0.0800 
 37 H        5.3210     4.5380    -0.0970 H     1 <1>   0.0800 
 38 H        6.2680     2.6540    -1.3280 H     1 <1>   0.0800 
 39 H        7.4920     3.0240     1.4000 H     1 <1>   0.0800 
 40 H        8.1490     3.5360    -0.1460 H     1 <1>   0.0800 
 41 H        7.0410    -0.1030    -0.8420 H     1 <1>   0.0800 
 42 H        6.9230    -0.2140     0.9140 H     1 <1>   0.0800 
 43 H        8.8160     1.1310     1.0580 H     1 <1>   0.0800 
 44 H        8.8030     1.3360    -0.6820 H     1 <1>   0.0800 
@<TRIPOS>BOND
  1   1   2  2   
  2   2   3  am  
  3   2   4  1   
  4   3   5  am  
  5   3   6  1   
  6   4   7  1   
  7   4   8  1   
  8   4  23  1   
  9   5   7  1   
 10   5   9  2   
 11   6  10  1   
 12   6  24  1   
 13   6  25  1   
 14   7  11  1   
 15   7  26  1   
 16   8  12  1   
 17   8  27  1   
 18   8  28  1   
 19  10  13  1   
 20  10  29  1   
 21  10  30  1   
 22  11  14  1   
 23  11  31  1   
 24  11  32  1   
 25  12  14  2   
 26  12  33  1   
 27  13  15  2   
 28  13  16  am  
 29  14  34  1   
 30  16  17  1   
 31  16  35  1   
 32  17  18  1   
 33  17  36  1   
 34  17  37  1   
 35  18  19  1   
 36  18  20  1   
 37  18  38  1   
 38  19  21  1   
 39  20  22  1   
 40  20  39  1   
 41  20  40  1   
 42  21  22  1   
 43  21  41  1   
 44  21  42  1   
 45  22  43  1   
 46  22  44  1   
@<TRIPOS>SUBSTRUCTURE
  1 ****   6 GROUP 4 **** **** 0

# MOE 2024.06 (io_trps.svl 2023.06)
