@<TRIPOS>MOLECULE
NONAME
40 43 1 0 0 
SMALL
USER_CHARGES


@<TRIPOS>ATOM
  1 BR      -0.1880    -0.4800     1.7390 Br    1 <1>  -0.1110 
  2 C        0.4830     1.2140     1.1150 C.ar  1 <1>   0.1110 
  3 C       -0.4180     2.1860     0.7290 C.ar  1 <1>  -0.1500 
  4 C        1.8470     1.4150     1.0690 C.ar  1 <1>  -0.1500 
  5 C        0.0550     3.4100     0.2800 C.ar  1 <1>  -0.1440 
  6 C        2.3150     2.6350     0.6170 C.ar  1 <1>  -0.1500 
  7 C        1.4360     3.6430     0.2200 C.ar  1 <1>   0.1170 
  8 C       -0.9670     4.4680    -0.1300 C.3   1 <1>  -0.0160 
  9 N        1.9110     4.8750    -0.2590 N.am  1 <1>  -0.5470 
 10 C       -1.2050     4.4420    -1.6420 C.3   1 <1>  -0.2400 
 11 C        3.0630     5.5590     0.0100 C.2   1 <1>   0.5690 
 12 O        3.9140     5.1680     0.7710 O.2   1 <1>  -0.5700 
 13 C        3.2500     6.9120    -0.6830 C.3   1 <1>  -0.0190 
 14 C        4.8450     7.5930    -0.4810 C.3   1 <1>  -0.0190 
 15 C        2.1850     8.1780    -0.0880 C.3   1 <1>  -0.0800 
 16 C        5.3810     8.8680    -1.2570 C.2   1 <1>   0.6590 
 17 C        4.6350     8.4930     0.7260 C.3   1 <1>  -0.0800 
 18 C        2.4630     9.7850     0.5620 C.3   1 <1>  -0.1600 
 19 C        3.3250     8.3090     0.3290 C.3   1 <1>  -0.1600 
 20 O        6.0690     8.8100    -2.2400 O.2   1 <1>  -0.5700 
 21 O        4.9510    10.0660    -0.7060 O.3   1 <1>  -0.4300 
 22 C        4.1970     9.9390     0.5550 C.3   1 <1>   0.2000 
 23 H       -1.4710     1.9780     0.7830 H     1 <1>   0.1500 
 24 H        2.5230     0.6380     1.3770 H     1 <1>   0.1500 
 25 H        3.3760     2.7980     0.5700 H     1 <1>   0.1500 
 26 H       -0.6400     5.4450     0.1790 H     1 <1>   0.0800 
 27 H       -1.9000     4.2810     0.3730 H     1 <1>   0.0800 
 28 H        1.2500     5.3550    -0.8650 H     1 <1>   0.3700 
 29 H       -0.2920     4.6270    -2.1780 H     1 <1>   0.0800 
 30 H       -1.9260     5.1910    -1.9170 H     1 <1>   0.0800 
 31 H       -1.5830     3.4780    -1.9370 H     1 <1>   0.0800 
 32 H        3.0810     6.7470    -1.7350 H     1 <1>   0.0800 
 33 H        5.6240     6.8660    -0.3350 H     1 <1>   0.0800 
 34 H        1.3920     7.7140     0.4930 H     1 <1>   0.0800 
 35 H        4.8650     8.1170     1.7140 H     1 <1>   0.0800 
 36 H        2.0730     9.8920     1.5670 H     1 <1>   0.0800 
 37 H        2.0120    10.5540    -0.0450 H     1 <1>   0.0800 
 38 H        3.2310     8.8090    -0.8780 H     1 <1>   0.0800 
 39 H        3.0440     7.8270     1.3070 H     1 <1>   0.0800 
 40 H        4.5980    10.6160     1.2910 H     1 <1>   0.0800 
@<TRIPOS>BOND
  1   1   2  1   
  2   2   3  ar  
  3   2   4  ar  
  4   3   5  ar  
  5   3  23  1   
  6   4   6  ar  
  7   4  24  1   
  8   5   7  ar  
  9   5   8  1   
 10   6   7  ar  
 11   6  25  1   
 12   7   9  1   
 13   8  10  1   
 14   8  26  1   
 15   8  27  1   
 16   9  11  am  
 17   9  28  1   
 18  10  29  1   
 19  10  30  1   
 20  10  31  1   
 21  11  12  2   
 22  11  13  1   
 23  13  14  1   
 24  13  15  1   
 25  13  32  1   
 26  14  16  1   
 27  14  17  1   
 28  14  33  1   
 29  15  18  1   
 30  15  19  1   
 31  15  34  1   
 32  16  20  2   
 33  16  21  1   
 34  17  19  1   
 35  17  22  1   
 36  17  35  1   
 37  18  22  1   
 38  18  36  1   
 39  18  37  1   
 40  19  38  1   
 41  19  39  1   
 42  21  22  1   
 43  22  40  1   
@<TRIPOS>SUBSTRUCTURE
  1 ****  11 GROUP 4 **** **** 0

# MOE 2024.06 (io_trps.svl 2023.06)
