@<TRIPOS>MOLECULE
NONAME
40 41 1 0 0 
SMALL
USER_CHARGES


@<TRIPOS>ATOM
  1 O       -0.1470     1.8300     2.4120 O.2   1 <1>  -0.5700 
  2 C        0.0260     2.0310     1.2240 C.2   1 <1>   0.6900 
  3 N        1.2420     2.4610     0.7740 N.am  1 <1>  -0.6600 
  4 N       -0.9770     1.9060     0.3100 N.am  1 <1>  -0.5470 
  5 C        2.1730     1.6450    -0.0650 C.3   1 <1>   0.2200 
  6 C        1.9280     3.5230     1.5520 C.3   1 <1>   0.1400 
  7 C       -2.2890     1.4210     0.3970 C.ar  1 <1>   0.1170 
  8 C        2.8680     2.5900    -1.0630 C.3   1 <1>  -0.1600 
  9 C        1.4870     0.4540    -0.7670 C.3   1 <1>  -0.1600 
 10 C        2.6180     4.4910     0.5870 C.3   1 <1>  -0.1600 
 11 C       -3.1820     1.7310    -0.6230 C.ar  1 <1>  -0.1500 
 12 C       -2.7380     0.6280     1.4470 C.ar  1 <1>  -0.1500 
 13 C        3.5800     3.7530    -0.3530 C.3   1 <1>  -0.1600 
 14 C        2.4670    -0.4940    -1.4740 C.3   1 <1>  -0.2400 
 15 C       -4.4880     1.2700    -0.6030 C.ar  1 <1>  -0.1430 
 16 C       -4.0400     0.1620     1.4770 C.ar  1 <1>  -0.1500 
 17 C       -4.9140     0.4820     0.4530 C.ar  1 <1>  -0.1500 
 18 C       -5.4510     1.6170    -1.7240 C.3   1 <1>  -0.0970 
 19 H       -0.7020     2.2850    -0.5890 H     1 <1>   0.3700 
 20 H        2.9240     1.2410     0.5940 H     1 <1>   0.0800 
 21 H        2.6500     3.0690     2.2090 H     1 <1>   0.0800 
 22 H        1.2120     4.0560     2.1560 H     1 <1>   0.0800 
 23 H        2.1360     2.9770    -1.7490 H     1 <1>   0.0800 
 24 H        3.5990     2.0480    -1.6340 H     1 <1>   0.0800 
 25 H        0.7760     0.8150    -1.4880 H     1 <1>   0.0800 
 26 H        0.9600    -0.1270    -0.0300 H     1 <1>   0.0800 
 27 H        3.1570     5.2310     1.1510 H     1 <1>   0.0800 
 28 H        1.8650     5.0020     0.0120 H     1 <1>   0.0800 
 29 H       -2.8480     2.3420    -1.4400 H     1 <1>   0.1500 
 30 H       -2.0700     0.3670     2.2480 H     1 <1>   0.1500 
 31 H        3.9750     4.4390    -1.0820 H     1 <1>   0.0800 
 32 H        4.4050     3.3660     0.2200 H     1 <1>   0.0800 
 33 H        2.9360    -0.0150    -2.3150 H     1 <1>   0.0800 
 34 H        1.9370    -1.3570    -1.8380 H     1 <1>   0.0800 
 35 H        3.2280    -0.8280    -0.7910 H     1 <1>   0.0800 
 36 H       -4.3710    -0.4490     2.2970 H     1 <1>   0.1500 
 37 H       -5.9250     0.1150     0.4830 H     1 <1>   0.1500 
 38 H       -5.0810     2.4420    -2.3060 H     1 <1>   0.0800 
 39 H       -6.4080     1.8920    -1.3160 H     1 <1>   0.0800 
 40 H       -5.5800     0.7670    -2.3690 H     1 <1>   0.0800 
@<TRIPOS>BOND
  1   1   2  2   
  2   2   3  am  
  3   2   4  am  
  4   3   5  1   
  5   3   6  1   
  6   4   7  1   
  7   4  19  1   
  8   5   8  1   
  9   5   9  1   
 10   5  20  1   
 11   6  10  1   
 12   6  21  1   
 13   6  22  1   
 14   7  11  ar  
 15   7  12  ar  
 16   8  13  1   
 17   8  23  1   
 18   8  24  1   
 19   9  14  1   
 20   9  25  1   
 21   9  26  1   
 22  10  13  1   
 23  10  27  1   
 24  10  28  1   
 25  11  15  ar  
 26  11  29  1   
 27  12  16  ar  
 28  12  30  1   
 29  13  31  1   
 30  13  32  1   
 31  14  33  1   
 32  14  34  1   
 33  14  35  1   
 34  15  17  ar  
 35  15  18  1   
 36  16  17  ar  
 37  16  36  1   
 38  17  37  1   
 39  18  38  1   
 40  18  39  1   
 41  18  40  1   
@<TRIPOS>SUBSTRUCTURE
  1 ****   4 GROUP 4 **** **** 0

# MOE 2024.06 (io_trps.svl 2023.06)
