@<TRIPOS>MOLECULE
NONAME
37 39 1 0 0 
SMALL
USER_CHARGES


@<TRIPOS>ATOM
  1 BR       0.1950     0.2340    -1.0900 Br    1 <1>  -0.1110 
  2 C        2.0530     0.0830    -0.6020 C.ar  1 <1>   0.1110 
  3 C        2.8030    -0.9460    -1.1370 C.ar  1 <1>  -0.1500 
  4 C        2.5900     1.0080     0.2720 C.ar  1 <1>  -0.1500 
  5 C        4.1360    -1.0460    -0.7820 C.ar  1 <1>  -0.1500 
  6 C        3.9250     0.8920     0.6190 C.ar  1 <1>  -0.1500 
  7 C        4.7140    -0.1330     0.1010 C.ar  1 <1>   0.1170 
  8 N        6.0640    -0.1950     0.4730 N.am  1 <1>  -0.5470 
  9 C        6.9400    -1.2420     0.5260 C.2   1 <1>   0.6900 
 10 O        6.5580    -2.3830     0.3520 O.2   1 <1>  -0.5700 
 11 N        8.2600    -0.9870     0.8100 N.am  1 <1>  -0.6600 
 12 C        8.9310     0.3310     0.6160 C.3   1 <1>   0.1400 
 13 C        9.1910    -2.0900     1.1840 C.3   1 <1>   0.1400 
 14 C        9.9940     0.2030    -0.4750 C.3   1 <1>  -0.1600 
 15 C       10.2570    -2.2510     0.1000 C.3   1 <1>  -0.1600 
 16 C       10.9710    -0.9210    -0.1480 C.3   1 <1>   0.5600 
 17 O       11.7200    -0.5570     0.9660 O.3   1 <1>  -0.5600 
 18 O       11.8860    -1.0400    -1.1810 O.3   1 <1>  -0.5600 
 19 C       13.0150    -1.0160     0.8110 C.3   1 <1>   0.1200 
 20 C       13.1160    -1.3870    -0.6560 C.3   1 <1>   0.1200 
 21 H        2.3540    -1.6510    -1.8150 H     1 <1>   0.1500 
 22 H        1.9750     1.7960     0.6700 H     1 <1>   0.1500 
 23 H        4.7330    -1.8400    -1.1950 H     1 <1>   0.1500 
 24 H        4.3560     1.6030     1.3000 H     1 <1>   0.1500 
 25 H        6.4430     0.6450     0.8930 H     1 <1>   0.3700 
 26 H        9.3940     0.6290     1.5420 H     1 <1>   0.0800 
 27 H        8.2270     1.0910     0.3300 H     1 <1>   0.0800 
 28 H        8.6570    -3.0170     1.3100 H     1 <1>   0.0800 
 29 H        9.6590    -1.8480     2.1230 H     1 <1>   0.0800 
 30 H       10.5340     1.1260    -0.5750 H     1 <1>   0.0800 
 31 H        9.5090    -0.0130    -1.4090 H     1 <1>   0.0800 
 32 H        9.7750    -2.5680    -0.8070 H     1 <1>   0.0800 
 33 H       10.9600    -3.0070     0.3930 H     1 <1>   0.0800 
 34 H       13.1670    -1.8690     1.4490 H     1 <1>   0.0800 
 35 H       13.6980    -0.2270     1.0740 H     1 <1>   0.0800 
 36 H       13.8850    -0.8320    -1.1640 H     1 <1>   0.0800 
 37 H       13.2680    -2.4430    -0.7870 H     1 <1>   0.0800 
@<TRIPOS>BOND
  1   1   2  1   
  2   2   3  ar  
  3   2   4  ar  
  4   3   5  ar  
  5   3  21  1   
  6   4   6  ar  
  7   4  22  1   
  8   5   7  ar  
  9   5  23  1   
 10   6   7  ar  
 11   6  24  1   
 12   7   8  1   
 13   8   9  am  
 14   8  25  1   
 15   9  10  2   
 16   9  11  am  
 17  11  12  1   
 18  11  13  1   
 19  12  14  1   
 20  12  26  1   
 21  12  27  1   
 22  13  15  1   
 23  13  28  1   
 24  13  29  1   
 25  14  16  1   
 26  14  30  1   
 27  14  31  1   
 28  15  16  1   
 29  15  32  1   
 30  15  33  1   
 31  16  17  1   
 32  16  18  1   
 33  17  19  1   
 34  18  20  1   
 35  19  20  1   
 36  19  34  1   
 37  19  35  1   
 38  20  36  1   
 39  20  37  1   
@<TRIPOS>SUBSTRUCTURE
  1 ****   9 GROUP 4 **** **** 0

# MOE 2024.06 (io_trps.svl 2023.06)
