@<TRIPOS>MOLECULE
NONAME
51 54 1 0 0 
SMALL
USER_CHARGES


@<TRIPOS>ATOM
  1 O       -2.3510     1.2780    -0.6820 O.3   1 <1>  -0.1650 
  2 C       -2.6600     0.4050     0.3100 C.ar  1 <1>   0.0830 
  3 C       -1.1440     1.8950    -0.7390 C.ar  1 <1>   0.0830 
  4 C       -3.9590     0.3960     0.7910 C.ar  1 <1>  -0.1500 
  5 C       -1.7250    -0.4810     0.8310 C.ar  1 <1>  -0.1500 
  6 C       -0.5650     2.0890    -1.9840 C.ar  1 <1>  -0.1500 
  7 C       -0.4940     2.3450     0.4040 C.ar  1 <1>  -0.1500 
  8 C       -4.3330    -0.4840     1.7950 C.ar  1 <1>  -0.1430 
  9 C       -2.0910    -1.3570     1.8370 C.ar  1 <1>  -0.1500 
 10 C        0.6640     2.7160    -2.0880 C.ar  1 <1>  -0.1500 
 11 C        0.7360     2.9720     0.2980 C.ar  1 <1>  -0.1500 
 12 C       -3.3900    -1.3570     2.3190 C.ar  1 <1>  -0.1500 
 13 C       -5.7680    -0.4910     2.3030 C.3   1 <1>   0.2530 
 14 C        1.3150     3.1550    -0.9470 C.ar  1 <1>  -0.1500 
 15 N       -6.7290    -0.7330     1.1970 N.3   1 <1>  -0.8100 
 16 C       -8.1550    -0.6850     1.6090 C.3   1 <1>   0.1900 
 17 C       -6.4310    -2.0150     0.5140 C.3   1 <1>   0.1100 
 18 C       -9.1200    -0.9520     0.4060 C.3   1 <1>   0.4230 
 19 C       -8.4890     0.6600     2.2730 C.3   1 <1>  -0.2400 
 20 C       -7.3110    -2.2110    -0.7310 C.3   1 <1>   0.3430 
 21 N       -8.7810    -2.1590    -0.4120 N.4   1 <1>  -0.9590 
 22 C       -9.2070     0.1650    -0.6350 C.3   1 <1>  -0.1600 
 23 C       -9.5750    -2.0270    -1.6590 C.3   1 <1>   0.3430 
 24 C       -9.6760    -0.5240    -1.9200 C.3   1 <1>  -0.1600 
 25 H       -4.6770     1.0800     0.3750 H     1 <1>   0.1500 
 26 H       -0.7180    -0.4900     0.4510 H     1 <1>   0.1500 
 27 H       -1.0790     1.7460    -2.8640 H     1 <1>   0.1500 
 28 H       -0.9470     2.2130     1.3700 H     1 <1>   0.1500 
 29 H       -1.3650    -2.0390     2.2450 H     1 <1>   0.1500 
 30 H        1.1140     2.8620    -3.0540 H     1 <1>   0.1500 
 31 H        1.2410     3.3180     1.1830 H     1 <1>   0.1500 
 32 H       -3.6580    -2.0440     3.1030 H     1 <1>   0.1500 
 33 H       -5.9470     0.4720     2.7470 H     1 <1>   0.0800 
 34 H       -5.8890    -1.2410     3.0660 H     1 <1>   0.0800 
 35 H        2.2720     3.6420    -1.0280 H     1 <1>   0.1500 
 36 H       -8.3290    -1.4590     2.3370 H     1 <1>   0.0800 
 37 H       -6.5640    -2.8390     1.1930 H     1 <1>   0.0800 
 38 H       -5.4070    -2.0270     0.1810 H     1 <1>   0.0800 
 39 H      -10.1100    -1.0860     0.8090 H     1 <1>   0.0800 
 40 H       -8.1370     1.4820     1.6730 H     1 <1>   0.0800 
 41 H       -8.0520     0.7260     3.2520 H     1 <1>   0.0800 
 42 H       -9.5530     0.7600     2.4000 H     1 <1>   0.0800 
 43 H       -7.0690    -3.1530    -1.1930 H     1 <1>   0.0800 
 44 H       -7.0650    -1.4280    -1.4300 H     1 <1>   0.0800 
 45 H       -9.0400    -3.0050     0.1070 H     1 <1>   0.4500 
 46 H       -8.2340     0.6040    -0.7820 H     1 <1>   0.0800 
 47 H       -9.8870     0.9370    -0.3220 H     1 <1>   0.0800 
 48 H      -10.5650    -2.4270    -1.5040 H     1 <1>   0.0800 
 49 H       -9.1120    -2.5440    -2.4840 H     1 <1>   0.0800 
 50 H       -9.0520    -0.2440    -2.7520 H     1 <1>   0.0800 
 51 H      -10.6930    -0.2640    -2.1560 H     1 <1>   0.0800 
@<TRIPOS>BOND
  1   1   2  1   
  2   1   3  1   
  3   2   4  ar  
  4   2   5  ar  
  5   3   6  ar  
  6   3   7  ar  
  7   4   8  ar  
  8   4  25  1   
  9   5   9  ar  
 10   5  26  1   
 11   6  10  ar  
 12   6  27  1   
 13   7  11  ar  
 14   7  28  1   
 15   8  12  ar  
 16   8  13  1   
 17   9  12  ar  
 18   9  29  1   
 19  10  14  ar  
 20  10  30  1   
 21  11  14  ar  
 22  11  31  1   
 23  12  32  1   
 24  13  15  1   
 25  13  33  1   
 26  13  34  1   
 27  14  35  1   
 28  15  16  1   
 29  15  17  1   
 30  16  18  1   
 31  16  19  1   
 32  16  36  1   
 33  17  20  1   
 34  17  37  1   
 35  17  38  1   
 36  18  21  1   
 37  18  22  1   
 38  18  39  1   
 39  19  40  1   
 40  19  41  1   
 41  19  42  1   
 42  20  21  1   
 43  20  43  1   
 44  20  44  1   
 45  21  23  1   
 46  21  45  1   
 47  22  24  1   
 48  22  46  1   
 49  22  47  1   
 50  23  24  1   
 51  23  48  1   
 52  23  49  1   
 53  24  50  1   
 54  24  51  1   
@<TRIPOS>SUBSTRUCTURE
  1 ****   4 GROUP 4 **** **** 0

# MOE 2024.06 (io_trps.svl 2023.06)
