@<TRIPOS>MOLECULE
NONAME
32 33 1 0 0 
SMALL
USER_CHARGES


@<TRIPOS>ATOM
  1 BR       0.7110    -0.9740     2.3960 Br    1 <1>  -0.1110 
  2 C        1.4420    -2.0240     0.9590 C.ar  1 <1>   0.1110 
  3 C        2.7500    -1.8070     0.5770 C.ar  1 <1>  -0.1500 
  4 C        0.6360    -2.9650     0.3510 C.ar  1 <1>  -0.1500 
  5 C        3.3070    -2.5550    -0.4620 C.ar  1 <1>   0.0540 
  6 C        1.1730    -3.7140    -0.6810 C.ar  1 <1>  -0.1500 
  7 C        4.6820    -2.3550    -0.8920 C.2   1 <1>   0.4620 
  8 C        2.4860    -3.5080    -1.0760 C.ar  1 <1>  -0.1500 
  9 N        5.2790    -3.0040    -1.8270 N.2   1 <1>  -0.4100 
 10 N        5.4850    -1.4450    -0.3330 N.2   1 <1>  -0.5650 
 11 O        6.4890    -2.5500    -1.9170 O.3   1 <1>  -0.0190 
 12 C        6.5520    -1.6260    -0.9940 C.2   1 <1>   0.2980 
 13 C        7.8500    -0.8560    -0.8080 C.3   1 <1>   0.0200 
 14 C        8.9380    -1.5970     0.0080 C.3   1 <1>   0.0000 
 15 C       10.1600    -0.6770     0.1520 C.3   1 <1>  -0.2400 
 16 C        8.4220    -1.9450     1.4140 C.3   1 <1>  -0.2400 
 17 C        9.3850    -2.8890    -0.6940 C.3   1 <1>  -0.2400 
 18 H        3.3330    -1.0610     1.0860 H     1 <1>   0.1500 
 19 H       -0.3790    -3.1060     0.6760 H     1 <1>   0.1500 
 20 H        0.5710    -4.4570    -1.1770 H     1 <1>   0.1500 
 21 H        2.8850    -4.1010    -1.8810 H     1 <1>   0.1500 
 22 H        7.6110     0.0680    -0.3110 H     1 <1>   0.0800 
 23 H        8.2330    -0.6040    -1.7790 H     1 <1>   0.0800 
 24 H        9.8940     0.2340     0.6580 H     1 <1>   0.0800 
 25 H       10.5610    -0.4240    -0.8140 H     1 <1>   0.0800 
 26 H       10.9350    -1.1620     0.7200 H     1 <1>   0.0800 
 27 H        8.0930    -1.0590     1.9280 H     1 <1>   0.0800 
 28 H        9.1980    -2.4080     1.9980 H     1 <1>   0.0800 
 29 H        7.5930    -2.6300     1.3600 H     1 <1>   0.0800 
 30 H        9.7100    -2.6850    -1.6980 H     1 <1>   0.0800 
 31 H        8.5830    -3.6050    -0.7340 H     1 <1>   0.0800 
 32 H       10.2010    -3.3440    -0.1600 H     1 <1>   0.0800 
@<TRIPOS>BOND
  1   1   2  1   
  2   2   3  ar  
  3   2   4  ar  
  4   3   5  ar  
  5   3  18  1   
  6   4   6  ar  
  7   4  19  1   
  8   5   7  1   
  9   5   8  ar  
 10   6   8  ar  
 11   6  20  1   
 12   7   9  2   
 13   7  10  1   
 14   8  21  1   
 15   9  11  1   
 16  10  12  2   
 17  11  12  1   
 18  12  13  1   
 19  13  14  1   
 20  13  22  1   
 21  13  23  1   
 22  14  15  1   
 23  14  16  1   
 24  14  17  1   
 25  15  24  1   
 26  15  25  1   
 27  15  26  1   
 28  16  27  1   
 29  16  28  1   
 30  16  29  1   
 31  17  30  1   
 32  17  31  1   
 33  17  32  1   
@<TRIPOS>SUBSTRUCTURE
  1 ****   7 GROUP 4 **** **** 0

# MOE 2024.06 (io_trps.svl 2023.06)
