@<TRIPOS>MOLECULE
NONAME
22 22 1 0 0 
SMALL
USER_CHARGES


@<TRIPOS>ATOM
  1 O       -2.1380    -0.9560     0.1570 O.3   1 <1>  -0.6800 
  2 C       -3.2910    -0.3190    -0.2810 C.3   1 <1>   0.2000 
  3 C       -3.2950     1.1130     0.2850 C.3   1 <1>   0.4230 
  4 C       -4.5340    -1.0790     0.1810 C.3   1 <1>  -0.1600 
  5 N       -2.0260     1.7840    -0.0520 N.4   1 <1>  -0.8530 
  6 C       -4.5090     1.8900    -0.2250 C.3   1 <1>  -0.1600 
  7 C       -5.7980    -0.3230    -0.2690 C.3   1 <1>  -0.1600 
  8 C       -5.7990     1.1510     0.1790 C.3   1 <1>  -0.1600 
  9 H       -2.1780    -1.9160    -0.0470 H     1 <1>   0.4000 
 10 H       -3.2680    -0.2960    -1.3580 H     1 <1>   0.0800 
 11 H       -3.3760     1.0320     1.3570 H     1 <1>   0.0800 
 12 H       -4.5450    -2.0680    -0.2460 H     1 <1>   0.0800 
 13 H       -4.5360    -1.1680     1.2550 H     1 <1>   0.0800 
 14 H       -1.9830     2.0310    -1.0430 H     1 <1>   0.4500 
 15 H       -1.2920     1.0820     0.1320 H     1 <1>   0.4500 
 16 H       -1.8600     2.6090     0.5290 H     1 <1>   0.4500 
 17 H       -4.5270     2.8780     0.2010 H     1 <1>   0.0800 
 18 H       -4.4760     1.9750    -1.2980 H     1 <1>   0.0800 
 19 H       -5.8740    -0.3650    -1.3430 H     1 <1>   0.0800 
 20 H       -6.6700    -0.8170     0.1290 H     1 <1>   0.0800 
 21 H       -5.9130     1.1890     1.2500 H     1 <1>   0.0800 
 22 H       -6.6520     1.6520    -0.2490 H     1 <1>   0.0800 
@<TRIPOS>BOND
  1   1   2  1   
  2   1   9  1   
  3   2   3  1   
  4   2   4  1   
  5   2  10  1   
  6   3   5  1   
  7   3   6  1   
  8   3  11  1   
  9   4   7  1   
 10   4  12  1   
 11   4  13  1   
 12   5  14  1   
 13   5  15  1   
 14   5  16  1   
 15   6   8  1   
 16   6  17  1   
 17   6  18  1   
 18   7   8  1   
 19   7  19  1   
 20   7  20  1   
 21   8  21  1   
 22   8  22  1   
@<TRIPOS>SUBSTRUCTURE
  1 ****   3 GROUP 4 **** **** 0

# MOE 2024.06 (io_trps.svl 2023.06)
