@<TRIPOS>MOLECULE
NONAME
46 48 1 0 0 
SMALL
USER_CHARGES


@<TRIPOS>ATOM
  1 O        0.6760    -0.3970    -1.1360 O.3   1 <1>  -0.3630 
  2 C        0.0440    -1.4480    -0.5260 C.ar  1 <1>   0.0830 
  3 C       -0.0090     0.4780    -2.0030 C.3   1 <1>   0.0400 
  4 C        0.7740    -2.2300     0.3880 C.ar  1 <1>   0.1000 
  5 C       -1.2880    -1.7570    -0.7860 C.ar  1 <1>  -0.1500 
  6 N        2.1170    -2.0130     0.7270 N.pl3 1 <1>  -0.8380 
  7 C        0.1360    -3.2950     1.0080 C.ar  1 <1>  -0.1500 
  8 C       -1.9010    -2.8260    -0.1540 C.ar  1 <1>  -0.1500 
  9 C        2.4080    -0.7340     1.4370 C.3   1 <1>   0.2090 
 10 C        3.1020    -2.2200    -0.3730 C.3   1 <1>   0.2090 
 11 C       -1.1870    -3.5960     0.7450 C.ar  1 <1>  -0.1500 
 12 C        3.8200    -0.7560     2.0440 C.3   1 <1>   0.1100 
 13 C        4.5390    -2.2750     0.1740 C.3   1 <1>   0.1100 
 14 N        4.8620    -1.0850     1.0290 N.pl3 1 <1>  -0.4870 
 15 N        5.6370    -0.0640     0.5660 N.2   1 <1>  -0.5030 
 16 C        6.8270    -0.2570     0.1210 C.2   1 <1>   0.3030 
 17 C        7.5940    -1.4840     0.1060 C.ar  1 <1>   0.0860 
 18 C        7.5350     0.9650    -0.4350 C.3   1 <1>  -0.1790 
 19 C        7.6830    -2.3000     1.2360 C.ar  1 <1>  -0.1500 
 20 C        8.2900    -1.9000    -1.0330 C.ar  1 <1>  -0.1500 
 21 C        8.4240    -3.4680     1.2350 C.ar  1 <1>  -0.1500 
 22 C        9.0330    -3.0660    -1.0420 C.ar  1 <1>  -0.1500 
 23 C        9.1020    -3.8530     0.0930 C.ar  1 <1>  -0.1500 
 24 H        0.6830     1.2340    -2.3270 H     1 <1>   0.0800 
 25 H       -0.8230     0.9330    -1.4680 H     1 <1>   0.0800 
 26 H       -0.3650    -0.0800    -2.8510 H     1 <1>   0.0800 
 27 H       -1.8720    -1.1830    -1.4790 H     1 <1>   0.1500 
 28 H        0.6990    -3.8890     1.7050 H     1 <1>   0.1500 
 29 H       -2.9310    -3.0580    -0.3610 H     1 <1>   0.1500 
 30 H        2.3370     0.0900     0.7490 H     1 <1>   0.0800 
 31 H        1.6820    -0.5850     2.2160 H     1 <1>   0.0800 
 32 H        2.8760    -3.1380    -0.8850 H     1 <1>   0.0800 
 33 H        3.0290    -1.4140    -1.0810 H     1 <1>   0.0800 
 34 H       -1.6570    -4.4280     1.2400 H     1 <1>   0.1500 
 35 H        3.8540    -1.4900     2.8270 H     1 <1>   0.0800 
 36 H        4.0370     0.2050     2.4740 H     1 <1>   0.0800 
 37 H        5.2170    -2.3270    -0.6560 H     1 <1>   0.0800 
 38 H        4.6570    -3.1660     0.7610 H     1 <1>   0.0800 
 39 H        8.5640     0.9700    -0.1270 H     1 <1>   0.0800 
 40 H        7.0660     1.8620    -0.0730 H     1 <1>   0.0800 
 41 H        7.4820     0.9620    -1.5080 H     1 <1>   0.0800 
 42 H        7.1550    -2.0030     2.1260 H     1 <1>   0.1500 
 43 H        8.2420    -1.3040    -1.9260 H     1 <1>   0.1500 
 44 H        8.4720    -4.0760     2.1220 H     1 <1>   0.1500 
 45 H        9.5600    -3.3640    -1.9330 H     1 <1>   0.1500 
 46 H        9.6800    -4.7620     0.0890 H     1 <1>   0.1500 
@<TRIPOS>BOND
  1   1   2  1   
  2   1   3  1   
  3   2   4  ar  
  4   2   5  ar  
  5   3  24  1   
  6   3  25  1   
  7   3  26  1   
  8   4   6  1   
  9   4   7  ar  
 10   5   8  ar  
 11   5  27  1   
 12   6   9  1   
 13   6  10  1   
 14   7  11  ar  
 15   7  28  1   
 16   8  11  ar  
 17   8  29  1   
 18   9  12  1   
 19   9  30  1   
 20   9  31  1   
 21  10  13  1   
 22  10  32  1   
 23  10  33  1   
 24  11  34  1   
 25  12  14  1   
 26  12  35  1   
 27  12  36  1   
 28  13  14  1   
 29  13  37  1   
 30  13  38  1   
 31  14  15  1   
 32  15  16  2   
 33  16  17  1   
 34  16  18  1   
 35  17  19  ar  
 36  17  20  ar  
 37  18  39  1   
 38  18  40  1   
 39  18  41  1   
 40  19  21  ar  
 41  19  42  1   
 42  20  22  ar  
 43  20  43  1   
 44  21  23  ar  
 45  21  44  1   
 46  22  23  ar  
 47  22  45  1   
 48  23  46  1   
@<TRIPOS>SUBSTRUCTURE
  1 ****  13 GROUP 4 **** **** 0

# MOE 2024.06 (io_trps.svl 2023.06)
