@<TRIPOS>MOLECULE
NONAME
31 31 1 0 0 
SMALL
USER_CHARGES


@<TRIPOS>ATOM
  1 S       -0.2760    -0.3020     0.4940 S.o2  1 <1>   1.3450 
  2 O        0.6530    -1.2580    -0.1530 O.co2 1 <1>  -0.8170 
  3 O       -0.5130    -0.5650     1.9330 O.co2 1 <1>  -0.8170 
  4 O       -0.0260     1.1200     0.1680 O.co2 1 <1>  -0.8170 
  5 C       -1.8640    -0.6630    -0.2650 C.3   1 <1>  -0.0550 
  6 C       -2.9350     0.2850     0.2590 C.3   1 <1>   0.1400 
  7 N       -4.2950    -0.2800     0.0020 N.am  1 <1>  -0.6600 
  8 C       -5.0330     0.1020    -1.0930 C.2   1 <1>   0.5690 
  9 C       -4.7920    -1.1730     1.0870 C.3   1 <1>   0.0600 
 10 O       -4.5910     0.8580    -1.9270 O.2   1 <1>  -0.5700 
 11 C       -6.4450    -0.4260    -1.3210 C.3   1 <1>   0.0450 
 12 C       -7.4360    -0.0530    -0.2200 C.ar  1 <1>  -0.1440 
 13 C       -7.4730     1.2400     0.2830 C.ar  1 <1>  -0.1500 
 14 C       -8.3120    -1.0020     0.2880 C.ar  1 <1>  -0.1500 
 15 C       -8.3660     1.5770     1.2850 C.ar  1 <1>  -0.1500 
 16 C       -9.2060    -0.6650     1.2890 C.ar  1 <1>  -0.1500 
 17 C       -9.2330     0.6250     1.7890 C.ar  1 <1>  -0.1500 
 18 H       -2.1270    -1.6740    -0.0330 H     1 <1>   0.0800 
 19 H       -1.7880    -0.5560    -1.3280 H     1 <1>   0.0800 
 20 H       -2.8220     1.2450    -0.2170 H     1 <1>   0.0800 
 21 H       -2.8050     0.4320     1.3180 H     1 <1>   0.0800 
 22 H       -5.3150    -0.5860     1.8220 H     1 <1>   0.0800 
 23 H       -3.9660    -1.6720     1.5650 H     1 <1>   0.0800 
 24 H       -5.4570    -1.9200     0.6930 H     1 <1>   0.0800 
 25 H       -6.3890    -1.4920    -1.4300 H     1 <1>   0.0800 
 26 H       -6.8100    -0.0290    -2.2500 H     1 <1>   0.0800 
 27 H       -6.8020     1.9900    -0.1020 H     1 <1>   0.1500 
 28 H       -8.3050    -2.0080    -0.0930 H     1 <1>   0.1500 
 29 H       -8.3840     2.5820     1.6700 H     1 <1>   0.1500 
 30 H       -9.8820    -1.4060     1.6790 H     1 <1>   0.1500 
 31 H       -9.9280     0.8870     2.5680 H     1 <1>   0.1500 
@<TRIPOS>BOND
  1   1   2  ar  
  2   1   3  ar  
  3   1   4  ar  
  4   1   5  1   
  5   5   6  1   
  6   5  18  1   
  7   5  19  1   
  8   6   7  1   
  9   6  20  1   
 10   6  21  1   
 11   7   8  am  
 12   7   9  1   
 13   8  10  2   
 14   8  11  1   
 15   9  22  1   
 16   9  23  1   
 17   9  24  1   
 18  11  12  1   
 19  11  25  1   
 20  11  26  1   
 21  12  13  ar  
 22  12  14  ar  
 23  13  15  ar  
 24  13  27  1   
 25  14  16  ar  
 26  14  28  1   
 27  15  17  ar  
 28  15  29  1   
 29  16  17  ar  
 30  16  30  1   
 31  17  31  1   
@<TRIPOS>SUBSTRUCTURE
  1 ****   7 GROUP 4 **** **** 0

# MOE 2024.06 (io_trps.svl 2023.06)
