@<TRIPOS>MOLECULE
NONAME
43 45 1 0 0 
SMALL
USER_CHARGES


@<TRIPOS>ATOM
  1 CL      -2.1190    -1.1240     1.9690 Cl    1 <1>  -0.1770 
  2 C       -1.3110    -2.4030     1.0960 C.ar  1 <1>   0.1770 
  3 C       -1.8220    -2.8710    -0.1130 C.ar  1 <1>   0.0860 
  4 C       -0.1540    -2.9210     1.6470 C.ar  1 <1>  -0.1500 
  5 C       -3.0320    -2.3460    -0.7060 C.2   1 <1>   0.5440 
  6 C       -1.1040    -3.8750    -0.7620 C.ar  1 <1>  -0.1500 
  7 C        0.5310    -3.9250     0.9880 C.ar  1 <1>  -0.1500 
  8 O       -2.9570    -1.8310    -1.8050 O.2   1 <1>  -0.5700 
  9 N       -4.2660    -2.4540    -0.1010 N.am  1 <1>  -0.6600 
 10 C        0.0630    -4.4100    -0.2290 C.ar  1 <1>  -0.0230 
 11 C       -4.5560    -3.3070     1.0940 C.3   1 <1>   0.1400 
 12 C       -5.4750    -1.7570    -0.6430 C.3   1 <1>   0.1400 
 13 N        0.7700    -5.4340    -0.9170 N.pl3 1 <1>   0.3260 
 14 C       -5.6780    -4.3130     0.7930 C.3   1 <1>   0.1400 
 15 C       -6.5950    -2.7620    -0.9550 C.3   1 <1>   0.1400 
 16 C        0.3000    -6.5530    -1.4840 C.2   1 <1>   0.0360 
 17 C        2.0840    -5.5470    -1.1530 C.2   1 <1>   0.0360 
 18 N       -6.8770    -3.6250     0.2320 N.am  1 <1>  -0.6600 
 19 N        1.2320    -7.2710    -2.0060 N.2   1 <1>  -0.3380 
 20 N        2.3800    -6.6240    -1.7930 N.2   1 <1>  -0.3380 
 21 C       -8.1080    -3.7210     0.8240 C.2   1 <1>   0.7800 
 22 O       -8.3050    -4.3930     1.8180 O.2   1 <1>  -0.5700 
 23 O       -9.1160    -3.0400     0.2760 O.3   1 <1>  -0.4300 
 24 C      -10.4090    -3.0930     0.8330 C.3   1 <1>   0.1200 
 25 C      -11.3250    -2.2130    -0.0120 C.3   1 <1>  -0.2400 
 26 H        0.2060    -2.5350     2.5860 H     1 <1>   0.1500 
 27 H       -1.4750    -4.2260    -1.7120 H     1 <1>   0.1500 
 28 H        1.4300    -4.3280     1.4260 H     1 <1>   0.1500 
 29 H       -4.8610    -2.6740     1.9100 H     1 <1>   0.0800 
 30 H       -3.6800    -3.8460     1.4040 H     1 <1>   0.0800 
 31 H       -5.2350    -1.2080    -1.5360 H     1 <1>   0.0800 
 32 H       -5.8290    -1.0500     0.0870 H     1 <1>   0.0800 
 33 H       -5.9330    -4.8400     1.6960 H     1 <1>   0.0800 
 34 H       -5.3260    -5.0370     0.0790 H     1 <1>   0.0800 
 35 H       -6.2900    -3.3830    -1.7790 H     1 <1>   0.0800 
 36 H       -7.4750    -2.2230    -1.2580 H     1 <1>   0.0800 
 37 H       -0.7430    -6.8060    -1.4870 H     1 <1>   0.1500 
 38 H        2.7940    -4.8060    -0.8370 H     1 <1>   0.1500 
 39 H      -10.3590    -2.7370     1.8480 H     1 <1>   0.0800 
 40 H      -10.7420    -4.1180     0.8240 H     1 <1>   0.0800 
 41 H      -10.9730    -1.1970    -0.0030 H     1 <1>   0.0800 
 42 H      -12.3210    -2.2350     0.3900 H     1 <1>   0.0800 
 43 H      -11.3550    -2.5750    -1.0240 H     1 <1>   0.0800 
@<TRIPOS>BOND
  1   1   2  1   
  2   2   3  ar  
  3   2   4  ar  
  4   3   5  1   
  5   3   6  ar  
  6   4   7  ar  
  7   4  26  1   
  8   5   8  2   
  9   5   9  am  
 10   6  10  ar  
 11   6  27  1   
 12   7  10  ar  
 13   7  28  1   
 14   9  11  1   
 15   9  12  1   
 16  10  13  1   
 17  11  14  1   
 18  11  29  1   
 19  11  30  1   
 20  12  15  1   
 21  12  31  1   
 22  12  32  1   
 23  13  16  1   
 24  13  17  1   
 25  14  18  1   
 26  14  33  1   
 27  14  34  1   
 28  15  18  1   
 29  15  35  1   
 30  15  36  1   
 31  16  19  2   
 32  16  37  1   
 33  17  20  2   
 34  17  38  1   
 35  18  21  am  
 36  19  20  1   
 37  21  22  2   
 38  21  23  1   
 39  23  24  1   
 40  24  25  1   
 41  24  39  1   
 42  24  40  1   
 43  25  41  1   
 44  25  42  1   
 45  25  43  1   
@<TRIPOS>SUBSTRUCTURE
  1 ****   9 GROUP 4 **** **** 0

# MOE 2024.06 (io_trps.svl 2023.06)
