@<TRIPOS>MOLECULE
NONAME
44 47 1 0 0 
SMALL
USER_CHARGES


@<TRIPOS>ATOM
  1 O       -0.4750     0.5080     1.1450 O.2   1 <1>  -0.5700 
  2 C       -0.8780     1.5600     0.7140 C.2   1 <1>   0.5690 
  3 N       -0.1360     2.6530     0.3690 N.am  1 <1>  -0.4770 
  4 C       -2.3420     1.7940     0.4730 C.3   1 <1>  -0.0990 
  5 C        1.2640     2.8180     0.4110 C.ar  1 <1>   0.1170 
  6 C       -1.0180     3.7350    -0.1170 C.3   1 <1>   0.1400 
  7 C       -2.3500     3.0350    -0.4320 C.3   1 <1>  -0.0190 
  8 C        1.8290     4.0560     0.7060 C.ar  1 <1>  -0.1500 
  9 C        2.1220     1.7540     0.1470 C.ar  1 <1>  -0.1500 
 10 C       -3.5830     3.9180    -0.2500 C.2   1 <1>   0.5690 
 11 C        3.2020     4.2270     0.7300 C.ar  1 <1>  -0.1500 
 12 C        3.4950     1.9190     0.1700 C.ar  1 <1>  -0.1500 
 13 O       -3.4270     5.0150     0.2320 O.2   1 <1>  -0.5700 
 14 N       -4.8280     3.4810    -0.6250 N.am  1 <1>  -0.6600 
 15 C        4.0380     3.1580     0.4610 C.ar  1 <1>  -0.1500 
 16 C       -6.0390     4.2860    -0.2830 C.3   1 <1>   0.2840 
 17 C       -5.1410     2.2320    -1.3720 C.3   1 <1>   0.1400 
 18 C       -7.2080     3.4160     0.1790 C.ar  1 <1>  -0.1430 
 19 C       -5.9740     1.3070    -0.4840 C.3   1 <1>  -0.0170 
 20 C       -7.1880     2.0280     0.0810 C.ar  1 <1>  -0.1430 
 21 C       -8.3270     4.0420     0.7070 C.ar  1 <1>  -0.1500 
 22 C       -8.2780     1.2890     0.5110 C.ar  1 <1>  -0.1500 
 23 C       -9.4140     3.3010     1.1340 C.ar  1 <1>  -0.1500 
 24 C       -9.3900     1.9220     1.0360 C.ar  1 <1>  -0.1500 
 25 H       -2.8200     1.9940     1.4150 H     1 <1>   0.0800 
 26 H       -2.7900     0.9390     0.0030 H     1 <1>   0.0800 
 27 H       -0.6050     4.2070    -0.9920 H     1 <1>   0.0800 
 28 H       -1.1290     4.4610     0.6700 H     1 <1>   0.0800 
 29 H       -2.2980     2.7260    -1.4600 H     1 <1>   0.0800 
 30 H        1.1970     4.8950     0.9280 H     1 <1>   0.1500 
 31 H        1.7130     0.7860    -0.0790 H     1 <1>   0.1500 
 32 H        3.6210     5.1910     0.9600 H     1 <1>   0.1500 
 33 H        4.1400     1.0830    -0.0350 H     1 <1>   0.1500 
 34 H        5.1070     3.2880     0.4790 H     1 <1>   0.1500 
 35 H       -6.3380     4.8440    -1.1530 H     1 <1>   0.0800 
 36 H       -5.8070     4.9890     0.4980 H     1 <1>   0.0800 
 37 H       -4.2520     1.7260    -1.6960 H     1 <1>   0.0800 
 38 H       -5.7130     2.4890    -2.2480 H     1 <1>   0.0800 
 39 H       -5.3690     0.9480     0.3280 H     1 <1>   0.0800 
 40 H       -6.2910     0.4590    -1.0640 H     1 <1>   0.0800 
 41 H       -8.3590     5.1150     0.7900 H     1 <1>   0.1500 
 42 H       -8.2670     0.2150     0.4430 H     1 <1>   0.1500 
 43 H      -10.2770     3.7960     1.5430 H     1 <1>   0.1500 
 44 H      -10.2340     1.3430     1.3690 H     1 <1>   0.1500 
@<TRIPOS>BOND
  1   1   2  2   
  2   2   3  am  
  3   2   4  1   
  4   3   5  1   
  5   3   6  1   
  6   4   7  1   
  7   4  25  1   
  8   4  26  1   
  9   5   8  ar  
 10   5   9  ar  
 11   6   7  1   
 12   6  27  1   
 13   6  28  1   
 14   7  10  1   
 15   7  29  1   
 16   8  11  ar  
 17   8  30  1   
 18   9  12  ar  
 19   9  31  1   
 20  10  13  2   
 21  10  14  am  
 22  11  15  ar  
 23  11  32  1   
 24  12  15  ar  
 25  12  33  1   
 26  14  16  1   
 27  14  17  1   
 28  15  34  1   
 29  16  18  1   
 30  16  35  1   
 31  16  36  1   
 32  17  19  1   
 33  17  37  1   
 34  17  38  1   
 35  18  20  ar  
 36  18  21  ar  
 37  19  20  1   
 38  19  39  1   
 39  19  40  1   
 40  20  22  ar  
 41  21  23  ar  
 42  21  41  1   
 43  22  24  ar  
 44  22  42  1   
 45  23  24  ar  
 46  23  43  1   
 47  24  44  1   
@<TRIPOS>SUBSTRUCTURE
  1 ****   7 GROUP 4 **** **** 0

# MOE 2024.06 (io_trps.svl 2023.06)
