@<TRIPOS>MOLECULE
NONAME
30 31 1 0 0 
SMALL
USER_CHARGES


@<TRIPOS>ATOM
  1 S        0.7230    -0.1970     1.0450 S.3   1 <1>  -0.0800 
  2 C        1.4220    -0.8470    -0.4010 C.2   1 <1>   0.4420 
  3 C       -0.8270    -0.6110     0.3990 C.2   1 <1>   0.1980 
  4 N        0.5320    -1.2960    -1.2090 N.2   1 <1>  -0.3380 
  5 N        2.7920    -0.8020    -0.4970 N.am  1 <1>  -0.4940 
  6 N       -0.7480    -1.1570    -0.7460 N.2   1 <1>  -0.3380 
  7 C       -2.0460    -0.2830     1.2480 C.3   1 <1>   0.0200 
  8 C        3.6430    -1.2210    -1.4830 C.2   1 <1>   0.7160 
  9 C       -3.3670    -0.6910     0.5830 C.3   1 <1>  -0.2400 
 10 O        3.2210    -1.7360    -2.5010 O.2   1 <1>  -0.5700 
 11 C        5.0590    -1.0170    -1.2510 C.2   1 <1>   0.2030 
 12 N        5.5700    -0.4650    -0.1620 N.2   1 <1>  -0.7070 
 13 C        6.0810    -1.3710    -2.1380 C.2   1 <1>  -0.1500 
 14 N        6.8980    -0.4640    -0.3500 N.pl3 1 <1>   0.3140 
 15 C        7.2290    -1.0070    -1.5370 C.2   1 <1>  -0.3020 
 16 C        7.8400     0.0740     0.6530 C.3   1 <1>   0.0960 
 17 C        8.3000     1.4890     0.2780 C.3   1 <1>  -0.2400 
 18 H        3.3030    -0.3930     0.2850 H     1 <1>   0.3700 
 19 H       -2.0570     0.7760     1.4370 H     1 <1>   0.0800 
 20 H       -1.9540    -0.7900     2.1910 H     1 <1>   0.0800 
 21 H       -3.4830    -0.1800    -0.3570 H     1 <1>   0.0800 
 22 H       -4.1980    -0.4400     1.2180 H     1 <1>   0.0800 
 23 H       -3.3780    -1.7510     0.3990 H     1 <1>   0.0800 
 24 H        5.9310    -1.8370    -3.0970 H     1 <1>   0.1500 
 25 H        8.2440    -1.1010    -1.8790 H     1 <1>   0.1500 
 26 H        8.6830    -0.5870     0.7200 H     1 <1>   0.0800 
 27 H        7.3420     0.0910     1.6060 H     1 <1>   0.0800 
 28 H        8.8120     1.4800    -0.6680 H     1 <1>   0.0800 
 29 H        8.9720     1.8640     1.0280 H     1 <1>   0.0800 
 30 H        7.4520     2.1490     0.2180 H     1 <1>   0.0800 
@<TRIPOS>BOND
  1   1   2  1   
  2   1   3  1   
  3   2   4  2   
  4   2   5  1   
  5   3   6  2   
  6   3   7  1   
  7   4   6  1   
  8   5   8  am  
  9   5  18  1   
 10   7   9  1   
 11   7  19  1   
 12   7  20  1   
 13   8  10  2   
 14   8  11  1   
 15   9  21  1   
 16   9  22  1   
 17   9  23  1   
 18  11  12  2   
 19  11  13  1   
 20  12  14  1   
 21  13  15  2   
 22  13  24  1   
 23  14  15  1   
 24  14  16  1   
 25  15  25  1   
 26  16  17  1   
 27  16  26  1   
 28  16  27  1   
 29  17  28  1   
 30  17  29  1   
 31  17  30  1   
@<TRIPOS>SUBSTRUCTURE
  1 ****   5 GROUP 4 **** **** 0

# MOE 2024.06 (io_trps.svl 2023.06)
