@<TRIPOS>MOLECULE
NONAME
51 53 1 0 0 
SMALL
USER_CHARGES


@<TRIPOS>ATOM
  1 S       -0.3280     0.0670    -0.3350 S.3   1 <1>  -0.3320 
  2 C       -1.8970    -0.7890    -0.5640 C.ar  1 <1>   0.1020 
  3 C        0.2970    -0.4090     1.3370 C.3   1 <1>  -0.0100 
  4 C       -2.5450    -0.6000    -1.7710 C.ar  1 <1>  -0.1500 
  5 C       -2.4440    -1.6050     0.4130 C.ar  1 <1>  -0.1500 
  6 C       -3.7550    -1.2300    -2.0060 C.ar  1 <1>  -0.1500 
  7 C       -3.6550    -2.2310     0.1710 C.ar  1 <1>  -0.1500 
  8 C       -4.3170    -2.0470    -1.0350 C.ar  1 <1>  -0.1430 
  9 C       -5.6510    -2.7380    -1.2850 C.3   1 <1>   0.2530 
 10 N       -6.6700    -2.2820    -0.3160 N.3   1 <1>  -0.8100 
 11 C       -7.9250    -3.0420    -0.4580 C.3   1 <1>   0.1100 
 12 C       -6.9070    -0.8240    -0.3990 C.3   1 <1>   0.1100 
 13 C       -8.9620    -2.6110     0.6000 C.3   1 <1>   0.3430 
 14 C       -7.9280    -0.3630     0.6590 C.3   1 <1>   0.3430 
 15 N       -9.2180    -1.1290     0.5610 N.4   1 <1>  -0.9590 
 16 C      -10.1830    -0.6950     1.5930 C.3   1 <1>   0.4810 
 17 C      -11.5430    -1.1850     1.1610 C.2   1 <1>  -0.2880 
 18 C      -12.4950    -0.4140     0.6080 C.2   1 <1>  -0.1780 
 19 C      -13.8120    -0.8190     0.1680 C.ar  1 <1>   0.0280 
 20 C      -14.5290    -0.0110    -0.7110 C.ar  1 <1>  -0.1500 
 21 C      -14.4110    -2.0040     0.5910 C.ar  1 <1>  -0.1500 
 22 C      -15.7870    -0.3730    -1.1580 C.ar  1 <1>  -0.1500 
 23 C      -15.6680    -2.3720     0.1470 C.ar  1 <1>  -0.1500 
 24 C      -16.3590    -1.5570    -0.7310 C.ar  1 <1>  -0.1500 
 25 H        1.2380     0.0900     1.4850 H     1 <1>   0.0800 
 26 H        0.4250    -1.4770     1.3520 H     1 <1>   0.0800 
 27 H       -0.4250    -0.0870     2.0650 H     1 <1>   0.0800 
 28 H       -2.1010     0.0350    -2.5160 H     1 <1>   0.1500 
 29 H       -1.9490    -1.7610     1.3510 H     1 <1>   0.1500 
 30 H       -4.2490    -1.0790    -2.9490 H     1 <1>   0.1500 
 31 H       -4.0890    -2.8630     0.9270 H     1 <1>   0.1500 
 32 H       -5.5060    -3.8000    -1.1800 H     1 <1>   0.0800 
 33 H       -5.9850    -2.5440    -2.2900 H     1 <1>   0.0800 
 34 H       -8.3340    -2.9030    -1.4440 H     1 <1>   0.0800 
 35 H       -7.7190    -4.0920    -0.3290 H     1 <1>   0.0800 
 36 H       -5.9840    -0.2960    -0.2220 H     1 <1>   0.0800 
 37 H       -7.2530    -0.5590    -1.3840 H     1 <1>   0.0800 
 38 H       -8.5870    -2.8890     1.5720 H     1 <1>   0.0800 
 39 H       -9.8800    -3.1490     0.4300 H     1 <1>   0.0800 
 40 H       -8.1130     0.6910     0.5340 H     1 <1>   0.0800 
 41 H       -7.4900    -0.5120     1.6320 H     1 <1>   0.0800 
 42 H       -9.6500    -0.9170    -0.3470 H     1 <1>   0.4500 
 43 H       -9.9200    -1.0860     2.5630 H     1 <1>   0.0800 
 44 H      -10.1980     0.3820     1.6470 H     1 <1>   0.0800 
 45 H      -11.6850    -2.2350     1.3410 H     1 <1>   0.1500 
 46 H      -12.3080     0.6340     0.4450 H     1 <1>   0.1500 
 47 H      -14.1030     0.9140    -1.0560 H     1 <1>   0.1500 
 48 H      -13.9020    -2.6500     1.2810 H     1 <1>   0.1500 
 49 H      -16.3240     0.2650    -1.8390 H     1 <1>   0.1500 
 50 H      -16.1140    -3.2920     0.4850 H     1 <1>   0.1500 
 51 H      -17.3370    -1.8420    -1.0770 H     1 <1>   0.1500 
@<TRIPOS>BOND
  1   1   2  1   
  2   1   3  1   
  3   2   4  ar  
  4   2   5  ar  
  5   3  25  1   
  6   3  26  1   
  7   3  27  1   
  8   4   6  ar  
  9   4  28  1   
 10   5   7  ar  
 11   5  29  1   
 12   6   8  ar  
 13   6  30  1   
 14   7   8  ar  
 15   7  31  1   
 16   8   9  1   
 17   9  10  1   
 18   9  32  1   
 19   9  33  1   
 20  10  11  1   
 21  10  12  1   
 22  11  13  1   
 23  11  34  1   
 24  11  35  1   
 25  12  14  1   
 26  12  36  1   
 27  12  37  1   
 28  13  15  1   
 29  13  38  1   
 30  13  39  1   
 31  14  15  1   
 32  14  40  1   
 33  14  41  1   
 34  15  16  1   
 35  15  42  1   
 36  16  17  1   
 37  16  43  1   
 38  16  44  1   
 39  17  18  2   
 40  17  45  1   
 41  18  19  1   
 42  18  46  1   
 43  19  20  ar  
 44  19  21  ar  
 45  20  22  ar  
 46  20  47  1   
 47  21  23  ar  
 48  21  48  1   
 49  22  24  ar  
 50  22  49  1   
 51  23  24  ar  
 52  23  50  1   
 53  24  51  1   
@<TRIPOS>SUBSTRUCTURE
  1 ****  15 GROUP 4 **** **** 0

# MOE 2024.06 (io_trps.svl 2023.06)
