@<TRIPOS>MOLECULE
NONAME
51 53 1 0 0 
SMALL
USER_CHARGES


@<TRIPOS>ATOM
  1 S        0.9920    -0.6840    -1.2660 S.o2  1 <1>   1.4470 
  2 O       -0.0420    -0.3210    -2.2090 O.2   1 <1>  -0.6500 
  3 O        2.1350    -1.4450    -1.7260 O.2   1 <1>  -0.6500 
  4 N        0.2660    -1.5890    -0.0290 N.am  1 <1>  -0.8490 
  5 C        1.5620     0.8130    -0.4100 C.ar  1 <1>  -0.0090 
  6 C        1.2570    -2.1650     0.8870 C.3   1 <1>   0.1960 
  7 C       -0.6100    -2.6310    -0.5750 C.3   1 <1>   0.1960 
  8 C        2.7920     1.3830    -0.7030 C.ar  1 <1>  -0.1500 
  9 C        0.7760     1.4350     0.5490 C.ar  1 <1>  -0.1500 
 10 C        0.5540    -2.8280     2.0760 C.3   1 <1>  -0.1600 
 11 C       -1.3750    -3.3290     0.5550 C.3   1 <1>  -0.1600 
 12 C        3.2680     2.5290    -0.0660 C.ar  1 <1>   0.0860 
 13 C        1.2140     2.5740     1.1990 C.ar  1 <1>  -0.1500 
 14 C       -0.4230    -3.9120     1.6070 C.3   1 <1>  -0.1600 
 15 C        2.4500     3.1210     0.9040 C.ar  1 <1>  -0.1440 
 16 C        4.5770     3.0470    -0.4230 C.2   1 <1>   0.5440 
 17 C        2.8940     4.3720     1.6530 C.3   1 <1>  -0.0970 
 18 O        4.7210     4.2080    -0.7470 O.2   1 <1>  -0.5700 
 19 N        5.6470     2.1850    -0.3950 N.am  1 <1>  -0.5470 
 20 C        7.0120     2.3010    -0.7130 C.ar  1 <1>   0.1170 
 21 C        7.7790     1.1290    -0.7160 C.ar  1 <1>   0.0820 
 22 C        7.6340     3.5070    -1.0160 C.ar  1 <1>  -0.1500 
 23 O        7.1350    -0.0390    -0.4130 O.3   1 <1>  -0.3620 
 24 C        9.1370     1.1840    -1.0200 C.ar  1 <1>  -0.1500 
 25 C        8.9830     3.5560    -1.3190 C.ar  1 <1>  -0.1500 
 26 C        7.7820    -1.2860    -0.5450 C.3   1 <1>   0.0400 
 27 C        9.7350     2.3950    -1.3210 C.ar  1 <1>  -0.1500 
 28 H        1.9080    -1.3900     1.2550 H     1 <1>   0.0800 
 29 H        1.8600    -2.8930     0.3680 H     1 <1>   0.0800 
 30 H       -0.0250    -3.3490    -1.1270 H     1 <1>   0.0800 
 31 H       -1.3250    -2.1910    -1.2500 H     1 <1>   0.0800 
 32 H        3.4040     0.9210    -1.4620 H     1 <1>   0.1500 
 33 H       -0.1910     1.0220     0.7880 H     1 <1>   0.1500 
 34 H        0.0250    -2.0740     2.6320 H     1 <1>   0.0800 
 35 H        1.2900    -3.2640     2.7290 H     1 <1>   0.0800 
 36 H       -1.9820    -4.1140     0.1420 H     1 <1>   0.0800 
 37 H       -2.0340    -2.6150     1.0170 H     1 <1>   0.0800 
 38 H        0.5780     3.0310     1.9390 H     1 <1>   0.1500 
 39 H       -0.9850    -4.2910     2.4430 H     1 <1>   0.0800 
 40 H        0.1290    -4.7290     1.1750 H     1 <1>   0.0800 
 41 H        3.8880     4.2420     2.0440 H     1 <1>   0.0800 
 42 H        2.2360     4.5910     2.4740 H     1 <1>   0.0800 
 43 H        2.8970     5.2160     0.9850 H     1 <1>   0.0800 
 44 H        5.4200     1.2280    -0.1220 H     1 <1>   0.3700 
 45 H        7.0720     4.4220    -1.0180 H     1 <1>   0.1500 
 46 H        9.7470     0.3020    -1.0270 H     1 <1>   0.1500 
 47 H        9.4450     4.4990    -1.5520 H     1 <1>   0.1500 
 48 H        7.0690    -2.0590    -0.3220 H     1 <1>   0.0800 
 49 H        8.6000    -1.3310     0.1520 H     1 <1>   0.0800 
 50 H        8.1310    -1.3930    -1.5580 H     1 <1>   0.0800 
 51 H       10.7840     2.4360    -1.5560 H     1 <1>   0.1500 
@<TRIPOS>BOND
  1   1   2  2   
  2   1   3  2   
  3   1   4  am  
  4   1   5  1   
  5   4   6  1   
  6   4   7  1   
  7   5   8  ar  
  8   5   9  ar  
  9   6  10  1   
 10   6  28  1   
 11   6  29  1   
 12   7  11  1   
 13   7  30  1   
 14   7  31  1   
 15   8  12  ar  
 16   8  32  1   
 17   9  13  ar  
 18   9  33  1   
 19  10  14  1   
 20  10  34  1   
 21  10  35  1   
 22  11  14  1   
 23  11  36  1   
 24  11  37  1   
 25  12  15  ar  
 26  12  16  1   
 27  13  15  ar  
 28  13  38  1   
 29  14  39  1   
 30  14  40  1   
 31  15  17  1   
 32  16  18  2   
 33  16  19  am  
 34  17  41  1   
 35  17  42  1   
 36  17  43  1   
 37  19  20  1   
 38  19  44  1   
 39  20  21  ar  
 40  20  22  ar  
 41  21  23  1   
 42  21  24  ar  
 43  22  25  ar  
 44  22  45  1   
 45  23  26  1   
 46  24  27  ar  
 47  24  46  1   
 48  25  27  ar  
 49  25  47  1   
 50  26  48  1   
 51  26  49  1   
 52  26  50  1   
 53  27  51  1   
@<TRIPOS>SUBSTRUCTURE
  1 ****   8 GROUP 4 **** **** 0

# MOE 2024.06 (io_trps.svl 2023.06)
