@<TRIPOS>MOLECULE
NONAME
36 37 1 0 0 
SMALL
USER_CHARGES


@<TRIPOS>ATOM
  1 CL       0.4930    -0.1140    -0.4510 Cl    1 <1>  -0.1770 
  2 C        1.9320    -1.0550    -0.2040 C.ar  1 <1>   0.7970 
  3 N        1.8840    -2.2800    -0.6340 N.ar  1 <1>  -0.6200 
  4 N        2.9130    -0.4390     0.3850 N.ar  1 <1>  -0.6200 
  5 C        2.9970    -2.9240    -0.4180 C.ar  1 <1>   0.7200 
  6 C        3.9550    -1.2070     0.5380 C.ar  1 <1>   0.7200 
  7 N        4.0670    -2.4510     0.1590 N.ar  1 <1>  -0.6200 
  8 N        2.9950    -4.2020    -0.8490 N.pl3 1 <1>  -0.8690 
  9 N        5.0030    -0.6240     1.1480 N.pl3 1 <1>  -0.8690 
 10 C        4.0100    -5.2290    -0.5790 C.3   1 <1>   0.2890 
 11 C        6.3760    -1.1300     1.0870 C.3   1 <1>   0.3470 
 12 C        4.2750    -6.0070    -1.8710 C.3   1 <1>  -0.1600 
 13 C        3.4950    -6.1530     0.5290 C.3   1 <1>  -0.1600 
 14 C        7.2470    -0.1350     1.8210 C.2   1 <1>  -0.2880 
 15 C        5.2470    -7.1720    -1.6310 C.3   1 <1>  -0.1600 
 16 C        4.4640    -7.3190     0.7770 C.3   1 <1>  -0.1600 
 17 C        8.2240     0.5970     1.2760 C.2   1 <1>  -0.3000 
 18 C        4.7370    -8.0980    -0.5180 C.3   1 <1>  -0.1600 
 19 H        2.1060    -4.5310    -1.2180 H     1 <1>   0.4000 
 20 H        4.9260     0.3850     1.2630 H     1 <1>   0.4000 
 21 H        4.9300    -4.7700    -0.2560 H     1 <1>   0.0800 
 22 H        6.6840    -1.2190     0.0580 H     1 <1>   0.0800 
 23 H        6.4320    -2.0980     1.5550 H     1 <1>   0.0800 
 24 H        4.6910    -5.3400    -2.6060 H     1 <1>   0.0800 
 25 H        3.3480    -6.3970    -2.2510 H     1 <1>   0.0800 
 26 H        2.5350    -6.5470     0.2490 H     1 <1>   0.0800 
 27 H        3.3810    -5.5850     1.4360 H     1 <1>   0.0800 
 28 H        6.9890    -0.0740     2.8650 H     1 <1>   0.1500 
 29 H        6.2120    -6.7810    -1.3550 H     1 <1>   0.0800 
 30 H        5.3680    -7.7350    -2.5410 H     1 <1>   0.0800 
 31 H        4.0480    -7.9820     1.5160 H     1 <1>   0.0800 
 32 H        5.3920    -6.9350     1.1640 H     1 <1>   0.0800 
 33 H        8.8270     1.2990     1.8280 H     1 <1>   0.1500 
 34 H        8.5050     0.5610     0.2370 H     1 <1>   0.1500 
 35 H        5.4650    -8.8680    -0.3280 H     1 <1>   0.0800 
 36 H        3.8290    -8.5780    -0.8420 H     1 <1>   0.0800 
@<TRIPOS>BOND
  1   1   2  1   
  2   2   3  ar  
  3   2   4  ar  
  4   3   5  ar  
  5   4   6  ar  
  6   5   7  ar  
  7   5   8  1   
  8   6   7  ar  
  9   6   9  1   
 10   8  10  1   
 11   8  19  1   
 12   9  11  1   
 13   9  20  1   
 14  10  12  1   
 15  10  13  1   
 16  10  21  1   
 17  11  14  1   
 18  11  22  1   
 19  11  23  1   
 20  12  15  1   
 21  12  24  1   
 22  12  25  1   
 23  13  16  1   
 24  13  26  1   
 25  13  27  1   
 26  14  17  2   
 27  14  28  1   
 28  15  18  1   
 29  15  29  1   
 30  15  30  1   
 31  16  18  1   
 32  16  31  1   
 33  16  32  1   
 34  17  33  1   
 35  17  34  1   
 36  18  35  1   
 37  18  36  1   
@<TRIPOS>SUBSTRUCTURE
  1 ****   7 GROUP 4 **** **** 0

# MOE 2024.06 (io_trps.svl 2023.06)
