@<TRIPOS>MOLECULE
NONAME
46 46 1 0 0 
SMALL
USER_CHARGES


@<TRIPOS>ATOM
  1 O       -0.2980    -0.5120     0.9690 O.3   1 <1>  -0.3630 
  2 C       -1.4720    -0.8900     0.3960 C.ar  1 <1>   0.0830 
  3 C        0.3680     0.6820     0.6210 C.3   1 <1>   0.0400 
  4 C       -1.9940    -2.1430     0.7200 C.ar  1 <1>  -0.1440 
  5 C       -2.1460    -0.0700    -0.4990 C.ar  1 <1>  -0.1500 
  6 C       -3.1850    -2.5760     0.1320 C.ar  1 <1>  -0.1430 
  7 C       -1.2310    -3.0300     1.7120 C.3   1 <1>  -0.0960 
  8 C       -3.3330    -0.4870    -1.0600 C.ar  1 <1>  -0.1500 
  9 C       -3.8660    -1.7260    -0.7420 C.ar  1 <1>  -0.1440 
 10 C       -3.7010    -3.9840     0.4460 C.3   1 <1>  -0.0970 
 11 C       -5.2030    -2.0860    -1.3600 C.3   1 <1>   0.4860 
 12 N       -6.2380    -1.9750    -0.2830 N.4   1 <1>  -0.9590 
 13 C       -7.5170    -2.6690    -0.6760 C.3   1 <1>   0.3430 
 14 C       -6.4130    -0.5300     0.1020 C.3   1 <1>   0.2630 
 15 C       -8.5650    -2.7810     0.4710 C.3   1 <1>   0.3430 
 16 N       -9.8620    -3.4520     0.0810 N.4   1 <1>  -0.9590 
 17 C      -10.8620    -3.3380     1.1980 C.3   1 <1>   0.2630 
 18 C       -9.7080    -4.9050    -0.2780 C.3   1 <1>   0.2630 
 19 H        1.2870     0.7250     1.1770 H     1 <1>   0.0800 
 20 H       -0.2550     1.5190     0.8830 H     1 <1>   0.0800 
 21 H        0.5800     0.6700    -0.4330 H     1 <1>   0.0800 
 22 H       -1.7600     0.8950    -0.7700 H     1 <1>   0.1500 
 23 H       -0.6100    -2.4490     2.3690 H     1 <1>   0.0800 
 24 H       -0.6010    -3.7140     1.1750 H     1 <1>   0.0800 
 25 H       -1.9000    -3.5860     2.3410 H     1 <1>   0.0800 
 26 H       -3.8300     0.1750    -1.7500 H     1 <1>   0.1500 
 27 H       -4.1080    -4.0150     1.4410 H     1 <1>   0.0800 
 28 H       -2.8880    -4.6870     0.3950 H     1 <1>   0.0800 
 29 H       -4.4400    -4.3290    -0.2480 H     1 <1>   0.0800 
 30 H       -5.1550    -3.0910    -1.7470 H     1 <1>   0.0800 
 31 H       -5.4270    -1.4180    -2.1750 H     1 <1>   0.0800 
 32 H       -5.7800    -2.4420     0.5180 H     1 <1>   0.4500 
 33 H       -7.2790    -3.6650    -1.0140 H     1 <1>   0.0800 
 34 H       -7.9620    -2.1350    -1.5000 H     1 <1>   0.0800 
 35 H       -6.7920     0.0420    -0.7290 H     1 <1>   0.0800 
 36 H       -5.4660    -0.1070     0.4010 H     1 <1>   0.0800 
 37 H       -7.0940    -0.4330     0.9320 H     1 <1>   0.0800 
 38 H       -8.7890    -1.7860     0.8200 H     1 <1>   0.0800 
 39 H       -8.1250    -3.3270     1.2900 H     1 <1>   0.0800 
 40 H      -10.2850    -2.9670    -0.7310 H     1 <1>   0.4500 
 41 H      -10.5030    -3.8420     2.0810 H     1 <1>   0.0800 
 42 H      -11.8000    -3.7850     0.9090 H     1 <1>   0.0800 
 43 H      -11.0420    -2.3030     1.4420 H     1 <1>   0.0800 
 44 H       -9.2990    -5.4580     0.5530 H     1 <1>   0.0800 
 45 H       -9.0580    -5.0240    -1.1290 H     1 <1>   0.0800 
 46 H      -10.6680    -5.3300    -0.5260 H     1 <1>   0.0800 
@<TRIPOS>BOND
  1   1   2  1   
  2   1   3  1   
  3   2   4  ar  
  4   2   5  ar  
  5   3  19  1   
  6   3  20  1   
  7   3  21  1   
  8   4   6  ar  
  9   4   7  1   
 10   5   8  ar  
 11   5  22  1   
 12   6   9  ar  
 13   6  10  1   
 14   7  23  1   
 15   7  24  1   
 16   7  25  1   
 17   8   9  ar  
 18   8  26  1   
 19   9  11  1   
 20  10  27  1   
 21  10  28  1   
 22  10  29  1   
 23  11  12  1   
 24  11  30  1   
 25  11  31  1   
 26  12  13  1   
 27  12  14  1   
 28  12  32  1   
 29  13  15  1   
 30  13  33  1   
 31  13  34  1   
 32  14  35  1   
 33  14  36  1   
 34  14  37  1   
 35  15  16  1   
 36  15  38  1   
 37  15  39  1   
 38  16  17  1   
 39  16  18  1   
 40  16  40  1   
 41  17  41  1   
 42  17  42  1   
 43  17  43  1   
 44  18  44  1   
 45  18  45  1   
 46  18  46  1   
@<TRIPOS>SUBSTRUCTURE
  1 ****   9 GROUP 4 **** **** 0

# MOE 2024.06 (io_trps.svl 2023.06)
