@<TRIPOS>MOLECULE
NONAME
34 35 1 0 0 
SMALL
USER_CHARGES


@<TRIPOS>ATOM
  1 F       -1.2450     1.1030    -2.2560 F     1 <1>  -0.1900 
  2 C       -1.7200     1.2770    -1.0470 C.ar  1 <1>   0.1900 
  3 C       -0.9370     1.9320    -0.0900 C.ar  1 <1>   0.1170 
  4 C       -2.9970     0.8040    -0.7930 C.ar  1 <1>  -0.1500 
  5 N        0.3610     2.3790    -0.3940 N.am  1 <1>  -0.5470 
  6 C       -1.4940     2.0990     1.1750 C.ar  1 <1>  -0.1500 
  7 C       -3.5360     0.9820     0.4710 C.ar  1 <1>  -0.1500 
  8 C        1.0820     3.4360     0.0860 C.2   1 <1>   0.5690 
  9 C       -2.7700     1.6280     1.4260 C.ar  1 <1>   0.1900 
 10 O        0.6040     4.2060     0.8900 O.2   1 <1>  -0.5700 
 11 C        2.4950     3.6960    -0.4890 C.3   1 <1>  -0.0190 
 12 F       -3.2790     1.7940     2.6180 F     1 <1>  -0.1900 
 13 C        3.5740     2.6110    -0.1780 C.3   1 <1>  -0.1860 
 14 C        3.0150     5.1250    -0.1500 C.3   1 <1>  -0.1600 
 15 C        3.0310     1.1890    -0.2150 C.2   1 <1>   0.9060 
 16 C        4.3680     2.9760     1.0930 C.3   1 <1>  -0.1600 
 17 C        4.5450     5.2230    -0.1570 C.3   1 <1>  -0.1600 
 18 O        3.1530     0.4390     0.7540 O.co2 1 <1>  -0.9000 
 19 O        2.4360     0.8430    -1.2440 O.co2 1 <1>  -0.9000 
 20 C        5.1510     4.2920     0.9120 C.3   1 <1>  -0.1600 
 21 H       -3.5490     0.3080    -1.5700 H     1 <1>   0.1500 
 22 H        0.9300     1.7140    -0.9610 H     1 <1>   0.3700 
 23 H       -0.9370     2.5820     1.9560 H     1 <1>   0.1500 
 24 H       -4.5220     0.6320     0.7140 H     1 <1>   0.1500 
 25 H        2.3650     3.6640    -1.5570 H     1 <1>   0.0800 
 26 H        4.2800     2.6240    -0.9870 H     1 <1>   0.0800 
 27 H        2.6930     5.4110     0.8360 H     1 <1>   0.0800 
 28 H        2.5920     5.8310    -0.8420 H     1 <1>   0.0800 
 29 H        5.0510     2.1800     1.3400 H     1 <1>   0.0800 
 30 H        3.6740     3.0680     1.9120 H     1 <1>   0.0800 
 31 H        4.8520     6.2360     0.0320 H     1 <1>   0.0800 
 32 H        4.9110     4.9440    -1.1300 H     1 <1>   0.0800 
 33 H        6.1660     4.0670     0.6330 H     1 <1>   0.0800 
 34 H        5.1800     4.8020     1.8590 H     1 <1>   0.0800 
@<TRIPOS>BOND
  1   1   2  1   
  2   2   3  ar  
  3   2   4  ar  
  4   3   5  1   
  5   3   6  ar  
  6   4   7  ar  
  7   4  21  1   
  8   5   8  am  
  9   5  22  1   
 10   6   9  ar  
 11   6  23  1   
 12   7   9  ar  
 13   7  24  1   
 14   8  10  2   
 15   8  11  1   
 16   9  12  1   
 17  11  13  1   
 18  11  14  1   
 19  11  25  1   
 20  13  15  1   
 21  13  16  1   
 22  13  26  1   
 23  14  17  1   
 24  14  27  1   
 25  14  28  1   
 26  15  18  ar  
 27  15  19  ar  
 28  16  20  1   
 29  16  29  1   
 30  16  30  1   
 31  17  20  1   
 32  17  31  1   
 33  17  32  1   
 34  20  33  1   
 35  20  34  1   
@<TRIPOS>SUBSTRUCTURE
  1 ****   5 GROUP 4 **** **** 0

# MOE 2024.06 (io_trps.svl 2023.06)
