@<TRIPOS>MOLECULE
NONAME
57 59 1 0 0 
SMALL
USER_CHARGES


@<TRIPOS>ATOM
  1 O       -0.4880    -0.7110    -1.1870 O.2   1 <1>  -0.5700 
  2 C       -1.1370    -1.6860    -0.8660 C.2   1 <1>   0.6900 
  3 N       -0.5130    -2.7640    -0.2460 N.am  1 <1>  -0.4200 
  4 N       -2.5010    -1.7170    -1.1100 N.am  1 <1>  -0.4360 
  5 C       -1.2420    -3.8570     0.2040 C.2   1 <1>   0.7030 
  6 C        0.9660    -2.7120    -0.0230 C.3   1 <1>   0.0600 
  7 C       -3.2160    -2.8100    -0.6600 C.2   1 <1>   0.4260 
  8 C       -3.1800    -0.5850    -1.8080 C.3   1 <1>   0.0600 
  9 O       -0.6890    -4.7750     0.7850 O.2   1 <1>  -0.5700 
 10 C       -2.6600    -3.8680    -0.0230 C.2   1 <1>   0.2770 
 11 N       -4.5500    -3.0260    -0.7500 N.pl3 1 <1>  -0.7000 
 12 N       -3.7080    -4.7510     0.2750 N.pl3 1 <1>  -0.7640 
 13 C       -4.8250    -4.1930    -0.1820 C.cat 1 <1>   0.6560 
 14 C       -3.5180    -6.0520     0.9700 C.3   1 <1>   0.3540 
 15 C       -6.2640    -4.7330    -0.1110 C.3   1 <1>   0.2540 
 16 C       -3.1150    -7.1190    -0.0510 C.3   1 <1>  -0.1600 
 17 N       -7.2700    -3.6510    -0.3030 N.3   1 <1>  -0.8100 
 18 C       -2.9510    -8.4960     0.6050 C.3   1 <1>  -0.2400 
 19 C       -8.5740    -4.2000    -0.7470 C.3   1 <1>   0.1100 
 20 C       -7.4620    -2.8560     0.9380 C.3   1 <1>   0.1100 
 21 C       -9.6080    -3.0890    -1.0050 C.3   1 <1>   0.1400 
 22 C       -8.4500    -1.6970     0.7260 C.3   1 <1>   0.1400 
 23 N       -9.7400    -2.2060     0.1880 N.am  1 <1>  -0.6600 
 24 C      -10.9390    -1.8920     0.7710 C.2   1 <1>   0.7800 
 25 O      -11.0200    -1.1960     1.7640 O.2   1 <1>  -0.5700 
 26 O      -12.0480    -2.3830     0.2140 O.3   1 <1>  -0.4300 
 27 C      -13.3160    -2.0950     0.7560 C.3   1 <1>   0.1200 
 28 C      -14.3660    -2.7990    -0.0970 C.3   1 <1>  -0.2400 
 29 H        1.4520    -2.2290    -0.8540 H     1 <1>   0.0800 
 30 H        1.3770    -3.7030     0.0750 H     1 <1>   0.0800 
 31 H        1.1770    -2.1550     0.8730 H     1 <1>   0.0800 
 32 H       -2.4780    -0.0410    -2.4180 H     1 <1>   0.0800 
 33 H       -3.5970     0.0910    -1.0820 H     1 <1>   0.0800 
 34 H       -3.9620    -0.9520    -2.4480 H     1 <1>   0.0800 
 35 H       -5.2840    -2.4360    -1.1520 H     1 <1>   0.4500 
 36 H       -4.4320    -6.3450     1.4600 H     1 <1>   0.0800 
 37 H       -2.7550    -5.9590     1.7260 H     1 <1>   0.0800 
 38 H       -6.4290    -5.2260     0.8310 H     1 <1>   0.0800 
 39 H       -6.3710    -5.4620    -0.8940 H     1 <1>   0.0800 
 40 H       -2.1800    -6.8430    -0.5060 H     1 <1>   0.0800 
 41 H       -3.8640    -7.1880    -0.8210 H     1 <1>   0.0800 
 42 H       -2.1860    -8.4670     1.3620 H     1 <1>   0.0800 
 43 H       -2.6620    -9.2220    -0.1350 H     1 <1>   0.0800 
 44 H       -3.8730    -8.8220     1.0560 H     1 <1>   0.0800 
 45 H       -8.9680    -4.8710    -0.0010 H     1 <1>   0.0800 
 46 H       -8.4420    -4.7570    -1.6590 H     1 <1>   0.0800 
 47 H       -6.5230    -2.4450     1.2660 H     1 <1>   0.0800 
 48 H       -7.8420    -3.4860     1.7260 H     1 <1>   0.0800 
 49 H      -10.5530    -3.5400    -1.2540 H     1 <1>   0.0800 
 50 H       -9.2950    -2.4970    -1.8470 H     1 <1>   0.0800 
 51 H       -8.0350    -0.9890     0.0300 H     1 <1>   0.0800 
 52 H       -8.6060    -1.1880     1.6610 H     1 <1>   0.0800 
 53 H      -13.4590    -1.0270     0.7420 H     1 <1>   0.0800 
 54 H      -13.3420    -2.4500     1.7730 H     1 <1>   0.0800 
 55 H      -14.3210    -2.4410    -1.1100 H     1 <1>   0.0800 
 56 H      -15.3460    -2.5970     0.2950 H     1 <1>   0.0800 
 57 H      -14.2040    -3.8620    -0.0820 H     1 <1>   0.0800 
@<TRIPOS>BOND
  1   1   2  2   
  2   2   3  am  
  3   2   4  am  
  4   3   5  am  
  5   3   6  1   
  6   4   7  1   
  7   4   8  1   
  8   5   9  2   
  9   5  10  1   
 10   6  29  1   
 11   6  30  1   
 12   6  31  1   
 13   7  10  2   
 14   7  11  1   
 15   8  32  1   
 16   8  33  1   
 17   8  34  1   
 18  10  12  1   
 19  11  13  ar  
 20  11  35  1   
 21  12  13  ar  
 22  12  14  1   
 23  13  15  1   
 24  14  16  1   
 25  14  36  1   
 26  14  37  1   
 27  15  17  1   
 28  15  38  1   
 29  15  39  1   
 30  16  18  1   
 31  16  40  1   
 32  16  41  1   
 33  17  19  1   
 34  17  20  1   
 35  18  42  1   
 36  18  43  1   
 37  18  44  1   
 38  19  21  1   
 39  19  45  1   
 40  19  46  1   
 41  20  22  1   
 42  20  47  1   
 43  20  48  1   
 44  21  23  1   
 45  21  49  1   
 46  21  50  1   
 47  22  23  1   
 48  22  51  1   
 49  22  52  1   
 50  23  24  am  
 51  24  25  2   
 52  24  26  1   
 53  26  27  1   
 54  27  28  1   
 55  27  53  1   
 56  27  54  1   
 57  28  55  1   
 58  28  56  1   
 59  28  57  1   
@<TRIPOS>SUBSTRUCTURE
  1 ****  13 GROUP 4 **** **** 0

# MOE 2024.06 (io_trps.svl 2023.06)
