@<TRIPOS>MOLECULE
NONAME
48 49 1 0 0 
SMALL
USER_CHARGES


@<TRIPOS>ATOM
  1 O        0.6290     0.7910    -1.4450 O.2   1 <1>  -0.5700 
  2 C        0.4650     1.5540    -0.5160 C.2   1 <1>   0.7800 
  3 O       -0.7110     2.1520    -0.3360 O.3   1 <1>  -0.4300 
  4 N        1.4760     1.8600     0.3590 N.am  1 <1>  -0.6600 
  5 C       -1.8000     1.8710    -1.1860 C.3   1 <1>   0.1200 
  6 C        2.8240     1.2400     0.2330 C.3   1 <1>   0.1400 
  7 C        1.3670     2.9270     1.3930 C.3   1 <1>   0.1400 
  8 C       -2.9920     2.7010    -0.7200 C.3   1 <1>  -0.2400 
  9 C        3.8830     2.3300    -0.0130 C.3   1 <1>   0.3430 
 10 C        2.4420     4.0050     1.1520 C.3   1 <1>   0.3430 
 11 N        3.8400     3.4260     1.0380 N.4   1 <1>  -0.9590 
 12 C        4.8750     4.4990     0.8910 C.3   1 <1>   0.4230 
 13 C        4.8370     5.1790    -0.4840 C.3   1 <1>  -0.1600 
 14 C        6.2720     3.9370     1.1620 C.3   1 <1>  -0.1600 
 15 C        5.9060     6.2720    -0.5740 C.3   1 <1>   0.3430 
 16 C        7.3290     5.0390     1.0580 C.3   1 <1>   0.3430 
 17 N        7.2530     5.7010    -0.2800 N.4   1 <1>  -0.9590 
 18 C        8.2890     6.7680    -0.4180 C.3   1 <1>   0.3430 
 19 C        9.6670     6.1330    -0.5620 C.3   1 <1>  -0.2400 
 20 H       -2.0180     0.8170    -1.1270 H     1 <1>   0.0800 
 21 H       -1.5240     2.1250    -2.1960 H     1 <1>   0.0800 
 22 H        2.8440     0.5370    -0.5840 H     1 <1>   0.0800 
 23 H        3.0520     0.6940     1.1320 H     1 <1>   0.0800 
 24 H        1.4910     2.4900     2.3690 H     1 <1>   0.0800 
 25 H        0.3950     3.3880     1.3680 H     1 <1>   0.0800 
 26 H       -3.2520     2.4430     0.2910 H     1 <1>   0.0800 
 27 H       -3.8390     2.5030    -1.3510 H     1 <1>   0.0800 
 28 H       -2.7610     3.7500    -0.7780 H     1 <1>   0.0800 
 29 H        3.7020     2.7490    -0.9890 H     1 <1>   0.0800 
 30 H        4.8550     1.8650    -0.0280 H     1 <1>   0.0800 
 31 H        2.4020     4.7170     1.9610 H     1 <1>   0.0800 
 32 H        2.1880     4.5260     0.2440 H     1 <1>   0.0800 
 33 H        4.0100     2.9540     1.9380 H     1 <1>   0.4500 
 34 H        4.6800     5.2540     1.6380 H     1 <1>   0.0800 
 35 H        3.8790     5.6400    -0.6450 H     1 <1>   0.0800 
 36 H        5.0080     4.4740    -1.2770 H     1 <1>   0.0800 
 37 H        6.5230     3.1570     0.4650 H     1 <1>   0.0800 
 38 H        6.3120     3.5270     2.1560 H     1 <1>   0.0800 
 39 H        5.6830     7.0580     0.1310 H     1 <1>   0.0800 
 40 H        5.8980     6.7020    -1.5640 H     1 <1>   0.0800 
 41 H        8.3080     4.6090     1.2030 H     1 <1>   0.0800 
 42 H        7.1710     5.7710     1.8350 H     1 <1>   0.0800 
 43 H        7.4790     5.0040    -1.0060 H     1 <1>   0.4500 
 44 H        8.2720     7.4260     0.4370 H     1 <1>   0.0800 
 45 H        8.0900     7.3580    -1.2990 H     1 <1>   0.0800 
 46 H        9.9650     5.6150     0.3310 H     1 <1>   0.0800 
 47 H       10.3910     6.9090    -0.7400 H     1 <1>   0.0800 
 48 H        9.6980     5.4610    -1.4020 H     1 <1>   0.0800 
@<TRIPOS>BOND
  1   1   2  2   
  2   2   3  1   
  3   2   4  am  
  4   3   5  1   
  5   4   6  1   
  6   4   7  1   
  7   5   8  1   
  8   5  20  1   
  9   5  21  1   
 10   6   9  1   
 11   6  22  1   
 12   6  23  1   
 13   7  10  1   
 14   7  24  1   
 15   7  25  1   
 16   8  26  1   
 17   8  27  1   
 18   8  28  1   
 19   9  11  1   
 20   9  29  1   
 21   9  30  1   
 22  10  11  1   
 23  10  31  1   
 24  10  32  1   
 25  11  12  1   
 26  11  33  1   
 27  12  13  1   
 28  12  14  1   
 29  12  34  1   
 30  13  15  1   
 31  13  35  1   
 32  13  36  1   
 33  14  16  1   
 34  14  37  1   
 35  14  38  1   
 36  15  17  1   
 37  15  39  1   
 38  15  40  1   
 39  16  17  1   
 40  16  41  1   
 41  16  42  1   
 42  17  18  1   
 43  17  43  1   
 44  18  19  1   
 45  18  44  1   
 46  18  45  1   
 47  19  46  1   
 48  19  47  1   
 49  19  48  1   
@<TRIPOS>SUBSTRUCTURE
  1 ****  11 GROUP 4 **** **** 0

# MOE 2024.06 (io_trps.svl 2023.06)
