@<TRIPOS>MOLECULE
NONAME
42 43 1 0 0 
SMALL
USER_CHARGES


@<TRIPOS>ATOM
  1 O       -0.2470     2.4690    -1.4570 O.2   1 <1>  -0.5700 
  2 C        0.1080     1.9040    -0.4400 C.2   1 <1>   0.6900 
  3 N        1.3990     1.9870     0.0050 N.am  1 <1>  -0.6600 
  4 N       -0.7560     1.1760     0.3210 N.am  1 <1>  -0.5470 
  5 C        2.5860     1.9980    -0.8940 C.3   1 <1>   0.2200 
  6 C        1.6530     2.6640     1.3030 C.3   1 <1>   0.1400 
  7 C       -2.1340     0.9020     0.2590 C.ar  1 <1>   0.1170 
  8 C        2.9620     3.4510    -1.2130 C.3   1 <1>  -0.1600 
  9 C        2.3870     1.1540    -2.1560 C.3   1 <1>  -0.2400 
 10 C        2.0380     4.1270     1.0440 C.3   1 <1>  -0.1600 
 11 C       -2.6480    -0.0820     1.1120 C.ar  1 <1>   0.0820 
 12 C       -3.0040     1.5660    -0.5970 C.ar  1 <1>  -0.1500 
 13 C        3.2250     4.2480     0.0740 C.3   1 <1>  -0.1600 
 14 O       -1.7630    -0.7090     1.9500 O.3   1 <1>  -0.3630 
 15 C       -4.0050    -0.3860     1.0880 C.ar  1 <1>  -0.1500 
 16 C       -4.3550     1.2650    -0.6220 C.ar  1 <1>   0.0820 
 17 C       -2.1720    -1.7810     2.7720 C.3   1 <1>   0.0400 
 18 C       -4.8560     0.2830     0.2250 C.ar  1 <1>  -0.1500 
 19 O       -5.1230     1.9700    -1.4950 O.3   1 <1>  -0.3620 
 20 C       -6.5040     1.7170    -1.6230 C.3   1 <1>   0.0400 
 21 H       -0.2790     0.6310     1.0350 H     1 <1>   0.3700 
 22 H        3.4030     1.5560    -0.3490 H     1 <1>   0.0800 
 23 H        2.4500     2.1560     1.8190 H     1 <1>   0.0800 
 24 H        0.7720     2.6300     1.9220 H     1 <1>   0.0800 
 25 H        2.1580     3.9060    -1.7680 H     1 <1>   0.0800 
 26 H        3.8410     3.4690    -1.8320 H     1 <1>   0.0800 
 27 H        1.6780     1.6110    -2.8220 H     1 <1>   0.0800 
 28 H        2.0470     0.1690    -1.8940 H     1 <1>   0.0800 
 29 H        3.3200     1.0640    -2.6810 H     1 <1>   0.0800 
 30 H        2.2810     4.6030     1.9760 H     1 <1>   0.0800 
 31 H        1.1850     4.6360     0.6280 H     1 <1>   0.0800 
 32 H       -2.6410     2.3300    -1.2580 H     1 <1>   0.1500 
 33 H        3.3920     5.2840    -0.1680 H     1 <1>   0.0800 
 34 H        4.1130     3.8710     0.5510 H     1 <1>   0.0800 
 35 H       -4.4230    -1.1360     1.7310 H     1 <1>   0.1500 
 36 H       -1.3110    -2.1410     3.3050 H     1 <1>   0.0800 
 37 H       -2.5710    -2.5640     2.1520 H     1 <1>   0.0800 
 38 H       -2.9100    -1.4250     3.4690 H     1 <1>   0.0800 
 39 H       -5.8980     0.0280     0.2280 H     1 <1>   0.1500 
 40 H       -6.8950     2.3790    -2.3750 H     1 <1>   0.0800 
 41 H       -6.9830     1.9120    -0.6800 H     1 <1>   0.0800 
 42 H       -6.6450     0.6950    -1.9260 H     1 <1>   0.0800 
@<TRIPOS>BOND
  1   1   2  2   
  2   2   3  am  
  3   2   4  am  
  4   3   5  1   
  5   3   6  1   
  6   4   7  1   
  7   4  21  1   
  8   5   8  1   
  9   5   9  1   
 10   5  22  1   
 11   6  10  1   
 12   6  23  1   
 13   6  24  1   
 14   7  11  ar  
 15   7  12  ar  
 16   8  13  1   
 17   8  25  1   
 18   8  26  1   
 19   9  27  1   
 20   9  28  1   
 21   9  29  1   
 22  10  13  1   
 23  10  30  1   
 24  10  31  1   
 25  11  14  1   
 26  11  15  ar  
 27  12  16  ar  
 28  12  32  1   
 29  13  33  1   
 30  13  34  1   
 31  14  17  1   
 32  15  18  ar  
 33  15  35  1   
 34  16  18  ar  
 35  16  19  1   
 36  17  36  1   
 37  17  37  1   
 38  17  38  1   
 39  18  39  1   
 40  19  20  1   
 41  20  40  1   
 42  20  41  1   
 43  20  42  1   
@<TRIPOS>SUBSTRUCTURE
  1 ****   4 GROUP 4 **** **** 0

# MOE 2024.06 (io_trps.svl 2023.06)
