@<TRIPOS>MOLECULE
NONAME
41 43 1 0 0 
SMALL
USER_CHARGES


@<TRIPOS>ATOM
  1 O       -0.1950     0.8550    -0.4570 O.2   1 <1>  -0.5700 
  2 C       -1.3300     1.2710    -0.3110 C.2   1 <1>   0.8060 
  3 O       -2.3230     0.3770    -0.4010 O.3   1 <1>  -0.2320 
  4 C       -1.7030     2.6440    -0.0580 C.2   1 <1>   0.1410 
  5 C       -3.6300     0.6820    -0.1990 C.ar  1 <1>   0.0830 
  6 N       -0.9030     3.7400     0.0370 N.2   1 <1>  -0.5650 
  7 C       -3.0130     3.0080     0.1060 C.2   1 <1>  -0.2050 
  8 C       -4.0390     1.9960     0.0880 C.ar  1 <1>   0.0530 
  9 C       -4.5460    -0.3550    -0.2710 C.ar  1 <1>  -0.1500 
 10 C       -1.7150     4.7160     0.2300 C.2   1 <1>   0.0370 
 11 N       -3.0210     4.3540     0.2590 N.pl3 1 <1>   0.0480 
 12 C       -5.3970     2.2020     0.3480 C.ar  1 <1>  -0.1500 
 13 C       -5.8850    -0.1170    -0.0360 C.ar  1 <1>  -0.1500 
 14 C       -4.1950     5.2560     0.3290 C.3   1 <1>   0.0960 
 15 C       -6.3070     1.1640     0.2800 C.ar  1 <1>  -0.1500 
 16 C       -3.8240     6.7090    -0.0100 C.3   1 <1>   0.3430 
 17 N       -4.9960     7.6520     0.0390 N.4   1 <1>  -0.9590 
 18 C       -6.0050     7.3750    -1.0260 C.3   1 <1>   0.3430 
 19 C       -4.5120     9.0600    -0.0400 C.3   1 <1>   0.3430 
 20 C       -7.2520     6.7970    -0.3710 C.3   1 <1>  -0.2400 
 21 C       -5.5930    10.0010     0.4780 C.3   1 <1>  -0.2400 
 22 H       -4.2050    -1.3490    -0.5050 H     1 <1>   0.1500 
 23 H       -1.3750     5.7290     0.3530 H     1 <1>   0.1500 
 24 H       -5.7660     3.1670     0.6170 H     1 <1>   0.1500 
 25 H       -6.5970    -0.9230    -0.0910 H     1 <1>   0.1500 
 26 H       -4.6040     5.1970     1.3210 H     1 <1>   0.0800 
 27 H       -4.9150     4.9030    -0.3850 H     1 <1>   0.0800 
 28 H       -7.3510     1.3400     0.4770 H     1 <1>   0.1500 
 29 H       -3.3840     6.7390    -0.9940 H     1 <1>   0.0800 
 30 H       -3.0820     7.0410     0.6990 H     1 <1>   0.0800 
 31 H       -5.4700     7.5620     0.9480 H     1 <1>   0.4500 
 32 H       -5.6110     6.6840    -1.7540 H     1 <1>   0.0800 
 33 H       -6.2670     8.2860    -1.5400 H     1 <1>   0.0800 
 34 H       -4.2530     9.3140    -1.0570 H     1 <1>   0.0800 
 35 H       -3.6310     9.1800     0.5710 H     1 <1>   0.0800 
 36 H       -7.0440     5.8720     0.1340 H     1 <1>   0.0800 
 37 H       -7.9880     6.6000    -1.1310 H     1 <1>   0.0800 
 38 H       -7.6790     7.5000     0.3220 H     1 <1>   0.0800 
 39 H       -6.4730     9.9760    -0.1400 H     1 <1>   0.0800 
 40 H       -5.2160    11.0090     0.4650 H     1 <1>   0.0800 
 41 H       -5.8560     9.7630     1.4930 H     1 <1>   0.0800 
@<TRIPOS>BOND
  1   1   2  2   
  2   2   3  1   
  3   2   4  1   
  4   3   5  1   
  5   4   6  1   
  6   4   7  2   
  7   5   8  ar  
  8   5   9  ar  
  9   6  10  2   
 10   7   8  1   
 11   7  11  1   
 12   8  12  ar  
 13   9  13  ar  
 14   9  22  1   
 15  10  11  1   
 16  10  23  1   
 17  11  14  1   
 18  12  15  ar  
 19  12  24  1   
 20  13  15  ar  
 21  13  25  1   
 22  14  16  1   
 23  14  26  1   
 24  14  27  1   
 25  15  28  1   
 26  16  17  1   
 27  16  29  1   
 28  16  30  1   
 29  17  18  1   
 30  17  19  1   
 31  17  31  1   
 32  18  20  1   
 33  18  32  1   
 34  18  33  1   
 35  19  21  1   
 36  19  34  1   
 37  19  35  1   
 38  20  36  1   
 39  20  37  1   
 40  20  38  1   
 41  21  39  1   
 42  21  40  1   
 43  21  41  1   
@<TRIPOS>SUBSTRUCTURE
  1 ****  11 GROUP 4 **** **** 0

# MOE 2024.06 (io_trps.svl 2023.06)
