@<TRIPOS>MOLECULE
NONAME
32 33 1 0 0 
SMALL
USER_CHARGES


@<TRIPOS>ATOM
  1 I       -0.1710     0.0070    -1.1730 I     1 <1>  -0.0810 
  2 C        1.6230    -0.9440    -0.5470 C.ar  1 <1>   0.0810 
  3 C        2.8330    -0.3490    -0.8490 C.ar  1 <1>  -0.1500 
  4 C        1.5390    -2.1340     0.1490 C.ar  1 <1>  -0.1500 
  5 C        3.9960    -0.9760    -0.4380 C.ar  1 <1>  -0.1500 
  6 C        2.7150    -2.7440     0.5490 C.ar  1 <1>  -0.1500 
  7 C        3.9660    -2.1880     0.2620 C.ar  1 <1>   0.0860 
  8 C        5.1850    -2.8580     0.6830 C.2   1 <1>   0.5440 
  9 O        5.1930    -3.5660     1.6700 O.2   1 <1>  -0.5700 
 10 N        6.3390    -2.7160    -0.0360 N.am  1 <1>  -0.7300 
 11 C        7.6350    -3.3340     0.2900 C.3   1 <1>   0.2200 
 12 C        8.7040    -2.2370     0.3500 C.3   1 <1>  -0.1600 
 13 C        7.9690    -4.3790    -0.7790 C.3   1 <1>  -0.1600 
 14 C       10.1000    -2.8350     0.5800 C.3   1 <1>  -0.1600 
 15 C        9.3630    -4.9800    -0.5520 C.3   1 <1>  -0.1600 
 16 C       10.4370    -3.8850    -0.4880 C.3   1 <1>  -0.1600 
 17 H        2.8640     0.5830    -1.3870 H     1 <1>   0.1500 
 18 H        0.5830    -2.5730     0.3750 H     1 <1>   0.1500 
 19 H        4.9410    -0.5120    -0.6560 H     1 <1>   0.1500 
 20 H        2.6730    -3.6710     1.0960 H     1 <1>   0.1500 
 21 H        6.3140    -2.2280    -0.9290 H     1 <1>   0.3700 
 22 H        7.5790    -3.8200     1.2510 H     1 <1>   0.0800 
 23 H        8.4710    -1.5600     1.1530 H     1 <1>   0.0800 
 24 H        8.7080    -1.6860    -0.5740 H     1 <1>   0.0800 
 25 H        7.9390    -3.9230    -1.7530 H     1 <1>   0.0800 
 26 H        7.2340    -5.1640    -0.7460 H     1 <1>   0.0800 
 27 H       10.1330    -3.2950     1.5530 H     1 <1>   0.0800 
 28 H       10.8370    -2.0510     0.5610 H     1 <1>   0.0800 
 29 H        9.5940    -5.6680    -1.3470 H     1 <1>   0.0800 
 30 H        9.3640    -5.5340     0.3730 H     1 <1>   0.0800 
 31 H       11.3920    -4.3300    -0.2660 H     1 <1>   0.0800 
 32 H       10.5130    -3.4050    -1.4490 H     1 <1>   0.0800 
@<TRIPOS>BOND
  1   1   2  1   
  2   2   3  ar  
  3   2   4  ar  
  4   3   5  ar  
  5   3  17  1   
  6   4   6  ar  
  7   4  18  1   
  8   5   7  ar  
  9   5  19  1   
 10   6   7  ar  
 11   6  20  1   
 12   7   8  1   
 13   8   9  2   
 14   8  10  am  
 15  10  11  1   
 16  10  21  1   
 17  11  12  1   
 18  11  13  1   
 19  11  22  1   
 20  12  14  1   
 21  12  23  1   
 22  12  24  1   
 23  13  15  1   
 24  13  25  1   
 25  13  26  1   
 26  14  16  1   
 27  14  27  1   
 28  14  28  1   
 29  15  16  1   
 30  15  29  1   
 31  15  30  1   
 32  16  31  1   
 33  16  32  1   
@<TRIPOS>SUBSTRUCTURE
  1 ****   8 GROUP 4 **** **** 0

# MOE 2024.06 (io_trps.svl 2023.06)
