@<TRIPOS>MOLECULE
NONAME
40 39 1 0 0 
SMALL
USER_CHARGES


@<TRIPOS>ATOM
  1 P       -0.2720    -0.2210     0.4570 P.3   1 <1>   0.7000 
  2 O       -1.6640    -0.1940     0.9130 O.2   1 <1>  -0.7000 
  3 C        0.2580     1.3120    -0.3490 C.3   1 <1>   0.4800 
  4 C        0.8570    -0.5920     1.8080 C.3   1 <1>  -0.0800 
  5 C       -0.0220    -1.4940    -0.7850 C.3   1 <1>  -0.0800 
  6 O        1.4940     1.1850    -1.0000 O.3   1 <1>  -0.5600 
  7 O        0.4100     2.4260     0.4900 O.3   1 <1>  -0.5600 
  8 C        0.7090     0.3460     3.0180 C.3   1 <1>  -0.2400 
  9 C        2.3530    -0.6550     1.4460 C.3   1 <1>  -0.2400 
 10 C       -0.8850    -1.2830    -2.0430 C.3   1 <1>  -0.2400 
 11 C       -0.3000    -2.9210    -0.2740 C.3   1 <1>  -0.2400 
 12 C        1.8360     2.2360    -1.8420 C.3   1 <1>   0.1200 
 13 C       -0.7830     2.9430     0.9850 C.3   1 <1>   0.1200 
 14 C        3.1120     1.8360    -2.5720 C.3   1 <1>  -0.2400 
 15 C       -0.4420     4.2100     1.7580 C.3   1 <1>  -0.2400 
 16 H       -0.4510     1.5910    -1.1080 H     1 <1>   0.0800 
 17 H        0.6010    -1.5660     2.1830 H     1 <1>   0.0800 
 18 H        1.0010    -1.4780    -1.1160 H     1 <1>   0.0800 
 19 H        1.0450     1.3390     2.7760 H     1 <1>   0.0800 
 20 H        1.2880    -0.0140     3.8500 H     1 <1>   0.0800 
 21 H       -0.3220     0.3970     3.3220 H     1 <1>   0.0800 
 22 H        2.7080     0.3130     1.1360 H     1 <1>   0.0800 
 23 H        2.9320    -0.9680     2.2970 H     1 <1>   0.0800 
 24 H        2.5280    -1.3550     0.6500 H     1 <1>   0.0800 
 25 H       -1.9300    -1.2870    -1.7830 H     1 <1>   0.0800 
 26 H       -0.7070    -2.0620    -2.7630 H     1 <1>   0.0800 
 27 H       -0.6520    -0.3430    -2.5100 H     1 <1>   0.0800 
 28 H       -1.3120    -2.9950     0.0870 H     1 <1>   0.0800 
 29 H       -0.1620    -3.6420    -1.0600 H     1 <1>   0.0800 
 30 H        0.3680    -3.1760     0.5280 H     1 <1>   0.0800 
 31 H        2.0010     3.1210    -1.2500 H     1 <1>   0.0800 
 32 H        1.0350     2.4060    -2.5420 H     1 <1>   0.0800 
 33 H       -1.2440     2.2210     1.6380 H     1 <1>   0.0800 
 34 H       -1.4410     3.1670     0.1620 H     1 <1>   0.0800 
 35 H        3.9000     1.6610    -1.8620 H     1 <1>   0.0800 
 36 H        3.4150     2.6270    -3.2340 H     1 <1>   0.0800 
 37 H        2.9440     0.9460    -3.1520 H     1 <1>   0.0800 
 38 H        0.2220     3.9770     2.5720 H     1 <1>   0.0800 
 39 H       -1.3390     4.6430     2.1600 H     1 <1>   0.0800 
 40 H        0.0260     4.9270     1.1070 H     1 <1>   0.0800 
@<TRIPOS>BOND
  1   1   2  2   
  2   1   3  1   
  3   1   4  1   
  4   1   5  1   
  5   3   6  1   
  6   3   7  1   
  7   3  16  1   
  8   4   8  1   
  9   4   9  1   
 10   4  17  1   
 11   5  10  1   
 12   5  11  1   
 13   5  18  1   
 14   6  12  1   
 15   7  13  1   
 16   8  19  1   
 17   8  20  1   
 18   8  21  1   
 19   9  22  1   
 20   9  23  1   
 21   9  24  1   
 22  10  25  1   
 23  10  26  1   
 24  10  27  1   
 25  11  28  1   
 26  11  29  1   
 27  11  30  1   
 28  12  14  1   
 29  12  31  1   
 30  12  32  1   
 31  13  15  1   
 32  13  33  1   
 33  13  34  1   
 34  14  35  1   
 35  14  36  1   
 36  14  37  1   
 37  15  38  1   
 38  15  39  1   
 39  15  40  1   
@<TRIPOS>SUBSTRUCTURE
  1 ****   3 GROUP 4 **** **** 0

# MOE 2024.06 (io_trps.svl 2023.06)
