@<TRIPOS>MOLECULE
NONAME
38 39 1 0 0 
SMALL
USER_CHARGES


@<TRIPOS>ATOM
  1 BR      -0.1080     0.4240    -0.5360 Br    1 <1>  -0.1110 
  2 C        1.7940     0.1880    -0.3520 C.ar  1 <1>   0.1110 
  3 C        2.5700     1.2780    -0.0080 C.ar  1 <1>  -0.1500 
  4 C        2.3330    -1.0650    -0.5680 C.ar  1 <1>  -0.1500 
  5 C        3.9400     1.1120     0.1260 C.ar  1 <1>  -0.1440 
  6 C        3.7000    -1.2290    -0.4340 C.ar  1 <1>  -0.1500 
  7 C        4.5090    -0.1440    -0.0880 C.ar  1 <1>   0.0830 
  8 C        4.8050     2.3060     0.5050 C.3   1 <1>  -0.0960 
  9 O        5.8570    -0.2500     0.0560 O.3   1 <1>  -0.3630 
 10 C        6.5310    -1.4670    -0.1350 C.3   1 <1>   0.1200 
 11 C        8.0160    -1.2010     0.1040 C.3   1 <1>  -0.1600 
 12 C        8.8350    -2.4740    -0.0950 C.3   1 <1>   0.3430 
 13 N       10.2670    -2.2160     0.2150 N.4   1 <1>  -0.9590 
 14 C       10.9510    -1.3190    -0.7530 C.3   1 <1>   0.3430 
 15 C       11.0810    -3.4550     0.2580 C.3   1 <1>   0.3430 
 16 C       12.4340    -1.5930    -0.5420 C.3   1 <1>  -0.1600 
 17 C       12.5170    -2.9680     0.1250 C.3   1 <1>  -0.1600 
 18 H        2.1020     2.2330     0.1500 H     1 <1>   0.1500 
 19 H        1.6940    -1.8880    -0.8340 H     1 <1>   0.1500 
 20 H        4.1090    -2.2060    -0.6040 H     1 <1>   0.1500 
 21 H        4.2100     3.1910     0.6370 H     1 <1>   0.0800 
 22 H        5.5280     2.4920    -0.2690 H     1 <1>   0.0800 
 23 H        5.3250     2.1020     1.4240 H     1 <1>   0.0800 
 24 H        6.3490    -1.7970    -1.1440 H     1 <1>   0.0800 
 25 H        6.1420    -2.1810     0.5720 H     1 <1>   0.0800 
 26 H        8.1390    -0.8440     1.1120 H     1 <1>   0.0800 
 27 H        8.3350    -0.4420    -0.5880 H     1 <1>   0.0800 
 28 H        8.7340    -2.8220    -1.1110 H     1 <1>   0.0800 
 29 H        8.4570    -3.2410     0.5640 H     1 <1>   0.0800 
 30 H       10.3350    -1.7740     1.1420 H     1 <1>   0.4500 
 31 H       10.7080    -0.2820    -0.5800 H     1 <1>   0.0800 
 32 H       10.6750    -1.5890    -1.7600 H     1 <1>   0.0800 
 33 H       10.8360    -4.0830    -0.5840 H     1 <1>   0.0800 
 34 H       10.9280    -4.0050     1.1730 H     1 <1>   0.0800 
 35 H       12.8580    -0.8370     0.0970 H     1 <1>   0.0800 
 36 H       12.9560    -1.5730    -1.4840 H     1 <1>   0.0800 
 37 H       13.0980    -3.6630    -0.4580 H     1 <1>   0.0800 
 38 H       12.9660    -2.8860     1.1010 H     1 <1>   0.0800 
@<TRIPOS>BOND
  1   1   2  1   
  2   2   3  ar  
  3   2   4  ar  
  4   3   5  ar  
  5   3  18  1   
  6   4   6  ar  
  7   4  19  1   
  8   5   7  ar  
  9   5   8  1   
 10   6   7  ar  
 11   6  20  1   
 12   7   9  1   
 13   8  21  1   
 14   8  22  1   
 15   8  23  1   
 16   9  10  1   
 17  10  11  1   
 18  10  24  1   
 19  10  25  1   
 20  11  12  1   
 21  11  26  1   
 22  11  27  1   
 23  12  13  1   
 24  12  28  1   
 25  12  29  1   
 26  13  14  1   
 27  13  15  1   
 28  13  30  1   
 29  14  16  1   
 30  14  31  1   
 31  14  32  1   
 32  15  17  1   
 33  15  33  1   
 34  15  34  1   
 35  16  17  1   
 36  16  35  1   
 37  16  36  1   
 38  17  37  1   
 39  17  38  1   
@<TRIPOS>SUBSTRUCTURE
  1 ****  10 GROUP 4 **** **** 0

# MOE 2024.06 (io_trps.svl 2023.06)
