@<TRIPOS>MOLECULE
NONAME
45 46 1 0 0 
SMALL
USER_CHARGES


@<TRIPOS>ATOM
  1 O        0.3230    -0.5190     0.2920 O.2   1 <1>  -0.5700 
  2 C        0.8760    -1.6030     0.3360 C.2   1 <1>   0.5440 
  3 N        0.1260    -2.7310     0.6100 N.am  1 <1>  -0.6600 
  4 C        2.3030    -1.6710     0.0940 C.ar  1 <1>   0.0860 
  5 C       -1.3000    -2.6400     1.0310 C.3   1 <1>   0.1400 
  6 C        0.5970    -4.1200     0.3470 C.3   1 <1>   0.1400 
  7 C        3.1790    -2.2140     1.0350 C.ar  1 <1>  -0.1500 
  8 C        2.8510    -1.1890    -1.0940 C.ar  1 <1>  -0.1500 
  9 C       -2.1960    -3.2800    -0.0330 C.3   1 <1>  -0.1600 
 10 C       -0.2890    -4.7740    -0.7180 C.3   1 <1>  -0.1600 
 11 C        4.5400    -2.2910     0.7980 C.ar  1 <1>  -0.1500 
 12 C        4.2100    -1.2630    -1.3400 C.ar  1 <1>  -0.1500 
 13 C       -1.7750    -4.7280    -0.3300 C.3   1 <1>  -0.0800 
 14 C        5.0650    -1.8160    -0.4010 C.ar  1 <1>   0.0830 
 15 C       -2.6430    -5.3260    -1.4430 C.3   1 <1>  -0.2400 
 16 O        6.3790    -1.8540    -0.7160 O.3   1 <1>  -0.3630 
 17 C        7.3450    -2.3550     0.1790 C.3   1 <1>   0.1200 
 18 C        8.7180    -2.2330    -0.4810 C.3   1 <1>  -0.1600 
 19 C        9.8270    -2.7610     0.4390 C.3   1 <1>  -0.1600 
 20 C       11.1990    -2.6360    -0.2280 C.3   1 <1>  -0.2400 
 21 H       -1.5920    -1.6140     1.1790 H     1 <1>   0.0800 
 22 H       -1.4200    -3.1550     1.9680 H     1 <1>   0.0800 
 23 H        0.5460    -4.6850     1.2620 H     1 <1>   0.0800 
 24 H        1.6160    -4.1270     0.0050 H     1 <1>   0.0800 
 25 H        2.7770    -2.5760     1.9650 H     1 <1>   0.1500 
 26 H        2.1940    -0.7510    -1.8260 H     1 <1>   0.1500 
 27 H       -2.1370    -2.6870    -0.9290 H     1 <1>   0.0800 
 28 H       -3.2150    -3.2590     0.3080 H     1 <1>   0.0800 
 29 H        0.0200    -5.7950    -0.8530 H     1 <1>   0.0800 
 30 H       -0.1390    -4.2590    -1.6510 H     1 <1>   0.0800 
 31 H        5.1730    -2.7190     1.5510 H     1 <1>   0.1500 
 32 H        4.6180    -0.8900    -2.2620 H     1 <1>   0.1500 
 33 H       -1.9150    -5.3150     0.5640 H     1 <1>   0.0800 
 34 H       -2.5310    -4.7640    -2.3530 H     1 <1>   0.0800 
 35 H       -3.6800    -5.3110    -1.1560 H     1 <1>   0.0800 
 36 H       -2.3590    -6.3460    -1.6310 H     1 <1>   0.0800 
 37 H        7.1130    -3.3860     0.3860 H     1 <1>   0.0800 
 38 H        7.3040    -1.7730     1.0830 H     1 <1>   0.0800 
 39 H        8.9050    -1.1980    -0.7100 H     1 <1>   0.0800 
 40 H        8.7160    -2.7940    -1.3990 H     1 <1>   0.0800 
 41 H        9.6420    -3.7960     0.6730 H     1 <1>   0.0800 
 42 H        9.8300    -2.2040     1.3610 H     1 <1>   0.0800 
 43 H       11.2270    -3.2030    -1.1420 H     1 <1>   0.0800 
 44 H       11.9640    -3.0100     0.4300 H     1 <1>   0.0800 
 45 H       11.4160    -1.6060    -0.4520 H     1 <1>   0.0800 
@<TRIPOS>BOND
  1   1   2  2   
  2   2   3  am  
  3   2   4  1   
  4   3   5  1   
  5   3   6  1   
  6   4   7  ar  
  7   4   8  ar  
  8   5   9  1   
  9   5  21  1   
 10   5  22  1   
 11   6  10  1   
 12   6  23  1   
 13   6  24  1   
 14   7  11  ar  
 15   7  25  1   
 16   8  12  ar  
 17   8  26  1   
 18   9  13  1   
 19   9  27  1   
 20   9  28  1   
 21  10  13  1   
 22  10  29  1   
 23  10  30  1   
 24  11  14  ar  
 25  11  31  1   
 26  12  14  ar  
 27  12  32  1   
 28  13  15  1   
 29  13  33  1   
 30  14  16  1   
 31  15  34  1   
 32  15  35  1   
 33  15  36  1   
 34  16  17  1   
 35  17  18  1   
 36  17  37  1   
 37  17  38  1   
 38  18  19  1   
 39  18  39  1   
 40  18  40  1   
 41  19  20  1   
 42  19  41  1   
 43  19  42  1   
 44  20  43  1   
 45  20  44  1   
 46  20  45  1   
@<TRIPOS>SUBSTRUCTURE
  1 ****   4 GROUP 4 **** **** 0

# MOE 2024.06 (io_trps.svl 2023.06)
