@<TRIPOS>MOLECULE
NONAME
44 45 1 0 0 
SMALL
USER_CHARGES


@<TRIPOS>ATOM
  1 CL      -0.1070     0.6410    -1.0170 Cl    1 <1>  -0.1400 
  2 C       -0.2160    -1.0620    -0.6490 C.2   1 <1>   0.0020 
  3 C        0.8500    -1.8050    -0.2970 C.2   1 <1>  -0.1780 
  4 C       -1.6330    -1.5820    -0.8160 C.3   1 <1>   0.4810 
  5 C        2.2240    -1.4020    -0.1120 C.ar  1 <1>   0.0280 
  6 N       -2.4250    -1.4170     0.4560 N.4   1 <1>  -0.9590 
  7 C        3.2500    -2.2410    -0.5400 C.ar  1 <1>  -0.1500 
  8 C        2.5820    -0.2050     0.5040 C.ar  1 <1>  -0.1500 
  9 C       -3.6950    -2.2050     0.5410 C.3   1 <1>   0.4230 
 10 C       -2.6610     0.0380     0.7590 C.3   1 <1>   0.2630 
 11 C        4.5790    -1.8970    -0.3700 C.ar  1 <1>  -0.1500 
 12 C        3.9090     0.1460     0.6750 C.ar  1 <1>  -0.1500 
 13 C       -3.3970    -3.7030     0.6530 C.3   1 <1>  -0.1600 
 14 C       -4.6420    -1.9380    -0.6360 C.3   1 <1>  -0.1600 
 15 C        4.9110    -0.7000     0.2370 C.ar  1 <1>  -0.1500 
 16 C       -4.6960    -4.4980     0.8030 C.3   1 <1>   0.3430 
 17 C       -5.9330    -2.7460    -0.4790 C.3   1 <1>   0.3430 
 18 N       -5.6160    -4.1990    -0.3350 N.4   1 <1>  -0.9590 
 19 C       -6.8850    -4.9880    -0.1880 C.3   1 <1>   0.2630 
 20 H        0.7220    -2.8600    -0.1260 H     1 <1>   0.1500 
 21 H       -1.5730    -2.6260    -1.0710 H     1 <1>   0.0800 
 22 H       -2.1100    -1.0640    -1.6330 H     1 <1>   0.0800 
 23 H       -1.7990    -1.7530     1.2050 H     1 <1>   0.4500 
 24 H        3.0120    -3.1740    -1.0180 H     1 <1>   0.1500 
 25 H        1.8240     0.4650     0.8630 H     1 <1>   0.1500 
 26 H       -4.2050    -1.9110     1.4460 H     1 <1>   0.0800 
 27 H       -3.1940     0.5140    -0.0480 H     1 <1>   0.0800 
 28 H       -1.7230     0.5520     0.8950 H     1 <1>   0.0800 
 29 H       -3.2340     0.1490     1.6660 H     1 <1>   0.0800 
 30 H        5.3560    -2.5580    -0.7120 H     1 <1>   0.1500 
 31 H        4.1650     1.0770     1.1500 H     1 <1>   0.1500 
 32 H       -2.8720    -4.0660    -0.2110 H     1 <1>   0.0800 
 33 H       -2.7900    -3.8880     1.5220 H     1 <1>   0.0800 
 34 H       -4.9070    -0.8960    -0.6700 H     1 <1>   0.0800 
 35 H       -4.1880    -2.2010    -1.5750 H     1 <1>   0.0800 
 36 H        5.9440    -0.4290     0.3700 H     1 <1>   0.1500 
 37 H       -5.1760    -4.2400     1.7350 H     1 <1>   0.0800 
 38 H       -4.4730    -5.5540     0.8270 H     1 <1>   0.0800 
 39 H       -6.5640    -2.5920    -1.3420 H     1 <1>   0.0800 
 40 H       -6.4730    -2.4050     0.3910 H     1 <1>   0.0800 
 41 H       -5.1730    -4.5260    -1.2090 H     1 <1>   0.4500 
 42 H       -7.4090    -4.7000     0.7100 H     1 <1>   0.0800 
 43 H       -6.6690    -6.0430    -0.1360 H     1 <1>   0.0800 
 44 H       -7.5340    -4.8170    -1.0330 H     1 <1>   0.0800 
@<TRIPOS>BOND
  1   1   2  1   
  2   2   3  2   
  3   2   4  1   
  4   3   5  1   
  5   3  20  1   
  6   4   6  1   
  7   4  21  1   
  8   4  22  1   
  9   5   7  ar  
 10   5   8  ar  
 11   6   9  1   
 12   6  10  1   
 13   6  23  1   
 14   7  11  ar  
 15   7  24  1   
 16   8  12  ar  
 17   8  25  1   
 18   9  13  1   
 19   9  14  1   
 20   9  26  1   
 21  10  27  1   
 22  10  28  1   
 23  10  29  1   
 24  11  15  ar  
 25  11  30  1   
 26  12  15  ar  
 27  12  31  1   
 28  13  16  1   
 29  13  32  1   
 30  13  33  1   
 31  14  17  1   
 32  14  34  1   
 33  14  35  1   
 34  15  36  1   
 35  16  18  1   
 36  16  37  1   
 37  16  38  1   
 38  17  18  1   
 39  17  39  1   
 40  17  40  1   
 41  18  19  1   
 42  18  41  1   
 43  19  42  1   
 44  19  43  1   
 45  19  44  1   
@<TRIPOS>SUBSTRUCTURE
  1 ****   4 GROUP 4 **** **** 0

# MOE 2024.06 (io_trps.svl 2023.06)
