@<TRIPOS>MOLECULE
NONAME
53 55 1 0 0 
SMALL
USER_CHARGES


@<TRIPOS>ATOM
  1 O        4.8990    -4.1760     2.7200 O.2   1 <1>  -0.5700 
  2 C        4.8200    -3.4810     1.7400 C.2   1 <1>   0.5690 
  3 N        5.3020    -2.2190     1.7920 N.am  1 <1>  -0.7300 
  4 C        4.1600    -4.0560     0.4870 C.3   1 <1>  -0.0190 
  5 C        5.3570    -1.1690     0.7480 C.3   1 <1>   0.3200 
  6 C        2.6310    -4.0840     0.6580 C.3   1 <1>  -0.1600 
  7 C        4.6680    -5.4740     0.1620 C.3   1 <1>  -0.1600 
  8 C        3.9680    -0.6480     0.4180 C.2   1 <1>  -0.0400 
  9 C        1.9440    -4.6700    -0.5700 C.3   1 <1>   0.3430 
 10 C        3.9530    -6.0610    -1.0530 C.3   1 <1>   0.3430 
 11 O        3.3330    -1.1110    -0.6450 O.3   1 <1>  -0.2800 
 12 C        3.2170     0.2830     1.0450 C.2   1 <1>  -0.1500 
 13 N        2.4850    -6.0340    -0.8300 N.4   1 <1>  -0.9590 
 14 C        2.1750    -0.4830    -0.7220 C.2   1 <1>  -0.0100 
 15 C        2.0380     0.3900     0.2980 C.2   1 <1>  -0.1500 
 16 C        1.7380    -6.7480    -1.8970 C.3   1 <1>   0.4860 
 17 C        0.3050    -6.9410    -1.4400 C.ar  1 <1>  -0.1430 
 18 C        0.0310    -7.6600    -0.2790 C.ar  1 <1>   0.0820 
 19 C       -0.7280    -6.3940    -2.1850 C.ar  1 <1>  -0.1500 
 20 O        1.1210    -8.1790     0.3680 O.3   1 <1>  -0.3630 
 21 C       -1.2990    -7.7960     0.1560 C.ar  1 <1>   0.0820 
 22 C       -2.0370    -6.5500    -1.7730 C.ar  1 <1>  -0.1500 
 23 C        1.0430    -9.3910     1.0930 C.3   1 <1>   0.0400 
 24 O       -1.5660    -8.4410     1.3280 O.3   1 <1>  -0.3630 
 25 C       -2.3210    -7.2420    -0.6110 C.ar  1 <1>  -0.1500 
 26 C       -2.8760    -8.5760     1.8390 C.3   1 <1>   0.0400 
 27 H        5.6590    -1.9390     2.7070 H     1 <1>   0.3700 
 28 H        4.4010    -3.4310    -0.3510 H     1 <1>   0.0800 
 29 H        5.8270    -1.5530    -0.1410 H     1 <1>   0.0800 
 30 H        5.9570    -0.3530     1.1130 H     1 <1>   0.0800 
 31 H        2.2670    -3.0850     0.8220 H     1 <1>   0.0800 
 32 H        2.3680    -4.6640     1.5270 H     1 <1>   0.0800 
 33 H        4.5180    -6.1240     1.0070 H     1 <1>   0.0800 
 34 H        5.7260    -5.4380    -0.0310 H     1 <1>   0.0800 
 35 H        2.1210    -4.0330    -1.4220 H     1 <1>   0.0800 
 36 H        0.8810    -4.7190    -0.3930 H     1 <1>   0.0800 
 37 H        4.2860    -7.0760    -1.2070 H     1 <1>   0.0800 
 38 H        4.2000    -5.4840    -1.9300 H     1 <1>   0.0800 
 39 H        3.4430     0.8490     1.9330 H     1 <1>   0.1500 
 40 H        2.2770    -6.5960     0.0160 H     1 <1>   0.4500 
 41 H        1.5070    -0.7110    -1.5340 H     1 <1>   0.1500 
 42 H        1.2160     1.0490     0.5180 H     1 <1>   0.1500 
 43 H        2.1800    -7.7160    -2.0680 H     1 <1>   0.0800 
 44 H        1.7670    -6.1860    -2.8150 H     1 <1>   0.0800 
 45 H       -0.5310    -5.8450    -3.0910 H     1 <1>   0.1500 
 46 H       -2.8410    -6.1300    -2.3550 H     1 <1>   0.1500 
 47 H        0.4070   -10.0810     0.5650 H     1 <1>   0.0800 
 48 H        2.0340    -9.7990     1.1820 H     1 <1>   0.0800 
 49 H        0.6500    -9.1870     2.0730 H     1 <1>   0.0800 
 50 H       -3.3520    -7.3340    -0.3230 H     1 <1>   0.1500 
 51 H       -2.8180    -9.1070     2.7720 H     1 <1>   0.0800 
 52 H       -3.2910    -7.5970     2.0040 H     1 <1>   0.0800 
 53 H       -3.4700    -9.1360     1.1380 H     1 <1>   0.0800 
@<TRIPOS>BOND
  1   1   2  2   
  2   2   3  am  
  3   2   4  1   
  4   3   5  1   
  5   3  27  1   
  6   4   6  1   
  7   4   7  1   
  8   4  28  1   
  9   5   8  1   
 10   5  29  1   
 11   5  30  1   
 12   6   9  1   
 13   6  31  1   
 14   6  32  1   
 15   7  10  1   
 16   7  33  1   
 17   7  34  1   
 18   8  11  1   
 19   8  12  2   
 20   9  13  1   
 21   9  35  1   
 22   9  36  1   
 23  10  13  1   
 24  10  37  1   
 25  10  38  1   
 26  11  14  1   
 27  12  15  1   
 28  12  39  1   
 29  13  16  1   
 30  13  40  1   
 31  14  15  2   
 32  14  41  1   
 33  15  42  1   
 34  16  17  1   
 35  16  43  1   
 36  16  44  1   
 37  17  18  ar  
 38  17  19  ar  
 39  18  20  1   
 40  18  21  ar  
 41  19  22  ar  
 42  19  45  1   
 43  20  23  1   
 44  21  24  1   
 45  21  25  ar  
 46  22  25  ar  
 47  22  46  1   
 48  23  47  1   
 49  23  48  1   
 50  23  49  1   
 51  24  26  1   
 52  25  50  1   
 53  26  51  1   
 54  26  52  1   
 55  26  53  1   
@<TRIPOS>SUBSTRUCTURE
  1 ****   9 GROUP 4 **** **** 0

# MOE 2024.06 (io_trps.svl 2023.06)
