@<TRIPOS>MOLECULE
NONAME
35 35 1 0 0 
SMALL
USER_CHARGES


@<TRIPOS>ATOM
  1 F        0.0100     2.3750     2.3610 F     1 <1>  -0.3400 
  2 C       -0.0900     1.5100     1.3570 C.3   1 <1>   1.0200 
  3 F        0.7920     0.5530     1.6320 F     1 <1>  -0.3400 
  4 F       -1.2770     0.9270     1.4940 F     1 <1>  -0.3400 
  5 C        0.1270     2.1310    -0.0530 C.3   1 <1>   0.4240 
  6 O        0.1250     1.1100    -1.0690 O.3   1 <1>  -0.6800 
  7 C        1.5200     2.8250    -0.1110 C.ar  1 <1>  -0.1440 
  8 C       -1.0770     3.0920    -0.3020 C.3   1 <1>   1.0200 
  9 C        2.6430     2.1210    -0.5360 C.ar  1 <1>  -0.1500 
 10 C        1.7070     4.1460     0.2860 C.ar  1 <1>  -0.1500 
 11 F       -2.2010     2.4290    -0.5670 F     1 <1>  -0.3400 
 12 F       -1.3790     3.9140     0.6980 F     1 <1>  -0.3400 
 13 F       -0.8910     3.8780    -1.3580 F     1 <1>  -0.3400 
 14 C        3.8970     2.7030    -0.5860 C.ar  1 <1>  -0.1440 
 15 C        2.9530     4.7480     0.2470 C.ar  1 <1>  -0.1430 
 16 C        4.0640     4.0310    -0.1920 C.ar  1 <1>   0.1170 
 17 C        5.0700     1.8610    -1.0760 C.3   1 <1>  -0.0960 
 18 C        3.0880     6.1950     0.7070 C.3   1 <1>  -0.0970 
 19 N        5.3150     4.6620    -0.2510 N.am  1 <1>  -0.5470 
 20 C        6.4220     4.4100     0.5030 C.2   1 <1>   0.5690 
 21 O        6.4790     3.5530     1.3460 O.2   1 <1>  -0.5700 
 22 C        7.6360     5.2710     0.2620 C.3   1 <1>  -0.1790 
 23 H       -0.7490     0.6670    -1.1260 H     1 <1>   0.4000 
 24 H        2.5520     1.0900    -0.8350 H     1 <1>   0.1500 
 25 H        0.8870     4.7400     0.6450 H     1 <1>   0.1500 
 26 H        4.7280     0.9750    -1.5790 H     1 <1>   0.0800 
 27 H        5.6760     1.5630    -0.2380 H     1 <1>   0.0800 
 28 H        5.6760     2.4220    -1.7620 H     1 <1>   0.0800 
 29 H        2.1590     6.5710     1.0970 H     1 <1>   0.0800 
 30 H        3.3870     6.8180    -0.1160 H     1 <1>   0.0800 
 31 H        3.8270     6.2630     1.4860 H     1 <1>   0.0800 
 32 H        5.3590     5.4710    -0.8650 H     1 <1>   0.3700 
 33 H        7.4140     6.2910     0.5130 H     1 <1>   0.0800 
 34 H        7.9300     5.2060    -0.7690 H     1 <1>   0.0800 
 35 H        8.4480     4.9300     0.8770 H     1 <1>   0.0800 
@<TRIPOS>BOND
  1   1   2  1   
  2   2   3  1   
  3   2   4  1   
  4   2   5  1   
  5   5   6  1   
  6   5   7  1   
  7   5   8  1   
  8   6  23  1   
  9   7   9  ar  
 10   7  10  ar  
 11   8  11  1   
 12   8  12  1   
 13   8  13  1   
 14   9  14  ar  
 15   9  24  1   
 16  10  15  ar  
 17  10  25  1   
 18  14  16  ar  
 19  14  17  1   
 20  15  16  ar  
 21  15  18  1   
 22  16  19  1   
 23  17  26  1   
 24  17  27  1   
 25  17  28  1   
 26  18  29  1   
 27  18  30  1   
 28  18  31  1   
 29  19  20  am  
 30  19  32  1   
 31  20  21  2   
 32  20  22  1   
 33  22  33  1   
 34  22  34  1   
 35  22  35  1   
@<TRIPOS>SUBSTRUCTURE
  1 ****   7 GROUP 4 **** **** 0

# MOE 2024.06 (io_trps.svl 2023.06)
