@<TRIPOS>MOLECULE
NONAME
52 53 1 0 0 
SMALL
USER_CHARGES


@<TRIPOS>ATOM
  1 O       -0.3260     0.0420    -0.1440 O.3   1 <1>  -0.3630 
  2 C       -1.5030    -0.6260    -0.0530 C.ar  1 <1>   0.0830 
  3 C       -0.2460     1.2850    -0.8000 C.3   1 <1>   0.1200 
  4 C       -1.5170    -1.7670     0.7290 C.ar  1 <1>  -0.1500 
  5 C       -2.6710    -0.2290    -0.6900 C.ar  1 <1>  -0.1500 
  6 C        1.1780     1.8170    -0.6310 C.3   1 <1>  -0.1600 
  7 C       -2.6730    -2.5160     0.8920 C.ar  1 <1>  -0.1440 
  8 C       -3.8260    -0.9710    -0.5310 C.ar  1 <1>  -0.1500 
  9 C        1.3560     3.2140    -1.2380 C.3   1 <1>   0.1100 
 10 C       -3.8500    -2.1170     0.2560 C.ar  1 <1>  -0.1430 
 11 C       -2.5940    -3.7570     1.7730 C.3   1 <1>  -0.0970 
 12 N        0.3590     4.1750    -0.7280 N.3   1 <1>  -0.8100 
 13 C       -5.1690    -2.8920     0.3880 C.3   1 <1>   0.0630 
 14 C        0.3410     5.3980    -1.5560 C.3   1 <1>   0.1100 
 15 C        0.5560     4.4980     0.7030 C.3   1 <1>   0.1100 
 16 C       -5.6340    -3.4190    -0.9740 C.3   1 <1>  -0.2400 
 17 C       -6.2540    -2.0230     1.0330 C.3   1 <1>  -0.2400 
 18 C       -0.7290     6.3970    -1.0700 C.3   1 <1>   0.3430 
 19 C       -0.5100     5.4890     1.2130 C.3   1 <1>   0.3430 
 20 N       -0.5510     6.7440     0.3830 N.4   1 <1>  -0.9590 
 21 C       -1.6200     7.6720     0.8560 C.3   1 <1>   0.2630 
 22 H       -0.9610     1.9480    -0.3460 H     1 <1>   0.0800 
 23 H       -0.4800     1.1400    -1.8400 H     1 <1>   0.0800 
 24 H       -0.6030    -2.0590     1.2100 H     1 <1>   0.1500 
 25 H       -2.7020     0.6450    -1.3110 H     1 <1>   0.1500 
 26 H        1.8550     1.1440    -1.1250 H     1 <1>   0.0800 
 27 H        1.4400     1.8300     0.4110 H     1 <1>   0.0800 
 28 H       -4.7180    -0.6450    -1.0330 H     1 <1>   0.1500 
 29 H        1.2450     3.1250    -2.3070 H     1 <1>   0.0800 
 30 H        2.3530     3.5720    -1.0410 H     1 <1>   0.0800 
 31 H       -1.6030    -3.8900     2.1670 H     1 <1>   0.0800 
 32 H       -2.8470    -4.6310     1.2010 H     1 <1>   0.0800 
 33 H       -3.2740    -3.6630     2.6010 H     1 <1>   0.0800 
 34 H       -5.0360    -3.7460     1.0240 H     1 <1>   0.0800 
 35 H        0.1200     5.1300    -2.5750 H     1 <1>   0.0800 
 36 H        1.3100     5.8680    -1.5410 H     1 <1>   0.0800 
 37 H        1.5390     4.9090     0.8580 H     1 <1>   0.0800 
 38 H        0.4780     3.6010     1.2910 H     1 <1>   0.0800 
 39 H       -5.8660    -2.6110    -1.6430 H     1 <1>   0.0800 
 40 H       -4.8570    -4.0170    -1.4160 H     1 <1>   0.0800 
 41 H       -6.5110    -4.0300    -0.8570 H     1 <1>   0.0800 
 42 H       -6.5000    -1.1840     0.4080 H     1 <1>   0.0800 
 43 H       -5.9060    -1.6520     1.9810 H     1 <1>   0.0800 
 44 H       -7.1450    -2.6010     1.1980 H     1 <1>   0.0800 
 45 H       -1.6990     5.9510    -1.2200 H     1 <1>   0.0800 
 46 H       -0.6770     7.2910    -1.6700 H     1 <1>   0.0800 
 47 H       -0.3010     5.7340     2.2410 H     1 <1>   0.0800 
 48 H       -1.4690     4.9990     1.1760 H     1 <1>   0.0800 
 49 H        0.3650     7.2030     0.4780 H     1 <1>   0.4500 
 50 H       -2.5880     7.2060     0.7640 H     1 <1>   0.0800 
 51 H       -1.6160     8.5770     0.2700 H     1 <1>   0.0800 
 52 H       -1.4600     7.9320     1.8900 H     1 <1>   0.0800 
@<TRIPOS>BOND
  1   1   2  1   
  2   1   3  1   
  3   2   4  ar  
  4   2   5  ar  
  5   3   6  1   
  6   3  22  1   
  7   3  23  1   
  8   4   7  ar  
  9   4  24  1   
 10   5   8  ar  
 11   5  25  1   
 12   6   9  1   
 13   6  26  1   
 14   6  27  1   
 15   7  10  ar  
 16   7  11  1   
 17   8  10  ar  
 18   8  28  1   
 19   9  12  1   
 20   9  29  1   
 21   9  30  1   
 22  10  13  1   
 23  11  31  1   
 24  11  32  1   
 25  11  33  1   
 26  12  14  1   
 27  12  15  1   
 28  13  16  1   
 29  13  17  1   
 30  13  34  1   
 31  14  18  1   
 32  14  35  1   
 33  14  36  1   
 34  15  19  1   
 35  15  37  1   
 36  15  38  1   
 37  16  39  1   
 38  16  40  1   
 39  16  41  1   
 40  17  42  1   
 41  17  43  1   
 42  17  44  1   
 43  18  20  1   
 44  18  45  1   
 45  18  46  1   
 46  19  20  1   
 47  19  47  1   
 48  19  48  1   
 49  20  21  1   
 50  20  49  1   
 51  21  50  1   
 52  21  51  1   
 53  21  52  1   
@<TRIPOS>SUBSTRUCTURE
  1 ****   3 GROUP 4 **** **** 0

# MOE 2024.06 (io_trps.svl 2023.06)
