@<TRIPOS>MOLECULE
NONAME
60 65 1 0 0 
SMALL
USER_CHARGES


@<TRIPOS>ATOM
  1 O        1.2640    -0.4860    -0.3710 O.2   1 <1>  -0.5700 
  2 C        1.2580    -1.6250    -0.7850 C.2   1 <1>   0.6900 
  3 N        2.4120    -2.3640    -1.0150 N.am  1 <1>  -0.6600 
  4 N        0.1200    -2.3910    -0.8660 N.am  1 <1>  -0.6600 
  5 C        1.9300    -3.6800    -1.3700 C.3   1 <1>   0.5200 
  6 C        3.5610    -2.3350    -0.1110 C.3   1 <1>   0.4100 
  7 C        0.7030    -3.5990    -0.5620 C.3   1 <1>   0.5200 
  8 C       -1.1370    -2.2700    -0.1360 C.3   1 <1>   0.4100 
  9 N        2.3920    -4.9230    -0.7920 N.am  1 <1>  -0.6600 
 10 N        4.3160    -3.6040    -0.2340 N.3   1 <1>  -0.8100 
 11 N        0.0990    -4.8310    -0.6580 N.am  1 <1>  -0.6600 
 12 N       -1.9120    -3.5510    -0.2690 N.3   1 <1>  -0.8100 
 13 C        1.2230    -5.5910    -0.4470 C.2   1 <1>   0.6900 
 14 C        3.5070    -4.7850     0.1420 C.3   1 <1>   0.4100 
 15 C        5.6220    -3.6310     0.4730 C.3   1 <1>   0.1900 
 16 C       -1.1590    -4.8040     0.0790 C.3   1 <1>   0.4100 
 17 C       -3.2320    -3.4810     0.4190 C.3   1 <1>   0.1900 
 18 O        1.2080    -6.6450     0.1540 O.2   1 <1>  -0.5700 
 19 C        6.3350    -2.2620     0.5110 C.3   1 <1>  -0.1600 
 20 C        6.5370    -4.6540    -0.2310 C.3   1 <1>  -0.1600 
 21 C       -4.0600    -4.7600     0.1590 C.3   1 <1>  -0.1600 
 22 C       -4.0380    -2.2480    -0.0540 C.3   1 <1>  -0.1600 
 23 C        7.7250    -2.3450     1.1590 C.3   1 <1>  -0.1600 
 24 C        7.9260    -4.7430     0.4170 C.3   1 <1>  -0.1600 
 25 C       -5.4820    -4.6920     0.7360 C.3   1 <1>  -0.1600 
 26 C       -5.4590    -2.1940     0.5240 C.3   1 <1>  -0.1600 
 27 C        8.6090    -3.3740     0.4500 C.3   1 <1>  -0.1600 
 28 C       -6.2370    -3.4710     0.2090 C.3   1 <1>  -0.1600 
 29 H        1.7160    -3.7700    -2.4220 H     1 <1>   0.0800 
 30 H        3.2350    -2.1840     0.9040 H     1 <1>   0.0800 
 31 H        4.1730    -1.5010    -0.4080 H     1 <1>   0.0800 
 32 H        0.9950    -3.5130     0.4800 H     1 <1>   0.0800 
 33 H       -1.6800    -1.4520    -0.5730 H     1 <1>   0.0800 
 34 H       -0.9430    -2.0500     0.9010 H     1 <1>   0.0800 
 35 H        4.0910    -5.6870     0.0920 H     1 <1>   0.0800 
 36 H        3.1350    -4.6790     1.1490 H     1 <1>   0.0800 
 37 H        5.4670    -3.9460     1.4920 H     1 <1>   0.0800 
 38 H       -0.9690    -4.8500     1.1390 H     1 <1>   0.0800 
 39 H       -1.7180    -5.6750    -0.2150 H     1 <1>   0.0800 
 40 H       -3.0700    -3.3920     1.4810 H     1 <1>   0.0800 
 41 H        5.7620    -1.5560     1.0840 H     1 <1>   0.0800 
 42 H        6.4440    -1.8900    -0.4940 H     1 <1>   0.0800 
 43 H        6.6500    -4.3630    -1.2620 H     1 <1>   0.0800 
 44 H        6.1050    -5.6360    -0.2130 H     1 <1>   0.0800 
 45 H       -3.5930    -5.6140     0.6110 H     1 <1>   0.0800 
 46 H       -4.1230    -4.9240    -0.9030 H     1 <1>   0.0800 
 47 H       -4.0990    -2.2650    -1.1290 H     1 <1>   0.0800 
 48 H       -3.5550    -1.3390     0.2480 H     1 <1>   0.0800 
 49 H        7.6210    -2.6190     2.1960 H     1 <1>   0.0800 
 50 H        8.1990    -1.3790     1.1210 H     1 <1>   0.0800 
 51 H        8.5360    -5.4350    -0.1370 H     1 <1>   0.0800 
 52 H        7.8290    -5.1200     1.4210 H     1 <1>   0.0800 
 53 H       -5.4300    -4.6430     1.8100 H     1 <1>   0.0800 
 54 H       -6.0200    -5.5860     0.4730 H     1 <1>   0.0800 
 55 H       -5.9820    -1.3470     0.1130 H     1 <1>   0.0800 
 56 H       -5.4070    -2.0610     1.5910 H     1 <1>   0.0800 
 57 H        9.5560    -3.4520     0.9580 H     1 <1>   0.0800 
 58 H        8.8010    -3.0460    -0.5580 H     1 <1>   0.0800 
 59 H       -7.2130    -3.4240     0.6600 H     1 <1>   0.0800 
 60 H       -6.3670    -3.5610    -0.8570 H     1 <1>   0.0800 
@<TRIPOS>BOND
  1   1   2  2   
  2   2   3  am  
  3   2   4  am  
  4   3   5  1   
  5   3   6  1   
  6   4   7  1   
  7   4   8  1   
  8   5   7  1   
  9   5   9  1   
 10   5  29  1   
 11   6  10  1   
 12   6  30  1   
 13   6  31  1   
 14   7  11  1   
 15   7  32  1   
 16   8  12  1   
 17   8  33  1   
 18   8  34  1   
 19   9  13  am  
 20   9  14  1   
 21  10  14  1   
 22  10  15  1   
 23  11  13  am  
 24  11  16  1   
 25  12  16  1   
 26  12  17  1   
 27  13  18  2   
 28  14  35  1   
 29  14  36  1   
 30  15  19  1   
 31  15  20  1   
 32  15  37  1   
 33  16  38  1   
 34  16  39  1   
 35  17  21  1   
 36  17  22  1   
 37  17  40  1   
 38  19  23  1   
 39  19  41  1   
 40  19  42  1   
 41  20  24  1   
 42  20  43  1   
 43  20  44  1   
 44  21  25  1   
 45  21  45  1   
 46  21  46  1   
 47  22  26  1   
 48  22  47  1   
 49  22  48  1   
 50  23  27  1   
 51  23  49  1   
 52  23  50  1   
 53  24  27  1   
 54  24  51  1   
 55  24  52  1   
 56  25  28  1   
 57  25  53  1   
 58  25  54  1   
 59  26  28  1   
 60  26  55  1   
 61  26  56  1   
 62  27  57  1   
 63  27  58  1   
 64  28  59  1   
 65  28  60  1   
@<TRIPOS>SUBSTRUCTURE
  1 ****   7 GROUP 4 **** **** 0

# MOE 2024.06 (io_trps.svl 2023.06)
