@<TRIPOS>MOLECULE
NONAME
42 42 1 0 0 
SMALL
USER_CHARGES


@<TRIPOS>ATOM
  1 CL      -0.9670     0.5840     0.3150 Cl    1 <1>  -0.2900 
  2 C       -0.7500    -1.0330    -0.3360 C.3   1 <1>   0.8700 
  3 CL      -2.3760    -1.6350    -0.6290 Cl    1 <1>  -0.2900 
  4 CL      -0.0050    -0.8850    -1.9230 Cl    1 <1>  -0.2900 
  5 C        0.0190    -1.9780     0.5980 C.3   1 <1>   0.2200 
  6 P        1.7080    -1.3980     0.7370 P.3   1 <1>   1.2420 
  7 N       -0.1090    -3.4400     0.1520 N.am  1 <1>  -0.7300 
  8 O        1.9240     0.0410     0.6310 O.2   1 <1>  -0.7000 
  9 O        2.2990    -1.9980     2.1070 O.3   1 <1>  -0.5510 
 10 O        2.5060    -2.2350    -0.3820 O.3   1 <1>  -0.5510 
 11 C       -0.7420    -4.4180     0.8600 C.2   1 <1>   0.5440 
 12 C        2.2760    -3.3460     2.4190 C.3   1 <1>   0.1200 
 13 C        3.8350    -1.9570    -0.6580 C.3   1 <1>   0.1200 
 14 O       -1.2230    -4.1040     1.9290 O.2   1 <1>  -0.5700 
 15 C       -0.8240    -5.7790     0.3580 C.ar  1 <1>   0.0860 
 16 C        3.1190    -3.5420     3.6730 C.3   1 <1>  -0.2400 
 17 C        3.8980    -0.9560    -1.8100 C.3   1 <1>  -0.2400 
 18 C       -1.8490    -6.6310     0.7680 C.ar  1 <1>  -0.1500 
 19 C        0.1100    -6.2930    -0.5450 C.ar  1 <1>  -0.1500 
 20 C       -1.9470    -7.9260     0.2950 C.ar  1 <1>  -0.1500 
 21 C        0.0150    -7.5880    -1.0220 C.ar  1 <1>  -0.1500 
 22 C       -1.0150    -8.4130    -0.6050 C.ar  1 <1>  -0.1430 
 23 C       -1.1210    -9.8330    -1.1300 C.3   1 <1>  -0.0970 
 24 H       -0.4570    -1.8740     1.5540 H     1 <1>   0.0800 
 25 H        0.3120    -3.6690    -0.7560 H     1 <1>   0.3700 
 26 H        2.6840    -3.9080     1.5960 H     1 <1>   0.0800 
 27 H        1.2580    -3.6450     2.6050 H     1 <1>   0.0800 
 28 H        4.3090    -2.8790    -0.9470 H     1 <1>   0.0800 
 29 H        4.3170    -1.5740     0.2280 H     1 <1>   0.0800 
 30 H        4.1320    -3.2320     3.4910 H     1 <1>   0.0800 
 31 H        3.1210    -4.5810     3.9510 H     1 <1>   0.0800 
 32 H        2.7090    -2.9720     4.4870 H     1 <1>   0.0800 
 33 H        3.3870    -1.3460    -2.6720 H     1 <1>   0.0800 
 34 H        4.9240    -0.7750    -2.0740 H     1 <1>   0.0800 
 35 H        3.4560    -0.0180    -1.5240 H     1 <1>   0.0800 
 36 H       -2.5810    -6.2660     1.4690 H     1 <1>   0.1500 
 37 H        0.9280    -5.6830    -0.8800 H     1 <1>   0.1500 
 38 H       -2.7540    -8.5540     0.6300 H     1 <1>   0.1500 
 39 H        0.7470    -7.9550    -1.7200 H     1 <1>   0.1500 
 40 H       -1.6750    -9.8400    -2.0510 H     1 <1>   0.0800 
 41 H       -1.6230   -10.4630    -0.4170 H     1 <1>   0.0800 
 42 H       -0.1420   -10.2410    -1.3100 H     1 <1>   0.0800 
@<TRIPOS>BOND
  1   1   2  1   
  2   2   3  1   
  3   2   4  1   
  4   2   5  1   
  5   5   6  1   
  6   5   7  1   
  7   5  24  1   
  8   6   8  2   
  9   6   9  1   
 10   6  10  1   
 11   7  11  am  
 12   7  25  1   
 13   9  12  1   
 14  10  13  1   
 15  11  14  2   
 16  11  15  1   
 17  12  16  1   
 18  12  26  1   
 19  12  27  1   
 20  13  17  1   
 21  13  28  1   
 22  13  29  1   
 23  15  18  ar  
 24  15  19  ar  
 25  16  30  1   
 26  16  31  1   
 27  16  32  1   
 28  17  33  1   
 29  17  34  1   
 30  17  35  1   
 31  18  20  ar  
 32  18  36  1   
 33  19  21  ar  
 34  19  37  1   
 35  20  22  ar  
 36  20  38  1   
 37  21  22  ar  
 38  21  39  1   
 39  22  23  1   
 40  23  40  1   
 41  23  41  1   
 42  23  42  1   
@<TRIPOS>SUBSTRUCTURE
  1 ****   7 GROUP 4 **** **** 0

# MOE 2024.06 (io_trps.svl 2023.06)
