@<TRIPOS>MOLECULE
NONAME
32 32 1 0 0 
SMALL
USER_CHARGES


@<TRIPOS>ATOM
  1 CL       2.8990    -0.4110    -3.7090 Cl    1 <1>  -0.1770 
  2 C        3.5130    -1.0590    -2.2100 C.ar  1 <1>   0.1770 
  3 C        3.9440    -2.3710    -2.1640 C.ar  1 <1>  -0.1500 
  4 C        3.5590    -0.2510    -1.0900 C.ar  1 <1>  -0.1500 
  5 C        4.4310    -2.8820    -0.9730 C.ar  1 <1>  -0.1500 
  6 C        4.0470    -0.7670     0.0980 C.ar  1 <1>  -0.1500 
  7 C        4.4840    -2.0840     0.1620 C.ar  1 <1>  -0.1430 
  8 C        5.0340    -2.6490     1.4700 C.3   1 <1>   0.0440 
  9 C        6.5460    -2.5360     1.5930 C.2   1 <1>   0.5690 
 10 O        7.0760    -2.9730     2.5850 O.2   1 <1>  -0.5700 
 11 N        7.2580    -1.9520     0.5940 N.am  1 <1>  -0.7300 
 12 C        8.7260    -1.8120     0.5500 C.3   1 <1>   0.1400 
 13 C        9.2310    -2.2980    -0.8060 C.3   1 <1>  -0.1600 
 14 C       10.7530    -2.2100    -0.8800 C.3   1 <1>   0.1200 
 15 O       11.1370    -2.6230    -2.1480 O.3   1 <1>  -0.5600 
 16 C       12.5120    -2.6150    -2.3530 C.3   1 <1>   0.0400 
 17 H        3.8980    -2.9790    -3.0500 H     1 <1>   0.1500 
 18 H        3.2170     0.7670    -1.1520 H     1 <1>   0.1500 
 19 H        4.7700    -3.9040    -0.9350 H     1 <1>   0.1500 
 20 H        4.0860    -0.1380     0.9720 H     1 <1>   0.1500 
 21 H        4.7700    -3.6870     1.5550 H     1 <1>   0.0800 
 22 H        4.5920    -2.1370     2.3040 H     1 <1>   0.0800 
 23 H        6.7460    -1.6020    -0.2220 H     1 <1>   0.3700 
 24 H        9.1710    -2.3950     1.3410 H     1 <1>   0.0800 
 25 H        8.9870    -0.7780     0.6980 H     1 <1>   0.0800 
 26 H        8.8080    -1.6900    -1.5860 H     1 <1>   0.0800 
 27 H        8.9360    -3.3220    -0.9500 H     1 <1>   0.0800 
 28 H       11.2070    -2.8580    -0.1500 H     1 <1>   0.0800 
 29 H       11.0850    -1.1960    -0.7340 H     1 <1>   0.0800 
 30 H       12.7020    -2.9480    -3.3580 H     1 <1>   0.0800 
 31 H       12.9800    -3.2870    -1.6540 H     1 <1>   0.0800 
 32 H       12.8850    -1.6130    -2.2270 H     1 <1>   0.0800 
@<TRIPOS>BOND
  1   1   2  1   
  2   2   3  ar  
  3   2   4  ar  
  4   3   5  ar  
  5   3  17  1   
  6   4   6  ar  
  7   4  18  1   
  8   5   7  ar  
  9   5  19  1   
 10   6   7  ar  
 11   6  20  1   
 12   7   8  1   
 13   8   9  1   
 14   8  21  1   
 15   8  22  1   
 16   9  10  2   
 17   9  11  am  
 18  11  12  1   
 19  11  23  1   
 20  12  13  1   
 21  12  24  1   
 22  12  25  1   
 23  13  14  1   
 24  13  26  1   
 25  13  27  1   
 26  14  15  1   
 27  14  28  1   
 28  14  29  1   
 29  15  16  1   
 30  16  30  1   
 31  16  31  1   
 32  16  32  1   
@<TRIPOS>SUBSTRUCTURE
  1 ****  11 GROUP 4 **** **** 0

# MOE 2024.06 (io_trps.svl 2023.06)
