@<TRIPOS>MOLECULE
NONAME
44 46 1 0 0 
SMALL
USER_CHARGES


@<TRIPOS>ATOM
  1 O        0.6090     2.3530    -1.6860 O.2   1 <1>  -0.5700 
  2 C        1.6500     2.5020    -1.0740 C.2   1 <1>   0.7060 
  3 O        2.6780     1.7480    -1.4790 O.3   1 <1>  -0.2330 
  4 C        1.8430     3.4130     0.0300 C.2   1 <1>   0.0290 
  5 C        3.9030     1.7840    -0.9140 C.ar  1 <1>   0.0830 
  6 C        0.7490     4.2430     0.4920 C.2   1 <1>   0.6160 
  7 C        3.0760     3.4620     0.6130 C.2   1 <1>  -0.1780 
  8 C        4.1480     2.6460     0.1570 C.ar  1 <1>   0.0280 
  9 C        4.9030     0.9610    -1.4090 C.ar  1 <1>  -0.1500 
 10 O        0.9300     5.0040     1.4230 O.2   1 <1>  -0.5700 
 11 N       -0.4940     4.2160    -0.0700 N.am  1 <1>  -0.7300 
 12 C        5.4240     2.6580     0.7170 C.ar  1 <1>  -0.1500 
 13 C        6.1630     0.9850    -0.8420 C.ar  1 <1>  -0.1500 
 14 C       -1.6630     5.0150     0.3270 C.3   1 <1>   0.2200 
 15 C        6.4260     1.8410     0.2300 C.ar  1 <1>   0.0830 
 16 C       -2.7860     4.0660     0.7550 C.3   1 <1>  -0.1600 
 17 C       -2.0910     5.8840    -0.8610 C.3   1 <1>  -0.1600 
 18 O        7.6340     1.9270     0.8430 O.3   1 <1>  -0.3630 
 19 C       -4.0750     4.8380     1.0730 C.3   1 <1>  -0.1600 
 20 C       -3.3780     6.6600    -0.5460 C.3   1 <1>  -0.1600 
 21 C        8.7260     1.1400     0.4270 C.3   1 <1>   0.1200 
 22 C       -4.5050     5.7130    -0.1130 C.3   1 <1>  -0.1600 
 23 C        9.9170     1.4790     1.3170 C.3   1 <1>  -0.2400 
 24 H        3.2780     4.1230     1.4400 H     1 <1>   0.1500 
 25 H        4.6880     0.3050    -2.2350 H     1 <1>   0.1500 
 26 H       -0.6490     3.5730    -0.8570 H     1 <1>   0.3700 
 27 H        5.6400     3.3120     1.5420 H     1 <1>   0.1500 
 28 H        6.9220     0.3390    -1.2410 H     1 <1>   0.1500 
 29 H       -1.4070     5.6550     1.1560 H     1 <1>   0.0800 
 30 H       -2.4750     3.5190     1.6270 H     1 <1>   0.0800 
 31 H       -2.9850     3.3640    -0.0360 H     1 <1>   0.0800 
 32 H       -2.2600     5.2590    -1.7200 H     1 <1>   0.0800 
 33 H       -1.3040     6.5800    -1.0920 H     1 <1>   0.0800 
 34 H       -3.9120     5.4630     1.9350 H     1 <1>   0.0800 
 35 H       -4.8620     4.1440     1.3140 H     1 <1>   0.0800 
 36 H       -3.6860     7.2150    -1.4150 H     1 <1>   0.0800 
 37 H       -3.1830     7.3660     0.2440 H     1 <1>   0.0800 
 38 H        8.9420     1.3710    -0.6020 H     1 <1>   0.0800 
 39 H        8.4580     0.1020     0.5300 H     1 <1>   0.0800 
 40 H       -5.3740     6.2870     0.1590 H     1 <1>   0.0800 
 41 H       -4.7760     5.0800    -0.9420 H     1 <1>   0.0800 
 42 H       10.1660     2.5210     1.2200 H     1 <1>   0.0800 
 43 H       10.7690     0.8930     1.0250 H     1 <1>   0.0800 
 44 H        9.6850     1.2600     2.3440 H     1 <1>   0.0800 
@<TRIPOS>BOND
  1   1   2  2   
  2   2   3  1   
  3   2   4  1   
  4   3   5  1   
  5   4   6  1   
  6   4   7  2   
  7   5   8  ar  
  8   5   9  ar  
  9   6  10  2   
 10   6  11  am  
 11   7   8  1   
 12   7  24  1   
 13   8  12  ar  
 14   9  13  ar  
 15   9  25  1   
 16  11  14  1   
 17  11  26  1   
 18  12  15  ar  
 19  12  27  1   
 20  13  15  ar  
 21  13  28  1   
 22  14  16  1   
 23  14  17  1   
 24  14  29  1   
 25  15  18  1   
 26  16  19  1   
 27  16  30  1   
 28  16  31  1   
 29  17  20  1   
 30  17  32  1   
 31  17  33  1   
 32  18  21  1   
 33  19  22  1   
 34  19  34  1   
 35  19  35  1   
 36  20  22  1   
 37  20  36  1   
 38  20  37  1   
 39  21  23  1   
 40  21  38  1   
 41  21  39  1   
 42  22  40  1   
 43  22  41  1   
 44  23  42  1   
 45  23  43  1   
 46  23  44  1   
@<TRIPOS>SUBSTRUCTURE
  1 ****   4 GROUP 4 **** **** 0

# MOE 2024.06 (io_trps.svl 2023.06)
