@<TRIPOS>MOLECULE
NONAME
34 35 1 0 0 
SMALL
USER_CHARGES


@<TRIPOS>ATOM
  1 S        0.3520    -0.2960    -0.5490 S.o2  1 <1>   1.4470 
  2 O        1.5590    -0.5670    -1.3000 O.2   1 <1>  -0.6500 
  3 O       -0.8740    -0.9640    -0.9280 O.2   1 <1>  -0.6500 
  4 N        0.6660    -0.7640     1.0520 N.am  1 <1>  -0.8490 
  5 C        0.1030     1.4970    -0.4350 C.ar  1 <1>  -0.0090 
  6 C        1.1950    -2.1550     1.1340 C.3   1 <1>   0.2570 
  7 C       -0.4990    -0.6030     1.9300 C.3   1 <1>   0.1160 
  8 C       -1.0150     2.1080    -0.9930 C.ar  1 <1>  -0.1500 
  9 C        1.0310     2.3060     0.2130 C.ar  1 <1>  -0.1500 
 10 C        2.7230    -2.2680     1.2500 C.2   1 <1>   0.5690 
 11 C       -1.2040     3.4760    -0.9050 C.ar  1 <1>  -0.1500 
 12 C        0.8490     3.6750     0.3050 C.ar  1 <1>  -0.1500 
 13 O        3.1820    -2.8730     2.1920 O.2   1 <1>  -0.5700 
 14 N        3.5150    -1.7100     0.2950 N.am  1 <1>  -0.5790 
 15 C       -0.2710     4.2620    -0.2540 C.ar  1 <1>  -0.1500 
 16 C        4.9810    -1.7180     0.2610 C.3   1 <1>   0.0490 
 17 C        5.6710    -0.5160    -0.2920 C.3   1 <1>  -0.2000 
 18 C        5.6470    -1.7960    -1.0720 C.3   1 <1>  -0.2000 
 19 H        0.8730    -2.7280     0.2820 H     1 <1>   0.0800 
 20 H        0.7920    -2.6440     2.0050 H     1 <1>   0.0800 
 21 H       -0.8510     0.4140     1.9010 H     1 <1>   0.0800 
 22 H       -0.2290    -0.8340     2.9470 H     1 <1>   0.0800 
 23 H       -1.3000    -1.2560     1.6220 H     1 <1>   0.0800 
 24 H       -1.7480     1.5050    -1.5040 H     1 <1>   0.1500 
 25 H        1.9070     1.8560     0.6510 H     1 <1>   0.1500 
 26 H       -2.0770     3.9300    -1.3440 H     1 <1>   0.1500 
 27 H        1.5790     4.2830     0.8120 H     1 <1>   0.1500 
 28 H        3.0580    -1.2120    -0.4830 H     1 <1>   0.3700 
 29 H       -0.4150     5.3270    -0.1850 H     1 <1>   0.1500 
 30 H        5.4270    -2.2350     1.0970 H     1 <1>   0.1000 
 31 H        6.6010    -0.2060     0.1510 H     1 <1>   0.1000 
 32 H        5.0750     0.3130    -0.6310 H     1 <1>   0.1000 
 33 H        5.0330    -1.8600    -1.9530 H     1 <1>   0.1000 
 34 H        6.5610    -2.3570    -1.1600 H     1 <1>   0.1000 
@<TRIPOS>BOND
  1   1   2  2   
  2   1   3  2   
  3   1   4  am  
  4   1   5  1   
  5   4   6  1   
  6   4   7  1   
  7   5   8  ar  
  8   5   9  ar  
  9   6  10  1   
 10   6  19  1   
 11   6  20  1   
 12   7  21  1   
 13   7  22  1   
 14   7  23  1   
 15   8  11  ar  
 16   8  24  1   
 17   9  12  ar  
 18   9  25  1   
 19  10  13  2   
 20  10  14  am  
 21  11  15  ar  
 22  11  26  1   
 23  12  15  ar  
 24  12  27  1   
 25  14  16  1   
 26  14  28  1   
 27  15  29  1   
 28  16  17  1   
 29  16  18  1   
 30  16  30  1   
 31  17  18  1   
 32  17  31  1   
 33  17  32  1   
 34  18  33  1   
 35  18  34  1   
@<TRIPOS>SUBSTRUCTURE
  1 ****   1 GROUP 4 **** **** 0

# MOE 2024.06 (io_trps.svl 2023.06)
