@<TRIPOS>MOLECULE
NONAME
42 42 1 0 0 
SMALL
USER_CHARGES


@<TRIPOS>ATOM
  1 N       -0.0780     0.4100    -0.4850 N.4   1 <1>  -0.9590 
  2 C        0.9870     0.0820    -1.4850 C.3   1 <1>   0.4860 
  3 C       -1.3600    -0.3200    -0.8000 C.3   1 <1>   0.3430 
  4 C       -0.2130     1.8930    -0.3650 C.3   1 <1>   0.3430 
  5 C        2.3190     0.4540    -0.8700 C.ar  1 <1>  -0.1440 
  6 C       -2.4660    -0.2060     0.2910 C.3   1 <1>   0.3430 
  7 C       -0.2290     2.2640     1.1110 C.3   1 <1>  -0.2400 
  8 C        2.8540    -0.3190     0.1530 C.ar  1 <1>  -0.1500 
  9 C        3.0100     1.5710    -1.3150 C.ar  1 <1>  -0.1500 
 10 N       -3.7420    -0.9560    -0.0190 N.4   1 <1>  -0.9590 
 11 C        4.0580     0.0310     0.7410 C.ar  1 <1>  -0.1430 
 12 C        4.2120     1.9220    -0.7290 C.ar  1 <1>  -0.1500 
 13 C       -4.7990    -0.6210     0.9960 C.3   1 <1>   0.2630 
 14 C       -3.5700    -2.4490    -0.0570 C.3   1 <1>   0.2630 
 15 C        4.7310     1.1560     0.2980 C.ar  1 <1>  -0.1500 
 16 C        4.6460    -0.8100     1.8610 C.3   1 <1>  -0.0970 
 17 H        0.3360     0.0930     0.4060 H     1 <1>   0.4500 
 18 H        0.8330     0.6260    -2.4030 H     1 <1>   0.0800 
 19 H        0.9900    -0.9730    -1.7040 H     1 <1>   0.0800 
 20 H       -1.1330    -1.3650    -0.9380 H     1 <1>   0.0800 
 21 H       -1.7540     0.0590    -1.7290 H     1 <1>   0.0800 
 22 H       -1.1090     2.2400    -0.8550 H     1 <1>   0.0800 
 23 H        0.6290     2.3860    -0.8270 H     1 <1>   0.0800 
 24 H       -2.7070     0.8370     0.4160 H     1 <1>   0.0800 
 25 H       -2.0700    -0.5690     1.2250 H     1 <1>   0.0800 
 26 H       -1.0600     1.8310     1.6340 H     1 <1>   0.0800 
 27 H       -0.3060     3.3340     1.2010 H     1 <1>   0.0800 
 28 H        0.6930     1.9690     1.5830 H     1 <1>   0.0800 
 29 H        2.3510    -1.2030     0.5020 H     1 <1>   0.1500 
 30 H        2.6330     2.1810    -2.1190 H     1 <1>   0.1500 
 31 H       -4.1200    -0.6550    -0.9350 H     1 <1>   0.4500 
 32 H        4.7510     2.7900    -1.0710 H     1 <1>   0.1500 
 33 H       -4.4880    -0.9270     1.9820 H     1 <1>   0.0800 
 34 H       -5.7220    -1.1270     0.7580 H     1 <1>   0.0800 
 35 H       -4.9910     0.4410     1.0090 H     1 <1>   0.0800 
 36 H       -3.2060    -2.8120     0.8920 H     1 <1>   0.0800 
 37 H       -2.8750    -2.7370    -0.8290 H     1 <1>   0.0800 
 38 H       -4.5150    -2.9280    -0.2610 H     1 <1>   0.0800 
 39 H        5.6680     1.4390     0.7480 H     1 <1>   0.1500 
 40 H        4.3140    -0.4370     2.8130 H     1 <1>   0.0800 
 41 H        5.7200    -0.7720     1.8340 H     1 <1>   0.0800 
 42 H        4.3450    -1.8380     1.7650 H     1 <1>   0.0800 
@<TRIPOS>BOND
  1   1   2  1   
  2   1   3  1   
  3   1   4  1   
  4   1  17  1   
  5   2   5  1   
  6   2  18  1   
  7   2  19  1   
  8   3   6  1   
  9   3  20  1   
 10   3  21  1   
 11   4   7  1   
 12   4  22  1   
 13   4  23  1   
 14   5   8  ar  
 15   5   9  ar  
 16   6  10  1   
 17   6  24  1   
 18   6  25  1   
 19   7  26  1   
 20   7  27  1   
 21   7  28  1   
 22   8  11  ar  
 23   8  29  1   
 24   9  12  ar  
 25   9  30  1   
 26  10  13  1   
 27  10  14  1   
 28  10  31  1   
 29  11  15  ar  
 30  11  16  1   
 31  12  15  ar  
 32  12  32  1   
 33  13  33  1   
 34  13  34  1   
 35  13  35  1   
 36  14  36  1   
 37  14  37  1   
 38  14  38  1   
 39  15  39  1   
 40  16  40  1   
 41  16  41  1   
 42  16  42  1   
@<TRIPOS>SUBSTRUCTURE
  1 ****   1 GROUP 4 **** **** 0

# MOE 2024.06 (io_trps.svl 2023.06)
