@<TRIPOS>MOLECULE
NONAME
53 55 1 0 0 
SMALL
USER_CHARGES


@<TRIPOS>ATOM
  1 O       -0.5000    -0.5760    -1.6860 O.2   1 <1>  -0.5700 
  2 C       -0.5830    -0.7230    -0.4830 C.2   1 <1>   0.6900 
  3 N       -1.1790     0.2060     0.2880 N.am  1 <1>  -0.7300 
  4 N       -0.0880    -1.8200     0.1300 N.am  1 <1>  -0.7300 
  5 C       -1.7030     1.5200    -0.2140 C.3   1 <1>   0.2810 
  6 C        0.5550    -2.9580    -0.5570 C.3   1 <1>   0.1400 
  7 C       -1.0650     2.6970     0.5460 C.2   1 <1>   0.6590 
  8 C       -3.2620     1.5430    -0.1900 C.3   1 <1>   0.0000 
  9 C       -0.2010    -4.2410    -0.2100 C.3   1 <1>  -0.1600 
 10 O       -0.7450     3.7200    -0.0070 O.2   1 <1>  -0.5700 
 11 O       -0.8750     2.5280     1.8560 O.3   1 <1>  -0.4300 
 12 C       -3.8240     0.4060    -1.0860 C.3   1 <1>  -0.1600 
 13 C       -3.7940     2.8880    -0.7540 C.3   1 <1>  -0.1600 
 14 C       -3.8390     1.3600     1.2390 C.3   1 <1>  -0.1600 
 15 C        0.4260    -5.4580    -0.9020 C.3   1 <1>  -0.1600 
 16 C       -0.2920     3.5370     2.6550 C.3   1 <1>   0.0400 
 17 C       -5.3630     0.4210    -1.1130 C.3   1 <1>  -0.0800 
 18 C       -5.3330     2.9170    -0.7790 C.3   1 <1>  -0.0800 
 19 C       -5.3800     1.3790     1.2200 C.3   1 <1>  -0.0800 
 20 C       -0.3350    -6.7400    -0.5540 C.3   1 <1>  -0.2400 
 21 C       -5.8460     1.7720    -1.6690 C.3   1 <1>  -0.1600 
 22 C       -5.8920     0.2400     0.3210 C.3   1 <1>  -0.1600 
 23 C       -5.8630     2.7270     0.6540 C.3   1 <1>  -0.1600 
 24 H       -1.1110     0.1330     1.3000 H     1 <1>   0.3700 
 25 H       -0.2370    -1.9290     1.1280 H     1 <1>   0.3700 
 26 H       -1.4000     1.6350    -1.2400 H     1 <1>   0.0800 
 27 H        1.5810    -3.0310    -0.2380 H     1 <1>   0.0800 
 28 H        0.5420    -2.8020    -1.6240 H     1 <1>   0.0800 
 29 H       -1.2240    -4.1390    -0.5290 H     1 <1>   0.0800 
 30 H       -0.1830    -4.3890     0.8550 H     1 <1>   0.0800 
 31 H       -3.4980    -0.5520    -0.7230 H     1 <1>   0.0800 
 32 H       -3.4460     0.5100    -2.0890 H     1 <1>   0.0800 
 33 H       -3.4190     3.0400    -1.7520 H     1 <1>   0.0800 
 34 H       -3.4510     3.7120    -0.1530 H     1 <1>   0.0800 
 35 H       -3.4930     2.1460     1.8860 H     1 <1>   0.0800 
 36 H       -3.5080     0.4240     1.6540 H     1 <1>   0.0800 
 37 H        1.4530    -5.5620    -0.5960 H     1 <1>   0.0800 
 38 H        0.4080    -5.3160    -1.9690 H     1 <1>   0.0800 
 39 H       -0.2390     3.1840     3.6690 H     1 <1>   0.0800 
 40 H       -0.9040     4.4210     2.6010 H     1 <1>   0.0800 
 41 H        0.6960     3.7480     2.2820 H     1 <1>   0.0800 
 42 H       -5.7220    -0.3790    -1.7380 H     1 <1>   0.0800 
 43 H       -5.6720     3.8600    -1.1700 H     1 <1>   0.0800 
 44 H       -5.7580     1.2500     2.2200 H     1 <1>   0.0800 
 45 H       -0.3120    -6.9180     0.5070 H     1 <1>   0.0800 
 46 H        0.1150    -7.5820    -1.0510 H     1 <1>   0.0800 
 47 H       -1.3610    -6.6670    -0.8710 H     1 <1>   0.0800 
 48 H       -5.4860     1.9010    -2.6750 H     1 <1>   0.0800 
 49 H       -6.9220     1.7890    -1.7010 H     1 <1>   0.0800 
 50 H       -5.5670    -0.7090     0.7120 H     1 <1>   0.0800 
 51 H       -6.9680     0.2380     0.3130 H     1 <1>   0.0800 
 52 H       -6.9390     2.7540     0.6490 H     1 <1>   0.0800 
 53 H       -5.5190     3.5310     1.2800 H     1 <1>   0.0800 
@<TRIPOS>BOND
  1   1   2  2   
  2   2   3  am  
  3   2   4  am  
  4   3   5  1   
  5   3  24  1   
  6   4   6  1   
  7   4  25  1   
  8   5   7  1   
  9   5   8  1   
 10   5  26  1   
 11   6   9  1   
 12   6  27  1   
 13   6  28  1   
 14   7  10  2   
 15   7  11  1   
 16   8  12  1   
 17   8  13  1   
 18   8  14  1   
 19   9  15  1   
 20   9  29  1   
 21   9  30  1   
 22  11  16  1   
 23  12  17  1   
 24  12  31  1   
 25  12  32  1   
 26  13  18  1   
 27  13  33  1   
 28  13  34  1   
 29  14  19  1   
 30  14  35  1   
 31  14  36  1   
 32  15  20  1   
 33  15  37  1   
 34  15  38  1   
 35  16  39  1   
 36  16  40  1   
 37  16  41  1   
 38  17  21  1   
 39  17  22  1   
 40  17  42  1   
 41  18  21  1   
 42  18  23  1   
 43  18  43  1   
 44  19  22  1   
 45  19  23  1   
 46  19  44  1   
 47  20  45  1   
 48  20  46  1   
 49  20  47  1   
 50  21  48  1   
 51  21  49  1   
 52  22  50  1   
 53  22  51  1   
 54  23  52  1   
 55  23  53  1   
@<TRIPOS>SUBSTRUCTURE
  1 ****   3 GROUP 4 **** **** 0

# MOE 2024.06 (io_trps.svl 2023.06)
