@<TRIPOS>MOLECULE
NONAME
44 46 1 0 0 
SMALL
USER_CHARGES


@<TRIPOS>ATOM
  1 O        2.6610     0.3470    -1.8290 O.2   1 <1>  -0.5700 
  2 C        2.7520    -0.2530    -0.7720 C.2   1 <1>   0.7150 
  3 N        3.2470     0.4300     0.3230 N.am  1 <1>  -0.6600 
  4 C        2.3440    -1.6400    -0.6750 C.2   1 <1>   0.0550 
  5 C        3.3890     1.9180     0.3140 C.3   1 <1>   0.1400 
  6 C        4.0350    -0.2340     1.4070 C.3   1 <1>   0.1400 
  7 O        2.5540    -2.4910    -1.6770 O.3   1 <1>  -0.2800 
  8 C        1.7230    -2.3170     0.3330 C.2   1 <1>  -0.1500 
  9 C        4.8670     2.3280     0.2290 C.3   1 <1>   0.1400 
 10 C        5.5150     0.1760     1.3360 C.3   1 <1>   0.1400 
 11 C        2.0930    -3.6730    -1.3390 C.2   1 <1>  -0.0100 
 12 C        1.5630    -3.6340    -0.0980 C.2   1 <1>  -0.1500 
 13 N        5.6690     1.6640     1.3070 N.am  1 <1>  -0.6600 
 14 C        6.5350     2.3100     2.1610 C.2   1 <1>   0.5690 
 15 O        7.1070     1.7110     3.0430 O.2   1 <1>  -0.5700 
 16 C        6.7920     3.8130     2.0690 C.3   1 <1>   0.1810 
 17 O        7.2340     4.1860     0.7730 O.3   1 <1>  -0.3630 
 18 C        7.2940     5.4890     0.3980 C.ar  1 <1>   0.0820 
 19 C        7.3840     5.7650    -0.9640 C.ar  1 <1>  -0.1440 
 20 C        7.2660     6.5370     1.3150 C.ar  1 <1>  -0.1500 
 21 C        7.4310     7.0820    -1.3920 C.ar  1 <1>  -0.1500 
 22 C        7.4290     4.6370    -1.9850 C.3   1 <1>  -0.0970 
 23 C        7.3140     7.8470     0.8760 C.ar  1 <1>  -0.1500 
 24 C        7.3950     8.1200    -0.4780 C.ar  1 <1>  -0.1500 
 25 H        2.9620     2.3180     1.2160 H     1 <1>   0.0800 
 26 H        2.8530     2.3460    -0.5160 H     1 <1>   0.0800 
 27 H        3.9750    -1.3040     1.3260 H     1 <1>   0.0800 
 28 H        3.6350     0.0510     2.3640 H     1 <1>   0.0800 
 29 H        1.4010    -1.9290     1.2830 H     1 <1>   0.1500 
 30 H        4.9290     3.3980     0.3000 H     1 <1>   0.0800 
 31 H        5.2590     2.0380    -0.7310 H     1 <1>   0.0800 
 32 H        5.9540    -0.2360     0.4440 H     1 <1>   0.0800 
 33 H        6.0360    -0.2430     2.1790 H     1 <1>   0.0800 
 34 H        2.1790    -4.4860    -2.0390 H     1 <1>   0.1500 
 35 H        1.1050    -4.4320     0.4600 H     1 <1>   0.1500 
 36 H        7.5560     4.0890     2.7730 H     1 <1>   0.0800 
 37 H        5.8840     4.3420     2.2890 H     1 <1>   0.0800 
 38 H        7.2140     6.3550     2.3710 H     1 <1>   0.1500 
 39 H        7.4970     7.3080    -2.4420 H     1 <1>   0.1500 
 40 H        6.4960     4.1050    -1.9830 H     1 <1>   0.0800 
 41 H        8.2190     3.9510    -1.7360 H     1 <1>   0.0800 
 42 H        7.6080     5.0160    -2.9750 H     1 <1>   0.0800 
 43 H        7.2920     8.6560     1.5850 H     1 <1>   0.1500 
 44 H        7.4330     9.1400    -0.8200 H     1 <1>   0.1500 
@<TRIPOS>BOND
  1   1   2  2   
  2   2   3  am  
  3   2   4  1   
  4   3   5  1   
  5   3   6  1   
  6   4   7  1   
  7   4   8  2   
  8   5   9  1   
  9   5  25  1   
 10   5  26  1   
 11   6  10  1   
 12   6  27  1   
 13   6  28  1   
 14   7  11  1   
 15   8  12  1   
 16   8  29  1   
 17   9  13  1   
 18   9  30  1   
 19   9  31  1   
 20  10  13  1   
 21  10  32  1   
 22  10  33  1   
 23  11  12  2   
 24  11  34  1   
 25  12  35  1   
 26  13  14  am  
 27  14  15  2   
 28  14  16  1   
 29  16  17  1   
 30  16  36  1   
 31  16  37  1   
 32  17  18  1   
 33  18  19  ar  
 34  18  20  ar  
 35  19  21  ar  
 36  19  22  1   
 37  20  23  ar  
 38  20  38  1   
 39  21  24  ar  
 40  21  39  1   
 41  22  40  1   
 42  22  41  1   
 43  22  42  1   
 44  23  24  ar  
 45  23  43  1   
 46  24  44  1   
@<TRIPOS>SUBSTRUCTURE
  1 ****   9 GROUP 4 **** **** 0

# MOE 2024.06 (io_trps.svl 2023.06)
