@<TRIPOS>MOLECULE
NONAME
30 32 1 0 0 
SMALL
USER_CHARGES


@<TRIPOS>ATOM
  1 O       -0.6320     0.3480     1.2420 O.2   1 <1>  -0.5700 
  2 C       -1.5490     0.9900     0.7590 C.2   1 <1>   0.7060 
  3 O       -2.7550     0.4110     0.7920 O.3   1 <1>  -0.2330 
  4 C       -1.4240     2.3250     0.1660 C.2   1 <1>   0.1140 
  5 C       -3.8750     0.9890     0.3090 C.ar  1 <1>   0.0820 
  6 N       -0.2090     3.0450     0.0690 N.pl3 1 <1>  -0.8380 
  7 C       -2.5460     2.9070    -0.3330 C.2   1 <1>  -0.1780 
  8 C       -3.8110     2.2590    -0.2720 C.ar  1 <1>   0.0280 
  9 C       -5.0790     0.3070     0.3990 C.ar  1 <1>  -0.1500 
 10 C        1.1040     2.3260     0.0850 C.3   1 <1>   0.2090 
 11 C       -0.1050     4.3760     0.7450 C.3   1 <1>   0.2090 
 12 C       -4.9900     2.8220    -0.7610 C.ar  1 <1>  -0.1500 
 13 C       -6.2360     0.8820    -0.0910 C.ar  1 <1>  -0.1500 
 14 C        2.2320     3.2330    -0.4390 C.3   1 <1>   0.1200 
 15 C        1.0810     5.1810     0.1820 C.3   1 <1>   0.1200 
 16 C       -6.1890     2.1420    -0.6710 C.ar  1 <1>  -0.1500 
 17 O        2.2720     4.4470     0.2630 O.3   1 <1>  -0.5600 
 18 H       -2.5060     3.8720    -0.8010 H     1 <1>   0.1500 
 19 H       -5.1020    -0.6690     0.8510 H     1 <1>   0.1500 
 20 H        1.0420     1.4440    -0.5280 H     1 <1>   0.0800 
 21 H        1.3380     2.0200     1.0910 H     1 <1>   0.0800 
 22 H        0.0380     4.2290     1.8010 H     1 <1>   0.0800 
 23 H       -1.0120     4.9360     0.6060 H     1 <1>   0.0800 
 24 H       -4.9610     3.7980    -1.2130 H     1 <1>   0.1500 
 25 H       -7.1730     0.3560    -0.0230 H     1 <1>   0.1500 
 26 H        2.0850     3.4440    -1.4840 H     1 <1>   0.0800 
 27 H        3.1840     2.7500    -0.3130 H     1 <1>   0.0800 
 28 H        1.2150     6.0860     0.7460 H     1 <1>   0.0800 
 29 H        0.9030     5.4370    -0.8480 H     1 <1>   0.0800 
 30 H       -7.0930     2.5860    -1.0520 H     1 <1>   0.1500 
@<TRIPOS>BOND
  1   1   2  2   
  2   2   3  1   
  3   2   4  1   
  4   3   5  1   
  5   4   6  1   
  6   4   7  2   
  7   5   8  ar  
  8   5   9  ar  
  9   6  10  1   
 10   6  11  1   
 11   7   8  1   
 12   7  18  1   
 13   8  12  ar  
 14   9  13  ar  
 15   9  19  1   
 16  10  14  1   
 17  10  20  1   
 18  10  21  1   
 19  11  15  1   
 20  11  22  1   
 21  11  23  1   
 22  12  16  ar  
 23  12  24  1   
 24  13  16  ar  
 25  13  25  1   
 26  14  17  1   
 27  14  26  1   
 28  14  27  1   
 29  15  17  1   
 30  15  28  1   
 31  15  29  1   
 32  16  30  1   
@<TRIPOS>SUBSTRUCTURE
  1 ****   4 GROUP 4 **** **** 0

# MOE 2024.06 (io_trps.svl 2023.06)
