@<TRIPOS>MOLECULE
NONAME
49 51 1 0 0 
SMALL
USER_CHARGES


@<TRIPOS>ATOM
  1 S       -0.9280    -0.0200    -0.6400 S.o2  1 <1>   1.5760 
  2 O        0.4510     0.2690    -0.3290 O.2   1 <1>  -0.6500 
  3 O       -1.5410     0.5070    -1.8370 O.2   1 <1>  -0.6500 
  4 N       -1.2010    -1.7290    -0.6230 N.am  1 <1>  -0.6930 
  5 N       -1.8850     0.4500     0.6780 N.am  1 <1>  -0.8490 
  6 C       -0.3470    -2.6090     0.0360 C.ar  1 <1>   0.1990 
  7 C       -2.1220    -2.2880    -1.6680 C.3   1 <1>   0.2570 
  8 C       -1.2500     0.1570     1.9680 C.3   1 <1>   0.1160 
  9 C       -2.2290     1.8720     0.6130 C.3   1 <1>   0.1160 
 10 C       -0.8280    -3.4340     1.0490 C.ar  1 <1>  -0.1500 
 11 C        0.9990    -2.6970    -0.3020 C.ar  1 <1>  -0.1500 
 12 C       -3.1540    -3.3000    -1.1510 C.2   1 <1>   0.5690 
 13 C        0.0090    -4.3170     1.7060 C.ar  1 <1>  -0.1500 
 14 C        1.8410    -3.5770     0.3530 C.ar  1 <1>  -0.1500 
 15 O       -3.0770    -4.4310    -1.5760 O.2   1 <1>  -0.5700 
 16 N       -4.1330    -2.9440    -0.2530 N.am  1 <1>  -0.6600 
 17 C        1.3470    -4.3880     1.3600 C.ar  1 <1>  -0.1500 
 18 C       -4.3070    -1.5570     0.2720 C.3   1 <1>   0.2840 
 19 C       -5.0890    -3.9420     0.2970 C.3   1 <1>   0.1400 
 20 C       -5.7640    -1.1960     0.5540 C.ar  1 <1>  -0.1430 
 21 C       -6.5150    -3.5280    -0.0620 C.3   1 <1>  -0.0170 
 22 C       -6.8020    -2.1090     0.4040 C.ar  1 <1>  -0.1430 
 23 C       -6.0490     0.0930     0.9780 C.ar  1 <1>  -0.1500 
 24 C       -8.1060    -1.7240     0.6750 C.ar  1 <1>  -0.1500 
 25 C       -7.3510     0.4740     1.2500 C.ar  1 <1>  -0.1500 
 26 C       -8.3810    -0.4360     1.0980 C.ar  1 <1>  -0.1500 
 27 H       -1.5240    -2.7750    -2.4170 H     1 <1>   0.0800 
 28 H       -2.6680    -1.5070    -2.1620 H     1 <1>   0.0800 
 29 H       -1.0230    -0.8920     2.0440 H     1 <1>   0.0800 
 30 H       -1.9140     0.4150     2.7750 H     1 <1>   0.0800 
 31 H       -0.3330     0.7130     2.0760 H     1 <1>   0.0800 
 32 H       -2.7820     2.0780    -0.2890 H     1 <1>   0.0800 
 33 H       -1.3360     2.4760     0.6160 H     1 <1>   0.0800 
 34 H       -2.8440     2.1460     1.4530 H     1 <1>   0.0800 
 35 H       -1.8650    -3.3830     1.3220 H     1 <1>   0.1500 
 36 H        1.3890    -2.0700    -1.0830 H     1 <1>   0.1500 
 37 H       -0.3790    -4.9490     2.4850 H     1 <1>   0.1500 
 38 H        2.8810    -3.6300     0.0810 H     1 <1>   0.1500 
 39 H        2.0010    -5.0750     1.8690 H     1 <1>   0.1500 
 40 H       -3.9250    -0.8450    -0.4360 H     1 <1>   0.0800 
 41 H       -3.7430    -1.4620     1.1830 H     1 <1>   0.0800 
 42 H       -4.9810    -3.9780     1.3670 H     1 <1>   0.0800 
 43 H       -4.8890    -4.9250    -0.0950 H     1 <1>   0.0800 
 44 H       -7.2030    -4.2130     0.3990 H     1 <1>   0.0800 
 45 H       -6.6440    -3.5890    -1.1270 H     1 <1>   0.0800 
 46 H       -5.2540     0.8080     1.0980 H     1 <1>   0.1500 
 47 H       -8.9140    -2.4240     0.5570 H     1 <1>   0.1500 
 48 H       -7.5640     1.4770     1.5780 H     1 <1>   0.1500 
 49 H       -9.3950    -0.1430     1.3070 H     1 <1>   0.1500 
@<TRIPOS>BOND
  1   1   2  2   
  2   1   3  2   
  3   1   4  am  
  4   1   5  am  
  5   4   6  1   
  6   4   7  1   
  7   5   8  1   
  8   5   9  1   
  9   6  10  ar  
 10   6  11  ar  
 11   7  12  1   
 12   7  27  1   
 13   7  28  1   
 14   8  29  1   
 15   8  30  1   
 16   8  31  1   
 17   9  32  1   
 18   9  33  1   
 19   9  34  1   
 20  10  13  ar  
 21  10  35  1   
 22  11  14  ar  
 23  11  36  1   
 24  12  15  2   
 25  12  16  am  
 26  13  17  ar  
 27  13  37  1   
 28  14  17  ar  
 29  14  38  1   
 30  16  18  1   
 31  16  19  1   
 32  17  39  1   
 33  18  20  1   
 34  18  40  1   
 35  18  41  1   
 36  19  21  1   
 37  19  42  1   
 38  19  43  1   
 39  20  22  ar  
 40  20  23  ar  
 41  21  22  1   
 42  21  44  1   
 43  21  45  1   
 44  22  24  ar  
 45  23  25  ar  
 46  23  46  1   
 47  24  26  ar  
 48  24  47  1   
 49  25  26  ar  
 50  25  48  1   
 51  26  49  1   
@<TRIPOS>SUBSTRUCTURE
  1 ****  18 GROUP 4 **** **** 0

# MOE 2024.06 (io_trps.svl 2023.06)
