@<TRIPOS>MOLECULE
NONAME
44 45 1 0 0 
SMALL
USER_CHARGES


@<TRIPOS>ATOM
  1 O       -0.0960     1.0650    -1.6770 O.2   1 <1>  -0.5700 
  2 C       -0.3250     1.8070    -0.7520 C.2   1 <1>   0.5690 
  3 N       -1.5610     1.8990    -0.2070 N.am  1 <1>  -0.7300 
  4 C        0.7930     2.6720    -0.1700 C.3   1 <1>  -0.0190 
  5 C       -2.7500     1.2190    -0.7230 C.3   1 <1>   0.3640 
  6 C        1.4170     3.6430    -1.1730 C.3   1 <1>  -0.1600 
  7 C        1.9940     1.8780     0.3470 C.3   1 <1>  -0.1600 
  8 C       -3.9590     2.0980    -0.4270 C.ar  1 <1>  -0.1440 
  9 C       -2.8600    -0.1570    -0.0710 C.3   1 <1>  -0.2400 
 10 C        2.7750     4.0160    -0.5730 C.3   1 <1>  -0.1600 
 11 C        3.1440     2.8870     0.3990 C.3   1 <1>  -0.1600 
 12 C       -4.6690     2.6630    -1.4760 C.ar  1 <1>  -0.1500 
 13 C       -4.3680     2.3610     0.8730 C.ar  1 <1>  -0.1500 
 14 C       -5.7660     3.4710    -1.2300 C.ar  1 <1>  -0.1500 
 15 C       -5.4650     3.1690     1.1180 C.ar  1 <1>  -0.1500 
 16 C       -6.1760     3.7320     0.0690 C.ar  1 <1>  -0.1440 
 17 C       -7.3840     4.6210     0.3570 C.3   1 <1>   0.0630 
 18 C       -8.6600     4.0180    -0.2400 C.3   1 <1>  -0.2400 
 19 C       -7.1560     6.0420    -0.1680 C.3   1 <1>  -0.2400 
 20 H       -1.7660     2.5930     0.5090 H     1 <1>   0.3700 
 21 H        0.4000     3.2480     0.6490 H     1 <1>   0.0800 
 22 H       -2.6470     1.0900    -1.7890 H     1 <1>   0.0800 
 23 H        0.7960     4.5050    -1.3410 H     1 <1>   0.0800 
 24 H        1.5730     3.1350    -2.1110 H     1 <1>   0.0800 
 25 H        2.2380     1.1010    -0.3590 H     1 <1>   0.0800 
 26 H        1.8000     1.4310     1.3060 H     1 <1>   0.0800 
 27 H       -2.8810    -0.0790     1.0000 H     1 <1>   0.0800 
 28 H       -2.0230    -0.7640    -0.3660 H     1 <1>   0.0800 
 29 H       -3.7620    -0.6390    -0.4000 H     1 <1>   0.0800 
 30 H        2.6950     4.9440    -0.0330 H     1 <1>   0.0800 
 31 H        3.5170     4.1270    -1.3460 H     1 <1>   0.0800 
 32 H        4.0740     2.4200     0.1220 H     1 <1>   0.0800 
 33 H        3.2390     3.2850     1.3950 H     1 <1>   0.0800 
 34 H       -4.3710     2.4800    -2.4930 H     1 <1>   0.1500 
 35 H       -3.8360     1.9380     1.7070 H     1 <1>   0.1500 
 36 H       -6.2990     3.8960    -2.0600 H     1 <1>   0.1500 
 37 H       -5.7620     3.3560     2.1340 H     1 <1>   0.1500 
 38 H       -7.5200     4.6840     1.4240 H     1 <1>   0.0800 
 39 H       -8.6000     3.9780    -1.3120 H     1 <1>   0.0800 
 40 H       -9.5150     4.6100     0.0350 H     1 <1>   0.0800 
 41 H       -8.8000     3.0190     0.1330 H     1 <1>   0.0800 
 42 H       -7.0620     6.0440    -1.2390 H     1 <1>   0.0800 
 43 H       -6.2540     6.4460     0.2560 H     1 <1>   0.0800 
 44 H       -7.9780     6.6770     0.1070 H     1 <1>   0.0800 
@<TRIPOS>BOND
  1   1   2  2   
  2   2   3  am  
  3   2   4  1   
  4   3   5  1   
  5   3  20  1   
  6   4   6  1   
  7   4   7  1   
  8   4  21  1   
  9   5   8  1   
 10   5   9  1   
 11   5  22  1   
 12   6  10  1   
 13   6  23  1   
 14   6  24  1   
 15   7  11  1   
 16   7  25  1   
 17   7  26  1   
 18   8  12  ar  
 19   8  13  ar  
 20   9  27  1   
 21   9  28  1   
 22   9  29  1   
 23  10  11  1   
 24  10  30  1   
 25  10  31  1   
 26  11  32  1   
 27  11  33  1   
 28  12  14  ar  
 29  12  34  1   
 30  13  15  ar  
 31  13  35  1   
 32  14  16  ar  
 33  14  36  1   
 34  15  16  ar  
 35  15  37  1   
 36  16  17  1   
 37  17  18  1   
 38  17  19  1   
 39  17  38  1   
 40  18  39  1   
 41  18  40  1   
 42  18  41  1   
 43  19  42  1   
 44  19  43  1   
 45  19  44  1   
@<TRIPOS>SUBSTRUCTURE
  1 ****   3 GROUP 4 **** **** 0

# MOE 2024.06 (io_trps.svl 2023.06)
