@<TRIPOS>MOLECULE
NONAME
52 54 1 0 0 
SMALL
USER_CHARGES


@<TRIPOS>ATOM
  1 O       -2.0870     1.2330     0.9630 O.3   1 <1>  -0.3630 
  2 C       -1.2600     2.2290     0.5380 C.ar  1 <1>   0.0820 
  3 C       -1.7040     0.3780     2.0220 C.3   1 <1>   0.0400 
  4 C       -1.5840     2.8670    -0.6550 C.ar  1 <1>  -0.1440 
  5 C       -0.1290     2.6310     1.2460 C.ar  1 <1>  -0.1500 
  6 C       -0.7840     3.8950    -1.1270 C.ar  1 <1>  -0.1500 
  7 C       -2.8110     2.4480    -1.4380 C.3   1 <1>   0.4870 
  8 C        0.6640     3.6590     0.7700 C.ar  1 <1>  -0.1500 
  9 C        0.3370     4.2980    -0.4220 C.ar  1 <1>   0.0820 
 10 N       -4.0070     2.6820    -0.5930 N.4   1 <1>  -0.9590 
 11 O        1.0530     5.3170    -0.9590 O.3   1 <1>  -0.3620 
 12 C       -5.2220     2.0360    -1.1530 C.3   1 <1>   0.3430 
 13 C       -4.2020     4.1260    -0.2830 C.3   1 <1>   0.3430 
 14 C        2.2510     5.7630    -0.3610 C.3   1 <1>   0.0400 
 15 C       -6.3730     2.1650    -0.1580 C.3   1 <1>  -0.1600 
 16 C       -5.3410     4.2840     0.7250 C.3   1 <1>  -0.1600 
 17 C       -6.6410     3.6320     0.2240 C.3   1 <1>  -0.0800 
 18 C       -7.7580     3.7590     1.2770 C.3   1 <1>  -0.0170 
 19 C       -9.0640     3.1580     0.7800 C.ar  1 <1>  -0.1440 
 20 C       -9.8270     3.8320    -0.1610 C.ar  1 <1>  -0.1500 
 21 C       -9.5020     1.9310     1.2550 C.ar  1 <1>  -0.1500 
 22 C      -11.0080     3.2830    -0.6290 C.ar  1 <1>  -0.1500 
 23 C      -10.6830     1.3800     0.7880 C.ar  1 <1>  -0.1500 
 24 C      -11.4360     2.0550    -0.1560 C.ar  1 <1>  -0.1500 
 25 H       -1.6450     0.9480     2.9330 H     1 <1>   0.0800 
 26 H       -0.7520    -0.0670     1.7880 H     1 <1>   0.0800 
 27 H       -2.4480    -0.3920     2.1240 H     1 <1>   0.0800 
 28 H        0.1510     2.1610     2.1710 H     1 <1>   0.1500 
 29 H       -1.0070     4.4040    -2.0480 H     1 <1>   0.1500 
 30 H       -2.7280     1.4010    -1.6790 H     1 <1>   0.0800 
 31 H       -2.8820     3.0110    -2.3550 H     1 <1>   0.0800 
 32 H        1.5290     3.9500     1.3370 H     1 <1>   0.1500 
 33 H       -3.7660     2.2100     0.2950 H     1 <1>   0.4500 
 34 H       -5.0310     0.9920    -1.3470 H     1 <1>   0.0800 
 35 H       -5.4950     2.5120    -2.0810 H     1 <1>   0.0800 
 36 H       -4.4410     4.6650    -1.1850 H     1 <1>   0.0800 
 37 H       -3.2970     4.5420     0.1330 H     1 <1>   0.0800 
 38 H        2.6550     6.5520    -0.9690 H     1 <1>   0.0800 
 39 H        2.9470     4.9450    -0.3160 H     1 <1>   0.0800 
 40 H        2.0320     6.1390     0.6240 H     1 <1>   0.0800 
 41 H       -6.1520     1.5840     0.7210 H     1 <1>   0.0800 
 42 H       -7.2540     1.7410    -0.6100 H     1 <1>   0.0800 
 43 H       -5.5070     5.3340     0.8950 H     1 <1>   0.0800 
 44 H       -5.0420     3.8490     1.6630 H     1 <1>   0.0800 
 45 H       -6.9620     4.1570    -0.6610 H     1 <1>   0.0800 
 46 H       -7.9250     4.7970     1.5080 H     1 <1>   0.0800 
 47 H       -7.4610     3.2720     2.1900 H     1 <1>   0.0800 
 48 H       -9.5090     4.7900    -0.5350 H     1 <1>   0.1500 
 49 H       -8.9290     1.3950     1.9920 H     1 <1>   0.1500 
 50 H      -11.5970     3.8100    -1.3600 H     1 <1>   0.1500 
 51 H      -11.0180     0.4280     1.1610 H     1 <1>   0.1500 
 52 H      -12.3540     1.6280    -0.5190 H     1 <1>   0.1500 
@<TRIPOS>BOND
  1   1   2  1   
  2   1   3  1   
  3   2   4  ar  
  4   2   5  ar  
  5   3  25  1   
  6   3  26  1   
  7   3  27  1   
  8   4   6  ar  
  9   4   7  1   
 10   5   8  ar  
 11   5  28  1   
 12   6   9  ar  
 13   6  29  1   
 14   7  10  1   
 15   7  30  1   
 16   7  31  1   
 17   8   9  ar  
 18   8  32  1   
 19   9  11  1   
 20  10  12  1   
 21  10  13  1   
 22  10  33  1   
 23  11  14  1   
 24  12  15  1   
 25  12  34  1   
 26  12  35  1   
 27  13  16  1   
 28  13  36  1   
 29  13  37  1   
 30  14  38  1   
 31  14  39  1   
 32  14  40  1   
 33  15  17  1   
 34  15  41  1   
 35  15  42  1   
 36  16  17  1   
 37  16  43  1   
 38  16  44  1   
 39  17  18  1   
 40  17  45  1   
 41  18  19  1   
 42  18  46  1   
 43  18  47  1   
 44  19  20  ar  
 45  19  21  ar  
 46  20  22  ar  
 47  20  48  1   
 48  21  23  ar  
 49  21  49  1   
 50  22  24  ar  
 51  22  50  1   
 52  23  24  ar  
 53  23  51  1   
 54  24  52  1   
@<TRIPOS>SUBSTRUCTURE
  1 ****  10 GROUP 4 **** **** 0

# MOE 2024.06 (io_trps.svl 2023.06)
