@<TRIPOS>MOLECULE
NONAME
28 29 1 0 0 
SMALL
USER_CHARGES


@<TRIPOS>ATOM
  1 S       -1.0380     0.4240    -0.7020 S.3   1 <1>  -0.0800 
  2 C       -0.5660    -1.2290    -0.2910 C.2   1 <1>  -0.0450 
  3 C        0.6210     0.9800    -0.6920 C.2   1 <1>  -0.1100 
  4 C       -1.5860    -2.2380    -0.1480 C.2   1 <1>   0.7150 
  5 C        0.7880    -1.2730    -0.1700 C.2   1 <1>  -0.1500 
  6 C        1.4540    -0.0330    -0.3950 C.2   1 <1>  -0.1500 
  7 O       -2.7670    -1.9990    -0.3080 O.2   1 <1>  -0.5700 
  8 N       -1.2200    -3.5080     0.1770 N.am  1 <1>  -0.7300 
  9 C       -2.1140    -4.6980     0.2850 C.3   1 <1>   0.2010 
 10 C       -1.8740    -5.7590    -0.7980 C.2   1 <1>   0.5690 
 11 O       -2.8210    -6.1780    -1.4120 O.2   1 <1>  -0.5700 
 12 N       -0.6490    -6.2760    -1.0860 N.am  1 <1>  -0.4900 
 13 C        0.5980    -6.0850    -0.5560 C.2   1 <1>   0.6510 
 14 S        1.8370    -7.1120    -1.2570 S.3   1 <1>  -0.3710 
 15 N        1.0050    -5.2990     0.3460 N.2   1 <1>  -0.6960 
 16 C        3.1590    -6.4430    -0.1940 C.3   1 <1>   0.0700 
 17 C        2.4440    -5.3870     0.6680 C.3   1 <1>   0.0860 
 18 H        0.7980     2.0180    -0.9120 H     1 <1>   0.1500 
 19 H        1.3520    -2.1550     0.0750 H     1 <1>   0.1500 
 20 H        2.5250     0.0460    -0.3250 H     1 <1>   0.1500 
 21 H       -0.2230    -3.7280     0.3010 H     1 <1>   0.3700 
 22 H       -3.1410    -4.3820     0.2250 H     1 <1>   0.0800 
 23 H       -1.9680    -5.1540     1.2470 H     1 <1>   0.0800 
 24 H       -0.6760    -6.9670    -1.8310 H     1 <1>   0.3700 
 25 H        3.9150    -6.0140    -0.8260 H     1 <1>   0.0800 
 26 H        3.5590    -7.2500     0.3940 H     1 <1>   0.0800 
 27 H        2.5550    -5.6390     1.7090 H     1 <1>   0.0800 
 28 H        2.9000    -4.4250     0.5080 H     1 <1>   0.0800 
@<TRIPOS>BOND
  1   1   2  1   
  2   1   3  1   
  3   2   4  1   
  4   2   5  2   
  5   3   6  2   
  6   3  18  1   
  7   4   7  2   
  8   4   8  am  
  9   5   6  1   
 10   5  19  1   
 11   6  20  1   
 12   8   9  1   
 13   8  21  1   
 14   9  10  1   
 15   9  22  1   
 16   9  23  1   
 17  10  11  2   
 18  10  12  am  
 19  12  13  1   
 20  12  24  1   
 21  13  14  1   
 22  13  15  2   
 23  14  16  1   
 24  15  17  1   
 25  16  17  1   
 26  16  25  1   
 27  16  26  1   
 28  17  27  1   
 29  17  28  1   
@<TRIPOS>SUBSTRUCTURE
  1 ****   8 GROUP 4 **** **** 0

# MOE 2024.06 (io_trps.svl 2023.06)
