@<TRIPOS>MOLECULE
NONAME
39 39 1 0 0 
SMALL
USER_CHARGES


@<TRIPOS>ATOM
  1 S       -0.8140     0.3670     0.1130 S.3   1 <1>  -0.4600 
  2 C        0.5000    -0.7780    -0.3710 C.3   1 <1>   0.1500 
  3 C       -2.3370    -0.5520    -0.2280 C.3   1 <1>   0.0700 
  4 C        0.6600    -1.8090     0.7450 C.3   1 <1>  -0.2400 
  5 C        1.7620     0.0570    -0.5720 C.3   1 <1>  -0.2400 
  6 C       -3.5130     0.3790     0.0690 C.3   1 <1>  -0.1600 
  7 C       -4.8540    -0.3180    -0.1930 C.3   1 <1>  -0.1600 
  8 C       -6.0280     0.6140     0.1050 C.3   1 <1>   0.1200 
  9 O       -7.2220    -0.0870    -0.1560 O.3   1 <1>  -0.3630 
 10 C       -8.4350     0.4950     0.0220 C.ar  1 <1>   0.0820 
 11 C       -9.5460    -0.2790    -0.2640 C.ar  1 <1>  -0.1500 
 12 C       -8.6080     1.8030     0.4670 C.ar  1 <1>  -0.1500 
 13 C      -10.8250     0.2290    -0.1130 C.ar  1 <1>   0.0820 
 14 C       -9.8850     2.3180     0.6210 C.ar  1 <1>  -0.1500 
 15 O      -11.8540    -0.6010    -0.4160 O.3   1 <1>  -0.3630 
 16 C      -10.9920     1.5380     0.3330 C.ar  1 <1>  -0.1500 
 17 C      -13.1950    -0.1810    -0.2960 C.3   1 <1>   0.0400 
 18 H        0.2000    -1.2420    -1.2950 H     1 <1>   0.0800 
 19 H       -2.3460    -1.4180     0.4100 H     1 <1>   0.0800 
 20 H       -2.3140    -0.8460    -1.2620 H     1 <1>   0.0800 
 21 H        0.8810    -1.3180     1.6760 H     1 <1>   0.0800 
 22 H        1.4640    -2.4820     0.5110 H     1 <1>   0.0800 
 23 H       -0.2410    -2.3830     0.8580 H     1 <1>   0.0800 
 24 H        2.0260     0.5620     0.3410 H     1 <1>   0.0800 
 25 H        1.5980     0.7910    -1.3400 H     1 <1>   0.0800 
 26 H        2.5810    -0.5730    -0.8680 H     1 <1>   0.0800 
 27 H       -3.4310     1.2540    -0.5530 H     1 <1>   0.0800 
 28 H       -3.4610     0.6890     1.0990 H     1 <1>   0.0800 
 29 H       -4.9340    -1.1910     0.4320 H     1 <1>   0.0800 
 30 H       -4.9050    -0.6240    -1.2240 H     1 <1>   0.0800 
 31 H       -5.9970     1.4810    -0.5310 H     1 <1>   0.0800 
 32 H       -6.0270     0.9080     1.1410 H     1 <1>   0.0800 
 33 H       -9.4150    -1.2880    -0.6080 H     1 <1>   0.1500 
 34 H       -7.7700     2.4320     0.6980 H     1 <1>   0.1500 
 35 H      -10.0170     3.3290     0.9650 H     1 <1>   0.1500 
 36 H      -11.9690     1.9630     0.4620 H     1 <1>   0.1500 
 37 H      -13.8280    -0.9990    -0.5880 H     1 <1>   0.0800 
 38 H      -13.3570     0.6580    -0.9490 H     1 <1>   0.0800 
 39 H      -13.3870     0.0830     0.7290 H     1 <1>   0.0800 
@<TRIPOS>BOND
  1   1   2  1   
  2   1   3  1   
  3   2   4  1   
  4   2   5  1   
  5   2  18  1   
  6   3   6  1   
  7   3  19  1   
  8   3  20  1   
  9   4  21  1   
 10   4  22  1   
 11   4  23  1   
 12   5  24  1   
 13   5  25  1   
 14   5  26  1   
 15   6   7  1   
 16   6  27  1   
 17   6  28  1   
 18   7   8  1   
 19   7  29  1   
 20   7  30  1   
 21   8   9  1   
 22   8  31  1   
 23   8  32  1   
 24   9  10  1   
 25  10  11  ar  
 26  10  12  ar  
 27  11  13  ar  
 28  11  33  1   
 29  12  14  ar  
 30  12  34  1   
 31  13  15  1   
 32  13  16  ar  
 33  14  16  ar  
 34  14  35  1   
 35  15  17  1   
 36  16  36  1   
 37  17  37  1   
 38  17  38  1   
 39  17  39  1   
@<TRIPOS>SUBSTRUCTURE
  1 ****   8 GROUP 4 **** **** 0

# MOE 2024.06 (io_trps.svl 2023.06)
