@<TRIPOS>MOLECULE
NONAME
50 51 1 0 0 
SMALL
USER_CHARGES


@<TRIPOS>ATOM
  1 S       -0.1520     1.2000     2.1310 S.o2  1 <1>   1.4470 
  2 O        0.0990     1.6790     3.4730 O.2   1 <1>  -0.6500 
  3 O       -0.8270    -0.0650     1.9410 O.2   1 <1>  -0.6500 
  4 N       -1.1140     2.3710     1.3780 N.am  1 <1>  -0.8490 
  5 C        1.3750     1.2180     1.1500 C.ar  1 <1>  -0.0090 
  6 C       -2.5020     2.3020     1.9130 C.3   1 <1>   0.2570 
  7 C       -0.5710     3.7280     1.5090 C.3   1 <1>   0.1960 
  8 C        1.3340     1.0830    -0.2330 C.ar  1 <1>  -0.1500 
  9 C        2.6210     1.3680     1.7510 C.ar  1 <1>  -0.1500 
 10 C       -3.5420     3.1570     1.1740 C.2   1 <1>   0.5690 
 11 C       -0.6300     4.4200     0.1510 C.3   1 <1>  -0.2400 
 12 C        2.4920     1.1050    -0.9900 C.ar  1 <1>  -0.1500 
 13 C        3.7860     1.3900     1.0030 C.ar  1 <1>  -0.1500 
 14 O       -3.9570     4.1370     1.7510 O.2   1 <1>  -0.5700 
 15 N       -3.9810     2.8200    -0.0870 N.am  1 <1>  -0.6600 
 16 C        3.7250     1.2600    -0.3810 C.ar  1 <1>   0.0830 
 17 C       -3.4320     1.6960    -0.8990 C.3   1 <1>   0.1400 
 18 C       -5.0410     3.6060    -0.7770 C.3   1 <1>   0.1400 
 19 O        4.8100     1.2740    -1.1910 O.3   1 <1>  -0.3630 
 20 C       -4.5670     0.7470    -1.2960 C.3   1 <1>  -0.1600 
 21 C       -6.1910     2.6750    -1.1790 C.3   1 <1>  -0.1600 
 22 C        6.1150     1.3930    -0.6750 C.3   1 <1>   0.1200 
 23 C       -5.6970     1.4910    -2.0220 C.3   1 <1>  -0.1600 
 24 C        7.0920     1.3570    -1.8460 C.3   1 <1>  -0.2400 
 25 H       -2.4990     2.5940     2.9490 H     1 <1>   0.0800 
 26 H       -2.8550     1.2870     1.8770 H     1 <1>   0.0800 
 27 H        0.4590     3.6980     1.8250 H     1 <1>   0.0800 
 28 H       -1.1170     4.2980     2.2460 H     1 <1>   0.0800 
 29 H        0.3820     0.9610    -0.7210 H     1 <1>   0.1500 
 30 H        2.6790     1.4690     2.8230 H     1 <1>   0.1500 
 31 H       -0.0830     3.8530    -0.5790 H     1 <1>   0.0800 
 32 H       -0.1860     5.3960     0.2270 H     1 <1>   0.0800 
 33 H       -1.6450     4.5400    -0.1770 H     1 <1>   0.0800 
 34 H        2.4480     1.0020    -2.0600 H     1 <1>   0.1500 
 35 H        4.7240     1.5090     1.5110 H     1 <1>   0.1500 
 36 H       -2.6810     1.1480    -0.3610 H     1 <1>   0.0800 
 37 H       -2.9720     2.1020    -1.7840 H     1 <1>   0.0800 
 38 H       -4.6200     4.0690    -1.6520 H     1 <1>   0.0800 
 39 H       -5.4180     4.3850    -0.1360 H     1 <1>   0.0800 
 40 H       -4.9530     0.2760    -0.4090 H     1 <1>   0.0800 
 41 H       -4.1760    -0.0260    -1.9330 H     1 <1>   0.0800 
 42 H       -6.9220     3.2350    -1.7340 H     1 <1>   0.0800 
 43 H       -6.6680     2.3120    -0.2850 H     1 <1>   0.0800 
 44 H        6.2930     0.5690    -0.0050 H     1 <1>   0.0800 
 45 H        6.1890     2.3280    -0.1470 H     1 <1>   0.0800 
 46 H       -6.5130     0.8160    -2.2150 H     1 <1>   0.0800 
 47 H       -5.3350     1.8550    -2.9680 H     1 <1>   0.0800 
 48 H        6.9990     0.4260    -2.3760 H     1 <1>   0.0800 
 49 H        8.1000     1.4460    -1.4830 H     1 <1>   0.0800 
 50 H        6.8950     2.1740    -2.5170 H     1 <1>   0.0800 
@<TRIPOS>BOND
  1   1   2  2   
  2   1   3  2   
  3   1   4  am  
  4   1   5  1   
  5   4   6  1   
  6   4   7  1   
  7   5   8  ar  
  8   5   9  ar  
  9   6  10  1   
 10   6  25  1   
 11   6  26  1   
 12   7  11  1   
 13   7  27  1   
 14   7  28  1   
 15   8  12  ar  
 16   8  29  1   
 17   9  13  ar  
 18   9  30  1   
 19  10  14  2   
 20  10  15  am  
 21  11  31  1   
 22  11  32  1   
 23  11  33  1   
 24  12  16  ar  
 25  12  34  1   
 26  13  16  ar  
 27  13  35  1   
 28  15  17  1   
 29  15  18  1   
 30  16  19  1   
 31  17  20  1   
 32  17  36  1   
 33  17  37  1   
 34  18  21  1   
 35  18  38  1   
 36  18  39  1   
 37  19  22  1   
 38  20  23  1   
 39  20  40  1   
 40  20  41  1   
 41  21  23  1   
 42  21  42  1   
 43  21  43  1   
 44  22  24  1   
 45  22  44  1   
 46  22  45  1   
 47  23  46  1   
 48  23  47  1   
 49  24  48  1   
 50  24  49  1   
 51  24  50  1   
@<TRIPOS>SUBSTRUCTURE
  1 ****   4 GROUP 4 **** **** 0

# MOE 2024.06 (io_trps.svl 2023.06)
