@<TRIPOS>MOLECULE
NONAME
47 47 1 0 0 
SMALL
USER_CHARGES


@<TRIPOS>ATOM
  1 O        1.2860    -1.3430    -1.0160 O.2   1 <1>  -0.5700 
  2 C        1.2980    -2.4460    -0.5130 C.2   1 <1>   0.7060 
  3 O        2.4780    -2.9820    -0.1830 O.3   1 <1>  -0.4300 
  4 C        0.1220    -3.2170    -0.2470 C.2   1 <1>  -0.1360 
  5 C        3.6770    -2.2750    -0.4250 C.3   1 <1>   0.1200 
  6 C       -1.1610    -2.8620    -0.5010 C.2   1 <1>  -0.1780 
  7 C        4.8550    -3.1210     0.0730 C.3   1 <1>   0.3430 
  8 C       -2.3730    -3.6010    -0.2520 C.ar  1 <1>   0.0280 
  9 N        6.1980    -2.5160    -0.2600 N.4   1 <1>  -0.9590 
 10 C       -2.3850    -4.8740     0.3210 C.ar  1 <1>  -0.1500 
 11 C       -3.6060    -3.0420    -0.5890 C.ar  1 <1>  -0.1500 
 12 C        7.3450    -3.4510    -0.0470 C.3   1 <1>   0.5030 
 13 C        6.3610    -1.1910     0.4360 C.3   1 <1>   0.2630 
 14 C       -3.5690    -5.5510     0.5440 C.ar  1 <1>  -0.1500 
 15 C       -4.7950    -3.7130    -0.3690 C.ar  1 <1>  -0.1500 
 16 C        8.6400    -2.7660    -0.4960 C.3   1 <1>  -0.2400 
 17 C        7.4610    -3.8610     1.4250 C.3   1 <1>  -0.2400 
 18 C        7.1460    -4.6950    -0.9180 C.3   1 <1>  -0.2400 
 19 C       -4.7840    -4.9810     0.2030 C.ar  1 <1>   0.0830 
 20 O       -5.8970    -5.7080     0.4540 O.3   1 <1>  -0.3630 
 21 C       -7.1840    -5.2210     0.1460 C.3   1 <1>   0.0400 
 22 H        0.3400    -4.1650     0.2010 H     1 <1>   0.1500 
 23 H        3.7480    -2.1020    -1.4860 H     1 <1>   0.0800 
 24 H        3.6160    -1.3380     0.1000 H     1 <1>   0.0800 
 25 H       -1.3300    -1.8980    -0.9520 H     1 <1>   0.1500 
 26 H        4.7690    -4.0900    -0.3870 H     1 <1>   0.0800 
 27 H        4.7690    -3.2450     1.1400 H     1 <1>   0.0800 
 28 H        6.2060    -2.3340    -1.2720 H     1 <1>   0.4500 
 29 H       -1.4650    -5.3510     0.5990 H     1 <1>   0.1500 
 30 H       -3.6360    -2.0630    -1.0330 H     1 <1>   0.1500 
 31 H        6.3760    -1.3280     1.5050 H     1 <1>   0.0800 
 32 H        5.5480    -0.5290     0.1870 H     1 <1>   0.0800 
 33 H        7.2790    -0.7130     0.1360 H     1 <1>   0.0800 
 34 H       -3.5620    -6.5310     0.9860 H     1 <1>   0.1500 
 35 H       -5.7160    -3.2380    -0.6470 H     1 <1>   0.1500 
 36 H        9.4530    -3.4710    -0.4730 H     1 <1>   0.0800 
 37 H        8.9170    -1.9600     0.1570 H     1 <1>   0.0800 
 38 H        8.5550    -2.4000    -1.5040 H     1 <1>   0.0800 
 39 H        8.2960    -4.5280     1.5470 H     1 <1>   0.0800 
 40 H        6.5850    -4.3850     1.7620 H     1 <1>   0.0800 
 41 H        7.6350    -3.0130     2.0610 H     1 <1>   0.0800 
 42 H        6.9780    -4.4260    -1.9460 H     1 <1>   0.0800 
 43 H        6.3360    -5.3080    -0.5700 H     1 <1>   0.0800 
 44 H        8.0290    -5.3090    -0.8840 H     1 <1>   0.0800 
 45 H       -7.9010    -5.9690     0.4330 H     1 <1>   0.0800 
 46 H       -7.2460    -5.0440    -0.9130 H     1 <1>   0.0800 
 47 H       -7.3570    -4.3170     0.7010 H     1 <1>   0.0800 
@<TRIPOS>BOND
  1   1   2  2   
  2   2   3  1   
  3   2   4  1   
  4   3   5  1   
  5   4   6  2   
  6   4  22  1   
  7   5   7  1   
  8   5  23  1   
  9   5  24  1   
 10   6   8  1   
 11   6  25  1   
 12   7   9  1   
 13   7  26  1   
 14   7  27  1   
 15   8  10  ar  
 16   8  11  ar  
 17   9  12  1   
 18   9  13  1   
 19   9  28  1   
 20  10  14  ar  
 21  10  29  1   
 22  11  15  ar  
 23  11  30  1   
 24  12  16  1   
 25  12  17  1   
 26  12  18  1   
 27  13  31  1   
 28  13  32  1   
 29  13  33  1   
 30  14  19  ar  
 31  14  34  1   
 32  15  19  ar  
 33  15  35  1   
 34  16  36  1   
 35  16  37  1   
 36  16  38  1   
 37  17  39  1   
 38  17  40  1   
 39  17  41  1   
 40  18  42  1   
 41  18  43  1   
 42  18  44  1   
 43  19  20  1   
 44  20  21  1   
 45  21  45  1   
 46  21  46  1   
 47  21  47  1   
@<TRIPOS>SUBSTRUCTURE
  1 ****   4 GROUP 4 **** **** 0

# MOE 2024.06 (io_trps.svl 2023.06)
