@<TRIPOS>MOLECULE
NONAME
34 35 1 0 0 
SMALL
USER_CHARGES


@<TRIPOS>ATOM
  1 S        0.2380     0.7530     0.7990 S.3   1 <1>  -0.2860 
  2 C        0.0170    -0.7340    -0.1880 C.2   1 <1>   0.2420 
  3 C       -0.9640     1.9710     0.0700 C.3   1 <1>   0.1310 
  4 N       -0.6750    -0.8060    -1.2570 N.2   1 <1>  -0.3380 
  5 N        0.5520    -1.8980     0.1250 N.pl3 1 <1>   0.3140 
  6 C       -2.3790     1.6550     0.5260 C.2   1 <1>   0.5690 
  7 N       -0.5740    -2.0810    -1.6280 N.2   1 <1>   0.0000 
  8 N        0.1600    -2.7480    -0.8030 N.2   1 <1>  -0.4180 
  9 C        1.4060    -2.2600     1.2660 C.3   1 <1>   0.0160 
 10 O       -2.9200     2.4040     1.3040 O.2   1 <1>  -0.5700 
 11 N       -2.9940     0.5450     0.0440 N.am  1 <1>  -0.7300 
 12 C       -4.3190     0.0500     0.4350 C.3   1 <1>   0.2200 
 13 C       -4.1450    -1.3110     1.1170 C.3   1 <1>  -0.1600 
 14 C       -5.1920    -0.0640    -0.8180 C.3   1 <1>  -0.1600 
 15 C       -5.5040    -1.9450     1.4480 C.3   1 <1>  -0.1600 
 16 C       -6.5530    -0.6950    -0.4910 C.3   1 <1>  -0.1600 
 17 C       -6.3820    -2.0580     0.1940 C.3   1 <1>  -0.1600 
 18 H       -0.8810     1.9180    -0.9990 H     1 <1>   0.0800 
 19 H       -0.6720     2.9450     0.4140 H     1 <1>   0.0800 
 20 H        2.3110    -1.6830     1.2280 H     1 <1>   0.0800 
 21 H        1.6430    -3.3070     1.2150 H     1 <1>   0.0800 
 22 H        0.8820    -2.0530     2.1800 H     1 <1>   0.0800 
 23 H       -2.4790    -0.0740    -0.5920 H     1 <1>   0.3700 
 24 H       -4.7770     0.7390     1.1270 H     1 <1>   0.0800 
 25 H       -3.5810    -1.1830     2.0240 H     1 <1>   0.0800 
 26 H       -3.5990    -1.9720     0.4660 H     1 <1>   0.0800 
 27 H       -4.6910    -0.6730    -1.5510 H     1 <1>   0.0800 
 28 H       -5.3440     0.9160    -1.2340 H     1 <1>   0.0800 
 29 H       -6.0080    -1.3420     2.1830 H     1 <1>   0.0800 
 30 H       -5.3520    -2.9230     1.8710 H     1 <1>   0.0800 
 31 H       -7.1220    -0.8150    -1.3970 H     1 <1>   0.0800 
 32 H       -7.1040    -0.0360     0.1590 H     1 <1>   0.0800 
 33 H       -7.3470    -2.4490     0.4650 H     1 <1>   0.0800 
 34 H       -5.9290    -2.7490    -0.4970 H     1 <1>   0.0800 
@<TRIPOS>BOND
  1   1   2  1   
  2   1   3  1   
  3   2   4  2   
  4   2   5  1   
  5   3   6  1   
  6   3  18  1   
  7   3  19  1   
  8   4   7  1   
  9   5   8  1   
 10   5   9  1   
 11   6  10  2   
 12   6  11  am  
 13   7   8  2   
 14   9  20  1   
 15   9  21  1   
 16   9  22  1   
 17  11  12  1   
 18  11  23  1   
 19  12  13  1   
 20  12  14  1   
 21  12  24  1   
 22  13  15  1   
 23  13  25  1   
 24  13  26  1   
 25  14  16  1   
 26  14  27  1   
 27  14  28  1   
 28  15  17  1   
 29  15  29  1   
 30  15  30  1   
 31  16  17  1   
 32  16  31  1   
 33  16  32  1   
 34  17  33  1   
 35  17  34  1   
@<TRIPOS>SUBSTRUCTURE
  1 ****  11 GROUP 4 **** **** 0

# MOE 2024.06 (io_trps.svl 2023.06)
