@<TRIPOS>MOLECULE
NONAME
42 44 1 0 0 
SMALL
USER_CHARGES


@<TRIPOS>ATOM
  1 BR       0.7780    -2.2620     2.3810 Br    1 <1>  -0.1200 
  2 C       -0.7510    -2.7140     1.2950 C.ar  1 <1>   0.1020 
  3 C       -0.5950    -3.5410     0.1930 C.ar  1 <1>   0.0730 
  4 C       -1.9760    -2.1950     1.6700 C.ar  1 <1>  -0.1590 
  5 O        0.6340    -4.0360    -0.0990 O.3   1 <1>  -0.3690 
  6 C       -1.7300    -3.8320    -0.5700 C.ar  1 <1>   0.0730 
  7 C       -3.1050    -2.5020     0.9190 C.ar  1 <1>  -0.1520 
  8 C        0.8240    -5.4110     0.1440 C.3   1 <1>   0.0300 
  9 O       -1.7090    -4.6050    -1.6830 O.3   1 <1>  -0.3690 
 10 C       -2.9640    -3.3240    -0.1960 C.ar  1 <1>  -0.1590 
 11 C       -4.4710    -1.9530     1.3280 C.3   1 <1>   0.7120 
 12 C       -0.8810    -4.1860    -2.7480 C.3   1 <1>   0.0300 
 13 N       -5.1700    -3.0390     2.0530 N.pl3 1 <1>  -0.4630 
 14 C       -5.2610    -1.4620     0.1050 C.2   1 <1>  -0.1330 
 15 N       -4.7900    -3.6120     3.2350 N.2   1 <1>  -0.2680 
 16 C       -6.2100    -3.6550     1.5520 C.cat 1 <1>   1.0690 
 17 C       -6.3750    -2.1520    -0.2790 C.2   1 <1>   0.1560 
 18 C       -4.6990    -0.3190    -0.5560 C.2   1 <1>   0.4890 
 19 C       -5.6300    -4.5690     3.3910 C.2   1 <1>   0.4970 
 20 N       -6.5340    -4.6300     2.3640 N.pl3 1 <1>  -0.7040 
 21 N       -6.7970    -3.2700     0.4140 N.pl3 1 <1>  -0.6940 
 22 C       -7.2770    -1.8160    -1.4590 C.3   1 <1>  -0.1110 
 23 O       -5.0030    -0.0180    -1.6780 O.2   1 <1>  -0.5750 
 24 C       -3.6770     0.5950     0.1000 C.3   1 <1>  -0.1870 
 25 H       -2.0250    -1.5680     2.5440 H     1 <1>   0.1410 
 26 H        1.8390    -5.6600    -0.1060 H     1 <1>   0.0710 
 27 H        0.1450    -5.9770    -0.4690 H     1 <1>   0.0710 
 28 H        0.6420    -5.6070     1.1860 H     1 <1>   0.0710 
 29 H       -3.8070    -3.5880    -0.8110 H     1 <1>   0.1410 
 30 H       -4.3410    -1.1430     2.0230 H     1 <1>   0.0710 
 31 H       -1.1480    -4.7500    -3.6230 H     1 <1>   0.0710 
 32 H        0.1470    -4.3730    -2.4980 H     1 <1>   0.0710 
 33 H       -1.0390    -3.1360    -2.9240 H     1 <1>   0.0710 
 34 H       -5.6380    -5.2560     4.2260 H     1 <1>   0.1410 
 35 H       -7.2920    -5.3010     2.2630 H     1 <1>   0.4440 
 36 H       -7.6010    -3.7970     0.0680 H     1 <1>   0.4440 
 37 H       -8.2860    -2.1460    -1.2860 H     1 <1>   0.0710 
 38 H       -6.9060    -2.2900    -2.3510 H     1 <1>   0.0710 
 39 H       -7.3230    -0.7560    -1.6310 H     1 <1>   0.0710 
 40 H       -3.9600     0.8480     1.1040 H     1 <1>   0.0710 
 41 H       -3.6100     1.5130    -0.4580 H     1 <1>   0.0710 
 42 H       -2.7040     0.1400     0.0910 H     1 <1>   0.0710 
@<TRIPOS>BOND
  1   1   2  1   
  2   2   3  ar  
  3   2   4  ar  
  4   3   5  1   
  5   3   6  ar  
  6   4   7  ar  
  7   4  25  1   
  8   5   8  1   
  9   6   9  1   
 10   6  10  ar  
 11   7  10  ar  
 12   7  11  1   
 13   8  26  1   
 14   8  27  1   
 15   8  28  1   
 16   9  12  1   
 17  10  29  1   
 18  11  13  1   
 19  11  14  1   
 20  11  30  1   
 21  12  31  1   
 22  12  32  1   
 23  12  33  1   
 24  13  15  1   
 25  13  16  ar  
 26  14  17  2   
 27  14  18  1   
 28  15  19  2   
 29  16  20  ar  
 30  16  21  ar  
 31  17  21  1   
 32  17  22  1   
 33  18  23  2   
 34  18  24  1   
 35  19  20  1   
 36  19  34  1   
 37  20  35  1   
 38  21  36  1   
 39  22  37  1   
 40  22  38  1   
 41  22  39  1   
 42  24  40  1   
 43  24  41  1   
 44  24  42  1   
@<TRIPOS>SUBSTRUCTURE
  1 ****   7 GROUP 4 **** **** 0

# MOE 2024.06 (io_trps.svl 2023.06)
