@<TRIPOS>MOLECULE
NONAME
38 40 1 0 0 
SMALL
USER_CHARGES


@<TRIPOS>ATOM
  1 O       -0.4980    -0.1950    -0.2880 O.3   1 <1>  -0.5600 
  2 C       -1.7050     0.4120    -0.6390 C.3   1 <1>   0.1200 
  3 C       -0.5360    -1.5920    -0.3050 C.3   1 <1>   0.1200 
  4 C       -2.8260    -0.0080     0.3330 C.3   1 <1>   0.2090 
  5 C       -1.5920    -2.1100     0.6870 C.3   1 <1>   0.2090 
  6 N       -2.9520    -1.5120     0.4050 N.pl3 1 <1>  -0.8380 
  7 C       -4.0900    -2.2310     0.2410 C.ar  1 <1>   0.4610 
  8 N       -5.2690    -1.6040     0.2520 N.ar  1 <1>  -0.1790 
  9 C       -4.1370    -3.6400     0.0640 C.ar  1 <1>  -0.1500 
 10 C       -6.5010    -2.2200     0.1140 C.ar  1 <1>   0.3610 
 11 C       -5.3070    -4.3230    -0.0760 C.ar  1 <1>  -0.1430 
 12 C       -6.5470    -3.6150    -0.0520 C.ar  1 <1>   0.0000 
 13 C       -7.6870    -1.4770     0.1430 C.ar  1 <1>  -0.1500 
 14 C       -5.2990    -5.8360    -0.2640 C.3   1 <1>  -0.0970 
 15 C       -7.8080    -4.2180    -0.1840 C.ar  1 <1>  -0.1500 
 16 C       -8.9080    -2.0940     0.0110 C.ar  1 <1>  -0.1500 
 17 C       -8.9690    -3.4830    -0.1550 C.ar  1 <1>   0.0830 
 18 O      -10.1310    -4.1660    -0.2910 O.3   1 <1>  -0.3620 
 19 C      -11.3850    -3.5190    -0.2770 C.3   1 <1>   0.0400 
 20 H       -1.9490     0.1350    -1.6500 H     1 <1>   0.0800 
 21 H       -1.5560     1.4770    -0.5990 H     1 <1>   0.0800 
 22 H        0.4410    -1.9470    -0.0280 H     1 <1>   0.0800 
 23 H       -0.7530    -1.9230    -1.3060 H     1 <1>   0.0800 
 24 H       -3.7390     0.4510     0.0030 H     1 <1>   0.0800 
 25 H       -2.5920     0.3790     1.3110 H     1 <1>   0.0800 
 26 H       -1.2850    -1.8300     1.6810 H     1 <1>   0.0800 
 27 H       -1.5970    -3.1810     0.6550 H     1 <1>   0.0800 
 28 H       -5.2530    -0.6070     0.4170 H     1 <1>   0.4570 
 29 H       -3.2150    -4.1830     0.0280 H     1 <1>   0.1500 
 30 H       -7.6530    -0.4100     0.2700 H     1 <1>   0.1500 
 31 H       -4.2960    -6.2250    -0.2650 H     1 <1>   0.0800 
 32 H       -5.7580    -6.0970    -1.2020 H     1 <1>   0.0800 
 33 H       -5.8400    -6.3130     0.5340 H     1 <1>   0.0800 
 34 H       -7.8910    -5.2820    -0.3130 H     1 <1>   0.1500 
 35 H       -9.8080    -1.5050     0.0360 H     1 <1>   0.1500 
 36 H      -12.1480    -4.2670    -0.4010 H     1 <1>   0.0800 
 37 H      -11.4280    -2.8170    -1.0910 H     1 <1>   0.0800 
 38 H      -11.5140    -3.0240     0.6700 H     1 <1>   0.0800 
@<TRIPOS>BOND
  1   1   2  1   
  2   1   3  1   
  3   2   4  1   
  4   2  20  1   
  5   2  21  1   
  6   3   5  1   
  7   3  22  1   
  8   3  23  1   
  9   4   6  1   
 10   4  24  1   
 11   4  25  1   
 12   5   6  1   
 13   5  26  1   
 14   5  27  1   
 15   6   7  1   
 16   7   8  ar  
 17   7   9  ar  
 18   8  10  ar  
 19   8  28  1   
 20   9  11  ar  
 21   9  29  1   
 22  10  12  ar  
 23  10  13  ar  
 24  11  12  ar  
 25  11  14  1   
 26  12  15  ar  
 27  13  16  ar  
 28  13  30  1   
 29  14  31  1   
 30  14  32  1   
 31  14  33  1   
 32  15  17  ar  
 33  15  34  1   
 34  16  17  ar  
 35  16  35  1   
 36  17  18  1   
 37  18  19  1   
 38  19  36  1   
 39  19  37  1   
 40  19  38  1   
@<TRIPOS>SUBSTRUCTURE
  1 ****   8 GROUP 4 **** **** 0

# MOE 2024.06 (io_trps.svl 2023.06)
