@<TRIPOS>MOLECULE
NONAME
45 47 1 0 0 
SMALL
USER_CHARGES


@<TRIPOS>ATOM
  1 CL       1.8870    -0.5350     1.5410 Cl    1 <1>  -0.1770 
  2 C        1.7040     0.9660     0.6630 C.ar  1 <1>   0.1770 
  3 C        2.3760     1.1520    -0.5440 C.ar  1 <1>   0.0540 
  4 C        0.8790     1.9370     1.1980 C.ar  1 <1>  -0.1500 
  5 C        3.2460     0.1410    -1.0930 C.2   1 <1>   0.2350 
  6 C        2.1760     2.3600    -1.2090 C.ar  1 <1>  -0.1500 
  7 C        0.7010     3.1310     0.5220 C.ar  1 <1>  -0.1500 
  8 N        2.8980    -0.6810    -2.0250 N.2   1 <1>  -0.4100 
  9 C        4.5700    -0.0950    -0.7360 C.2   1 <1>  -0.0860 
 10 C        1.3500     3.3390    -0.6830 C.ar  1 <1>  -0.1500 
 11 O        3.8910    -1.4860    -2.3090 O.3   1 <1>  -0.0190 
 12 C        4.8850    -1.1420    -1.5290 C.2   1 <1>  -0.0400 
 13 C        5.3370     0.6520     0.2250 C.2   1 <1>   0.7160 
 14 C        6.1590    -1.9600    -1.6370 C.3   1 <1>  -0.0600 
 15 O        4.8200     1.1590     1.1990 O.2   1 <1>  -0.5700 
 16 N        6.6760     0.8250     0.0300 N.am  1 <1>  -0.7300 
 17 C        7.5890     1.5710     0.9210 C.3   1 <1>   0.1400 
 18 C        8.0170     2.8600     0.2250 C.3   1 <1>  -0.1600 
 19 C        8.9670     3.6620     1.1130 C.3   1 <1>   0.1400 
 20 N        9.4460     4.8450     0.3710 N.am  1 <1>  -0.6600 
 21 C       10.5930     4.9030    -0.3400 C.2   1 <1>   0.5690 
 22 C        8.7140     6.1210     0.3910 C.3   1 <1>   0.1400 
 23 O       11.3640     3.9900    -0.5110 O.2   1 <1>  -0.5700 
 24 C       10.7970     6.2770    -0.9130 C.3   1 <1>  -0.0990 
 25 C        9.4630     6.9930    -0.6280 C.3   1 <1>  -0.1600 
 26 H        0.3820     1.7550     2.1340 H     1 <1>   0.1500 
 27 H        2.6730     2.5270    -2.1490 H     1 <1>   0.1500 
 28 H        0.0600     3.8940     0.9320 H     1 <1>   0.1500 
 29 H        1.2110     4.2670    -1.2130 H     1 <1>   0.1500 
 30 H        5.9210    -3.0040    -1.5400 H     1 <1>   0.0800 
 31 H        6.6160    -1.8000    -2.5960 H     1 <1>   0.0800 
 32 H        6.8570    -1.7020    -0.8630 H     1 <1>   0.0800 
 33 H        7.0750     0.5220    -0.8580 H     1 <1>   0.3700 
 34 H        8.4500     0.9610     1.1380 H     1 <1>   0.0800 
 35 H        7.0940     1.8010     1.8510 H     1 <1>   0.0800 
 36 H        7.1460     3.4530     0.0090 H     1 <1>   0.0800 
 37 H        8.5240     2.6170    -0.6930 H     1 <1>   0.0800 
 38 H        9.8150     3.0530     1.3820 H     1 <1>   0.0800 
 39 H        8.4710     3.9750     2.0160 H     1 <1>   0.0800 
 40 H        8.7660     6.5490     1.3780 H     1 <1>   0.0800 
 41 H        7.6860     5.9770     0.1040 H     1 <1>   0.0800 
 42 H       11.0060     6.2200    -1.9650 H     1 <1>   0.0800 
 43 H       11.6120     6.7510    -0.3980 H     1 <1>   0.0800 
 44 H        9.6150     7.9900    -0.2540 H     1 <1>   0.0800 
 45 H        8.8820     7.0480    -1.5320 H     1 <1>   0.0800 
@<TRIPOS>BOND
  1   1   2  1   
  2   2   3  ar  
  3   2   4  ar  
  4   3   5  1   
  5   3   6  ar  
  6   4   7  ar  
  7   4  26  1   
  8   5   8  2   
  9   5   9  1   
 10   6  10  ar  
 11   6  27  1   
 12   7  10  ar  
 13   7  28  1   
 14   8  11  1   
 15   9  12  2   
 16   9  13  1   
 17  10  29  1   
 18  11  12  1   
 19  12  14  1   
 20  13  15  2   
 21  13  16  am  
 22  14  30  1   
 23  14  31  1   
 24  14  32  1   
 25  16  17  1   
 26  16  33  1   
 27  17  18  1   
 28  17  34  1   
 29  17  35  1   
 30  18  19  1   
 31  18  36  1   
 32  18  37  1   
 33  19  20  1   
 34  19  38  1   
 35  19  39  1   
 36  20  21  am  
 37  20  22  1   
 38  21  23  2   
 39  21  24  1   
 40  22  25  1   
 41  22  40  1   
 42  22  41  1   
 43  24  25  1   
 44  24  42  1   
 45  24  43  1   
 46  25  44  1   
 47  25  45  1   
@<TRIPOS>SUBSTRUCTURE
  1 ****  13 GROUP 4 **** **** 0

# MOE 2024.06 (io_trps.svl 2023.06)
