@<TRIPOS>MOLECULE
NONAME
37 39 1 0 0 
SMALL
USER_CHARGES


@<TRIPOS>ATOM
  1 O        0.0750     0.7050     1.4510 O.2   1 <1>  -0.5700 
  2 C        0.0850     1.4290     0.4700 C.2   1 <1>   0.7150 
  3 N       -1.1000     1.6100    -0.2040 N.am  1 <1>  -0.7300 
  4 C        1.3040     2.0860     0.0170 C.2   1 <1>   0.3930 
  5 C       -2.3970     1.0080     0.1450 C.3   1 <1>   0.2200 
  6 O        1.2610     2.8500    -1.0380 O.3   1 <1>  -0.0190 
  7 N        2.5070     2.0620     0.4860 N.2   1 <1>  -0.5650 
  8 C       -2.8690     0.1380    -1.0240 C.3   1 <1>  -0.1600 
  9 C       -3.3970     2.1300     0.4430 C.3   1 <1>  -0.1600 
 10 N        2.4100     3.3430    -1.2920 N.2   1 <1>  -0.4100 
 11 C        3.1730     2.8650    -0.3660 C.2   1 <1>   0.4620 
 12 C       -4.2710    -0.4310    -0.7620 C.3   1 <1>  -0.1600 
 13 C       -4.8010     1.5650     0.7080 C.3   1 <1>  -0.1600 
 14 C        4.5940     3.1420    -0.2280 C.ar  1 <1>   0.0540 
 15 C       -5.2760     0.6890    -0.4600 C.3   1 <1>  -0.1600 
 16 C        5.2630     3.9780    -1.1250 C.ar  1 <1>  -0.1500 
 17 C        5.3530     2.5850     0.8050 C.ar  1 <1>  -0.1500 
 18 C        6.6140     4.2460    -1.0000 C.ar  1 <1>  -0.1500 
 19 C        6.7040     2.8480     0.9360 C.ar  1 <1>  -0.1500 
 20 C        7.3390     3.6800     0.0330 C.ar  1 <1>  -0.1500 
 21 H       -1.1140     2.2120    -1.0280 H     1 <1>   0.3700 
 22 H       -2.2950     0.3890     1.0230 H     1 <1>   0.0800 
 23 H       -2.1780    -0.6760    -1.1630 H     1 <1>   0.0800 
 24 H       -2.8940     0.7240    -1.9260 H     1 <1>   0.0800 
 25 H       -3.4460     2.8040    -0.3940 H     1 <1>   0.0800 
 26 H       -3.0690     2.6790     1.3070 H     1 <1>   0.0800 
 27 H       -4.2300    -1.1080     0.0740 H     1 <1>   0.0800 
 28 H       -4.6010    -0.9900    -1.6210 H     1 <1>   0.0800 
 29 H       -5.4940     2.3750     0.8570 H     1 <1>   0.0800 
 30 H       -4.7840     0.9770     1.6100 H     1 <1>   0.0800 
 31 H       -6.2330     0.2580    -0.2200 H     1 <1>   0.0800 
 32 H       -5.4030     1.3010    -1.3370 H     1 <1>   0.0800 
 33 H        4.7160     4.4280    -1.9360 H     1 <1>   0.1500 
 34 H        4.8770     1.9350     1.5190 H     1 <1>   0.1500 
 35 H        7.1030     4.8940    -1.7060 H     1 <1>   0.1500 
 36 H        7.2620     2.4050     1.7430 H     1 <1>   0.1500 
 37 H        8.3910     3.8870     0.1330 H     1 <1>   0.1500 
@<TRIPOS>BOND
  1   1   2  2   
  2   2   3  am  
  3   2   4  1   
  4   3   5  1   
  5   3  21  1   
  6   4   6  1   
  7   4   7  2   
  8   5   8  1   
  9   5   9  1   
 10   5  22  1   
 11   6  10  1   
 12   7  11  1   
 13   8  12  1   
 14   8  23  1   
 15   8  24  1   
 16   9  13  1   
 17   9  25  1   
 18   9  26  1   
 19  10  11  2   
 20  11  14  1   
 21  12  15  1   
 22  12  27  1   
 23  12  28  1   
 24  13  15  1   
 25  13  29  1   
 26  13  30  1   
 27  14  16  ar  
 28  14  17  ar  
 29  15  31  1   
 30  15  32  1   
 31  16  18  ar  
 32  16  33  1   
 33  17  19  ar  
 34  17  34  1   
 35  18  20  ar  
 36  18  35  1   
 37  19  20  ar  
 38  19  36  1   
 39  20  37  1   
@<TRIPOS>SUBSTRUCTURE
  1 ****   4 GROUP 4 **** **** 0

# MOE 2024.06 (io_trps.svl 2023.06)
