@<TRIPOS>MOLECULE
NONAME
36 36 1 0 0 
SMALL
USER_CHARGES


@<TRIPOS>ATOM
  1 O        6.1120    -3.7990     1.9570 O.3   1 <1>  -0.3630 
  2 C        6.7110    -3.1880     0.9030 C.ar  1 <1>   0.0830 
  3 C        4.7750    -3.4450     2.2620 C.3   1 <1>   0.1200 
  4 C        7.1340    -3.9500    -0.1850 C.ar  1 <1>   0.0830 
  5 C        6.9090    -1.8160     0.9020 C.ar  1 <1>  -0.1500 
  6 C        3.8430    -4.5720     1.7930 C.3   1 <1>   0.3430 
  7 O        6.9410    -5.2900    -0.2000 O.3   1 <1>  -0.3630 
  8 C        7.7260    -3.3380    -1.2770 C.ar  1 <1>  -0.1500 
  9 C        7.5050    -1.2070    -0.1910 C.ar  1 <1>  -0.1500 
 10 N        4.1770    -4.9870     0.4010 N.4   1 <1>  -0.9060 
 11 C        8.0010    -6.0490     0.3360 C.3   1 <1>   0.1200 
 12 C        7.9100    -1.9650    -1.2780 C.ar  1 <1>  -0.1500 
 13 C        3.5570    -6.2740    -0.0120 C.3   1 <1>   0.3430 
 14 C        7.5880    -7.5170     0.3240 C.3   1 <1>  -0.2400 
 15 C        4.0510    -6.7100    -1.3970 C.3   1 <1>   0.1200 
 16 O        3.4210    -7.8990    -1.7130 O.3   1 <1>  -0.6800 
 17 H        4.5230    -2.5140     1.7860 H     1 <1>   0.0800 
 18 H        4.7020    -3.3190     3.3290 H     1 <1>   0.0800 
 19 H        6.6130    -1.2220     1.7480 H     1 <1>   0.1500 
 20 H        2.8170    -4.2480     1.8530 H     1 <1>   0.0800 
 21 H        3.9670    -5.4100     2.4590 H     1 <1>   0.0800 
 22 H        8.0440    -3.9280    -2.1180 H     1 <1>   0.1500 
 23 H        7.6610    -0.1410    -0.1950 H     1 <1>   0.1500 
 24 H        5.2140    -5.0830     0.3630 H     1 <1>   0.4500 
 25 H        3.9580    -4.2390    -0.2650 H     1 <1>   0.4500 
 26 H        8.1930    -5.7120     1.3420 H     1 <1>   0.0800 
 27 H        8.8770    -5.8890    -0.2700 H     1 <1>   0.0800 
 28 H        8.3730    -1.4850    -2.1240 H     1 <1>   0.1500 
 29 H        2.4850    -6.1710    -0.0420 H     1 <1>   0.0800 
 30 H        3.8110    -7.0440     0.6980 H     1 <1>   0.0800 
 31 H        6.7130    -7.6690     0.9290 H     1 <1>   0.0800 
 32 H        8.3850    -8.1160     0.7280 H     1 <1>   0.0800 
 33 H        7.4000    -7.8450    -0.6830 H     1 <1>   0.0800 
 34 H        5.1140    -6.8850    -1.3930 H     1 <1>   0.0800 
 35 H        3.7930    -5.9850    -2.1500 H     1 <1>   0.0800 
 36 H        3.7020    -8.2370    -2.5900 H     1 <1>   0.4000 
@<TRIPOS>BOND
  1   1   2  1   
  2   1   3  1   
  3   2   4  ar  
  4   2   5  ar  
  5   3   6  1   
  6   3  17  1   
  7   3  18  1   
  8   4   7  1   
  9   4   8  ar  
 10   5   9  ar  
 11   5  19  1   
 12   6  10  1   
 13   6  20  1   
 14   6  21  1   
 15   7  11  1   
 16   8  12  ar  
 17   8  22  1   
 18   9  12  ar  
 19   9  23  1   
 20  10  13  1   
 21  10  24  1   
 22  10  25  1   
 23  11  14  1   
 24  11  26  1   
 25  11  27  1   
 26  12  28  1   
 27  13  15  1   
 28  13  29  1   
 29  13  30  1   
 30  14  31  1   
 31  14  32  1   
 32  14  33  1   
 33  15  16  1   
 34  15  34  1   
 35  15  35  1   
 36  16  36  1   
@<TRIPOS>SUBSTRUCTURE
  1 ****   7 GROUP 4 **** **** 0

# MOE 2024.06 (io_trps.svl 2023.06)
