@<TRIPOS>MOLECULE
NONAME
46 47 1 0 0 
SMALL
USER_CHARGES


@<TRIPOS>ATOM
  1 S       -0.0580     0.2140     0.7520 S.o2  1 <1>   1.4470 
  2 O        0.3460    -0.3200     2.0320 O.2   1 <1>  -0.6500 
  3 O       -0.5210     1.5800     0.6520 O.2   1 <1>  -0.6500 
  4 N        1.2980     0.1300    -0.2970 N.am  1 <1>  -0.7570 
  5 C       -1.2400    -0.9050    -0.0310 C.ar  1 <1>  -0.0090 
  6 C        2.6250     0.0130     0.0970 C.ar  1 <1>   0.1990 
  7 C       -1.6190    -0.7200    -1.3560 C.ar  1 <1>   0.0830 
  8 C       -1.8070    -1.9660     0.6660 C.ar  1 <1>  -0.1500 
  9 C        3.3420    -1.1770    -0.1100 C.ar  1 <1>  -0.1440 
 10 C        3.2680     1.1120     0.6800 C.ar  1 <1>  -0.1440 
 11 O       -1.0920     0.2970    -2.0720 O.3   1 <1>  -0.3630 
 12 C       -2.5210    -1.5780    -1.9680 C.ar  1 <1>  -0.1500 
 13 C       -2.7130    -2.8270     0.0680 C.ar  1 <1>  -0.1430 
 14 C        4.6710    -1.2380     0.2880 C.ar  1 <1>  -0.1500 
 15 C        2.7660    -2.4520    -0.7520 C.3   1 <1>   0.0630 
 16 C        4.5940     1.0180     1.0650 C.ar  1 <1>  -0.1500 
 17 C        2.5550     2.4400     0.9200 C.3   1 <1>  -0.0970 
 18 C       -1.9590     1.3640    -2.3870 C.3   1 <1>   0.0400 
 19 C       -3.0690    -2.6280    -1.2550 C.ar  1 <1>  -0.1500 
 20 C       -3.3110    -3.9780     0.8570 C.3   1 <1>  -0.0970 
 21 C        5.2950    -0.1540     0.8720 C.ar  1 <1>  -0.1500 
 22 C        2.1240    -2.2290    -2.1280 C.3   1 <1>  -0.2400 
 23 C        1.8140    -3.1780     0.2020 C.3   1 <1>  -0.2400 
 24 H        1.1210     0.7310    -1.0930 H     1 <1>   0.4200 
 25 H       -1.5290    -2.1190     1.6960 H     1 <1>   0.1500 
 26 H       -2.7890    -1.4270    -2.9980 H     1 <1>   0.1500 
 27 H        5.2410    -2.1400     0.1500 H     1 <1>   0.1500 
 28 H        3.5860    -3.1270    -0.9260 H     1 <1>   0.0800 
 29 H        5.0910     1.8550     1.5220 H     1 <1>   0.1500 
 30 H        1.9860     2.7290     0.0550 H     1 <1>   0.0800 
 31 H        3.2580     3.2240     1.1300 H     1 <1>   0.0800 
 32 H        1.8910     2.3490     1.7610 H     1 <1>   0.0800 
 33 H       -1.3960     2.1130    -2.9130 H     1 <1>   0.0800 
 34 H       -2.3510     1.7760    -1.4720 H     1 <1>   0.0800 
 35 H       -2.7580     1.0010    -3.0080 H     1 <1>   0.0800 
 36 H       -3.7710    -3.2890    -1.7340 H     1 <1>   0.1500 
 37 H       -2.6270    -4.3080     1.6190 H     1 <1>   0.0800 
 38 H       -3.5220    -4.8090     0.2090 H     1 <1>   0.0800 
 39 H       -4.2260    -3.6610     1.3260 H     1 <1>   0.0800 
 40 H        6.3250    -0.2230     1.1750 H     1 <1>   0.1500 
 41 H        1.1730    -1.7370    -2.0460 H     1 <1>   0.0800 
 42 H        1.9650    -3.1730    -2.6150 H     1 <1>   0.0800 
 43 H        2.7730    -1.6310    -2.7420 H     1 <1>   0.0800 
 44 H        0.9470    -2.5830     0.3980 H     1 <1>   0.0800 
 45 H        2.3100    -3.3690     1.1370 H     1 <1>   0.0800 
 46 H        1.5000    -4.1150    -0.2210 H     1 <1>   0.0800 
@<TRIPOS>BOND
  1   1   2  2   
  2   1   3  2   
  3   1   4  am  
  4   1   5  1   
  5   4   6  1   
  6   4  24  1   
  7   5   7  ar  
  8   5   8  ar  
  9   6   9  ar  
 10   6  10  ar  
 11   7  11  1   
 12   7  12  ar  
 13   8  13  ar  
 14   8  25  1   
 15   9  14  ar  
 16   9  15  1   
 17  10  16  ar  
 18  10  17  1   
 19  11  18  1   
 20  12  19  ar  
 21  12  26  1   
 22  13  19  ar  
 23  13  20  1   
 24  14  21  ar  
 25  14  27  1   
 26  15  22  1   
 27  15  23  1   
 28  15  28  1   
 29  16  21  ar  
 30  16  29  1   
 31  17  30  1   
 32  17  31  1   
 33  17  32  1   
 34  18  33  1   
 35  18  34  1   
 36  18  35  1   
 37  19  36  1   
 38  20  37  1   
 39  20  38  1   
 40  20  39  1   
 41  21  40  1   
 42  22  41  1   
 43  22  42  1   
 44  22  43  1   
 45  23  44  1   
 46  23  45  1   
 47  23  46  1   
@<TRIPOS>SUBSTRUCTURE
  1 ****   4 GROUP 4 **** **** 0

# MOE 2024.06 (io_trps.svl 2023.06)
