@<TRIPOS>MOLECULE
NONAME
44 46 1 0 0 
SMALL
USER_CHARGES


@<TRIPOS>ATOM
  1 CL       1.3530    -0.9660    -2.9740 Cl    1 <1>  -0.1770 
  2 C        1.7700    -1.9460    -1.5900 C.ar  1 <1>   0.1770 
  3 C        3.0980    -2.1430    -1.2790 C.ar  1 <1>  -0.1500 
  4 C        0.7610    -2.5060    -0.8310 C.ar  1 <1>  -0.1500 
  5 C        3.4460    -2.9200    -0.1800 C.ar  1 <1>   0.1000 
  6 C        1.0990    -3.2820     0.2650 C.ar  1 <1>  -0.1500 
  7 N        4.7870    -3.1190     0.1400 N.pl3 1 <1>  -0.8380 
  8 C        2.4310    -3.4910     0.5930 C.ar  1 <1>  -0.1430 
  9 C        5.5990    -4.0450    -0.7090 C.3   1 <1>   0.2090 
 10 C        5.5540    -1.9880     0.7430 C.3   1 <1>   0.2090 
 11 C        2.7800    -4.3480     1.8020 C.3   1 <1>  -0.0970 
 12 C        6.4600    -3.2890    -1.7360 C.3   1 <1>   0.1400 
 13 C        6.4300    -1.2510    -0.2880 C.3   1 <1>   0.1400 
 14 N        7.2630    -2.2040    -1.0880 N.am  1 <1>  -0.6600 
 15 C        8.6400    -2.2570    -1.0240 C.2   1 <1>   0.5440 
 16 O        9.2050    -3.2830    -1.3560 O.2   1 <1>  -0.5700 
 17 C        9.4270    -1.1300    -0.5600 C.ar  1 <1>   0.0860 
 18 C       10.3720    -1.2860     0.4530 C.ar  1 <1>  -0.1500 
 19 C        9.2690     0.1440    -1.1060 C.ar  1 <1>  -0.1500 
 20 C       11.1180    -0.2180     0.9220 C.ar  1 <1>  -0.1430 
 21 C       10.0080     1.2180    -0.6460 C.ar  1 <1>  -0.1500 
 22 C       10.9290     1.0370     0.3700 C.ar  1 <1>  -0.1500 
 23 C       12.1380    -0.4130     2.0290 C.3   1 <1>  -0.0970 
 24 H        3.8580    -1.6970    -1.8870 H     1 <1>   0.1500 
 25 H       -0.2670    -2.3370    -1.0940 H     1 <1>   0.1500 
 26 H        0.3180    -3.7220     0.8600 H     1 <1>   0.1500 
 27 H        4.9440    -4.7250    -1.2240 H     1 <1>   0.0800 
 28 H        6.2430    -4.6260    -0.0740 H     1 <1>   0.0800 
 29 H        6.1840    -2.3770     1.5230 H     1 <1>   0.0800 
 30 H        4.8680    -1.2910     1.1930 H     1 <1>   0.0800 
 31 H        3.3490    -3.7670     2.5040 H     1 <1>   0.0800 
 32 H        3.3750    -5.1870     1.4900 H     1 <1>   0.0800 
 33 H        1.8960    -4.7140     2.2910 H     1 <1>   0.0800 
 34 H        5.8200    -2.8540    -2.4800 H     1 <1>   0.0800 
 35 H        7.1040    -3.9910    -2.2370 H     1 <1>   0.0800 
 36 H        7.0500    -0.5480     0.2370 H     1 <1>   0.0800 
 37 H        5.7960    -0.6960    -0.9550 H     1 <1>   0.0800 
 38 H       10.5130    -2.2690     0.8680 H     1 <1>   0.1500 
 39 H        8.5590     0.2850    -1.9020 H     1 <1>   0.1500 
 40 H        9.8710     2.1940    -1.0780 H     1 <1>   0.1500 
 41 H       11.5020     1.8760     0.7260 H     1 <1>   0.1500 
 42 H       12.3400    -1.4580     2.1850 H     1 <1>   0.0800 
 43 H       11.7670     0.0080     2.9460 H     1 <1>   0.0800 
 44 H       13.0610     0.0750     1.7700 H     1 <1>   0.0800 
@<TRIPOS>BOND
  1   1   2  1   
  2   2   3  ar  
  3   2   4  ar  
  4   3   5  ar  
  5   3  24  1   
  6   4   6  ar  
  7   4  25  1   
  8   5   7  1   
  9   5   8  ar  
 10   6   8  ar  
 11   6  26  1   
 12   7   9  1   
 13   7  10  1   
 14   8  11  1   
 15   9  12  1   
 16   9  27  1   
 17   9  28  1   
 18  10  13  1   
 19  10  29  1   
 20  10  30  1   
 21  11  31  1   
 22  11  32  1   
 23  11  33  1   
 24  12  14  1   
 25  12  34  1   
 26  12  35  1   
 27  13  14  1   
 28  13  36  1   
 29  13  37  1   
 30  14  15  am  
 31  15  16  2   
 32  15  17  1   
 33  17  18  ar  
 34  17  19  ar  
 35  18  20  ar  
 36  18  38  1   
 37  19  21  ar  
 38  19  39  1   
 39  20  22  ar  
 40  20  23  1   
 41  21  22  ar  
 42  21  40  1   
 43  22  41  1   
 44  23  42  1   
 45  23  43  1   
 46  23  44  1   
@<TRIPOS>SUBSTRUCTURE
  1 ****  13 GROUP 4 **** **** 0

# MOE 2024.06 (io_trps.svl 2023.06)
