@<TRIPOS>MOLECULE
NONAME
41 42 1 0 0 
SMALL
USER_CHARGES


@<TRIPOS>ATOM
  1 O       -0.2500     0.7690    -1.3350 O.2   1 <1>  -0.5700 
  2 C       -0.0350     1.5490    -0.4370 C.2   1 <1>   0.5690 
  3 N        1.2230     1.8280     0.0270 N.am  1 <1>  -0.5470 
  4 C       -1.2570     2.2410     0.1910 C.3   1 <1>   0.4040 
  5 C        2.4320     1.3140    -0.4630 C.ar  1 <1>   0.1170 
  6 N       -2.5640     1.5540    -0.1320 N.4   1 <1>  -0.9590 
  7 C        2.7840    -0.0330    -0.3480 C.ar  1 <1>  -0.1430 
  8 C        3.3210     2.1970    -1.0660 C.ar  1 <1>  -0.1500 
  9 C       -3.7620     2.4260     0.0770 C.3   1 <1>   0.3430 
 10 C       -2.6940     0.2270     0.5310 C.3   1 <1>   0.3430 
 11 C        4.0020    -0.4650    -0.8480 C.ar  1 <1>  -0.1500 
 12 C        1.8720    -1.0570     0.3160 C.3   1 <1>  -0.0970 
 13 C        4.5350     1.7570    -1.5580 C.ar  1 <1>  -0.1500 
 14 C       -5.0840     1.6300     0.0310 C.3   1 <1>  -0.0800 
 15 C       -3.8220    -0.5660    -0.1410 C.3   1 <1>  -0.1600 
 16 C        4.8760     0.4230    -1.4500 C.ar  1 <1>  -0.1500 
 17 C       -4.9380     0.3090    -0.7440 C.3   1 <1>  -0.1600 
 18 C       -6.2050     2.4820    -0.5760 C.3   1 <1>  -0.2400 
 19 H        1.3490     2.5650     0.7210 H     1 <1>   0.3700 
 20 H       -1.2850     3.2490    -0.1870 H     1 <1>   0.0800 
 21 H       -1.1250     2.2860     1.2580 H     1 <1>   0.0800 
 22 H       -2.5050     1.3230    -1.1390 H     1 <1>   0.4500 
 23 H        3.0630     3.2350    -1.1600 H     1 <1>   0.1500 
 24 H       -3.7820     3.1800    -0.6940 H     1 <1>   0.0800 
 25 H       -3.6960     2.9280     1.0280 H     1 <1>   0.0800 
 26 H       -2.9220     0.3670     1.5750 H     1 <1>   0.0800 
 27 H       -1.7730    -0.3300     0.4510 H     1 <1>   0.0800 
 28 H        4.2830    -1.5010    -0.7740 H     1 <1>   0.1500 
 29 H        1.4400    -0.6530     1.2120 H     1 <1>   0.0800 
 30 H        2.4230    -1.9420     0.5820 H     1 <1>   0.0800 
 31 H        1.0880    -1.3380    -0.3630 H     1 <1>   0.0800 
 32 H        5.2130     2.4490    -2.0270 H     1 <1>   0.1500 
 33 H       -5.3650     1.3960     1.0440 H     1 <1>   0.0800 
 34 H       -4.2440    -1.2270     0.5960 H     1 <1>   0.0800 
 35 H       -3.4050    -1.1890    -0.9140 H     1 <1>   0.0800 
 36 H        5.8190     0.0740    -1.8350 H     1 <1>   0.1500 
 37 H       -4.7020     0.5250    -1.7730 H     1 <1>   0.0800 
 38 H       -5.8670    -0.2370    -0.7350 H     1 <1>   0.0800 
 39 H       -5.9850     2.7410    -1.5980 H     1 <1>   0.0800 
 40 H       -6.3410     3.3900    -0.0130 H     1 <1>   0.0800 
 41 H       -7.1360     1.9400    -0.5600 H     1 <1>   0.0800 
@<TRIPOS>BOND
  1   1   2  2   
  2   2   3  am  
  3   2   4  1   
  4   3   5  1   
  5   3  19  1   
  6   4   6  1   
  7   4  20  1   
  8   4  21  1   
  9   5   7  ar  
 10   5   8  ar  
 11   6   9  1   
 12   6  10  1   
 13   6  22  1   
 14   7  11  ar  
 15   7  12  1   
 16   8  13  ar  
 17   8  23  1   
 18   9  14  1   
 19   9  24  1   
 20   9  25  1   
 21  10  15  1   
 22  10  26  1   
 23  10  27  1   
 24  11  16  ar  
 25  11  28  1   
 26  12  29  1   
 27  12  30  1   
 28  12  31  1   
 29  13  16  ar  
 30  13  32  1   
 31  14  17  1   
 32  14  18  1   
 33  14  33  1   
 34  15  17  1   
 35  15  34  1   
 36  15  35  1   
 37  16  36  1   
 38  17  37  1   
 39  17  38  1   
 40  18  39  1   
 41  18  40  1   
 42  18  41  1   
@<TRIPOS>SUBSTRUCTURE
  1 ****   2 GROUP 4 **** **** 0

# MOE 2024.06 (io_trps.svl 2023.06)
