@<TRIPOS>MOLECULE
NONAME
43 44 1 0 0 
SMALL
USER_CHARGES


@<TRIPOS>ATOM
  1 O        0.5180    -3.2890     2.2720 O.2   1 <1>  -0.5700 
  2 C        0.3010    -2.7490     1.2200 C.2   1 <1>   0.5690 
  3 N       -0.8810    -2.1480     0.9990 N.am  1 <1>  -0.8000 
  4 C        1.3800    -2.7540     0.1400 C.3   1 <1>  -0.0190 
  5 C        1.7380    -4.1980    -0.2640 C.3   1 <1>  -0.1600 
  6 C        2.6370    -2.0080     0.6270 C.3   1 <1>  -0.1600 
  7 C        2.9100    -4.2560    -1.2400 C.3   1 <1>   0.3430 
  8 C        3.7930    -2.1070    -0.3660 C.3   1 <1>   0.3430 
  9 N        4.0700    -3.5410    -0.6530 N.4   1 <1>  -0.9590 
 10 C        5.3120    -3.7280    -1.4430 C.3   1 <1>   0.4860 
 11 C        6.4820    -3.2390    -0.6150 C.ar  1 <1>  -0.1430 
 12 C        6.7760    -3.8350     0.6080 C.ar  1 <1>   0.0830 
 13 C        7.2590    -2.1880    -1.0740 C.ar  1 <1>  -0.1500 
 14 O        5.9700    -4.8530     1.0190 O.3   1 <1>  -0.3630 
 15 C        7.8540    -3.3680     1.3570 C.ar  1 <1>  -0.1500 
 16 C        8.3260    -1.7200    -0.3280 C.ar  1 <1>   0.0830 
 17 C        6.2750    -5.6010     2.1800 C.3   1 <1>   0.0400 
 18 C        8.6240    -2.3170     0.8930 C.ar  1 <1>  -0.1500 
 19 O        9.0210    -0.6820    -0.8560 O.3   1 <1>  -0.3620 
 20 C       10.1700    -0.1700    -0.2150 C.3   1 <1>   0.0400 
 21 H       -1.5830    -2.1610     1.7430 H     1 <1>   0.3700 
 22 H       -1.1520    -1.6660     0.1430 H     1 <1>   0.3700 
 23 H        0.9950    -2.2440    -0.7260 H     1 <1>   0.0800 
 24 H        0.8790    -4.6660    -0.7140 H     1 <1>   0.0800 
 25 H        1.9880    -4.7710     0.6130 H     1 <1>   0.0800 
 26 H        2.9580    -2.4100     1.5740 H     1 <1>   0.0800 
 27 H        2.3990    -0.9710     0.7890 H     1 <1>   0.0800 
 28 H        2.6300    -3.7970    -2.1740 H     1 <1>   0.0800 
 29 H        3.1680    -5.2870    -1.4280 H     1 <1>   0.0800 
 30 H        4.6670    -1.6370     0.0580 H     1 <1>   0.0800 
 31 H        3.5370    -1.5920    -1.2770 H     1 <1>   0.0800 
 32 H        4.3000    -3.9870     0.2530 H     1 <1>   0.4500 
 33 H        5.2550    -3.1830    -2.3710 H     1 <1>   0.0800 
 34 H        5.4560    -4.7740    -1.6620 H     1 <1>   0.0800 
 35 H        7.0570    -1.7110    -2.0170 H     1 <1>   0.1500 
 36 H        8.1110    -3.8050     2.3050 H     1 <1>   0.1500 
 37 H        6.2330    -4.9540     3.0380 H     1 <1>   0.0800 
 38 H        7.2560    -6.0320     2.0730 H     1 <1>   0.0800 
 39 H        5.5450    -6.3840     2.2810 H     1 <1>   0.0800 
 40 H        9.4480    -1.9760     1.4920 H     1 <1>   0.1500 
 41 H       10.5670     0.6220    -0.8230 H     1 <1>   0.0800 
 42 H       10.8980    -0.9570    -0.1200 H     1 <1>   0.0800 
 43 H        9.8910     0.2160     0.7490 H     1 <1>   0.0800 
@<TRIPOS>BOND
  1   1   2  2   
  2   2   3  am  
  3   2   4  1   
  4   3  21  1   
  5   3  22  1   
  6   4   5  1   
  7   4   6  1   
  8   4  23  1   
  9   5   7  1   
 10   5  24  1   
 11   5  25  1   
 12   6   8  1   
 13   6  26  1   
 14   6  27  1   
 15   7   9  1   
 16   7  28  1   
 17   7  29  1   
 18   8   9  1   
 19   8  30  1   
 20   8  31  1   
 21   9  10  1   
 22   9  32  1   
 23  10  11  1   
 24  10  33  1   
 25  10  34  1   
 26  11  12  ar  
 27  11  13  ar  
 28  12  14  1   
 29  12  15  ar  
 30  13  16  ar  
 31  13  35  1   
 32  14  17  1   
 33  15  18  ar  
 34  15  36  1   
 35  16  18  ar  
 36  16  19  1   
 37  17  37  1   
 38  17  38  1   
 39  17  39  1   
 40  18  40  1   
 41  19  20  1   
 42  20  41  1   
 43  20  42  1   
 44  20  43  1   
@<TRIPOS>SUBSTRUCTURE
  1 ****   9 GROUP 4 **** **** 0

# MOE 2024.06 (io_trps.svl 2023.06)
