@<TRIPOS>MOLECULE
NONAME
39 40 1 0 0 
SMALL
USER_CHARGES


@<TRIPOS>ATOM
  1 S       -0.0200    -0.0270     0.1290 S.o2  1 <1>   1.3330 
  2 O        0.3740    -0.3720     1.4770 O.2   1 <1>  -0.6500 
  3 O        0.4340    -0.8320    -0.9830 O.2   1 <1>  -0.6500 
  4 N       -1.7140    -0.0050     0.0900 N.am  1 <1>  -0.8490 
  5 C        0.4080     1.6880    -0.2060 C.3   1 <1>  -0.0550 
  6 C       -2.2540    -1.3000    -0.3570 C.3   1 <1>   0.1960 
  7 C       -2.3130     0.4040     1.3610 C.3   1 <1>   0.1960 
  8 C        1.9210     1.9720    -0.2370 C.3   1 <1>  -0.2400 
  9 C       -3.7760    -1.4090    -0.1560 C.3   1 <1>  -0.1600 
 10 C       -3.7980     0.7400     1.1570 C.3   1 <1>  -0.1600 
 11 C       -4.4430    -0.0280    -0.0180 C.3   1 <1>  -0.0190 
 12 C       -5.9610    -0.0990     0.1290 C.2   1 <1>   0.6590 
 13 O       -6.5010    -1.0600     0.6150 O.2   1 <1>  -0.5700 
 14 O       -6.6140     0.9810    -0.2980 O.3   1 <1>  -0.2330 
 15 C       -7.9550     1.2010    -0.3460 C.ar  1 <1>   0.0820 
 16 C       -8.3830     2.5170    -0.2430 C.ar  1 <1>  -0.1500 
 17 C       -8.8920     0.1860    -0.5090 C.ar  1 <1>  -0.1500 
 18 C       -9.7330     2.8180    -0.2910 C.ar  1 <1>  -0.1500 
 19 C      -10.2410     0.4900    -0.5560 C.ar  1 <1>  -0.1500 
 20 C      -10.6620     1.8040    -0.4470 C.ar  1 <1>  -0.1500 
 21 H       -0.0400     2.3130     0.5410 H     1 <1>   0.0800 
 22 H       -0.0110     1.9660    -1.1540 H     1 <1>   0.0800 
 23 H       -1.7680    -2.1040     0.1730 H     1 <1>   0.0800 
 24 H       -2.0280    -1.4170    -1.4040 H     1 <1>   0.0800 
 25 H       -1.8050     1.2670     1.7580 H     1 <1>   0.0800 
 26 H       -2.2100    -0.3970     2.0770 H     1 <1>   0.0800 
 27 H        2.3640     1.7240     0.7120 H     1 <1>   0.0800 
 28 H        2.1010     3.0120    -0.4450 H     1 <1>   0.0800 
 29 H        2.3920     1.3790    -1.0020 H     1 <1>   0.0800 
 30 H       -3.9660    -1.9860     0.7320 H     1 <1>   0.0800 
 31 H       -4.2040    -1.9510    -0.9810 H     1 <1>   0.0800 
 32 H       -3.9020     1.7970     0.9840 H     1 <1>   0.0800 
 33 H       -4.3170     0.5140     2.0720 H     1 <1>   0.0800 
 34 H       -4.2360     0.5140    -0.9250 H     1 <1>   0.0800 
 35 H       -7.6600     3.3030    -0.1240 H     1 <1>   0.1500 
 36 H       -8.5860    -0.8390    -0.6060 H     1 <1>   0.1500 
 37 H      -10.0610     3.8400    -0.2090 H     1 <1>   0.1500 
 38 H      -10.9640    -0.2980    -0.6790 H     1 <1>   0.1500 
 39 H      -11.7130     2.0370    -0.4830 H     1 <1>   0.1500 
@<TRIPOS>BOND
  1   1   2  2   
  2   1   3  2   
  3   1   4  am  
  4   1   5  1   
  5   4   6  1   
  6   4   7  1   
  7   5   8  1   
  8   5  21  1   
  9   5  22  1   
 10   6   9  1   
 11   6  23  1   
 12   6  24  1   
 13   7  10  1   
 14   7  25  1   
 15   7  26  1   
 16   8  27  1   
 17   8  28  1   
 18   8  29  1   
 19   9  11  1   
 20   9  30  1   
 21   9  31  1   
 22  10  11  1   
 23  10  32  1   
 24  10  33  1   
 25  11  12  1   
 26  11  34  1   
 27  12  13  2   
 28  12  14  1   
 29  14  15  1   
 30  15  16  ar  
 31  15  17  ar  
 32  16  18  ar  
 33  16  35  1   
 34  17  19  ar  
 35  17  36  1   
 36  18  20  ar  
 37  18  37  1   
 38  19  20  ar  
 39  19  38  1   
 40  20  39  1   
@<TRIPOS>SUBSTRUCTURE
  1 ****  11 GROUP 4 **** **** 0

# MOE 2024.06 (io_trps.svl 2023.06)
