@<TRIPOS>MOLECULE
NONAME
45 47 1 0 0 
SMALL
USER_CHARGES


@<TRIPOS>ATOM
  1 CL      -4.8430     1.9390    -1.9520 Cl    1 <1>  -0.1770 
  2 C       -3.1660     2.4220    -1.8590 C.ar  1 <1>   0.1770 
  3 C       -2.4750     2.2890    -0.6590 C.ar  1 <1>  -0.1440 
  4 C       -2.5660     2.9400    -2.9900 C.ar  1 <1>  -0.1500 
  5 C       -1.1430     2.6870    -0.5970 C.ar  1 <1>  -0.1500 
  6 C       -3.1640     1.7110     0.5640 C.3   1 <1>   0.4870 
  7 C       -1.2450     3.3290    -2.8940 C.ar  1 <1>   0.1900 
  8 C       -0.5230     3.2130    -1.7210 C.ar  1 <1>  -0.1500 
  9 N       -4.2110     2.6550     1.0320 N.4   1 <1>  -0.9590 
 10 F       -0.6580     3.8250    -3.9470 F     1 <1>  -0.1900 
 11 C       -3.7060     4.0170     1.4120 C.3   1 <1>   0.3430 
 12 C       -5.1090     2.0930     2.0910 C.3   1 <1>   0.3430 
 13 C       -4.8730     4.9640     1.7940 C.3   1 <1>   0.1100 
 14 C       -6.2740     3.0650     2.4030 C.3   1 <1>   0.1100 
 15 N       -6.2050     4.3310     1.6180 N.3   1 <1>  -0.8100 
 16 C       -7.2970     5.2640     2.0350 C.3   1 <1>   0.1710 
 17 C       -8.7020     4.7240     1.7630 C.2   1 <1>   0.5690 
 18 O       -9.4780     4.6570     2.6800 O.2   1 <1>  -0.5700 
 19 N       -8.9720     4.3100     0.4910 N.am  1 <1>  -0.4940 
 20 C      -10.1080     3.7180    -0.0190 C.2   1 <1>   0.4420 
 21 S      -10.0940     3.3410    -1.7110 S.3   1 <1>  -0.0800 
 22 N      -11.2050     3.3720     0.5470 N.2   1 <1>  -0.3380 
 23 C      -11.6880     2.7030    -1.5040 C.2   1 <1>   0.1980 
 24 N      -12.1030     2.7930    -0.3080 N.2   1 <1>  -0.3380 
 25 C      -12.3900     2.1310    -2.7140 C.3   1 <1>  -0.0600 
 26 H       -3.1020     3.0400    -3.9170 H     1 <1>   0.1500 
 27 H       -0.5730     2.5910     0.3130 H     1 <1>   0.1500 
 28 H       -2.4430     1.5390     1.3460 H     1 <1>   0.0800 
 29 H       -3.6130     0.7670     0.3000 H     1 <1>   0.0800 
 30 H        0.5070     3.5260    -1.6970 H     1 <1>   0.1500 
 31 H       -4.8440     2.8370     0.2370 H     1 <1>   0.4500 
 32 H       -3.1660     4.4510     0.5860 H     1 <1>   0.0800 
 33 H       -3.0260     3.9420     2.2440 H     1 <1>   0.0800 
 34 H       -4.5490     1.9120     2.9940 H     1 <1>   0.0800 
 35 H       -5.5210     1.1520     1.7650 H     1 <1>   0.0800 
 36 H       -4.8130     5.8490     1.1820 H     1 <1>   0.0800 
 37 H       -4.7490     5.2740     2.8180 H     1 <1>   0.0800 
 38 H       -6.2690     3.2860     3.4580 H     1 <1>   0.0800 
 39 H       -7.2020     2.5590     2.1930 H     1 <1>   0.0800 
 40 H       -7.1960     6.1940     1.5040 H     1 <1>   0.0800 
 41 H       -7.2150     5.4780     3.0870 H     1 <1>   0.0800 
 42 H       -8.2010     4.4070    -0.1630 H     1 <1>   0.3700 
 43 H      -12.5020     2.8900    -3.4660 H     1 <1>   0.0800 
 44 H      -13.3630     1.7720    -2.4330 H     1 <1>   0.0800 
 45 H      -11.8190     1.3140    -3.1160 H     1 <1>   0.0800 
@<TRIPOS>BOND
  1   1   2  1   
  2   2   3  ar  
  3   2   4  ar  
  4   3   5  ar  
  5   3   6  1   
  6   4   7  ar  
  7   4  26  1   
  8   5   8  ar  
  9   5  27  1   
 10   6   9  1   
 11   6  28  1   
 12   6  29  1   
 13   7   8  ar  
 14   7  10  1   
 15   8  30  1   
 16   9  11  1   
 17   9  12  1   
 18   9  31  1   
 19  11  13  1   
 20  11  32  1   
 21  11  33  1   
 22  12  14  1   
 23  12  34  1   
 24  12  35  1   
 25  13  15  1   
 26  13  36  1   
 27  13  37  1   
 28  14  15  1   
 29  14  38  1   
 30  14  39  1   
 31  15  16  1   
 32  16  17  1   
 33  16  40  1   
 34  16  41  1   
 35  17  18  2   
 36  17  19  am  
 37  19  20  1   
 38  19  42  1   
 39  20  21  1   
 40  20  22  2   
 41  21  23  1   
 42  22  24  1   
 43  23  24  2   
 44  23  25  1   
 45  25  43  1   
 46  25  44  1   
 47  25  45  1   
@<TRIPOS>SUBSTRUCTURE
  1 ****  15 GROUP 4 **** **** 0

# MOE 2024.06 (io_trps.svl 2023.06)
