@<TRIPOS>MOLECULE
NONAME
58 59 1 0 0 
SMALL
USER_CHARGES


@<TRIPOS>ATOM
  1 O       -0.2380     1.1800     1.8210 O.2   1 <1>  -0.5700 
  2 C       -0.3530     1.9770     0.9100 C.2   1 <1>   0.5440 
  3 N        0.7440     2.2050     0.1240 N.am  1 <1>  -0.7300 
  4 C       -1.6190     2.6350     0.6430 C.ar  1 <1>   0.0860 
  5 C        2.0480     1.5640     0.3510 C.3   1 <1>   0.2200 
  6 C       -2.8260     2.0160     0.9710 C.ar  1 <1>  -0.1500 
  7 C       -1.6890     3.8970     0.0460 C.ar  1 <1>  -0.1500 
  8 C        3.1640     2.4410    -0.2030 C.3   1 <1>  -0.1600 
  9 C        2.0650     0.2100    -0.3490 C.3   1 <1>  -0.1600 
 10 C       -4.0460     2.6070     0.7010 C.ar  1 <1>   0.0830 
 11 C       -2.9030     4.5080    -0.2130 C.ar  1 <1>  -0.1500 
 12 C        4.5430     1.7890    -0.0210 C.3   1 <1>   0.5030 
 13 C        3.4030    -0.5130    -0.1630 C.3   1 <1>   0.5030 
 14 O       -5.1630     1.9030     1.0100 O.3   1 <1>  -0.3630 
 15 C       -4.0900     3.8800     0.1220 C.ar  1 <1>   0.0830 
 16 N        4.5370     0.3810    -0.4570 N.4   1 <1>  -0.9060 
 17 C        5.0400     1.8850     1.4240 C.3   1 <1>  -0.2400 
 18 C        5.5600     2.4910    -0.9190 C.3   1 <1>  -0.2400 
 19 C        3.5490    -1.1030     1.2430 C.3   1 <1>  -0.2400 
 20 C        3.5090    -1.6560    -1.1700 C.3   1 <1>  -0.2400 
 21 C       -5.9660     1.4570    -0.0640 C.3   1 <1>   0.1200 
 22 O       -5.2390     4.5470    -0.1290 O.3   1 <1>  -0.3630 
 23 C       -5.3520     0.1900    -0.6580 C.3   1 <1>  -0.2400 
 24 C       -6.0710     4.8480     0.9680 C.3   1 <1>   0.1200 
 25 C       -7.1550     5.8090     0.4890 C.3   1 <1>  -0.2400 
 26 H        0.6300     2.7550    -0.7290 H     1 <1>   0.3700 
 27 H        2.1780     1.4330     1.4130 H     1 <1>   0.0800 
 28 H       -2.8120     1.0470     1.4390 H     1 <1>   0.1500 
 29 H       -0.7840     4.4170    -0.2110 H     1 <1>   0.1500 
 30 H        3.1510     3.3930     0.3000 H     1 <1>   0.0800 
 31 H        2.9850     2.6210    -1.2480 H     1 <1>   0.0800 
 32 H        1.8670     0.3500    -1.3970 H     1 <1>   0.0800 
 33 H        1.2750    -0.4040     0.0500 H     1 <1>   0.0800 
 34 H       -2.9410     5.4810    -0.6700 H     1 <1>   0.1500 
 35 H        5.3840    -0.0630    -0.0980 H     1 <1>   0.4500 
 36 H        4.6320     0.3940    -1.4740 H     1 <1>   0.4500 
 37 H        4.3180     1.5300     2.1320 H     1 <1>   0.0800 
 38 H        5.2260     2.9160     1.6730 H     1 <1>   0.0800 
 39 H        5.9620     1.3480     1.5580 H     1 <1>   0.0800 
 40 H        5.2770     2.4320    -1.9550 H     1 <1>   0.0800 
 41 H        6.5430     2.0700    -0.7980 H     1 <1>   0.0800 
 42 H        5.6200     3.5340    -0.6590 H     1 <1>   0.0800 
 43 H        3.3490    -0.3870     2.0140 H     1 <1>   0.0800 
 44 H        4.5260    -1.5260     1.3920 H     1 <1>   0.0800 
 45 H        2.8290    -1.8930     1.3760 H     1 <1>   0.0800 
 46 H        3.4390    -1.2970    -2.1820 H     1 <1>   0.0800 
 47 H        2.7020    -2.3520    -1.0180 H     1 <1>   0.0800 
 48 H        4.4310    -2.1980    -1.0510 H     1 <1>   0.0800 
 49 H       -6.0430     2.2360    -0.8020 H     1 <1>   0.0800 
 50 H       -6.9440     1.2490     0.3310 H     1 <1>   0.0800 
 51 H       -4.3870     0.4020    -1.0810 H     1 <1>   0.0800 
 52 H       -5.9880    -0.1870    -1.4390 H     1 <1>   0.0800 
 53 H       -5.2560    -0.5660     0.1010 H     1 <1>   0.0800 
 54 H       -5.4690     5.3010     1.7380 H     1 <1>   0.0800 
 55 H       -6.5080     3.9390     1.3390 H     1 <1>   0.0800 
 56 H       -6.7080     6.7130     0.1150 H     1 <1>   0.0800 
 57 H       -7.8050     6.0610     1.3070 H     1 <1>   0.0800 
 58 H       -7.7400     5.3490    -0.2870 H     1 <1>   0.0800 
@<TRIPOS>BOND
  1   1   2  2   
  2   2   3  am  
  3   2   4  1   
  4   3   5  1   
  5   3  26  1   
  6   4   6  ar  
  7   4   7  ar  
  8   5   8  1   
  9   5   9  1   
 10   5  27  1   
 11   6  10  ar  
 12   6  28  1   
 13   7  11  ar  
 14   7  29  1   
 15   8  12  1   
 16   8  30  1   
 17   8  31  1   
 18   9  13  1   
 19   9  32  1   
 20   9  33  1   
 21  10  14  1   
 22  10  15  ar  
 23  11  15  ar  
 24  11  34  1   
 25  12  16  1   
 26  12  17  1   
 27  12  18  1   
 28  13  16  1   
 29  13  19  1   
 30  13  20  1   
 31  14  21  1   
 32  15  22  1   
 33  16  35  1   
 34  16  36  1   
 35  17  37  1   
 36  17  38  1   
 37  17  39  1   
 38  18  40  1   
 39  18  41  1   
 40  18  42  1   
 41  19  43  1   
 42  19  44  1   
 43  19  45  1   
 44  20  46  1   
 45  20  47  1   
 46  20  48  1   
 47  21  23  1   
 48  21  49  1   
 49  21  50  1   
 50  22  24  1   
 51  23  51  1   
 52  23  52  1   
 53  23  53  1   
 54  24  25  1   
 55  24  54  1   
 56  24  55  1   
 57  25  56  1   
 58  25  57  1   
 59  25  58  1   
@<TRIPOS>SUBSTRUCTURE
  1 ****   2 GROUP 4 **** **** 0

# MOE 2024.06 (io_trps.svl 2023.06)
