@<TRIPOS>MOLECULE
NONAME
30 30 1 0 0 
SMALL
USER_CHARGES


@<TRIPOS>ATOM
  1 BR      -0.9080     0.6290     0.3470 Br    1 <1>  -0.1110 
  2 C        0.4650     1.9880     0.3250 C.ar  1 <1>   0.1110 
  3 C        0.2020     3.2470    -0.1980 C.ar  1 <1>   0.0830 
  4 C        1.7010     1.6430     0.8330 C.ar  1 <1>  -0.1500 
  5 O       -1.0210     3.5570    -0.6990 O.3   1 <1>  -0.3630 
  6 C        1.2390     4.1820    -0.2300 C.ar  1 <1>   0.0830 
  7 C        2.7320     2.5740     0.8200 C.ar  1 <1>   0.0730 
  8 C       -2.0630     3.8260     0.2160 C.3   1 <1>   0.2000 
  9 O        0.9810     5.4080    -0.7670 O.3   1 <1>  -0.3630 
 10 C        2.4880     3.8360     0.2830 C.ar  1 <1>  -0.1500 
 11 C        4.0250     2.2400     1.3450 C.1   1 <1>   0.4840 
 12 C       -3.3780     3.4430    -0.4780 C.3   1 <1>  -0.1600 
 13 C       -1.9980     5.3070     0.6010 C.3   1 <1>  -0.2400 
 14 C        1.9920     6.3720    -0.9560 C.3   1 <1>   0.0400 
 15 N        5.0540     1.9810     1.7620 N.1   1 <1>  -0.5570 
 16 C       -4.5960     3.4940     0.4550 C.3   1 <1>  -0.2400 
 17 H        1.8570     0.6560     1.2320 H     1 <1>   0.1500 
 18 H       -1.9220     3.2110     1.0870 H     1 <1>   0.0800 
 19 H        3.2960     4.5440     0.2760 H     1 <1>   0.1500 
 20 H       -3.2820     2.4390    -0.8530 H     1 <1>   0.0800 
 21 H       -3.5420     4.0970    -1.3170 H     1 <1>   0.0800 
 22 H       -2.1070     5.9230    -0.2740 H     1 <1>   0.0800 
 23 H       -1.0580     5.5260     1.0720 H     1 <1>   0.0800 
 24 H       -2.7800     5.5510     1.2950 H     1 <1>   0.0800 
 25 H        1.5510     7.2250    -1.4400 H     1 <1>   0.0800 
 26 H        2.7610     5.9550    -1.5820 H     1 <1>   0.0800 
 27 H        2.3850     6.6610     0.0030 H     1 <1>   0.0800 
 28 H       -4.4360     2.8690     1.3160 H     1 <1>   0.0800 
 29 H       -5.4670     3.1390    -0.0660 H     1 <1>   0.0800 
 30 H       -4.7890     4.4990     0.7830 H     1 <1>   0.0800 
@<TRIPOS>BOND
  1   1   2  1   
  2   2   3  ar  
  3   2   4  ar  
  4   3   5  1   
  5   3   6  ar  
  6   4   7  ar  
  7   4  17  1   
  8   5   8  1   
  9   6   9  1   
 10   6  10  ar  
 11   7  10  ar  
 12   7  11  1   
 13   8  12  1   
 14   8  13  1   
 15   8  18  1   
 16   9  14  1   
 17  10  19  1   
 18  11  15  3   
 19  12  16  1   
 20  12  20  1   
 21  12  21  1   
 22  13  22  1   
 23  13  23  1   
 24  13  24  1   
 25  14  25  1   
 26  14  26  1   
 27  14  27  1   
 28  16  28  1   
 29  16  29  1   
 30  16  30  1   
@<TRIPOS>SUBSTRUCTURE
  1 ****   3 GROUP 4 **** **** 0

# MOE 2024.06 (io_trps.svl 2023.06)
