@<TRIPOS>MOLECULE
NONAME
48 49 1 0 0 
SMALL
USER_CHARGES


@<TRIPOS>ATOM
  1 O        0.1050     1.1350    -1.3520 O.2   1 <1>  -0.5700 
  2 C        0.2930     1.6270    -0.2700 C.2   1 <1>   0.6590 
  3 O       -0.5900     1.5560     0.7130 O.3   1 <1>  -0.4300 
  4 C        1.5790     2.3710     0.0430 C.3   1 <1>  -0.0190 
  5 C       -1.8270     0.9000     0.5500 C.3   1 <1>   0.1200 
  6 C        2.5910     2.0870    -1.0730 C.3   1 <1>   0.3430 
  7 C        1.3350     3.8850     0.1980 C.3   1 <1>  -0.1600 
  8 C       -2.5970     1.0120     1.8610 C.3   1 <1>  -0.2400 
  9 N        3.8610     2.8570    -0.8770 N.4   1 <1>  -0.9590 
 10 C        2.6630     4.6420     0.3430 C.3   1 <1>  -0.1600 
 11 C        3.6270     4.3300    -0.8030 C.3   1 <1>   0.3430 
 12 C        4.8540     2.5020    -1.9150 C.3   1 <1>   0.4810 
 13 C        6.1930     2.9730    -1.4110 C.2   1 <1>  -0.2880 
 14 C        7.0770     2.1910    -0.7690 C.2   1 <1>  -0.1780 
 15 C        8.3680     2.5760    -0.2390 C.ar  1 <1>   0.0280 
 16 C        8.9110     1.9420     0.8870 C.ar  1 <1>   0.0820 
 17 C        9.1070     3.5920    -0.8420 C.ar  1 <1>  -0.1500 
 18 O        8.1780     0.9560     1.4720 O.3   1 <1>  -0.3620 
 19 C       10.1560     2.3320     1.3770 C.ar  1 <1>  -0.1500 
 20 C       10.3400     3.9760    -0.3500 C.ar  1 <1>  -0.1500 
 21 C        8.6680     0.2070     2.5640 C.3   1 <1>   0.0400 
 22 C       10.8650     3.3450     0.7620 C.ar  1 <1>  -0.1500 
 23 H        1.9630     1.9740     0.9650 H     1 <1>   0.0800 
 24 H       -2.3640     1.3750    -0.2550 H     1 <1>   0.0800 
 25 H       -1.6390    -0.1310     0.2990 H     1 <1>   0.0800 
 26 H        2.1470     2.3570    -2.0190 H     1 <1>   0.0800 
 27 H        2.7980     1.0290    -1.0980 H     1 <1>   0.0800 
 28 H        0.8060     4.2540    -0.6660 H     1 <1>   0.0800 
 29 H        0.7150     4.0680     1.0610 H     1 <1>   0.0800 
 30 H       -2.7720     2.0440     2.1040 H     1 <1>   0.0800 
 31 H       -2.0490     0.5410     2.6570 H     1 <1>   0.0800 
 32 H       -3.5480     0.5190     1.7650 H     1 <1>   0.0800 
 33 H        4.2900     2.5730     0.0140 H     1 <1>   0.4500 
 34 H        3.1300     4.3930     1.2810 H     1 <1>   0.0800 
 35 H        2.4670     5.7010     0.3560 H     1 <1>   0.0800 
 36 H        4.5580     4.8460    -0.6350 H     1 <1>   0.0800 
 37 H        3.2060     4.6810    -1.7320 H     1 <1>   0.0800 
 38 H        4.8820     1.4310    -2.0380 H     1 <1>   0.0800 
 39 H        4.6130     2.9550    -2.8640 H     1 <1>   0.0800 
 40 H        6.3800     4.0140    -1.6050 H     1 <1>   0.1500 
 41 H        6.8470     1.1530    -0.5900 H     1 <1>   0.1500 
 42 H        8.7230     4.0870    -1.7140 H     1 <1>   0.1500 
 43 H       10.5910     1.8620     2.2390 H     1 <1>   0.1500 
 44 H       10.8950     4.7630    -0.8320 H     1 <1>   0.1500 
 45 H        7.9290    -0.5300     2.8240 H     1 <1>   0.0800 
 46 H        8.8330     0.8670     3.3960 H     1 <1>   0.0800 
 47 H        9.5810    -0.2810     2.2720 H     1 <1>   0.0800 
 48 H       11.8260     3.6430     1.1450 H     1 <1>   0.1500 
@<TRIPOS>BOND
  1   1   2  2   
  2   2   3  1   
  3   2   4  1   
  4   3   5  1   
  5   4   6  1   
  6   4   7  1   
  7   4  23  1   
  8   5   8  1   
  9   5  24  1   
 10   5  25  1   
 11   6   9  1   
 12   6  26  1   
 13   6  27  1   
 14   7  10  1   
 15   7  28  1   
 16   7  29  1   
 17   8  30  1   
 18   8  31  1   
 19   8  32  1   
 20   9  11  1   
 21   9  12  1   
 22   9  33  1   
 23  10  11  1   
 24  10  34  1   
 25  10  35  1   
 26  11  36  1   
 27  11  37  1   
 28  12  13  1   
 29  12  38  1   
 30  12  39  1   
 31  13  14  2   
 32  13  40  1   
 33  14  15  1   
 34  14  41  1   
 35  15  16  ar  
 36  15  17  ar  
 37  16  18  1   
 38  16  19  ar  
 39  17  20  ar  
 40  17  42  1   
 41  18  21  1   
 42  19  22  ar  
 43  19  43  1   
 44  20  22  ar  
 45  20  44  1   
 46  21  45  1   
 47  21  46  1   
 48  21  47  1   
 49  22  48  1   
@<TRIPOS>SUBSTRUCTURE
  1 ****   9 GROUP 4 **** **** 0

# MOE 2024.06 (io_trps.svl 2023.06)
