@<TRIPOS>MOLECULE
NONAME
53 55 1 0 0 
SMALL
USER_CHARGES


@<TRIPOS>ATOM
  1 CL      -0.1720     0.9000     0.3400 Cl    1 <1>  -0.1770 
  2 C        1.4040     1.0570    -0.3910 C.ar  1 <1>   0.1770 
  3 C        2.5270     0.7510     0.3510 C.ar  1 <1>  -0.1500 
  4 C        1.5000     1.4840    -1.7030 C.ar  1 <1>  -0.1500 
  5 C        3.7850     0.8680    -0.2240 C.ar  1 <1>   0.1990 
  6 C        2.7530     1.6040    -2.2820 C.ar  1 <1>  -0.1500 
  7 N        4.9110     0.5370     0.5160 N.am  1 <1>  -0.6930 
  8 C        3.8830     1.2960    -1.5450 C.ar  1 <1>  -0.1500 
  9 S        5.7120    -0.9670     0.2250 S.o2  1 <1>   1.4470 
 10 C        5.7560     1.6520     1.0450 C.3   1 <1>   0.2570 
 11 O        6.5640    -1.1650     1.3780 O.2   1 <1>  -0.6500 
 12 O        6.3290    -0.8540    -1.0780 O.2   1 <1>  -0.6500 
 13 C        4.3460    -2.1580     0.2320 C.ar  1 <1>  -0.0090 
 14 C        6.7390     2.2430     0.0170 C.2   1 <1>   0.5690 
 15 C        3.6490    -2.4540    -0.9330 C.ar  1 <1>  -0.1500 
 16 C        3.9340    -2.7730     1.4080 C.ar  1 <1>  -0.1500 
 17 O        6.3640     3.2100    -0.6030 O.2   1 <1>  -0.5700 
 18 N        7.9920     1.7200    -0.2230 N.am  1 <1>  -0.6600 
 19 C        2.5790    -3.3320    -0.9260 C.ar  1 <1>  -0.1500 
 20 C        2.8660    -3.6530     1.4210 C.ar  1 <1>  -0.1500 
 21 C        8.6620     1.9860    -1.5360 C.3   1 <1>   0.1400 
 22 C        8.7190     0.7460     0.6510 C.3   1 <1>   0.1400 
 23 C        2.1810    -3.9360     0.2530 C.ar  1 <1>  -0.1430 
 24 C       10.1460     2.3440    -1.3530 C.3   1 <1>   0.3430 
 25 C       10.2090     1.1120     0.7940 C.3   1 <1>   0.3430 
 26 C        1.0080    -4.8990     0.2620 C.3   1 <1>  -0.0970 
 27 N       10.8760     1.3080    -0.5410 N.4   1 <1>  -0.9590 
 28 C       12.3180     1.6630    -0.3810 C.3   1 <1>   0.2630 
 29 H        2.4240     0.4190     1.3660 H     1 <1>   0.1500 
 30 H        0.6090     1.7170    -2.2580 H     1 <1>   0.1500 
 31 H        2.8470     1.9370    -3.3020 H     1 <1>   0.1500 
 32 H        4.8540     1.3890    -1.9990 H     1 <1>   0.1500 
 33 H        6.2830     1.3210     1.9190 H     1 <1>   0.0800 
 34 H        5.1030     2.4470     1.3590 H     1 <1>   0.0800 
 35 H        3.9420    -1.9880    -1.8600 H     1 <1>   0.1500 
 36 H        4.4530    -2.5620     2.3280 H     1 <1>   0.1500 
 37 H        2.0580    -3.5430    -1.8450 H     1 <1>   0.1500 
 38 H        2.5710    -4.1170     2.3470 H     1 <1>   0.1500 
 39 H        8.1760     2.7930    -2.0580 H     1 <1>   0.0800 
 40 H        8.5730     1.1090    -2.1550 H     1 <1>   0.0800 
 41 H        8.6420    -0.2390     0.2230 H     1 <1>   0.0800 
 42 H        8.2820     0.7160     1.6330 H     1 <1>   0.0800 
 43 H       10.2060     3.3020    -0.8630 H     1 <1>   0.0800 
 44 H       10.6050     2.4410    -2.3240 H     1 <1>   0.0800 
 45 H       10.7090     0.3300     1.3420 H     1 <1>   0.0800 
 46 H       10.2840     2.0190     1.3720 H     1 <1>   0.0800 
 47 H        0.5260    -4.8980     1.2240 H     1 <1>   0.0800 
 48 H        1.3530    -5.8950     0.0490 H     1 <1>   0.0800 
 49 H        0.2830    -4.6160    -0.4790 H     1 <1>   0.0800 
 50 H       10.8060     0.4150    -1.0520 H     1 <1>   0.4500 
 51 H       12.4180     2.5960     0.1500 H     1 <1>   0.0800 
 52 H       12.7890     1.7640    -1.3460 H     1 <1>   0.0800 
 53 H       12.8350     0.8950     0.1720 H     1 <1>   0.0800 
@<TRIPOS>BOND
  1   1   2  1   
  2   2   3  ar  
  3   2   4  ar  
  4   3   5  ar  
  5   3  29  1   
  6   4   6  ar  
  7   4  30  1   
  8   5   7  1   
  9   5   8  ar  
 10   6   8  ar  
 11   6  31  1   
 12   7   9  am  
 13   7  10  1   
 14   8  32  1   
 15   9  11  2   
 16   9  12  2   
 17   9  13  1   
 18  10  14  1   
 19  10  33  1   
 20  10  34  1   
 21  13  15  ar  
 22  13  16  ar  
 23  14  17  2   
 24  14  18  am  
 25  15  19  ar  
 26  15  35  1   
 27  16  20  ar  
 28  16  36  1   
 29  18  21  1   
 30  18  22  1   
 31  19  23  ar  
 32  19  37  1   
 33  20  23  ar  
 34  20  38  1   
 35  21  24  1   
 36  21  39  1   
 37  21  40  1   
 38  22  25  1   
 39  22  41  1   
 40  22  42  1   
 41  23  26  1   
 42  24  27  1   
 43  24  43  1   
 44  24  44  1   
 45  25  27  1   
 46  25  45  1   
 47  25  46  1   
 48  26  47  1   
 49  26  48  1   
 50  26  49  1   
 51  27  28  1   
 52  27  50  1   
 53  28  51  1   
 54  28  52  1   
 55  28  53  1   
@<TRIPOS>SUBSTRUCTURE
  1 ****   7 GROUP 4 **** **** 0

# MOE 2024.06 (io_trps.svl 2023.06)
