@<TRIPOS>MOLECULE
NONAME
38 39 1 0 0 
SMALL
USER_CHARGES


@<TRIPOS>ATOM
  1 CL      -0.2640    -0.3510    -0.6160 Cl    1 <1>  -0.1770 
  2 C        1.3500    -0.9660    -0.3630 C.ar  1 <1>   0.1770 
  3 C        1.5210    -2.2570     0.0990 C.ar  1 <1>  -0.1500 
  4 C        2.4360    -0.1540    -0.6260 C.ar  1 <1>  -0.1500 
  5 C        2.8020    -2.7400     0.2990 C.ar  1 <1>  -0.1500 
  6 C        3.7140    -0.6450    -0.4230 C.ar  1 <1>  -0.1500 
  7 C        3.9160    -1.9460     0.0390 C.ar  1 <1>   0.1170 
  8 N        5.1910    -2.4880     0.2720 N.am  1 <1>  -0.5470 
  9 C        6.4020    -2.1560    -0.2830 C.2   1 <1>   0.5690 
 10 O        6.5410    -1.3000    -1.1240 O.2   1 <1>  -0.5700 
 11 C        7.6790    -2.8920     0.1640 C.3   1 <1>   0.4040 
 12 N        8.9470    -2.1320    -0.1550 N.4   1 <1>  -0.9590 
 13 C       10.1330    -3.0290    -0.2000 C.3   1 <1>   0.3430 
 14 C        9.0920    -0.9320     0.7200 C.3   1 <1>   0.3430 
 15 C       11.3610    -2.3400    -0.7960 C.3   1 <1>  -0.1600 
 16 C        9.8250     0.1740    -0.0380 C.3   1 <1>  -0.1600 
 17 C       11.9820    -1.2920     0.1390 C.3   1 <1>  -0.1600 
 18 C       11.3600     0.1070     0.0250 C.3   1 <1>  -0.1600 
 19 H        0.6580    -2.8680     0.2970 H     1 <1>   0.1500 
 20 H        2.2790     0.8480    -0.9850 H     1 <1>   0.1500 
 21 H        2.9270    -3.7470     0.6550 H     1 <1>   0.1500 
 22 H        4.5500    -0.0010    -0.6260 H     1 <1>   0.1500 
 23 H        5.1680    -3.2850     0.9080 H     1 <1>   0.3700 
 24 H        7.6960    -3.8400    -0.3460 H     1 <1>   0.0800 
 25 H        7.6260    -3.0810     1.2220 H     1 <1>   0.0800 
 26 H        8.7890    -1.7510    -1.1050 H     1 <1>   0.4500 
 27 H        9.9020    -3.8890    -0.8090 H     1 <1>   0.0800 
 28 H       10.3670    -3.3800     0.7930 H     1 <1>   0.0800 
 29 H        9.6110    -1.1760     1.6330 H     1 <1>   0.0800 
 30 H        8.1130    -0.5590     0.9760 H     1 <1>   0.0800 
 31 H       11.1380    -1.9170    -1.7600 H     1 <1>   0.0800 
 32 H       12.1010    -3.1050    -0.9560 H     1 <1>   0.0800 
 33 H        9.5270     1.1180     0.3840 H     1 <1>   0.0800 
 34 H        9.4970     0.1860    -1.0630 H     1 <1>   0.0800 
 35 H       13.0300    -1.1990    -0.0970 H     1 <1>   0.0800 
 36 H       11.9290    -1.6350     1.1590 H     1 <1>   0.0800 
 37 H       11.6990     0.6850     0.8690 H     1 <1>   0.0800 
 38 H       11.7520     0.5920    -0.8540 H     1 <1>   0.0800 
@<TRIPOS>BOND
  1   1   2  1   
  2   2   3  ar  
  3   2   4  ar  
  4   3   5  ar  
  5   3  19  1   
  6   4   6  ar  
  7   4  20  1   
  8   5   7  ar  
  9   5  21  1   
 10   6   7  ar  
 11   6  22  1   
 12   7   8  1   
 13   8   9  am  
 14   8  23  1   
 15   9  10  2   
 16   9  11  1   
 17  11  12  1   
 18  11  24  1   
 19  11  25  1   
 20  12  13  1   
 21  12  14  1   
 22  12  26  1   
 23  13  15  1   
 24  13  27  1   
 25  13  28  1   
 26  14  16  1   
 27  14  29  1   
 28  14  30  1   
 29  15  17  1   
 30  15  31  1   
 31  15  32  1   
 32  16  18  1   
 33  16  33  1   
 34  16  34  1   
 35  17  18  1   
 36  17  35  1   
 37  17  36  1   
 38  18  37  1   
 39  18  38  1   
@<TRIPOS>SUBSTRUCTURE
  1 ****   9 GROUP 4 **** **** 0

# MOE 2024.06 (io_trps.svl 2023.06)
