@<TRIPOS>MOLECULE
NONAME
41 44 1 0 0 
SMALL
USER_CHARGES


@<TRIPOS>ATOM
  1 S        0.3270    -1.1060     0.4790 S.3   1 <1>  -0.0800 
  2 C        1.3550     0.2670     0.1170 C.2   1 <1>   0.1240 
  3 C       -1.0970    -0.0690     0.4150 C.2   1 <1>  -0.1400 
  4 N        2.7030     0.2390    -0.0110 N.pl3 1 <1>  -0.5340 
  5 C        0.6520     1.4150    -0.0340 C.2   1 <1>  -0.0860 
  6 C       -0.7620     1.2040     0.1510 C.2   1 <1>  -0.1810 
  7 C       -2.4770    -0.6410     0.6400 C.3   1 <1>   0.5230 
  8 C        3.3330     1.4050    -0.3000 C.2   1 <1>   0.6410 
  9 C        1.4090     2.5920    -0.3410 C.2   1 <1>   0.8670 
 10 C       -1.8220     2.2880     0.0620 C.3   1 <1>   0.0210 
 11 N       -3.4730     0.3740     0.1490 N.4   1 <1>  -0.9590 
 12 S        5.0930     1.2570    -0.4450 S.3   1 <1>  -0.3710 
 13 N        2.7720     2.5480    -0.4670 N.2   1 <1>  -0.6610 
 14 O        0.8460     3.6650    -0.5000 O.2   1 <1>  -0.5700 
 15 C       -3.1680     1.7750     0.6130 C.3   1 <1>   0.3430 
 16 C       -4.8690    -0.0350     0.4600 C.3   1 <1>   0.4860 
 17 C        5.6710     2.9710    -0.8360 C.3   1 <1>  -0.0100 
 18 C       -5.1270    -1.3890    -0.1720 C.ar  1 <1>  -0.1430 
 19 C       -5.2120    -2.5240     0.6230 C.ar  1 <1>  -0.1500 
 20 C       -5.2680    -1.5060    -1.5480 C.ar  1 <1>  -0.1500 
 21 C       -5.4220    -3.7630     0.0460 C.ar  1 <1>  -0.1500 
 22 C       -5.4780    -2.7470    -2.1220 C.ar  1 <1>  -0.1500 
 23 C       -5.5520    -3.8750    -1.3270 C.ar  1 <1>  -0.1500 
 24 H        3.2630    -0.6090     0.0960 H     1 <1>   0.4000 
 25 H       -2.6190    -0.8400     1.6890 H     1 <1>   0.0800 
 26 H       -2.5850    -1.5630     0.0920 H     1 <1>   0.0800 
 27 H       -1.9340     2.6020    -0.9610 H     1 <1>   0.0800 
 28 H       -1.5180     3.1480     0.6350 H     1 <1>   0.0800 
 29 H       -3.3770     0.3550    -0.8730 H     1 <1>   0.4500 
 30 H       -3.9500     2.4490     0.3050 H     1 <1>   0.0800 
 31 H       -3.1230     1.7870     1.6910 H     1 <1>   0.0800 
 32 H       -5.5660     0.6820     0.0580 H     1 <1>   0.0800 
 33 H       -5.0150    -0.0940     1.5260 H     1 <1>   0.0800 
 34 H        6.7410     2.9440    -0.9370 H     1 <1>   0.0800 
 35 H        5.3750     3.6130    -0.0260 H     1 <1>   0.0800 
 36 H        5.2040     3.2760    -1.7560 H     1 <1>   0.0800 
 37 H       -5.1220    -2.4640     1.6950 H     1 <1>   0.1500 
 38 H       -5.2240    -0.6430    -2.1900 H     1 <1>   0.1500 
 39 H       -5.4890    -4.6450     0.6610 H     1 <1>   0.1500 
 40 H       -5.5880    -2.8400    -3.1900 H     1 <1>   0.1500 
 41 H       -5.7160    -4.8410    -1.7750 H     1 <1>   0.1500 
@<TRIPOS>BOND
  1   1   2  1   
  2   1   3  1   
  3   2   4  1   
  4   2   5  2   
  5   3   6  2   
  6   3   7  1   
  7   4   8  1   
  8   4  24  1   
  9   5   6  1   
 10   5   9  1   
 11   6  10  1   
 12   7  11  1   
 13   7  25  1   
 14   7  26  1   
 15   8  12  1   
 16   8  13  2   
 17   9  13  1   
 18   9  14  2   
 19  10  15  1   
 20  10  27  1   
 21  10  28  1   
 22  11  15  1   
 23  11  16  1   
 24  11  29  1   
 25  12  17  1   
 26  15  30  1   
 27  15  31  1   
 28  16  18  1   
 29  16  32  1   
 30  16  33  1   
 31  17  34  1   
 32  17  35  1   
 33  17  36  1   
 34  18  19  ar  
 35  18  20  ar  
 36  19  21  ar  
 37  19  37  1   
 38  20  22  ar  
 39  20  38  1   
 40  21  23  ar  
 41  21  39  1   
 42  22  23  ar  
 43  22  40  1   
 44  23  41  1   
@<TRIPOS>SUBSTRUCTURE
  1 ****   3 GROUP 4 **** **** 0

# MOE 2024.06 (io_trps.svl 2023.06)
