@<TRIPOS>MOLECULE
NONAME
33 35 1 0 0 
SMALL
USER_CHARGES


@<TRIPOS>ATOM
  1 O       -0.1380    -0.2450    -0.1900 O.2   1 <1>  -0.5700 
  2 C       -0.0870    -1.4240     0.1120 C.2   1 <1>   0.7150 
  3 N        1.1230    -1.9430     0.4730 N.am  1 <1>  -0.7300 
  4 C       -1.2570    -2.2780     0.0920 C.2   1 <1>   0.0550 
  5 C        2.4270    -1.2420     0.4530 C.3   1 <1>   0.1400 
  6 O       -2.4520    -1.7910    -0.2790 O.3   1 <1>  -0.2800 
  7 C       -1.3910    -3.5950     0.4020 C.2   1 <1>  -0.1500 
  8 C        3.4890    -2.1330    -0.2090 C.3   1 <1>   0.2000 
  9 C       -3.3450    -2.7760    -0.2090 C.ar  1 <1>   0.1400 
 10 C       -2.7390    -3.9430     0.2140 C.ar  1 <1>   0.0000 
 11 O        3.4430    -3.4210     0.3270 O.3   1 <1>  -0.5600 
 12 C        4.9220    -1.6770     0.0160 C.3   1 <1>  -0.1600 
 13 C       -4.7000    -2.7150    -0.5030 C.ar  1 <1>  -0.1500 
 14 C       -3.5050    -5.1020     0.3540 C.ar  1 <1>  -0.1500 
 15 C        4.6730    -4.0600     0.1790 C.3   1 <1>   0.1200 
 16 C        5.7020    -2.9720    -0.1240 C.3   1 <1>  -0.1600 
 17 C       -5.4530    -3.8640    -0.3620 C.ar  1 <1>  -0.1500 
 18 C       -4.8540    -5.0540     0.0650 C.ar  1 <1>  -0.1500 
 19 H        1.2220    -2.9480     0.6380 H     1 <1>   0.3700 
 20 H        2.7190    -1.0220     1.4650 H     1 <1>   0.0800 
 21 H        2.3470    -0.3110    -0.0830 H     1 <1>   0.0800 
 22 H       -0.6370    -4.2840     0.7340 H     1 <1>   0.1500 
 23 H        3.2910    -2.2170    -1.2650 H     1 <1>   0.0800 
 24 H        5.0310    -1.2870     1.0130 H     1 <1>   0.0800 
 25 H        5.2250    -0.9300    -0.6960 H     1 <1>   0.0800 
 26 H       -5.1310    -1.7870    -0.8290 H     1 <1>   0.1500 
 27 H       -3.0370    -6.0120     0.6840 H     1 <1>   0.1500 
 28 H        4.5950    -4.7660    -0.6300 H     1 <1>   0.0800 
 29 H        4.8950    -4.5750     1.0970 H     1 <1>   0.0800 
 30 H        6.5370    -3.0180     0.5530 H     1 <1>   0.0800 
 31 H        6.0610    -3.0930    -1.1310 H     1 <1>   0.0800 
 32 H       -6.5070    -3.8510    -0.5820 H     1 <1>   0.1500 
 33 H       -5.4600    -5.9380     0.1680 H     1 <1>   0.1500 
@<TRIPOS>BOND
  1   1   2  2   
  2   2   3  am  
  3   2   4  1   
  4   3   5  1   
  5   3  19  1   
  6   4   6  1   
  7   4   7  2   
  8   5   8  1   
  9   5  20  1   
 10   5  21  1   
 11   6   9  1   
 12   7  10  1   
 13   7  22  1   
 14   8  11  1   
 15   8  12  1   
 16   8  23  1   
 17   9  10  ar  
 18   9  13  ar  
 19  10  14  ar  
 20  11  15  1   
 21  12  16  1   
 22  12  24  1   
 23  12  25  1   
 24  13  17  ar  
 25  13  26  1   
 26  14  18  ar  
 27  14  27  1   
 28  15  16  1   
 29  15  28  1   
 30  15  29  1   
 31  16  30  1   
 32  16  31  1   
 33  17  18  ar  
 34  17  32  1   
 35  18  33  1   
@<TRIPOS>SUBSTRUCTURE
  1 ****   4 GROUP 4 **** **** 0

# MOE 2024.06 (io_trps.svl 2023.06)
