@<TRIPOS>MOLECULE
NONAME
29 29 1 0 0 
SMALL
USER_CHARGES


@<TRIPOS>ATOM
  1 BR      -0.2800     0.3340     0.4490 Br    1 <1>  -0.1110 
  2 C        1.6170     0.1540     0.2130 C.ar  1 <1>   0.1110 
  3 C        2.2150    -1.0600     0.4870 C.ar  1 <1>  -0.1500 
  4 C        2.3450     1.2410    -0.2260 C.ar  1 <1>  -0.1500 
  5 C        3.5820    -1.1840     0.3150 C.ar  1 <1>  -0.1500 
  6 C        3.7100     1.1000    -0.3920 C.ar  1 <1>  -0.1500 
  7 C        4.3690    -0.1090    -0.1270 C.ar  1 <1>   0.0860 
  8 C        5.8040    -0.2020    -0.3170 C.2   1 <1>   0.4230 
  9 O        6.4700     0.7070    -0.7410 O.2   1 <1>  -0.5700 
 10 C        6.5510    -1.4850     0.0200 C.3   1 <1>  -0.0990 
 11 C        8.0590    -1.2820    -0.1700 C.3   1 <1>   0.3430 
 12 N        8.8470    -2.5000     0.2020 N.4   1 <1>  -0.9590 
 13 C       10.2970    -2.1430     0.3010 C.3   1 <1>   0.2630 
 14 C        8.6630    -3.6190    -0.7760 C.3   1 <1>   0.2630 
 15 H        1.6140    -1.8860     0.8260 H     1 <1>   0.1500 
 16 H        1.8520     2.1750    -0.4320 H     1 <1>   0.1500 
 17 H        4.0250    -2.1380     0.5320 H     1 <1>   0.1500 
 18 H        4.2820     1.9460    -0.7350 H     1 <1>   0.1500 
 19 H        6.1960    -2.2620    -0.6300 H     1 <1>   0.0800 
 20 H        6.3500    -1.7420     1.0440 H     1 <1>   0.0800 
 21 H        8.3660    -0.4510     0.4450 H     1 <1>   0.0800 
 22 H        8.2560    -1.0130    -1.1960 H     1 <1>   0.0800 
 23 H        8.5380    -2.8150     1.1350 H     1 <1>   0.4500 
 24 H       10.6640    -1.7980    -0.6520 H     1 <1>   0.0800 
 25 H       10.8750    -3.0010     0.6030 H     1 <1>   0.0800 
 26 H       10.4420    -1.3600     1.0280 H     1 <1>   0.0800 
 27 H        8.9640    -3.3070    -1.7630 H     1 <1>   0.0800 
 28 H        7.6300    -3.9250    -0.8110 H     1 <1>   0.0800 
 29 H        9.2600    -4.4690    -0.4880 H     1 <1>   0.0800 
@<TRIPOS>BOND
  1   1   2  1   
  2   2   3  ar  
  3   2   4  ar  
  4   3   5  ar  
  5   3  15  1   
  6   4   6  ar  
  7   4  16  1   
  8   5   7  ar  
  9   5  17  1   
 10   6   7  ar  
 11   6  18  1   
 12   7   8  1   
 13   8   9  2   
 14   8  10  1   
 15  10  11  1   
 16  10  19  1   
 17  10  20  1   
 18  11  12  1   
 19  11  21  1   
 20  11  22  1   
 21  12  13  1   
 22  12  14  1   
 23  12  23  1   
 24  13  24  1   
 25  13  25  1   
 26  13  26  1   
 27  14  27  1   
 28  14  28  1   
 29  14  29  1   
@<TRIPOS>SUBSTRUCTURE
  1 ****   8 GROUP 4 **** **** 0

# MOE 2024.06 (io_trps.svl 2023.06)
