@<TRIPOS>MOLECULE
NONAME
49 50 1 0 0 
SMALL
USER_CHARGES


@<TRIPOS>ATOM
  1 N        0.7440    -0.3030     0.2630 N.4   1 <1>  -0.9590 
  2 C        0.4330     1.0760     0.7460 C.3   1 <1>   0.3430 
  3 C        1.5740    -0.3240    -0.9790 C.3   1 <1>   0.3430 
  4 C       -0.5280    -1.0700     0.0440 C.3   1 <1>   0.2630 
  5 C        1.7280     1.8560     0.9840 C.3   1 <1>  -0.1600 
  6 C        2.8770     0.4450    -0.7520 C.3   1 <1>  -0.1600 
  7 C        2.5850     1.8740    -0.2880 C.3   1 <1>   0.4230 
  8 N        3.8560     2.6410    -0.1170 N.4   1 <1>  -0.9590 
  9 C        4.7460     2.2160     1.0100 C.3   1 <1>   0.4860 
 10 C        3.6300     4.1260    -0.0680 C.3   1 <1>   0.2630 
 11 C        6.1260     2.7730     0.7400 C.ar  1 <1>  -0.1430 
 12 C        6.5960     3.8630     1.4570 C.ar  1 <1>  -0.1500 
 13 C        6.9320     2.2020    -0.2340 C.ar  1 <1>  -0.1500 
 14 C        7.8490     4.3850     1.1890 C.ar  1 <1>  -0.1500 
 15 C        8.1830     2.7290    -0.4970 C.ar  1 <1>  -0.1500 
 16 C        8.6530     3.8260     0.2080 C.ar  1 <1>  -0.1430 
 17 C       10.0340     4.4170    -0.0720 C.3   1 <1>   0.0630 
 18 C       10.1260     4.9330    -1.5120 C.3   1 <1>  -0.2400 
 19 C       11.1360     3.3900     0.2090 C.3   1 <1>  -0.2400 
 20 H        1.2590    -0.8010     1.0070 H     1 <1>   0.4500 
 21 H       -0.1320     1.0240     1.6650 H     1 <1>   0.0800 
 22 H       -0.1710     1.5890     0.0140 H     1 <1>   0.0800 
 23 H        1.0230     0.1250    -1.7910 H     1 <1>   0.0800 
 24 H        1.7990    -1.3430    -1.2530 H     1 <1>   0.0800 
 25 H       -1.1230    -0.6060    -0.7270 H     1 <1>   0.0800 
 26 H       -1.1090    -1.1030     0.9520 H     1 <1>   0.0800 
 27 H       -0.3100    -2.0830    -0.2560 H     1 <1>   0.0800 
 28 H        2.2530     1.4030     1.8050 H     1 <1>   0.0800 
 29 H        1.4630     2.8600     1.2650 H     1 <1>   0.0800 
 30 H        3.4180     0.4700    -1.6830 H     1 <1>   0.0800 
 31 H        3.4700    -0.0890    -0.0320 H     1 <1>   0.0800 
 32 H        2.0120     2.3550    -1.0660 H     1 <1>   0.0800 
 33 H        4.4380     2.4900    -0.9550 H     1 <1>   0.4500 
 34 H        4.8110     1.1430     1.0630 H     1 <1>   0.0800 
 35 H        4.3730     2.5870     1.9500 H     1 <1>   0.0800 
 36 H        3.1040     4.4020     0.8300 H     1 <1>   0.0800 
 37 H        3.0550     4.4490    -0.9210 H     1 <1>   0.0800 
 38 H        4.5740     4.6480    -0.0840 H     1 <1>   0.0800 
 39 H        6.0040     4.3210     2.2310 H     1 <1>   0.1500 
 40 H        6.6110     1.3430    -0.7980 H     1 <1>   0.1500 
 41 H        8.2000     5.2320     1.7540 H     1 <1>   0.1500 
 42 H        8.7990     2.2770    -1.2560 H     1 <1>   0.1500 
 43 H       10.1930     5.2550     0.5850 H     1 <1>   0.0800 
 44 H       10.0270     4.1270    -2.2170 H     1 <1>   0.0800 
 45 H       11.0750     5.4140    -1.6740 H     1 <1>   0.0800 
 46 H        9.3450     5.6490    -1.6960 H     1 <1>   0.0800 
 47 H       11.0600     2.5510    -0.4570 H     1 <1>   0.0800 
 48 H       11.0540     3.0340     1.2210 H     1 <1>   0.0800 
 49 H       12.1040     3.8410     0.0840 H     1 <1>   0.0800 
@<TRIPOS>BOND
  1   1   2  1   
  2   1   3  1   
  3   1   4  1   
  4   1  20  1   
  5   2   5  1   
  6   2  21  1   
  7   2  22  1   
  8   3   6  1   
  9   3  23  1   
 10   3  24  1   
 11   4  25  1   
 12   4  26  1   
 13   4  27  1   
 14   5   7  1   
 15   5  28  1   
 16   5  29  1   
 17   6   7  1   
 18   6  30  1   
 19   6  31  1   
 20   7   8  1   
 21   7  32  1   
 22   8   9  1   
 23   8  10  1   
 24   8  33  1   
 25   9  11  1   
 26   9  34  1   
 27   9  35  1   
 28  10  36  1   
 29  10  37  1   
 30  10  38  1   
 31  11  12  ar  
 32  11  13  ar  
 33  12  14  ar  
 34  12  39  1   
 35  13  15  ar  
 36  13  40  1   
 37  14  16  ar  
 38  14  41  1   
 39  15  16  ar  
 40  15  42  1   
 41  16  17  1   
 42  17  18  1   
 43  17  19  1   
 44  17  43  1   
 45  18  44  1   
 46  18  45  1   
 47  18  46  1   
 48  19  47  1   
 49  19  48  1   
 50  19  49  1   
@<TRIPOS>SUBSTRUCTURE
  1 ****   9 GROUP 4 **** **** 0

# MOE 2024.06 (io_trps.svl 2023.06)
