@<TRIPOS>MOLECULE
NONAME
43 45 1 0 0 
SMALL
USER_CHARGES


@<TRIPOS>ATOM
  1 O        0.6790     2.0590    -2.2950 O.2   1 <1>  -0.5700 
  2 C        0.1060     2.0380    -1.2320 C.2   1 <1>   0.5690 
  3 N        0.7050     1.6490    -0.0600 N.am  1 <1>  -0.5470 
  4 C       -1.3450     2.5380    -1.1640 C.3   1 <1>   0.1710 
  5 C        1.9850     1.1360     0.2040 C.ar  1 <1>   0.1170 
  6 N       -2.4180     1.5000    -1.1440 N.3   1 <1>  -0.8100 
  7 C        2.7820     0.5410    -0.7680 C.ar  1 <1>  -0.1500 
  8 C        2.4750     1.2070     1.5030 C.ar  1 <1>  -0.1500 
  9 C       -2.3290     0.5790     0.0030 C.3   1 <1>   0.1100 
 10 C       -3.7380     2.1480    -1.2200 C.3   1 <1>   0.1100 
 11 C        4.0300     0.0370    -0.4520 C.ar  1 <1>  -0.1500 
 12 C        3.7240     0.7030     1.8220 C.ar  1 <1>  -0.1500 
 13 C       -3.3810    -0.5220    -0.1230 C.3   1 <1>  -0.1600 
 14 C       -4.8340     1.0980    -1.3880 C.3   1 <1>  -0.1600 
 15 C        4.5100     0.1130     0.8460 C.ar  1 <1>  -0.1430 
 16 C       -4.7750     0.0860    -0.2540 C.3   1 <1>   0.5600 
 17 C        5.8820    -0.4380     1.1900 C.3   1 <1>  -0.0970 
 18 O       -5.1470     0.7050     0.9370 O.3   1 <1>  -0.5600 
 19 O       -5.7260    -0.9000    -0.4690 O.3   1 <1>  -0.5600 
 20 C       -5.9060    -0.1720     1.6910 C.3   1 <1>   0.1200 
 21 C       -6.2240    -1.3160     0.7480 C.3   1 <1>   0.1200 
 22 H        0.1160     1.7440     0.7630 H     1 <1>   0.3700 
 23 H       -1.4940     3.1580    -2.0300 H     1 <1>   0.0800 
 24 H       -1.4460     3.1690    -0.2990 H     1 <1>   0.0800 
 25 H        2.4290     0.4640    -1.7800 H     1 <1>   0.1500 
 26 H        1.8820     1.6630     2.2730 H     1 <1>   0.1500 
 27 H       -2.4750     1.1210     0.9230 H     1 <1>   0.0800 
 28 H       -1.3620     0.1080     0.0210 H     1 <1>   0.0800 
 29 H       -3.7660     2.8160    -2.0650 H     1 <1>   0.0800 
 30 H       -3.9190     2.7220    -0.3250 H     1 <1>   0.0800 
 31 H        4.6280    -0.4150    -1.2240 H     1 <1>   0.1500 
 32 H        4.0840     0.7730     2.8330 H     1 <1>   0.1500 
 33 H       -3.3340    -1.1720     0.7290 H     1 <1>   0.0800 
 34 H       -3.1670    -1.0980    -1.0050 H     1 <1>   0.0800 
 35 H       -4.6860     0.5920    -2.3240 H     1 <1>   0.0800 
 36 H       -5.8000     1.5680    -1.4000 H     1 <1>   0.0800 
 37 H        6.1150    -1.2800     0.5640 H     1 <1>   0.0800 
 38 H        5.9130    -0.7580     2.2150 H     1 <1>   0.0800 
 39 H        6.6270     0.3230     1.0400 H     1 <1>   0.0800 
 40 H       -6.7960     0.3350     2.0190 H     1 <1>   0.0800 
 41 H       -5.3310    -0.5010     2.5380 H     1 <1>   0.0800 
 42 H       -5.7210    -2.2210     1.0410 H     1 <1>   0.0800 
 43 H       -7.2820    -1.4890     0.6580 H     1 <1>   0.0800 
@<TRIPOS>BOND
  1   1   2  2   
  2   2   3  am  
  3   2   4  1   
  4   3   5  1   
  5   3  22  1   
  6   4   6  1   
  7   4  23  1   
  8   4  24  1   
  9   5   7  ar  
 10   5   8  ar  
 11   6   9  1   
 12   6  10  1   
 13   7  11  ar  
 14   7  25  1   
 15   8  12  ar  
 16   8  26  1   
 17   9  13  1   
 18   9  27  1   
 19   9  28  1   
 20  10  14  1   
 21  10  29  1   
 22  10  30  1   
 23  11  15  ar  
 24  11  31  1   
 25  12  15  ar  
 26  12  32  1   
 27  13  16  1   
 28  13  33  1   
 29  13  34  1   
 30  14  16  1   
 31  14  35  1   
 32  14  36  1   
 33  15  17  1   
 34  16  18  1   
 35  16  19  1   
 36  17  37  1   
 37  17  38  1   
 38  17  39  1   
 39  18  20  1   
 40  19  21  1   
 41  20  21  1   
 42  20  40  1   
 43  20  41  1   
 44  21  42  1   
 45  21  43  1   
@<TRIPOS>SUBSTRUCTURE
  1 ****   9 GROUP 4 **** **** 0

# MOE 2024.06 (io_trps.svl 2023.06)
