@<TRIPOS>MOLECULE
NONAME
38 38 1 0 0 
SMALL
USER_CHARGES


@<TRIPOS>ATOM
  1 CL       1.1700    -1.3700    -2.8260 Cl    1 <1>  -0.1770 
  2 C       -0.0280    -2.1170    -1.7910 C.ar  1 <1>   0.1770 
  3 C        0.3660    -2.9780    -0.7690 C.ar  1 <1>   0.0830 
  4 C       -1.3590    -1.8270    -2.0220 C.ar  1 <1>  -0.1500 
  5 O        1.6960    -3.2120    -0.6060 O.3   1 <1>  -0.3630 
  6 C       -0.6150    -3.5590     0.0370 C.ar  1 <1>  -0.1500 
  7 C       -2.3100    -2.4140    -1.2110 C.ar  1 <1>   0.1770 
  8 C        2.1850    -4.0990     0.3730 C.3   1 <1>   0.1200 
  9 C       -1.9540    -3.2740    -0.1870 C.ar  1 <1>  -0.1500 
 10 CL      -3.9980    -2.0630    -1.4830 Cl    1 <1>  -0.1770 
 11 C        3.7100    -4.1160     0.2690 C.3   1 <1>  -0.1600 
 12 C        4.3290    -5.1290     1.2460 C.3   1 <1>  -0.0990 
 13 C        5.8450    -5.1100     1.2140 C.2   1 <1>   0.5690 
 14 O        6.4430    -4.6920     2.1730 O.2   1 <1>  -0.5700 
 15 N        6.4760    -5.5680     0.1030 N.am  1 <1>  -0.7300 
 16 C        7.9410    -5.6190    -0.0790 C.3   1 <1>   0.1400 
 17 C        8.3360    -7.0150    -0.5600 C.3   1 <1>  -0.1600 
 18 C        9.8520    -7.1220    -0.7640 C.3   1 <1>  -0.1600 
 19 C       10.2460    -8.5210    -1.2450 C.3   1 <1>  -0.2400 
 20 H       -1.6470    -1.1610    -2.8140 H     1 <1>   0.1500 
 21 H       -0.3600    -4.2280     0.8370 H     1 <1>   0.1500 
 22 H        1.7760    -5.0750     0.1780 H     1 <1>   0.0800 
 23 H        1.8740    -3.7460     1.3410 H     1 <1>   0.0800 
 24 H       -2.7210    -3.7130     0.4260 H     1 <1>   0.1500 
 25 H        4.0880    -3.1330     0.4940 H     1 <1>   0.0800 
 26 H        3.9920    -4.3680    -0.7390 H     1 <1>   0.0800 
 27 H        3.9950    -6.1230     1.0120 H     1 <1>   0.0800 
 28 H        4.0130    -4.9020     2.2490 H     1 <1>   0.0800 
 29 H        5.9230    -5.8800    -0.6950 H     1 <1>   0.3700 
 30 H        8.4340    -5.3980     0.8540 H     1 <1>   0.0800 
 31 H        8.2340    -4.8770    -0.8030 H     1 <1>   0.0800 
 32 H        7.8370    -7.2270    -1.4900 H     1 <1>   0.0800 
 33 H        8.0250    -7.7380     0.1740 H     1 <1>   0.0800 
 34 H       10.3570    -6.9120     0.1650 H     1 <1>   0.0800 
 35 H       10.1740    -6.3940    -1.4900 H     1 <1>   0.0800 
 36 H        9.9540    -9.2630    -0.5230 H     1 <1>   0.0800 
 37 H       11.3120    -8.5770    -1.3790 H     1 <1>   0.0800 
 38 H        9.7720    -8.7440    -2.1840 H     1 <1>   0.0800 
@<TRIPOS>BOND
  1   1   2  1   
  2   2   3  ar  
  3   2   4  ar  
  4   3   5  1   
  5   3   6  ar  
  6   4   7  ar  
  7   4  20  1   
  8   5   8  1   
  9   6   9  ar  
 10   6  21  1   
 11   7   9  ar  
 12   7  10  1   
 13   8  11  1   
 14   8  22  1   
 15   8  23  1   
 16   9  24  1   
 17  11  12  1   
 18  11  25  1   
 19  11  26  1   
 20  12  13  1   
 21  12  27  1   
 22  12  28  1   
 23  13  14  2   
 24  13  15  am  
 25  15  16  1   
 26  15  29  1   
 27  16  17  1   
 28  16  30  1   
 29  16  31  1   
 30  17  18  1   
 31  17  32  1   
 32  17  33  1   
 33  18  19  1   
 34  18  34  1   
 35  18  35  1   
 36  19  36  1   
 37  19  37  1   
 38  19  38  1   
@<TRIPOS>SUBSTRUCTURE
  1 ****  11 GROUP 4 **** **** 0

# MOE 2024.06 (io_trps.svl 2023.06)
