@<TRIPOS>MOLECULE
NONAME
42 43 1 0 0 
SMALL
USER_CHARGES


@<TRIPOS>ATOM
  1 O       -0.7340    -0.7030     0.1320 O.2   1 <1>  -0.5700 
  2 C       -1.7620    -1.2330    -0.2400 C.2   1 <1>   0.7060 
  3 O       -2.8760    -0.5100    -0.1730 O.3   1 <1>  -0.2330 
  4 C       -1.8400    -2.5730    -0.7550 C.2   1 <1>  -0.1240 
  5 C       -4.0830    -0.9500    -0.5920 C.ar  1 <1>   0.0820 
  6 C       -3.0310    -3.0840    -1.1700 C.2   1 <1>  -0.1670 
  7 C       -0.5220    -3.3560    -0.7830 C.3   1 <1>   0.0390 
  8 C       -4.2050    -2.2500    -1.1070 C.ar  1 <1>   0.0280 
  9 C       -5.1730    -0.0880    -0.4930 C.ar  1 <1>  -0.1440 
 10 C       -3.2070    -4.5140    -1.6900 C.3   1 <1>  -0.1020 
 11 C       -0.3980    -4.2680     0.4200 C.2   1 <1>   0.6590 
 12 C       -5.4780    -2.6490    -1.5280 C.ar  1 <1>  -0.1500 
 13 C       -6.4260    -0.5270    -0.9010 C.ar  1 <1>   0.0830 
 14 C       -4.9750     1.3220     0.0680 C.3   1 <1>  -0.0960 
 15 O       -0.3500    -5.4650     0.2960 O.2   1 <1>  -0.5700 
 16 O       -0.3490    -3.6780     1.6080 O.3   1 <1>  -0.4300 
 17 C       -6.5660    -1.8100    -1.4290 C.ar  1 <1>  -0.1500 
 18 O       -7.4790     0.3140    -0.7640 O.3   1 <1>  -0.3630 
 19 C       -0.2440    -4.4180     2.8050 C.3   1 <1>   0.0400 
 20 C       -8.8230    -0.1210    -0.9040 C.3   1 <1>   0.1810 
 21 C       -9.8150     0.9580    -0.4730 C.2   1 <1>   0.6590 
 22 O      -10.6180     1.3860    -1.2590 O.2   1 <1>  -0.5700 
 23 O       -9.8280     1.3900     0.7890 O.3   1 <1>  -0.4300 
 24 C       -8.8710     1.0690     1.7780 C.3   1 <1>   0.0400 
 25 H        0.3270    -2.6990    -0.7950 H     1 <1>   0.0800 
 26 H       -0.4550    -3.9450    -1.6770 H     1 <1>   0.0800 
 27 H       -3.5160    -4.4950    -2.7190 H     1 <1>   0.0800 
 28 H       -3.9560    -5.0230    -1.1100 H     1 <1>   0.0800 
 29 H       -2.3140    -5.1040    -1.6270 H     1 <1>   0.0800 
 30 H       -5.6300    -3.6270    -1.9440 H     1 <1>   0.1500 
 31 H       -4.0500     1.7420    -0.2820 H     1 <1>   0.0800 
 32 H       -4.9500     1.2840     1.1420 H     1 <1>   0.0800 
 33 H       -5.7620     1.9880    -0.2360 H     1 <1>   0.0800 
 34 H       -7.5180    -2.1690    -1.7720 H     1 <1>   0.1500 
 35 H       -0.2210    -3.7280     3.6300 H     1 <1>   0.0800 
 36 H        0.6630    -4.9960     2.7790 H     1 <1>   0.0800 
 37 H       -1.0980    -5.0680     2.8880 H     1 <1>   0.0800 
 38 H       -8.9670    -0.9970    -0.3010 H     1 <1>   0.0800 
 39 H       -8.9890    -0.3590    -1.9390 H     1 <1>   0.0800 
 40 H       -9.1820     1.5220     2.7030 H     1 <1>   0.0800 
 41 H       -7.9150     1.4680     1.4840 H     1 <1>   0.0800 
 42 H       -8.8190     0.0010     1.8950 H     1 <1>   0.0800 
@<TRIPOS>BOND
  1   1   2  2   
  2   2   3  1   
  3   2   4  1   
  4   3   5  1   
  5   4   6  2   
  6   4   7  1   
  7   5   8  ar  
  8   5   9  ar  
  9   6   8  1   
 10   6  10  1   
 11   7  11  1   
 12   7  25  1   
 13   7  26  1   
 14   8  12  ar  
 15   9  13  ar  
 16   9  14  1   
 17  10  27  1   
 18  10  28  1   
 19  10  29  1   
 20  11  15  2   
 21  11  16  1   
 22  12  17  ar  
 23  12  30  1   
 24  13  17  ar  
 25  13  18  1   
 26  14  31  1   
 27  14  32  1   
 28  14  33  1   
 29  16  19  1   
 30  17  34  1   
 31  18  20  1   
 32  19  35  1   
 33  19  36  1   
 34  19  37  1   
 35  20  21  1   
 36  20  38  1   
 37  20  39  1   
 38  21  22  2   
 39  21  23  1   
 40  23  24  1   
 41  24  40  1   
 42  24  41  1   
 43  24  42  1   
@<TRIPOS>SUBSTRUCTURE
  1 ****   5 GROUP 4 **** **** 0

# MOE 2024.06 (io_trps.svl 2023.06)
