@<TRIPOS>MOLECULE
NONAME
43 45 1 0 0 
SMALL
USER_CHARGES


@<TRIPOS>ATOM
  1 O       -0.0190    -0.0100    -0.9700 O.2   1 <1>  -0.5700 
  2 C        0.0120     1.1500    -0.6430 C.2   1 <1>   0.5690 
  3 N       -1.0760     1.7910    -0.1540 N.am  1 <1>  -0.7300 
  4 C        1.3060     1.9200    -0.7720 C.3   1 <1>  -0.0990 
  5 C       -2.4320     1.2020     0.0050 C.3   1 <1>   0.1400 
  6 C        2.1770     1.7380     0.4740 C.3   1 <1>  -0.0160 
  7 C       -3.5140     2.0960    -0.6270 C.3   1 <1>   0.3440 
  8 C        3.4540     2.5520     0.3500 C.ar  1 <1>  -0.1440 
  9 O       -3.2760     3.4190    -0.2000 O.3   1 <1>  -0.5600 
 10 C       -4.9320     1.6240    -0.2660 C.ar  1 <1>  -0.1440 
 11 C        3.5190     3.8390     0.8610 C.ar  1 <1>  -0.1500 
 12 C        4.5650     2.0140    -0.2820 C.ar  1 <1>  -0.1500 
 13 C       -4.2920     4.3230    -0.4930 C.3   1 <1>   0.1200 
 14 C       -5.8780     2.5230     0.2120 C.ar  1 <1>  -0.1440 
 15 C       -5.2950     0.2920    -0.4320 C.ar  1 <1>  -0.1500 
 16 C        4.6820     4.5800     0.7430 C.ar  1 <1>  -0.1500 
 17 C        5.7290     2.7550    -0.4000 C.ar  1 <1>  -0.1500 
 18 C       -5.5080     3.9870     0.3710 C.3   1 <1>  -0.0170 
 19 C       -7.1540     2.0910     0.5370 C.ar  1 <1>  -0.1500 
 20 C       -6.5700    -0.1370    -0.1090 C.ar  1 <1>  -0.1500 
 21 C        5.7880     4.0390     0.1120 C.ar  1 <1>  -0.1500 
 22 C       -7.5000     0.7620     0.3780 C.ar  1 <1>  -0.1500 
 23 H       -1.0530     2.7950     0.0480 H     1 <1>   0.3700 
 24 H        1.0920     2.9620    -0.9210 H     1 <1>   0.0800 
 25 H        1.8350     1.5620    -1.6370 H     1 <1>   0.0800 
 26 H       -2.6450     1.0880     1.0530 H     1 <1>   0.0800 
 27 H       -2.4580     0.2250    -0.4460 H     1 <1>   0.0800 
 28 H        2.4190     0.6960     0.5950 H     1 <1>   0.0800 
 29 H        1.6320     2.0480     1.3480 H     1 <1>   0.0800 
 30 H       -3.4020     2.0770    -1.6970 H     1 <1>   0.0800 
 31 H        2.6660     4.2700     1.3540 H     1 <1>   0.1500 
 32 H        4.5280     1.0170    -0.6840 H     1 <1>   0.1500 
 33 H       -4.5280     4.2560    -1.5420 H     1 <1>   0.0800 
 34 H       -3.9330     5.3130    -0.2710 H     1 <1>   0.0800 
 35 H       -4.5930    -0.4260    -0.8180 H     1 <1>   0.1500 
 36 H        4.7260     5.5790     1.1420 H     1 <1>   0.1500 
 37 H        6.5870     2.3310    -0.8920 H     1 <1>   0.1500 
 38 H       -6.3330     4.6110     0.0800 H     1 <1>   0.0800 
 39 H       -5.2790     4.1890     1.4020 H     1 <1>   0.0800 
 40 H       -7.8820     2.7870     0.9130 H     1 <1>   0.1500 
 41 H       -6.8390    -1.1710    -0.2380 H     1 <1>   0.1500 
 42 H        6.6920     4.6140     0.0200 H     1 <1>   0.1500 
 43 H       -8.4910     0.4290     0.6320 H     1 <1>   0.1500 
@<TRIPOS>BOND
  1   1   2  2   
  2   2   3  am  
  3   2   4  1   
  4   3   5  1   
  5   3  23  1   
  6   4   6  1   
  7   4  24  1   
  8   4  25  1   
  9   5   7  1   
 10   5  26  1   
 11   5  27  1   
 12   6   8  1   
 13   6  28  1   
 14   6  29  1   
 15   7   9  1   
 16   7  10  1   
 17   7  30  1   
 18   8  11  ar  
 19   8  12  ar  
 20   9  13  1   
 21  10  14  ar  
 22  10  15  ar  
 23  11  16  ar  
 24  11  31  1   
 25  12  17  ar  
 26  12  32  1   
 27  13  18  1   
 28  13  33  1   
 29  13  34  1   
 30  14  18  1   
 31  14  19  ar  
 32  15  20  ar  
 33  15  35  1   
 34  16  21  ar  
 35  16  36  1   
 36  17  21  ar  
 37  17  37  1   
 38  18  38  1   
 39  18  39  1   
 40  19  22  ar  
 41  19  40  1   
 42  20  22  ar  
 43  20  41  1   
 44  21  42  1   
 45  22  43  1   
@<TRIPOS>SUBSTRUCTURE
  1 ****   3 GROUP 4 **** **** 0

# MOE 2024.06 (io_trps.svl 2023.06)
