@<TRIPOS>MOLECULE
NONAME
47 49 1 0 0 
SMALL
USER_CHARGES


@<TRIPOS>ATOM
  1 S       -0.0610    -0.6250    -0.4200 S.o2  1 <1>   1.3330 
  2 O        0.5340    -1.4540     0.6050 O.2   1 <1>  -0.6500 
  3 O       -0.0750    -1.0840    -1.7910 O.2   1 <1>  -0.6500 
  4 N       -1.6570    -0.2870     0.0470 N.am  1 <1>  -0.8490 
  5 C        0.7070     1.0010    -0.3920 C.3   1 <1>  -0.0550 
  6 C       -2.6220    -1.2380    -0.5110 C.3   1 <1>   0.1960 
  7 C       -1.8170    -0.1840     1.5070 C.3   1 <1>   0.1960 
  8 C        2.1930     1.0110    -0.7920 C.3   1 <1>  -0.2400 
  9 C       -4.0600    -0.7230    -0.3330 C.3   1 <1>  -0.1600 
 10 C       -3.2800     0.0410     1.9260 C.3   1 <1>  -0.1600 
 11 C       -4.1970     0.3800     0.7370 C.3   1 <1>  -0.0190 
 12 C       -5.6590     0.5670     1.1670 C.2   1 <1>   0.5690 
 13 O       -6.2070    -0.3790     1.6890 O.2   1 <1>  -0.5700 
 14 N       -6.3450     1.7420     0.9260 N.am  1 <1>  -0.4770 
 15 C       -5.7670     2.9970     0.6270 C.ar  1 <1>   0.1170 
 16 C       -7.8360     1.6270     0.8300 C.3   1 <1>   0.1400 
 17 C       -6.3010     3.7730    -0.3990 C.ar  1 <1>  -0.1440 
 18 C       -4.6840     3.4980     1.3430 C.ar  1 <1>  -0.1500 
 19 C       -8.4900     2.7400    -0.0090 C.3   1 <1>  -0.1600 
 20 C       -5.7270     4.9870    -0.7380 C.ar  1 <1>  -0.1500 
 21 C       -7.5500     3.2700    -1.0960 C.3   1 <1>  -0.0170 
 22 C       -4.1120     4.7120     1.0100 C.ar  1 <1>  -0.1500 
 23 C       -4.6280     5.4540    -0.0380 C.ar  1 <1>  -0.1500 
 24 H        0.6180     1.4120     0.5940 H     1 <1>   0.0800 
 25 H        0.1680     1.6450    -1.0600 H     1 <1>   0.0800 
 26 H       -2.5060    -2.1910    -0.0210 H     1 <1>   0.0800 
 27 H       -2.4450    -1.3840    -1.5640 H     1 <1>   0.0800 
 28 H       -1.2190     0.6360     1.8660 H     1 <1>   0.0800 
 29 H       -1.4600    -1.0840     1.9820 H     1 <1>   0.0800 
 30 H        2.7620     0.3910    -0.1220 H     1 <1>   0.0800 
 31 H        2.5840     2.0130    -0.7560 H     1 <1>   0.0800 
 32 H        2.3080     0.6300    -1.7930 H     1 <1>   0.0800 
 33 H       -4.6830    -1.5640    -0.0820 H     1 <1>   0.0800 
 34 H       -4.4140    -0.3390    -1.2730 H     1 <1>   0.0800 
 35 H       -3.3230     0.8200     2.6650 H     1 <1>   0.0800 
 36 H       -3.6400    -0.8570     2.3980 H     1 <1>   0.0800 
 37 H       -3.8320     1.2840     0.2890 H     1 <1>   0.0800 
 38 H       -8.2520     1.6230     1.8230 H     1 <1>   0.0800 
 39 H       -8.0720     0.6800     0.3740 H     1 <1>   0.0800 
 40 H       -4.2910     2.9370     2.1690 H     1 <1>   0.1500 
 41 H       -8.7530     3.5510     0.6470 H     1 <1>   0.0800 
 42 H       -9.4000     2.3710    -0.4480 H     1 <1>   0.0800 
 43 H       -6.1360     5.5780    -1.5380 H     1 <1>   0.1500 
 44 H       -7.2910     2.4840    -1.7840 H     1 <1>   0.0800 
 45 H       -8.0290     4.0640    -1.6410 H     1 <1>   0.0800 
 46 H       -3.2680     5.0830     1.5650 H     1 <1>   0.1500 
 47 H       -4.1820     6.3970    -0.3030 H     1 <1>   0.1500 
@<TRIPOS>BOND
  1   1   2  2   
  2   1   3  2   
  3   1   4  am  
  4   1   5  1   
  5   4   6  1   
  6   4   7  1   
  7   5   8  1   
  8   5  24  1   
  9   5  25  1   
 10   6   9  1   
 11   6  26  1   
 12   6  27  1   
 13   7  10  1   
 14   7  28  1   
 15   7  29  1   
 16   8  30  1   
 17   8  31  1   
 18   8  32  1   
 19   9  11  1   
 20   9  33  1   
 21   9  34  1   
 22  10  11  1   
 23  10  35  1   
 24  10  36  1   
 25  11  12  1   
 26  11  37  1   
 27  12  13  2   
 28  12  14  am  
 29  14  15  1   
 30  14  16  1   
 31  15  17  ar  
 32  15  18  ar  
 33  16  19  1   
 34  16  38  1   
 35  16  39  1   
 36  17  20  ar  
 37  17  21  1   
 38  18  22  ar  
 39  18  40  1   
 40  19  21  1   
 41  19  41  1   
 42  19  42  1   
 43  20  23  ar  
 44  20  43  1   
 45  21  44  1   
 46  21  45  1   
 47  22  23  ar  
 48  22  46  1   
 49  23  47  1   
@<TRIPOS>SUBSTRUCTURE
  1 ****  11 GROUP 4 **** **** 0

# MOE 2024.06 (io_trps.svl 2023.06)
