@<TRIPOS>MOLECULE
NONAME
34 35 1 0 0 
SMALL
USER_CHARGES


@<TRIPOS>ATOM
  1 CL      -3.4320     2.1910     1.9880 Cl    1 <1>  -0.1770 
  2 C       -1.9050     2.5480     1.2070 C.ar  1 <1>   0.1770 
  3 C       -1.6850     2.3170    -0.1590 C.ar  1 <1>   0.0860 
  4 C       -0.9210     3.0650     2.0310 C.ar  1 <1>  -0.1500 
  5 C       -2.6730     1.7880    -1.0800 C.2   1 <1>   0.6340 
  6 C       -0.4080     2.6290    -0.6400 C.ar  1 <1>  -0.1500 
  7 C        0.3260     3.3680     1.5190 C.ar  1 <1>  -0.1500 
  8 O       -2.3860     1.3140    -2.1570 O.2   1 <1>  -0.5700 
  9 O       -3.9670     1.8390    -0.7540 O.3   1 <1>  -0.4300 
 10 C        0.5800     3.1450     0.1780 C.ar  1 <1>  -0.1500 
 11 C       -5.0040     1.3480    -1.5870 C.3   1 <1>   0.2000 
 12 C       -6.3070     2.0000    -1.0950 C.3   1 <1>   0.3430 
 13 C       -5.0990    -0.1850    -1.4370 C.3   1 <1>  -0.1600 
 14 N       -6.4880     1.7600     0.3850 N.4   1 <1>  -0.9590 
 15 C       -6.1100    -0.6240    -0.3560 C.3   1 <1>  -0.1600 
 16 C       -6.1870     0.3520     0.8260 C.3   1 <1>   0.3430 
 17 C       -7.8220     2.2240     0.8650 C.3   1 <1>   0.2630 
 18 H       -1.1290     3.2300     3.0750 H     1 <1>   0.1500 
 19 H       -0.1830     2.4630    -1.6810 H     1 <1>   0.1500 
 20 H        1.0950     3.7710     2.1570 H     1 <1>   0.1500 
 21 H        1.5510     3.3750    -0.2280 H     1 <1>   0.1500 
 22 H       -4.7950     1.6290    -2.6070 H     1 <1>   0.0800 
 23 H       -7.1330     1.5740    -1.6390 H     1 <1>   0.0800 
 24 H       -6.2780     3.0570    -1.3010 H     1 <1>   0.0800 
 25 H       -4.1250    -0.5910    -1.2230 H     1 <1>   0.0800 
 26 H       -5.4100    -0.6060    -2.3780 H     1 <1>   0.0800 
 27 H       -5.7560     2.3330     0.8370 H     1 <1>   0.4500 
 28 H       -5.8370    -1.6000     0.0090 H     1 <1>   0.0800 
 29 H       -7.0920    -0.7160    -0.7880 H     1 <1>   0.0800 
 30 H       -6.9310     0.0140     1.5290 H     1 <1>   0.0800 
 31 H       -5.2330     0.3410     1.3300 H     1 <1>   0.0800 
 32 H       -8.6060     1.6370     0.4150 H     1 <1>   0.0800 
 33 H       -7.9730     3.2600     0.6060 H     1 <1>   0.0800 
 34 H       -7.8880     2.1260     1.9360 H     1 <1>   0.0800 
@<TRIPOS>BOND
  1   1   2  1   
  2   2   3  ar  
  3   2   4  ar  
  4   3   5  1   
  5   3   6  ar  
  6   4   7  ar  
  7   4  18  1   
  8   5   8  2   
  9   5   9  1   
 10   6  10  ar  
 11   6  19  1   
 12   7  10  ar  
 13   7  20  1   
 14   9  11  1   
 15  10  21  1   
 16  11  12  1   
 17  11  13  1   
 18  11  22  1   
 19  12  14  1   
 20  12  23  1   
 21  12  24  1   
 22  13  15  1   
 23  13  25  1   
 24  13  26  1   
 25  14  16  1   
 26  14  17  1   
 27  14  27  1   
 28  15  16  1   
 29  15  28  1   
 30  15  29  1   
 31  16  30  1   
 32  16  31  1   
 33  17  32  1   
 34  17  33  1   
 35  17  34  1   
@<TRIPOS>SUBSTRUCTURE
  1 ****   9 GROUP 4 **** **** 0

# MOE 2024.06 (io_trps.svl 2023.06)
