@<TRIPOS>MOLECULE
NONAME
33 34 1 0 0 
SMALL
USER_CHARGES


@<TRIPOS>ATOM
  1 CL      -0.2740    -0.1510     0.7840 Cl    1 <1>  -0.1770 
  2 C        1.2480    -0.9270     0.4300 C.ar  1 <1>   0.1770 
  3 C        1.2510    -2.1270    -0.2600 C.ar  1 <1>  -0.1500 
  4 C        2.4250    -0.3290     0.8450 C.ar  1 <1>  -0.1500 
  5 C        2.4600    -2.7410    -0.5400 C.ar  1 <1>  -0.1500 
  6 C        3.6360    -0.9430     0.5660 C.ar  1 <1>  -0.1500 
  7 C        3.6420    -2.1460    -0.1270 C.ar  1 <1>   0.1020 
  8 S        5.1680    -3.0130    -0.5350 S.3   1 <1>  -0.3320 
  9 C        6.5610    -1.9720     0.0720 C.3   1 <1>   0.0700 
 10 C        7.8490    -2.7220    -0.2810 C.3   1 <1>   0.3430 
 11 N        9.0770    -1.9780     0.1400 N.4   1 <1>  -0.9590 
 12 C        9.3070    -0.6880    -0.6030 C.3   1 <1>   0.3430 
 13 C       10.3100    -2.8360     0.0660 C.3   1 <1>   0.3430 
 14 C       10.6350    -0.0170    -0.1780 C.3   1 <1>   0.1200 
 15 C       11.5640    -2.0600     0.5340 C.3   1 <1>   0.1200 
 16 O       11.2500    -0.7320     0.8590 O.3   1 <1>  -0.5600 
 17 H        0.3210    -2.5690    -0.5700 H     1 <1>   0.1500 
 18 H        2.3840     0.6030     1.3800 H     1 <1>   0.1500 
 19 H        2.4870    -3.6740    -1.0740 H     1 <1>   0.1500 
 20 H        4.5420    -0.4740     0.8940 H     1 <1>   0.1500 
 21 H        6.4380    -1.8650     1.1350 H     1 <1>   0.0800 
 22 H        6.4860    -1.0270    -0.4340 H     1 <1>   0.0800 
 23 H        7.8750    -2.8950    -1.3440 H     1 <1>   0.0800 
 24 H        7.8240    -3.6810     0.2110 H     1 <1>   0.0800 
 25 H        9.0120    -1.7120     1.1360 H     1 <1>   0.4500 
 26 H        8.4980    -0.0030    -0.4150 H     1 <1>   0.0800 
 27 H        9.3350    -0.8730    -1.6650 H     1 <1>   0.0800 
 28 H       10.4650    -3.1700    -0.9470 H     1 <1>   0.0800 
 29 H       10.1900    -3.7120     0.6810 H     1 <1>   0.0800 
 30 H       10.4500     0.9830     0.1750 H     1 <1>   0.0800 
 31 H       11.3180     0.0410    -1.0090 H     1 <1>   0.0800 
 32 H       12.3210    -2.0590    -0.2310 H     1 <1>   0.0800 
 33 H       11.9780    -2.5220     1.4140 H     1 <1>   0.0800 
@<TRIPOS>BOND
  1   1   2  1   
  2   2   3  ar  
  3   2   4  ar  
  4   3   5  ar  
  5   3  17  1   
  6   4   6  ar  
  7   4  18  1   
  8   5   7  ar  
  9   5  19  1   
 10   6   7  ar  
 11   6  20  1   
 12   7   8  1   
 13   8   9  1   
 14   9  10  1   
 15   9  21  1   
 16   9  22  1   
 17  10  11  1   
 18  10  23  1   
 19  10  24  1   
 20  11  12  1   
 21  11  13  1   
 22  11  25  1   
 23  12  14  1   
 24  12  26  1   
 25  12  27  1   
 26  13  15  1   
 27  13  28  1   
 28  13  29  1   
 29  14  16  1   
 30  14  30  1   
 31  14  31  1   
 32  15  16  1   
 33  15  32  1   
 34  15  33  1   
@<TRIPOS>SUBSTRUCTURE
  1 ****   9 GROUP 4 **** **** 0

# MOE 2024.06 (io_trps.svl 2023.06)
