@<TRIPOS>MOLECULE
NONAME
49 50 1 0 0 
SMALL
USER_CHARGES


@<TRIPOS>ATOM
  1 O       -0.5200    -7.3000     0.6530 O.3   1 <1>  -0.3630 
  2 C       -1.7830    -6.8590     0.4250 C.ar  1 <1>   0.0830 
  3 C        0.5930    -6.6640     0.0770 C.3   1 <1>   0.1200 
  4 C       -2.0930    -5.7700    -0.3840 C.ar  1 <1>  -0.1500 
  5 C       -2.8070    -7.5530     1.0460 C.ar  1 <1>  -0.1500 
  6 C        1.8410    -7.4160     0.5440 C.3   1 <1>  -0.1600 
  7 C       -3.4130    -5.3920    -0.5590 C.ar  1 <1>  -0.1500 
  8 C       -4.1250    -7.1710     0.8670 C.ar  1 <1>  -0.1500 
  9 C        3.1300    -6.8030    -0.0230 C.3   1 <1>  -0.1600 
 10 C       -4.4420    -6.0860     0.0630 C.ar  1 <1>  -0.1430 
 11 C        4.3490    -7.5910     0.4630 C.3   1 <1>   0.3430 
 12 C       -5.9020    -5.6780    -0.1230 C.3   1 <1>   0.0640 
 13 N        5.5960    -7.0670    -0.1560 N.4   1 <1>  -0.9590 
 14 C       -6.3180    -5.7910    -1.5930 C.3   1 <1>  -0.2400 
 15 C       -6.1450    -4.2600     0.4040 C.3   1 <1>  -0.2400 
 16 C        6.7290    -8.0430     0.0360 C.3   1 <1>   0.3430 
 17 C        5.9850    -5.7130     0.3840 C.3   1 <1>   0.3430 
 18 C        8.0500    -7.5170    -0.5670 C.3   1 <1>   0.1100 
 19 C        7.3150    -5.2130    -0.2200 C.3   1 <1>   0.1100 
 20 N        8.3930    -6.1940    -0.0240 N.3   1 <1>  -0.9000 
 21 H        0.6070    -5.6410     0.4110 H     1 <1>   0.0800 
 22 H        0.4900    -6.7090    -0.9940 H     1 <1>   0.0800 
 23 H       -1.3300    -5.2060    -0.8830 H     1 <1>   0.1500 
 24 H       -2.5660    -8.3940     1.6700 H     1 <1>   0.1500 
 25 H        1.7560    -8.4420     0.2280 H     1 <1>   0.0800 
 26 H        1.8690    -7.3910     1.6210 H     1 <1>   0.0800 
 27 H       -3.6370    -4.5480    -1.1870 H     1 <1>   0.1500 
 28 H       -4.9020    -7.7270     1.3610 H     1 <1>   0.1500 
 29 H        3.1930    -5.7790     0.3010 H     1 <1>   0.0800 
 30 H        3.0850    -6.8310    -1.0980 H     1 <1>   0.0800 
 31 H        4.2190    -8.6260     0.1910 H     1 <1>   0.0800 
 32 H        4.4180    -7.5350     1.5380 H     1 <1>   0.0800 
 33 H       -6.5230    -6.3490     0.4450 H     1 <1>   0.0800 
 34 H        5.4490    -6.9690    -1.1680 H     1 <1>   0.4500 
 35 H       -5.7630    -5.1030    -2.2040 H     1 <1>   0.0800 
 36 H       -7.3670    -5.5780    -1.7010 H     1 <1>   0.0800 
 37 H       -6.1340    -6.7900    -1.9480 H     1 <1>   0.0800 
 38 H       -5.5850    -3.5390    -0.1640 H     1 <1>   0.0800 
 39 H       -5.8400    -4.1970     1.4330 H     1 <1>   0.0800 
 40 H       -7.1890    -4.0130     0.3400 H     1 <1>   0.0800 
 41 H        6.4830    -8.9870    -0.4210 H     1 <1>   0.0800 
 42 H        6.8850    -8.2140     1.0880 H     1 <1>   0.0800 
 43 H        6.1010    -5.7700     1.4540 H     1 <1>   0.0800 
 44 H        5.2120    -4.9940     0.1710 H     1 <1>   0.0800 
 45 H        7.9670    -7.4650    -1.6390 H     1 <1>   0.0800 
 46 H        8.8430    -8.2070    -0.3310 H     1 <1>   0.0800 
 47 H        7.5930    -4.2890     0.2600 H     1 <1>   0.0800 
 48 H        7.1870    -5.0130    -1.2700 H     1 <1>   0.0800 
 49 H        9.2650    -5.8510    -0.4590 H     1 <1>   0.3600 
@<TRIPOS>BOND
  1   1   2  1   
  2   1   3  1   
  3   2   4  ar  
  4   2   5  ar  
  5   3   6  1   
  6   3  21  1   
  7   3  22  1   
  8   4   7  ar  
  9   4  23  1   
 10   5   8  ar  
 11   5  24  1   
 12   6   9  1   
 13   6  25  1   
 14   6  26  1   
 15   7  10  ar  
 16   7  27  1   
 17   8  10  ar  
 18   8  28  1   
 19   9  11  1   
 20   9  29  1   
 21   9  30  1   
 22  10  12  1   
 23  11  13  1   
 24  11  31  1   
 25  11  32  1   
 26  12  14  1   
 27  12  15  1   
 28  12  33  1   
 29  13  16  1   
 30  13  17  1   
 31  13  34  1   
 32  14  35  1   
 33  14  36  1   
 34  14  37  1   
 35  15  38  1   
 36  15  39  1   
 37  15  40  1   
 38  16  18  1   
 39  16  41  1   
 40  16  42  1   
 41  17  19  1   
 42  17  43  1   
 43  17  44  1   
 44  18  20  1   
 45  18  45  1   
 46  18  46  1   
 47  19  20  1   
 48  19  47  1   
 49  19  48  1   
 50  20  49  1   
@<TRIPOS>SUBSTRUCTURE
  1 ****   3 GROUP 4 **** **** 0

# MOE 2024.06 (io_trps.svl 2023.06)
