@<TRIPOS>MOLECULE
NONAME
37 38 1 0 0 
SMALL
USER_CHARGES


@<TRIPOS>ATOM
  1 CL      -3.3610     1.3540     3.7170 Cl    1 <1>  -0.1770 
  2 C       -3.4070     1.4680     1.9780 C.ar  1 <1>   0.1770 
  3 C       -4.3890     0.7830     1.2870 C.ar  1 <1>  -0.1500 
  4 C       -2.4700     2.2400     1.3200 C.ar  1 <1>  -0.1500 
  5 C       -4.4440     0.8760    -0.0970 C.ar  1 <1>  -0.1440 
  6 C       -2.5170     2.3260    -0.0600 C.ar  1 <1>  -0.1500 
  7 C       -3.4990     1.6460    -0.7650 C.ar  1 <1>  -0.1500 
  8 C       -5.5300     0.1500    -0.8680 C.3   1 <1>   0.4870 
  9 N       -6.8210     0.8380    -0.6050 N.4   1 <1>  -0.9590 
 10 C       -8.0020     0.0380    -0.9900 C.3   1 <1>   0.3430 
 11 C       -6.8790     2.2150    -1.1400 C.3   1 <1>   0.3430 
 12 C       -8.5950    -0.5640     0.2810 C.3   1 <1>  -0.1600 
 13 C       -7.2810     3.1560    -0.0040 C.3   1 <1>  -0.1600 
 14 C       -9.4040     0.4250     1.1430 C.3   1 <1>  -0.1600 
 15 C       -8.6450     2.8620     0.6510 C.3   1 <1>  -0.1600 
 16 C       -8.6730     1.6850     1.6520 C.3   1 <1>  -0.1600 
 17 H       -5.0890     0.1880     1.8470 H     1 <1>   0.1500 
 18 H       -1.7150     2.7620     1.8820 H     1 <1>   0.1500 
 19 H       -1.7860     2.9210    -0.5840 H     1 <1>   0.1500 
 20 H       -3.5100     1.7270    -1.8390 H     1 <1>   0.1500 
 21 H       -5.5800    -0.8730    -0.5300 H     1 <1>   0.0800 
 22 H       -5.3100     0.1540    -1.9220 H     1 <1>   0.0800 
 23 H       -6.8900     0.9600     0.4130 H     1 <1>   0.4500 
 24 H       -7.7170    -0.7440    -1.6760 H     1 <1>   0.0800 
 25 H       -8.7440     0.6580    -1.4680 H     1 <1>   0.0800 
 26 H       -7.5930     2.2790    -1.9450 H     1 <1>   0.0800 
 27 H       -5.9140     2.5130    -1.5170 H     1 <1>   0.0800 
 28 H       -7.8240    -1.0280     0.8700 H     1 <1>   0.0800 
 29 H       -9.2680    -1.3490    -0.0180 H     1 <1>   0.0800 
 30 H       -7.3260     4.1470    -0.4220 H     1 <1>   0.0800 
 31 H       -6.5060     3.1780     0.7430 H     1 <1>   0.0800 
 32 H       -9.7450    -0.1200     2.0080 H     1 <1>   0.0800 
 33 H      -10.2940     0.7210     0.6110 H     1 <1>   0.0800 
 34 H       -9.4050     2.7460    -0.1030 H     1 <1>   0.0800 
 35 H       -8.9140     3.7470     1.2050 H     1 <1>   0.0800 
 36 H       -7.6930     1.4490     2.0280 H     1 <1>   0.0800 
 37 H       -9.2340     2.0280     2.5060 H     1 <1>   0.0800 
@<TRIPOS>BOND
  1   1   2  1   
  2   2   3  ar  
  3   2   4  ar  
  4   3   5  ar  
  5   3  17  1   
  6   4   6  ar  
  7   4  18  1   
  8   5   7  ar  
  9   5   8  1   
 10   6   7  ar  
 11   6  19  1   
 12   7  20  1   
 13   8   9  1   
 14   8  21  1   
 15   8  22  1   
 16   9  10  1   
 17   9  11  1   
 18   9  23  1   
 19  10  12  1   
 20  10  24  1   
 21  10  25  1   
 22  11  13  1   
 23  11  26  1   
 24  11  27  1   
 25  12  14  1   
 26  12  28  1   
 27  12  29  1   
 28  13  15  1   
 29  13  30  1   
 30  13  31  1   
 31  14  16  1   
 32  14  32  1   
 33  14  33  1   
 34  15  16  1   
 35  15  34  1   
 36  15  35  1   
 37  16  36  1   
 38  16  37  1   
@<TRIPOS>SUBSTRUCTURE
  1 ****   9 GROUP 4 **** **** 0

# MOE 2024.06 (io_trps.svl 2023.06)
