@<TRIPOS>MOLECULE
NONAME
42 43 1 0 0 
SMALL
USER_CHARGES


@<TRIPOS>ATOM
  1 O       -1.1990    -3.5590     2.7000 O.2   1 <1>  -0.5700 
  2 C       -1.3760    -2.9370     1.6780 C.2   1 <1>   0.4950 
  3 C       -0.3430    -2.6910     0.7170 C.2   1 <1>   0.0290 
  4 C       -2.7880    -2.4090     1.4820 C.3   1 <1>  -0.0990 
  5 C       -0.6670    -1.9130    -0.4470 C.2   1 <1>   0.4950 
  6 C        0.9170    -3.2080     0.9430 C.2   1 <1>  -0.0500 
  7 C       -3.1590    -2.2150     0.0060 C.3   1 <1>   0.0000 
  8 O        0.1160    -1.6280    -1.3270 O.2   1 <1>  -0.5700 
  9 C       -2.0680    -1.3600    -0.6510 C.3   1 <1>  -0.0990 
 10 N        2.0020    -3.0690     0.1430 N.pl3 1 <1>  -0.8690 
 11 C       -3.2840    -3.5760    -0.7050 C.3   1 <1>  -0.2400 
 12 C       -4.5110    -1.4920    -0.0940 C.3   1 <1>  -0.2400 
 13 C        3.3620    -3.5940     0.3840 C.3   1 <1>   0.3530 
 14 C        4.3830    -2.5260     0.0250 C.ar  1 <1>  -0.1430 
 15 C        5.3470    -2.7660    -0.9430 C.ar  1 <1>  -0.1500 
 16 C        4.3630    -1.2970     0.6690 C.ar  1 <1>  -0.1500 
 17 C        6.2780    -1.7920    -1.2580 C.ar  1 <1>  -0.1500 
 18 C        5.2920    -0.3200     0.3560 C.ar  1 <1>  -0.1500 
 19 C        6.2600    -0.5660    -0.6140 C.ar  1 <1>   0.0830 
 20 O        7.2070     0.3330    -0.9830 O.3   1 <1>  -0.3620 
 21 C        7.2380     1.6290    -0.4280 C.3   1 <1>   0.0400 
 22 H       -3.4810    -3.0910     1.9430 H     1 <1>   0.0800 
 23 H       -2.8610    -1.4740     2.0080 H     1 <1>   0.0800 
 24 H        1.0740    -3.7850     1.8440 H     1 <1>   0.1500 
 25 H       -2.0860    -0.3630    -0.2480 H     1 <1>   0.0800 
 26 H       -2.2600    -1.2820    -1.7070 H     1 <1>   0.0800 
 27 H        1.9230    -2.5100    -0.7270 H     1 <1>   0.4000 
 28 H       -4.0520    -4.1720    -0.2450 H     1 <1>   0.0800 
 29 H       -2.3660    -4.1360    -0.6710 H     1 <1>   0.0800 
 30 H       -3.5470    -3.4360    -1.7400 H     1 <1>   0.0800 
 31 H       -4.4720    -0.5320     0.3900 H     1 <1>   0.0800 
 32 H       -5.2870    -2.0730     0.3750 H     1 <1>   0.0800 
 33 H       -4.7830    -1.3380    -1.1240 H     1 <1>   0.0800 
 34 H        3.4690    -3.8690     1.4190 H     1 <1>   0.0800 
 35 H        3.5110    -4.4720    -0.2200 H     1 <1>   0.0800 
 36 H        5.3780    -3.7100    -1.4590 H     1 <1>   0.1500 
 37 H        3.6120    -1.1010     1.4150 H     1 <1>   0.1500 
 38 H        7.0250    -1.9760    -2.0080 H     1 <1>   0.1500 
 39 H        5.2450     0.6180     0.8730 H     1 <1>   0.1500 
 40 H        8.0510     2.1660    -0.8810 H     1 <1>   0.0800 
 41 H        7.3980     1.5500     0.6330 H     1 <1>   0.0800 
 42 H        6.3080     2.1230    -0.6430 H     1 <1>   0.0800 
@<TRIPOS>BOND
  1   1   2  2   
  2   2   3  1   
  3   2   4  1   
  4   3   5  1   
  5   3   6  2   
  6   4   7  1   
  7   4  22  1   
  8   4  23  1   
  9   5   8  2   
 10   5   9  1   
 11   6  10  1   
 12   6  24  1   
 13   7   9  1   
 14   7  11  1   
 15   7  12  1   
 16   9  25  1   
 17   9  26  1   
 18  10  13  1   
 19  10  27  1   
 20  11  28  1   
 21  11  29  1   
 22  11  30  1   
 23  12  31  1   
 24  12  32  1   
 25  12  33  1   
 26  13  14  1   
 27  13  34  1   
 28  13  35  1   
 29  14  15  ar  
 30  14  16  ar  
 31  15  17  ar  
 32  15  36  1   
 33  16  18  ar  
 34  16  37  1   
 35  17  19  ar  
 36  17  38  1   
 37  18  19  ar  
 38  18  39  1   
 39  19  20  1   
 40  20  21  1   
 41  21  40  1   
 42  21  41  1   
 43  21  42  1   
@<TRIPOS>SUBSTRUCTURE
  1 ****  10 GROUP 4 **** **** 0

# MOE 2024.06 (io_trps.svl 2023.06)
