@<TRIPOS>MOLECULE
NONAME
45 48 1 0 0 
SMALL
USER_CHARGES


@<TRIPOS>ATOM
  1 F       -1.8030    -2.0240     2.0510 F     1 <1>  -0.1900 
  2 C       -2.2060    -1.9680     0.8030 C.ar  1 <1>   0.1900 
  3 C       -1.3010    -2.2590    -0.2260 C.ar  1 <1>   0.1000 
  4 C       -3.5210    -1.6200     0.5690 C.ar  1 <1>  -0.1500 
  5 N        0.0410    -2.6160    -0.0280 N.pl3 1 <1>  -0.8380 
  6 C       -1.7850    -2.1840    -1.5260 C.ar  1 <1>  -0.1500 
  7 C       -3.9710    -1.5540    -0.7400 C.ar  1 <1>  -0.1500 
  8 C        0.2490    -3.9470     0.6180 C.3   1 <1>   0.2090 
  9 C        0.9080    -1.5270     0.5160 C.3   1 <1>   0.2090 
 10 C       -3.1020    -1.8360    -1.7820 C.ar  1 <1>  -0.1500 
 11 C        1.7420    -4.3370     0.6300 C.3   1 <1>   0.3430 
 12 C        2.3920    -1.9470     0.5290 C.3   1 <1>   0.3430 
 13 N        2.6140    -3.2620     1.2360 N.4   1 <1>  -0.9590 
 14 C        4.0560    -3.6720     1.3260 C.3   1 <1>   0.3430 
 15 C        4.7740    -3.8030    -0.0370 C.3   1 <1>  -0.0800 
 16 C        6.1320    -4.7340     0.1400 C.3   1 <1>   0.0580 
 17 C        5.3000    -2.3160    -0.7040 C.3   1 <1>  -0.1600 
 18 C        7.7360    -4.6380    -0.0140 C.2   1 <1>  -0.2880 
 19 C        6.4030    -3.5590    -0.4270 C.3   1 <1>  -0.1600 
 20 C        6.9350    -2.4400    -0.9180 C.3   1 <1>   0.0580 
 21 C        8.1560    -3.4360    -0.5670 C.2   1 <1>  -0.2880 
 22 H       -4.1800    -1.4050     1.3910 H     1 <1>   0.1500 
 23 H       -1.1200    -2.4000    -2.3420 H     1 <1>   0.1500 
 24 H       -4.9930    -1.2840    -0.9470 H     1 <1>   0.1500 
 25 H       -0.3080    -4.6920     0.0740 H     1 <1>   0.0800 
 26 H       -0.1280    -3.9280     1.6260 H     1 <1>   0.0800 
 27 H        0.5950    -1.2740     1.5140 H     1 <1>   0.0800 
 28 H        0.7930    -0.6490    -0.0970 H     1 <1>   0.0800 
 29 H       -3.4530    -1.7840    -2.7980 H     1 <1>   0.1500 
 30 H        2.0430    -4.5170    -0.3880 H     1 <1>   0.0800 
 31 H        1.8580    -5.2580     1.1770 H     1 <1>   0.0800 
 32 H        2.9720    -1.1720     1.0020 H     1 <1>   0.0800 
 33 H        2.7190    -2.0290    -0.4940 H     1 <1>   0.0800 
 34 H        2.2730    -3.1290     2.1980 H     1 <1>   0.4500 
 35 H        4.1120    -4.6240     1.8280 H     1 <1>   0.0800 
 36 H        4.5980    -2.9620     1.9300 H     1 <1>   0.0800 
 37 H        4.1130    -4.3000    -0.7330 H     1 <1>   0.0800 
 38 H        5.9050    -5.5990    -0.4690 H     1 <1>   0.0800 
 39 H        5.0930    -1.4850    -0.0470 H     1 <1>   0.0800 
 40 H        4.8070    -2.1200    -1.6470 H     1 <1>   0.0800 
 41 H        8.3380    -5.4730     0.3070 H     1 <1>   0.1500 
 42 H        6.3250    -4.0220    -1.4970 H     1 <1>   0.0800 
 43 H        6.5770    -3.1050     0.6910 H     1 <1>   0.0800 
 44 H        7.0480    -2.3060    -1.9860 H     1 <1>   0.0800 
 45 H        9.1620    -3.1110    -0.7810 H     1 <1>   0.1500 
@<TRIPOS>BOND
  1   1   2  1   
  2   2   3  ar  
  3   2   4  ar  
  4   3   5  1   
  5   3   6  ar  
  6   4   7  ar  
  7   4  22  1   
  8   5   8  1   
  9   5   9  1   
 10   6  10  ar  
 11   6  23  1   
 12   7  10  ar  
 13   7  24  1   
 14   8  11  1   
 15   8  25  1   
 16   8  26  1   
 17   9  12  1   
 18   9  27  1   
 19   9  28  1   
 20  10  29  1   
 21  11  13  1   
 22  11  30  1   
 23  11  31  1   
 24  12  13  1   
 25  12  32  1   
 26  12  33  1   
 27  13  14  1   
 28  13  34  1   
 29  14  15  1   
 30  14  35  1   
 31  14  36  1   
 32  15  16  1   
 33  15  17  1   
 34  15  37  1   
 35  16  18  1   
 36  16  19  1   
 37  16  38  1   
 38  17  20  1   
 39  17  39  1   
 40  17  40  1   
 41  18  21  2   
 42  18  41  1   
 43  19  20  1   
 44  19  42  1   
 45  19  43  1   
 46  20  21  1   
 47  20  44  1   
 48  21  45  1   
@<TRIPOS>SUBSTRUCTURE
  1 ****  12 GROUP 4 **** **** 0

# MOE 2024.06 (io_trps.svl 2023.06)
