@<TRIPOS>MOLECULE
NONAME
37 37 1 0 0 
SMALL
USER_CHARGES


@<TRIPOS>ATOM
  1 N       -9.4790     0.3220     0.1880 N.ar  1 <1>  -0.6200 
  2 C       -8.3220     0.9680     0.3340 C.ar  1 <1>   0.4100 
  3 C      -10.4890     0.9760    -0.3030 C.ar  1 <1>   0.5280 
  4 N       -7.3370     0.2310     0.8440 N.pl3 1 <1>  -0.8690 
  5 C       -8.1940     2.3110    -0.0370 C.ar  1 <1>  -0.1500 
  6 N      -10.4220     2.2730    -0.6750 N.ar  1 <1>  -0.1790 
  7 C      -11.8140     0.2450    -0.4690 C.3   1 <1>  -0.0160 
  8 C       -5.9430     0.6000     1.1760 C.3   1 <1>   0.2090 
  9 C       -9.2720     2.9670    -0.5500 C.ar  1 <1>   0.2180 
 10 C      -12.8880     0.7450     0.5130 C.3   1 <1>  -0.1600 
 11 C       -5.0370     0.2080     0.0110 C.3   1 <1>  -0.1600 
 12 C       -9.2310     4.4240    -0.9800 C.3   1 <1>  -0.0970 
 13 C      -14.2040    -0.0180     0.3290 C.3   1 <1>  -0.2400 
 14 C       -3.5730     0.5730     0.2930 C.3   1 <1>  -0.1600 
 15 C       -2.6740     0.1820    -0.8830 C.3   1 <1>  -0.2400 
 16 H       -7.5630    -0.7520     1.0330 H     1 <1>   0.4000 
 17 H       -7.2460     2.7990     0.0850 H     1 <1>   0.1500 
 18 H      -11.2600     2.7170    -1.0500 H     1 <1>   0.4570 
 19 H      -11.6510    -0.8070    -0.3000 H     1 <1>   0.0800 
 20 H      -12.1580     0.3530    -1.4820 H     1 <1>   0.0800 
 21 H       -5.6430     0.0760     2.0690 H     1 <1>   0.0800 
 22 H       -5.8690     1.6550     1.3690 H     1 <1>   0.0800 
 23 H      -13.0750     1.7950     0.3720 H     1 <1>   0.0800 
 24 H      -12.5420     0.6000     1.5240 H     1 <1>   0.0800 
 25 H       -5.3650     0.7160    -0.8790 H     1 <1>   0.0800 
 26 H       -5.1130    -0.8530    -0.1530 H     1 <1>   0.0800 
 27 H       -8.2490     4.8350    -0.8210 H     1 <1>   0.0800 
 28 H       -9.9330     5.0060    -0.4100 H     1 <1>   0.0800 
 29 H       -9.4650     4.5150    -2.0270 H     1 <1>   0.0800 
 30 H      -14.5940     0.1190    -0.6650 H     1 <1>   0.0800 
 31 H      -14.9370     0.3380     1.0320 H     1 <1>   0.0800 
 32 H      -14.0600    -1.0710     0.5010 H     1 <1>   0.0800 
 33 H       -3.2350     0.0630     1.1790 H     1 <1>   0.0800 
 34 H       -3.4870     1.6330     0.4640 H     1 <1>   0.0800 
 35 H       -2.7250    -0.8780    -1.0610 H     1 <1>   0.0800 
 36 H       -1.6520     0.4420    -0.6670 H     1 <1>   0.0800 
 37 H       -2.9750     0.6980    -1.7780 H     1 <1>   0.0800 
@<TRIPOS>BOND
  1   1   2  ar  
  2   1   3  ar  
  3   2   4  1   
  4   2   5  ar  
  5   3   6  ar  
  6   3   7  1   
  7   4   8  1   
  8   4  16  1   
  9   5   9  ar  
 10   5  17  1   
 11   6   9  ar  
 12   6  18  1   
 13   7  10  1   
 14   7  19  1   
 15   7  20  1   
 16   8  11  1   
 17   8  21  1   
 18   8  22  1   
 19   9  12  1   
 20  10  13  1   
 21  10  23  1   
 22  10  24  1   
 23  11  14  1   
 24  11  25  1   
 25  11  26  1   
 26  12  27  1   
 27  12  28  1   
 28  12  29  1   
 29  13  30  1   
 30  13  31  1   
 31  13  32  1   
 32  14  15  1   
 33  14  33  1   
 34  14  34  1   
 35  15  35  1   
 36  15  36  1   
 37  15  37  1   
@<TRIPOS>SUBSTRUCTURE
  1 ****   2 GROUP 4 **** **** 0

# MOE 2024.06 (io_trps.svl 2023.06)
