@<TRIPOS>MOLECULE
NONAME
47 49 1 0 0 
SMALL
USER_CHARGES


@<TRIPOS>ATOM
  1 CL      -2.0500     0.8620    -0.4730 Cl    1 <1>  -0.1770 
  2 C       -0.8660     2.1260    -0.2700 C.ar  1 <1>   0.1770 
  3 C       -0.3900     2.4150     0.9950 C.ar  1 <1>  -0.1500 
  4 C       -0.4270     2.8250    -1.3780 C.ar  1 <1>  -0.1500 
  5 C        0.5430     3.4260     1.1540 C.ar  1 <1>  -0.1500 
  6 C        0.5000     3.8390    -1.2120 C.ar  1 <1>  -0.1500 
  7 C        0.9860     4.1480     0.0520 C.ar  1 <1>  -0.1430 
  8 C        1.9990     5.2750     0.2010 C.3   1 <1>   0.3390 
  9 N        1.3280     6.5710     0.0540 N.am  1 <1>  -0.8490 
 10 S        2.4730     7.7590    -0.3220 S.o2  1 <1>   1.3330 
 11 C        0.5520     6.8840     1.2910 C.3   1 <1>   0.2570 
 12 O        3.2040     7.2760    -1.4700 O.2   1 <1>  -0.6500 
 13 O        3.1920     8.0470     0.8950 O.2   1 <1>  -0.6500 
 14 C        1.5660     9.1930    -0.8660 C.3   1 <1>  -0.1350 
 15 C       -0.5350     7.9570     1.1300 C.2   1 <1>   0.5690 
 16 O       -0.4060     8.9740     1.7720 O.2   1 <1>  -0.5700 
 17 N       -1.6060     7.7770     0.2900 N.am  1 <1>  -0.6600 
 18 C       -1.8940     6.5180    -0.4570 C.3   1 <1>   0.2840 
 19 C       -2.6960     8.7810     0.1830 C.3   1 <1>   0.1400 
 20 C       -3.3110     6.0190    -0.1860 C.ar  1 <1>  -0.1430 
 21 C       -3.9430     8.2340     0.8800 C.3   1 <1>  -0.0170 
 22 C       -4.2720     6.8170     0.4270 C.ar  1 <1>  -0.1430 
 23 C       -3.6440     4.7280    -0.5710 C.ar  1 <1>  -0.1500 
 24 C       -5.5460     6.3150     0.6470 C.ar  1 <1>  -0.1500 
 25 C       -4.9160     4.2320    -0.3490 C.ar  1 <1>  -0.1500 
 26 C       -5.8680     5.0270     0.2600 C.ar  1 <1>  -0.1500 
 27 H       -0.7470     1.8530     1.8390 H     1 <1>   0.1500 
 28 H       -0.8070     2.5770    -2.3530 H     1 <1>   0.1500 
 29 H        0.9180     3.6470     2.1390 H     1 <1>   0.1500 
 30 H        0.8450     4.3950    -2.0690 H     1 <1>   0.1500 
 31 H        2.7400     5.1390    -0.5700 H     1 <1>   0.0800 
 32 H        2.5080     5.2210     1.1490 H     1 <1>   0.0800 
 33 H        1.2190     7.1880     2.0790 H     1 <1>   0.0800 
 34 H        0.0460     6.0040     1.6410 H     1 <1>   0.0800 
 35 H        0.8160     8.9120    -1.5780 H     1 <1>   0.0800 
 36 H        2.2370     9.8870    -1.3310 H     1 <1>   0.0800 
 37 H        1.1020     9.6910    -0.0400 H     1 <1>   0.0800 
 38 H       -1.2050     5.7440    -0.1850 H     1 <1>   0.0800 
 39 H       -1.7820     6.7050    -1.5100 H     1 <1>   0.0800 
 40 H       -2.9110     8.9590    -0.8560 H     1 <1>   0.0800 
 41 H       -2.4060     9.7160     0.6320 H     1 <1>   0.0800 
 42 H       -4.7720     8.8870     0.6750 H     1 <1>   0.0800 
 43 H       -3.7750     8.2340     1.9420 H     1 <1>   0.0800 
 44 H       -2.9150     4.0990    -1.0480 H     1 <1>   0.1500 
 45 H       -6.2930     6.9250     1.1240 H     1 <1>   0.1500 
 46 H       -5.1630     3.2280    -0.6500 H     1 <1>   0.1500 
 47 H       -6.8580     4.6440     0.4340 H     1 <1>   0.1500 
@<TRIPOS>BOND
  1   1   2  1   
  2   2   3  ar  
  3   2   4  ar  
  4   3   5  ar  
  5   3  27  1   
  6   4   6  ar  
  7   4  28  1   
  8   5   7  ar  
  9   5  29  1   
 10   6   7  ar  
 11   6  30  1   
 12   7   8  1   
 13   8   9  1   
 14   8  31  1   
 15   8  32  1   
 16   9  10  am  
 17   9  11  1   
 18  10  12  2   
 19  10  13  2   
 20  10  14  1   
 21  11  15  1   
 22  11  33  1   
 23  11  34  1   
 24  14  35  1   
 25  14  36  1   
 26  14  37  1   
 27  15  16  2   
 28  15  17  am  
 29  17  18  1   
 30  17  19  1   
 31  18  20  1   
 32  18  38  1   
 33  18  39  1   
 34  19  21  1   
 35  19  40  1   
 36  19  41  1   
 37  20  22  ar  
 38  20  23  ar  
 39  21  22  1   
 40  21  42  1   
 41  21  43  1   
 42  22  24  ar  
 43  23  25  ar  
 44  23  44  1   
 45  24  26  ar  
 46  24  45  1   
 47  25  26  ar  
 48  25  46  1   
 49  26  47  1   
@<TRIPOS>SUBSTRUCTURE
  1 ****  18 GROUP 4 **** **** 0

# MOE 2024.06 (io_trps.svl 2023.06)
