@<TRIPOS>MOLECULE
NONAME
40 42 1 0 0 
SMALL
USER_CHARGES


@<TRIPOS>ATOM
  1 N       -0.3570     1.6470     0.3330 N.pl3 1 <1>  -0.8440 
  2 C       -1.6710     1.6300     0.3940 C.cat 1 <1>   1.2000 
  3 C        0.1150     2.8070    -0.4740 C.3   1 <1>   0.1680 
  4 N       -2.2190     2.6300    -0.2590 N.pl3 1 <1>  -0.7050 
  5 N       -2.5690     0.8300     0.9610 N.pl3 1 <1>  -0.7050 
  6 C       -1.2060     3.5000    -0.8910 C.3   1 <1>   0.1680 
  7 C       -3.5890     2.5040    -0.1380 C.ar  1 <1>   0.3110 
  8 C       -3.8130     1.3720     0.6310 C.ar  1 <1>   0.3110 
  9 C       -2.3320    -0.3950     1.7590 C.3   1 <1>   0.1680 
 10 C       -4.6430     3.2610    -0.6230 C.ar  1 <1>  -0.1500 
 11 C       -5.1110     0.9770     0.9260 C.ar  1 <1>  -0.1500 
 12 C       -2.0310    -1.5920     0.8490 C.3   1 <1>  -0.1600 
 13 C       -5.9380     2.8720    -0.3310 C.ar  1 <1>  -0.1430 
 14 C       -6.1720     1.7250     0.4460 C.ar  1 <1>  -0.1430 
 15 C       -3.1830    -1.9380    -0.1080 C.3   1 <1>  -0.1600 
 16 C       -7.0950     3.7060    -0.8660 C.3   1 <1>  -0.0970 
 17 C       -7.5920     1.2810     0.7750 C.3   1 <1>  -0.0970 
 18 C       -2.8560    -3.1890    -0.9270 C.3   1 <1>  -0.2400 
 19 H        0.2570     0.9560     0.7580 H     1 <1>   0.4500 
 20 H        0.6680     2.4770    -1.3380 H     1 <1>   0.0800 
 21 H        0.7270     3.4670     0.1190 H     1 <1>   0.0800 
 22 H       -1.3230     3.5100    -1.9620 H     1 <1>   0.0800 
 23 H       -1.2650     4.5030    -0.5030 H     1 <1>   0.0800 
 24 H       -3.1970    -0.6070     2.3650 H     1 <1>   0.0800 
 25 H       -1.5010    -0.2320     2.4250 H     1 <1>   0.0800 
 26 H       -4.4360     4.1340    -1.2160 H     1 <1>   0.1500 
 27 H       -5.2750     0.0970     1.5190 H     1 <1>   0.1500 
 28 H       -1.8400    -2.4450     1.4780 H     1 <1>   0.0800 
 29 H       -1.1340    -1.4050     0.2870 H     1 <1>   0.0800 
 30 H       -3.3650    -1.1220    -0.7860 H     1 <1>   0.0800 
 31 H       -4.0850    -2.1140     0.4540 H     1 <1>   0.0800 
 32 H       -6.7390     4.5440    -1.4380 H     1 <1>   0.0800 
 33 H       -7.6870     4.0840    -0.0530 H     1 <1>   0.0800 
 34 H       -7.7200     3.1080    -1.5050 H     1 <1>   0.0800 
 35 H       -7.5920     0.3890     1.3760 H     1 <1>   0.0800 
 36 H       -8.1360     1.0750    -0.1290 H     1 <1>   0.0800 
 37 H       -8.1040     2.0520     1.3230 H     1 <1>   0.0800 
 38 H       -1.9700    -3.0370    -1.5180 H     1 <1>   0.0800 
 39 H       -3.6710    -3.4170    -1.5910 H     1 <1>   0.0800 
 40 H       -2.7000    -4.0360    -0.2810 H     1 <1>   0.0800 
@<TRIPOS>BOND
  1   1   2  ar  
  2   1   3  1   
  3   1  19  1   
  4   2   4  ar  
  5   2   5  ar  
  6   3   6  1   
  7   3  20  1   
  8   3  21  1   
  9   4   6  1   
 10   4   7  1   
 11   5   8  1   
 12   5   9  1   
 13   6  22  1   
 14   6  23  1   
 15   7   8  ar  
 16   7  10  ar  
 17   8  11  ar  
 18   9  12  1   
 19   9  24  1   
 20   9  25  1   
 21  10  13  ar  
 22  10  26  1   
 23  11  14  ar  
 24  11  27  1   
 25  12  15  1   
 26  12  28  1   
 27  12  29  1   
 28  13  14  ar  
 29  13  16  1   
 30  14  17  1   
 31  15  18  1   
 32  15  30  1   
 33  15  31  1   
 34  16  32  1   
 35  16  33  1   
 36  16  34  1   
 37  17  35  1   
 38  17  36  1   
 39  17  37  1   
 40  18  38  1   
 41  18  39  1   
 42  18  40  1   
@<TRIPOS>SUBSTRUCTURE
  1 ****   8 GROUP 4 **** **** 0

# MOE 2024.06 (io_trps.svl 2023.06)
