@<TRIPOS>MOLECULE
NONAME
53 55 1 0 0 
SMALL
USER_CHARGES


@<TRIPOS>ATOM
  1 S       -0.6720     0.9360     1.0280 S.o2  1 <1>   1.3330 
  2 O        0.1920     1.1980    -0.0970 O.2   1 <1>  -0.6500 
  3 O       -1.9520     1.5920     1.1440 O.2   1 <1>  -0.6500 
  4 N       -0.9520    -0.7690     1.1220 N.am  1 <1>  -0.6930 
  5 C        0.2250     1.2360     2.5350 C.3   1 <1>  -0.1350 
  6 C        0.0980    -1.6690     1.1170 C.ar  1 <1>   0.1990 
  7 C       -2.2670    -1.2450     0.6280 C.3   1 <1>   0.3390 
  8 C        0.9220    -1.8300     0.0090 C.ar  1 <1>  -0.1500 
  9 C        0.3440    -2.4560     2.2340 C.ar  1 <1>  -0.1500 
 10 C       -2.2280    -1.5360    -0.8720 C.ar  1 <1>  -0.1430 
 11 C        1.9560    -2.7460     0.0190 C.ar  1 <1>  -0.1500 
 12 C        1.3800    -3.3690     2.2420 C.ar  1 <1>  -0.1500 
 13 C       -2.1170    -2.8270    -1.3880 C.ar  1 <1>  -0.1430 
 14 C       -2.3130    -0.4620    -1.7490 C.ar  1 <1>  -0.1500 
 15 C        2.2200    -3.5420     1.1380 C.ar  1 <1>   0.0860 
 16 C       -2.0870    -3.0130    -2.7630 C.ar  1 <1>  -0.1500 
 17 C       -2.0270    -4.0580    -0.4940 C.3   1 <1>  -0.0970 
 18 C       -2.2830    -0.6560    -3.1170 C.ar  1 <1>  -0.1500 
 19 C        3.3000    -4.5120     1.1710 C.2   1 <1>   0.5440 
 20 C       -2.1690    -1.9350    -3.6250 C.ar  1 <1>  -0.1500 
 21 O        3.2920    -5.4190     1.9820 O.2   1 <1>  -0.5700 
 22 N        4.3540    -4.4280     0.3030 N.am  1 <1>  -0.7300 
 23 C        5.4870    -5.3680     0.2310 C.3   1 <1>   0.2200 
 24 C        6.7840    -4.5960     0.4440 C.3   1 <1>  -0.1600 
 25 C        5.6130    -5.8780    -1.1990 C.3   1 <1>  -0.1600 
 26 C        7.1260    -3.9690    -0.9120 C.3   1 <1>  -0.1600 
 27 C        6.3750    -4.7920    -1.9670 C.3   1 <1>  -0.1600 
 28 H        0.4510     2.2800     2.6240 H     1 <1>   0.0800 
 29 H        1.1450     0.6840     2.5340 H     1 <1>   0.0800 
 30 H       -0.3610     0.9360     3.3800 H     1 <1>   0.0800 
 31 H       -3.0310    -0.5150     0.8280 H     1 <1>   0.0800 
 32 H       -2.5400    -2.1290     1.1730 H     1 <1>   0.0800 
 33 H        0.7320    -1.2360    -0.8690 H     1 <1>   0.1500 
 34 H       -0.2870    -2.3490     3.0980 H     1 <1>   0.1500 
 35 H        2.5590    -2.8500    -0.8650 H     1 <1>   0.1500 
 36 H        1.5510    -3.9710     3.1200 H     1 <1>   0.1500 
 37 H       -2.4010     0.5430    -1.3700 H     1 <1>   0.1500 
 38 H       -2.0010    -4.0020    -3.1760 H     1 <1>   0.1500 
 39 H       -1.1900    -3.9760     0.1750 H     1 <1>   0.0800 
 40 H       -1.8930    -4.9500    -1.0790 H     1 <1>   0.0800 
 41 H       -2.9290    -4.1660     0.0790 H     1 <1>   0.0800 
 42 H       -2.3460     0.1880    -3.7810 H     1 <1>   0.1500 
 43 H       -2.1450    -2.0910    -4.6890 H     1 <1>   0.1500 
 44 H        4.4360    -3.6320    -0.3260 H     1 <1>   0.3700 
 45 H        5.3690    -6.1710     0.9410 H     1 <1>   0.0800 
 46 H        7.5550    -5.2980     0.7080 H     1 <1>   0.0800 
 47 H        6.6980    -3.8690     1.2330 H     1 <1>   0.0800 
 48 H        4.6550    -6.1050    -1.6340 H     1 <1>   0.0800 
 49 H        6.2050    -6.7760    -1.1860 H     1 <1>   0.0800 
 50 H        8.1890    -3.9860    -1.0840 H     1 <1>   0.0800 
 51 H        6.7880    -2.9470    -0.9400 H     1 <1>   0.0800 
 52 H        5.6810    -4.1600    -2.4940 H     1 <1>   0.0800 
 53 H        7.0530    -5.2310    -2.6790 H     1 <1>   0.0800 
@<TRIPOS>BOND
  1   1   2  2   
  2   1   3  2   
  3   1   4  am  
  4   1   5  1   
  5   4   6  1   
  6   4   7  1   
  7   5  28  1   
  8   5  29  1   
  9   5  30  1   
 10   6   8  ar  
 11   6   9  ar  
 12   7  10  1   
 13   7  31  1   
 14   7  32  1   
 15   8  11  ar  
 16   8  33  1   
 17   9  12  ar  
 18   9  34  1   
 19  10  13  ar  
 20  10  14  ar  
 21  11  15  ar  
 22  11  35  1   
 23  12  15  ar  
 24  12  36  1   
 25  13  16  ar  
 26  13  17  1   
 27  14  18  ar  
 28  14  37  1   
 29  15  19  1   
 30  16  20  ar  
 31  16  38  1   
 32  17  39  1   
 33  17  40  1   
 34  17  41  1   
 35  18  20  ar  
 36  18  42  1   
 37  19  21  2   
 38  19  22  am  
 39  20  43  1   
 40  22  23  1   
 41  22  44  1   
 42  23  24  1   
 43  23  25  1   
 44  23  45  1   
 45  24  26  1   
 46  24  46  1   
 47  24  47  1   
 48  25  27  1   
 49  25  48  1   
 50  25  49  1   
 51  26  27  1   
 52  26  50  1   
 53  26  51  1   
 54  27  52  1   
 55  27  53  1   
@<TRIPOS>SUBSTRUCTURE
  1 ****   8 GROUP 4 **** **** 0

# MOE 2024.06 (io_trps.svl 2023.06)
