@<TRIPOS>MOLECULE
NONAME
43 44 1 0 0 
SMALL
USER_CHARGES


@<TRIPOS>ATOM
  1 O        0.5200     0.3230    -0.1750 O.2   1 <1>  -0.5700 
  2 C        0.3100     1.5060    -0.1090 C.2   1 <1>   0.6590 
  3 O       -0.8760     2.0050     0.2000 O.3   1 <1>  -0.4300 
  4 C        1.4040     2.5220    -0.3860 C.3   1 <1>  -0.0190 
  5 C       -1.9780     1.1740     0.4840 C.3   1 <1>   0.1200 
  6 C        2.6010     1.8170    -1.0530 C.3   1 <1>   0.3430 
  7 C        1.8270     3.2840     0.8860 C.3   1 <1>  -0.1600 
  8 C       -3.1720     2.0660     0.8060 C.3   1 <1>  -0.2400 
  9 N        3.9170     2.4680    -0.7360 N.4   1 <1>  -0.9590 
 10 C        2.9310     4.3140     0.5750 C.3   1 <1>  -0.1600 
 11 C        3.8200     3.9510    -0.6230 C.3   1 <1>   0.3430 
 12 C        4.9860     2.0340    -1.6750 C.3   1 <1>   0.4860 
 13 C        6.3180     2.5080    -1.1310 C.ar  1 <1>  -0.1430 
 14 C        6.8800     1.8890    -0.0230 C.ar  1 <1>  -0.1500 
 15 C        6.9800     3.5690    -1.7310 C.ar  1 <1>  -0.1500 
 16 C        8.0840     2.3350     0.4950 C.ar  1 <1>  -0.1430 
 17 C        8.1840     4.0140    -1.2170 C.ar  1 <1>  -0.1500 
 18 C        8.7330     3.3990    -0.1060 C.ar  1 <1>  -0.1500 
 19 C        8.7010     1.6580     1.7070 C.3   1 <1>  -0.0970 
 20 H        0.9990     3.2280    -1.0890 H     1 <1>   0.0800 
 21 H       -1.7280     0.5460     1.3240 H     1 <1>   0.0800 
 22 H       -2.1770     0.5600    -0.3790 H     1 <1>   0.0800 
 23 H        2.4390     1.8050    -2.1190 H     1 <1>   0.0800 
 24 H        2.6420     0.7910    -0.7220 H     1 <1>   0.0800 
 25 H        2.1910     2.5760     1.6130 H     1 <1>   0.0800 
 26 H        0.9770     3.7830     1.3230 H     1 <1>   0.0800 
 27 H       -2.9590     2.6790     1.6640 H     1 <1>   0.0800 
 28 H       -4.0290     1.4560     1.0280 H     1 <1>   0.0800 
 29 H       -3.4080     2.6920    -0.0350 H     1 <1>   0.0800 
 30 H        4.2160     2.1460     0.1940 H     1 <1>   0.4500 
 31 H        3.5490     4.4460     1.4470 H     1 <1>   0.0800 
 32 H        2.4810     5.2710     0.3710 H     1 <1>   0.0800 
 33 H        3.3910     4.3520    -1.5270 H     1 <1>   0.0800 
 34 H        4.7970     4.3900    -0.4880 H     1 <1>   0.0800 
 35 H        4.8170     2.4490    -2.6550 H     1 <1>   0.0800 
 36 H        4.9990     0.9590    -1.7540 H     1 <1>   0.0800 
 37 H        6.3920     1.0520     0.4460 H     1 <1>   0.1500 
 38 H        6.5750     4.0600    -2.6000 H     1 <1>   0.1500 
 39 H        8.7020     4.8370    -1.6810 H     1 <1>   0.1500 
 40 H        9.6720     3.7520     0.2850 H     1 <1>   0.1500 
 41 H        7.9400     1.2280     2.3340 H     1 <1>   0.0800 
 42 H        9.2570     2.3690     2.2920 H     1 <1>   0.0800 
 43 H        9.3690     0.8780     1.3880 H     1 <1>   0.0800 
@<TRIPOS>BOND
  1   1   2  2   
  2   2   3  1   
  3   2   4  1   
  4   3   5  1   
  5   4   6  1   
  6   4   7  1   
  7   4  20  1   
  8   5   8  1   
  9   5  21  1   
 10   5  22  1   
 11   6   9  1   
 12   6  23  1   
 13   6  24  1   
 14   7  10  1   
 15   7  25  1   
 16   7  26  1   
 17   8  27  1   
 18   8  28  1   
 19   8  29  1   
 20   9  11  1   
 21   9  12  1   
 22   9  30  1   
 23  10  11  1   
 24  10  31  1   
 25  10  32  1   
 26  11  33  1   
 27  11  34  1   
 28  12  13  1   
 29  12  35  1   
 30  12  36  1   
 31  13  14  ar  
 32  13  15  ar  
 33  14  16  ar  
 34  14  37  1   
 35  15  17  ar  
 36  15  38  1   
 37  16  18  ar  
 38  16  19  1   
 39  17  18  ar  
 40  17  39  1   
 41  18  40  1   
 42  19  41  1   
 43  19  42  1   
 44  19  43  1   
@<TRIPOS>SUBSTRUCTURE
  1 ****   9 GROUP 4 **** **** 0

# MOE 2024.06 (io_trps.svl 2023.06)
