@<TRIPOS>MOLECULE
NONAME
34 34 1 0 0 
SMALL
USER_CHARGES


@<TRIPOS>ATOM
  1 F        0.3730     0.7680     1.3560 F     1 <1>  -0.3400 
  2 C        0.9270     1.5040     0.3860 C.3   1 <1>   0.6800 
  3 F        1.9140     2.1470     1.0240 F     1 <1>  -0.3400 
  4 C       -0.1010     2.5750    -0.1310 C.3   1 <1>   0.5600 
  5 C        1.5510     0.5550    -0.6640 C.3   1 <1>   0.6000 
  6 O       -1.1720     1.9970    -0.8210 O.3   1 <1>  -0.5600 
  7 O        0.4630     3.4530    -1.0500 O.3   1 <1>  -0.6800 
  8 C       -0.7180     3.4310     0.9750 C.3   1 <1>  -0.0990 
  9 F        2.2430     1.2120    -1.5950 F     1 <1>  -0.3400 
 10 F        0.6440    -0.1450    -1.3420 F     1 <1>  -0.3400 
 11 C       -2.3600     2.7380    -0.6990 C.3   1 <1>   0.3410 
 12 C       -2.0550     3.7520     0.4020 C.2   1 <1>   0.4480 
 13 C       -3.5170     1.7350    -0.3130 C.3   1 <1>   0.0000 
 14 C       -2.5730     3.4490    -2.0500 C.3   1 <1>  -0.2400 
 15 O       -2.7260     4.6750     0.7640 O.2   1 <1>  -0.5700 
 16 C       -3.6700     0.6080    -1.3590 C.3   1 <1>  -0.2400 
 17 C       -4.8860     2.4370    -0.1970 C.3   1 <1>  -0.2400 
 18 C       -3.2430     1.0530     1.0460 C.3   1 <1>  -0.2400 
 19 H        2.2190    -0.1490    -0.2070 H     1 <1>   0.0800 
 20 H        1.2940     3.8270    -0.7000 H     1 <1>   0.4000 
 21 H       -0.1460     4.3150     1.1860 H     1 <1>   0.0800 
 22 H       -0.8560     2.8730     1.8810 H     1 <1>   0.0800 
 23 H       -1.7560     4.1160    -2.2540 H     1 <1>   0.0800 
 24 H       -3.4680     4.0400    -2.0270 H     1 <1>   0.0800 
 25 H       -2.6400     2.7400    -2.8530 H     1 <1>   0.0800 
 26 H       -3.9730     1.0000    -2.3130 H     1 <1>   0.0800 
 27 H       -4.4160    -0.1010    -1.0470 H     1 <1>   0.0800 
 28 H       -2.7430     0.0790    -1.4900 H     1 <1>   0.0800 
 29 H       -5.1890     2.8600    -1.1370 H     1 <1>   0.0800 
 30 H       -4.8600     3.2230     0.5360 H     1 <1>   0.0800 
 31 H       -5.6450     1.7350     0.1020 H     1 <1>   0.0800 
 32 H       -2.3160     0.5090     1.0200 H     1 <1>   0.0800 
 33 H       -4.0250     0.3530     1.2810 H     1 <1>   0.0800 
 34 H       -3.2020     1.7730     1.8430 H     1 <1>   0.0800 
@<TRIPOS>BOND
  1   1   2  1   
  2   2   3  1   
  3   2   4  1   
  4   2   5  1   
  5   4   6  1   
  6   4   7  1   
  7   4   8  1   
  8   5   9  1   
  9   5  10  1   
 10   5  19  1   
 11   6  11  1   
 12   7  20  1   
 13   8  12  1   
 14   8  21  1   
 15   8  22  1   
 16  11  12  1   
 17  11  13  1   
 18  11  14  1   
 19  12  15  2   
 20  13  16  1   
 21  13  17  1   
 22  13  18  1   
 23  14  23  1   
 24  14  24  1   
 25  14  25  1   
 26  16  26  1   
 27  16  27  1   
 28  16  28  1   
 29  17  29  1   
 30  17  30  1   
 31  17  31  1   
 32  18  32  1   
 33  18  33  1   
 34  18  34  1   
@<TRIPOS>SUBSTRUCTURE
  1 ****   6 GROUP 4 **** **** 0

# MOE 2024.06 (io_trps.svl 2023.06)
