@<TRIPOS>MOLECULE
NONAME
47 49 1 0 0 
SMALL
USER_CHARGES


@<TRIPOS>ATOM
  1 S        0.6030     0.5100     0.9740 S.o2  1 <1>   1.4470 
  2 O       -0.0490    -0.6600     0.4290 O.2   1 <1>  -0.6500 
  3 O        0.8330     0.5910     2.4010 O.2   1 <1>  -0.6500 
  4 N        2.1260     0.6290     0.2360 N.am  1 <1>  -0.8490 
  5 C       -0.2580     1.9980     0.3930 C.ar  1 <1>  -0.0090 
  6 C        2.8350    -0.6530     0.2700 C.3   1 <1>   0.1960 
  7 C        2.9330     1.7070     0.8160 C.3   1 <1>   0.1960 
  8 C       -0.9000     2.8510     1.2550 C.ar  1 <1>  -0.1500 
  9 C       -0.2830     2.3080    -0.9780 C.ar  1 <1>  -0.1500 
 10 C        4.1400    -0.5620    -0.5260 C.3   1 <1>  -0.1600 
 11 C        4.2320     1.8800     0.0260 C.3   1 <1>  -0.1600 
 12 C       -1.5650     4.0130     0.8160 C.ar  1 <1>   0.0000 
 13 C       -0.9200     3.4260    -1.4420 C.ar  1 <1>  -0.1500 
 14 C        5.0400     0.5720    -0.0100 C.3   1 <1>  -0.0190 
 15 C       -1.5750     4.3080    -0.5620 C.ar  1 <1>   0.0000 
 16 C       -2.2210     4.8920     1.7020 C.ar  1 <1>  -0.1500 
 17 C        6.3070     0.7100    -0.8520 C.2   1 <1>   0.5690 
 18 C       -2.2380     5.4710    -1.0030 C.ar  1 <1>  -0.1500 
 19 C       -2.8570     6.0140     1.2470 C.ar  1 <1>  -0.1500 
 20 O        6.2260     1.0690    -2.0010 O.2   1 <1>  -0.5700 
 21 N        7.5040     0.4180    -0.2840 N.am  1 <1>  -0.7300 
 22 C       -2.8650     6.3070    -0.1210 C.ar  1 <1>  -0.1500 
 23 C        8.7980     0.5260    -0.9690 C.3   1 <1>   0.2780 
 24 C        9.8190     0.9440     0.0670 C.2   1 <1>  -0.2880 
 25 C       10.8580     0.2080     0.4750 C.2   1 <1>  -0.3000 
 26 H        2.2200    -1.4210    -0.1690 H     1 <1>   0.0800 
 27 H        3.0380    -0.9310     1.2920 H     1 <1>   0.0800 
 28 H        3.1590     1.4860     1.8480 H     1 <1>   0.0800 
 29 H        2.3830     2.6330     0.7850 H     1 <1>   0.0800 
 30 H       -0.9030     2.6390     2.3110 H     1 <1>   0.1500 
 31 H        0.2150     1.6390    -1.6610 H     1 <1>   0.1500 
 32 H        3.9000    -0.3930    -1.5630 H     1 <1>   0.0800 
 33 H        4.6630    -1.4990    -0.4620 H     1 <1>   0.0800 
 34 H        4.8230     2.6590     0.4750 H     1 <1>   0.0800 
 35 H        3.9900     2.1900    -0.9760 H     1 <1>   0.0800 
 36 H       -0.9300     3.6490    -2.4940 H     1 <1>   0.1500 
 37 H        5.3310     0.3340     0.9970 H     1 <1>   0.0800 
 38 H       -2.2120     4.6630     2.7520 H     1 <1>   0.1500 
 39 H       -2.2430     5.6910    -2.0550 H     1 <1>   0.1500 
 40 H       -3.3550     6.6820     1.9280 H     1 <1>   0.1500 
 41 H        7.5680     0.1010     0.6820 H     1 <1>   0.3700 
 42 H       -3.3710     7.1940    -0.4630 H     1 <1>   0.1500 
 43 H        8.7460     1.2550    -1.7610 H     1 <1>   0.0800 
 44 H        9.0590    -0.4290    -1.3930 H     1 <1>   0.0800 
 45 H        9.6190     1.9290     0.4550 H     1 <1>   0.1500 
 46 H       11.5710     0.5340     1.2140 H     1 <1>   0.1500 
 47 H       11.0880    -0.7780     0.1070 H     1 <1>   0.1500 
@<TRIPOS>BOND
  1   1   2  2   
  2   1   3  2   
  3   1   4  am  
  4   1   5  1   
  5   4   6  1   
  6   4   7  1   
  7   5   8  ar  
  8   5   9  ar  
  9   6  10  1   
 10   6  26  1   
 11   6  27  1   
 12   7  11  1   
 13   7  28  1   
 14   7  29  1   
 15   8  12  ar  
 16   8  30  1   
 17   9  13  ar  
 18   9  31  1   
 19  10  14  1   
 20  10  32  1   
 21  10  33  1   
 22  11  14  1   
 23  11  34  1   
 24  11  35  1   
 25  12  15  ar  
 26  12  16  ar  
 27  13  15  ar  
 28  13  36  1   
 29  14  17  1   
 30  14  37  1   
 31  15  18  ar  
 32  16  19  ar  
 33  16  38  1   
 34  17  20  2   
 35  17  21  am  
 36  18  22  ar  
 37  18  39  1   
 38  19  22  ar  
 39  19  40  1   
 40  21  23  1   
 41  21  41  1   
 42  22  42  1   
 43  23  24  1   
 44  23  43  1   
 45  23  44  1   
 46  24  25  2   
 47  24  45  1   
 48  25  46  1   
 49  25  47  1   
@<TRIPOS>SUBSTRUCTURE
  1 ****   7 GROUP 4 **** **** 0

# MOE 2024.06 (io_trps.svl 2023.06)
