@<TRIPOS>MOLECULE
NONAME
34 35 1 0 0 
SMALL
USER_CHARGES


@<TRIPOS>ATOM
  1 O        0.3970     0.1240     0.0690 O.2   1 <1>  -0.5700 
  2 C        0.1770     1.3180     0.0360 C.2   1 <1>   0.7800 
  3 O        1.2310     2.1600     0.0240 O.3   1 <1>  -0.0870 
  4 N       -1.0730     1.8750     0.0090 N.am  1 <1>  -0.5470 
  5 N        1.0900     3.4920    -0.0180 N.2   1 <1>  -0.5130 
  6 C       -2.3720     1.3420     0.0100 C.ar  1 <1>   0.1170 
  7 C        2.1400     4.1910    -0.0250 C.2   1 <1>   0.3280 
  8 C       -3.4450     2.2210    -0.0960 C.ar  1 <1>  -0.1500 
  9 C       -2.6440    -0.0190     0.1140 C.ar  1 <1>  -0.1500 
 10 C        2.1500     5.7030    -0.0630 C.3   1 <1>  -0.0990 
 11 C        3.5720     3.6900     0.0090 C.3   1 <1>  -0.0990 
 12 C       -4.7510     1.7630    -0.1000 C.ar  1 <1>  -0.1500 
 13 C       -3.9480    -0.4820     0.1110 C.ar  1 <1>  -0.1500 
 14 C        3.5910     6.1030     0.2590 C.3   1 <1>  -0.1600 
 15 C        4.4410     4.9280    -0.2260 C.3   1 <1>  -0.1600 
 16 C       -5.0100     0.4000     0.0040 C.ar  1 <1>   0.0830 
 17 O       -6.2580    -0.1390     0.0090 O.3   1 <1>  -0.3630 
 18 C       -7.4020     0.6790    -0.0970 C.3   1 <1>   0.0400 
 19 H       -0.9990     2.8910    -0.0260 H     1 <1>   0.3700 
 20 H       -3.2580     3.2760    -0.1780 H     1 <1>   0.1500 
 21 H       -1.8440    -0.7300     0.2000 H     1 <1>   0.1500 
 22 H        1.8890     6.0240    -1.0560 H     1 <1>   0.0800 
 23 H        1.4520     6.1170     0.6430 H     1 <1>   0.0800 
 24 H        3.7700     3.2750     0.9820 H     1 <1>   0.0800 
 25 H        3.7430     2.9390    -0.7410 H     1 <1>   0.0800 
 26 H       -5.5480     2.4760    -0.1840 H     1 <1>   0.1500 
 27 H       -4.1490    -1.5350     0.1920 H     1 <1>   0.1500 
 28 H        3.8710     7.0290    -0.2140 H     1 <1>   0.0800 
 29 H        3.7020     6.2050     1.3260 H     1 <1>   0.0800 
 30 H        5.3820     4.8670     0.2920 H     1 <1>   0.0800 
 31 H        4.6270     5.0370    -1.2810 H     1 <1>   0.0800 
 32 H       -8.2690     0.0440    -0.0730 H     1 <1>   0.0800 
 33 H       -7.3640     1.2110    -1.0310 H     1 <1>   0.0800 
 34 H       -7.4230     1.3590     0.7360 H     1 <1>   0.0800 
@<TRIPOS>BOND
  1   1   2  2   
  2   2   3  1   
  3   2   4  am  
  4   3   5  1   
  5   4   6  1   
  6   4  19  1   
  7   5   7  2   
  8   6   8  ar  
  9   6   9  ar  
 10   7  10  1   
 11   7  11  1   
 12   8  12  ar  
 13   8  20  1   
 14   9  13  ar  
 15   9  21  1   
 16  10  14  1   
 17  10  22  1   
 18  10  23  1   
 19  11  15  1   
 20  11  24  1   
 21  11  25  1   
 22  12  16  ar  
 23  12  26  1   
 24  13  16  ar  
 25  13  27  1   
 26  14  15  1   
 27  14  28  1   
 28  14  29  1   
 29  15  30  1   
 30  15  31  1   
 31  16  17  1   
 32  17  18  1   
 33  18  32  1   
 34  18  33  1   
 35  18  34  1   
@<TRIPOS>SUBSTRUCTURE
  1 ****   4 GROUP 4 **** **** 0

# MOE 2024.06 (io_trps.svl 2023.06)
