@<TRIPOS>MOLECULE
NONAME
42 43 1 0 0 
SMALL
USER_CHARGES


@<TRIPOS>ATOM
  1 BR      -0.3290     1.1200     3.8970 Br    1 <1>  -0.1110 
  2 C       -1.5810     1.1050     2.4420 C.ar  1 <1>   0.1110 
  3 C       -1.3430     1.9030     1.3420 C.ar  1 <1>  -0.1500 
  4 C       -2.6980     0.2980     2.5250 C.ar  1 <1>  -0.1500 
  5 C       -2.2520     1.8810     0.3000 C.ar  1 <1>  -0.1500 
  6 C       -3.5960     0.2900     1.4730 C.ar  1 <1>  -0.1500 
  7 C       -3.3990     1.0750     0.3260 C.ar  1 <1>   0.0860 
  8 C       -4.3010     1.0930    -0.8120 C.2   1 <1>   0.4230 
  9 O       -4.2510     1.9550    -1.6550 O.2   1 <1>  -0.5700 
 10 C       -5.3260    -0.0200    -1.0400 C.3   1 <1>   0.1810 
 11 O       -6.6520     0.4870    -1.0150 O.3   1 <1>  -0.4300 
 12 C       -7.2550     0.8520     0.1110 C.2   1 <1>   0.6590 
 13 O       -6.7220     0.6620     1.1770 O.2   1 <1>  -0.5700 
 14 C       -8.6330     1.5420    -0.0470 C.3   1 <1>   0.0610 
 15 C       -9.5330     0.6300    -0.9400 C.3   1 <1>  -0.1600 
 16 C       -9.3010     1.7680     1.3450 C.3   1 <1>  -0.1600 
 17 C       -8.3720     2.9190    -0.7280 C.3   1 <1>  -0.1600 
 18 C      -11.0060     0.5930    -0.5060 C.3   1 <1>  -0.1600 
 19 C       -9.9940     0.4990     1.8590 C.3   1 <1>  -0.1600 
 20 C       -9.6010     3.7420    -1.1550 C.3   1 <1>  -0.2400 
 21 C      -11.1490     0.0720     0.9350 C.3   1 <1>  -0.1600 
 22 H       -0.4670     2.5270     1.3050 H     1 <1>   0.1500 
 23 H       -2.8610    -0.3070     3.4000 H     1 <1>   0.1500 
 24 H       -2.0730     2.5050    -0.5590 H     1 <1>   0.1500 
 25 H       -4.4650    -0.3320     1.5710 H     1 <1>   0.1500 
 26 H       -5.2470    -0.8160    -0.3240 H     1 <1>   0.0800 
 27 H       -5.1680    -0.4320    -2.0190 H     1 <1>   0.0800 
 28 H       -9.1710    -0.3840    -0.8880 H     1 <1>   0.0800 
 29 H       -9.4590     0.9270    -1.9710 H     1 <1>   0.0800 
 30 H      -10.0460     2.5380     1.2900 H     1 <1>   0.0800 
 31 H       -8.5700     2.1020     2.0610 H     1 <1>   0.0800 
 32 H       -7.7760     2.7590    -1.6110 H     1 <1>   0.0800 
 33 H       -7.7750     3.5190    -0.0630 H     1 <1>   0.0800 
 34 H      -11.5710    -0.0340    -1.1730 H     1 <1>   0.0800 
 35 H      -11.4210     1.5840    -0.5670 H     1 <1>   0.0800 
 36 H      -10.3700     0.6630     2.8540 H     1 <1>   0.0800 
 37 H       -9.2690    -0.2960     1.9170 H     1 <1>   0.0800 
 38 H      -10.1980     3.2060    -1.8700 H     1 <1>   0.0800 
 39 H       -9.2730     4.6550    -1.6200 H     1 <1>   0.0800 
 40 H      -10.2160     4.0070    -0.3150 H     1 <1>   0.0800 
 41 H      -11.2010    -1.0030     0.9250 H     1 <1>   0.0800 
 42 H      -12.0810     0.4340     1.3370 H     1 <1>   0.0800 
@<TRIPOS>BOND
  1   1   2  1   
  2   2   3  ar  
  3   2   4  ar  
  4   3   5  ar  
  5   3  22  1   
  6   4   6  ar  
  7   4  23  1   
  8   5   7  ar  
  9   5  24  1   
 10   6   7  ar  
 11   6  25  1   
 12   7   8  1   
 13   8   9  2   
 14   8  10  1   
 15  10  11  1   
 16  10  26  1   
 17  10  27  1   
 18  11  12  1   
 19  12  13  2   
 20  12  14  1   
 21  14  15  1   
 22  14  16  1   
 23  14  17  1   
 24  15  18  1   
 25  15  28  1   
 26  15  29  1   
 27  16  19  1   
 28  16  30  1   
 29  16  31  1   
 30  17  20  1   
 31  17  32  1   
 32  17  33  1   
 33  18  21  1   
 34  18  34  1   
 35  18  35  1   
 36  19  21  1   
 37  19  36  1   
 38  19  37  1   
 39  20  38  1   
 40  20  39  1   
 41  20  40  1   
 42  21  41  1   
 43  21  42  1   
@<TRIPOS>SUBSTRUCTURE
  1 ****  13 GROUP 4 **** **** 0

# MOE 2024.06 (io_trps.svl 2023.06)
