@<TRIPOS>MOLECULE
NONAME
59 62 1 0 0 
SMALL
USER_CHARGES


@<TRIPOS>ATOM
  1 O        0.3810    -1.2450    -1.6630 O.2   1 <1>  -0.5700 
  2 C        0.5690    -2.0500    -0.7820 C.2   1 <1>   0.5690 
  3 N        1.6470    -2.0850     0.0590 N.am  1 <1>  -0.2370 
  4 C       -0.3920    -3.2240    -0.5200 C.3   1 <1>   0.2510 
  5 C        2.7010    -1.1380     0.0770 C.ar  1 <1>   0.1170 
  6 C        1.5750    -3.2010     0.8470 C.2   1 <1>   0.5690 
  7 N       -1.7790    -2.8940    -0.0380 N.3   1 <1>  -0.8100 
  8 C        0.3470    -4.0260     0.5590 C.3   1 <1>  -0.0990 
  9 C        4.0310    -1.5490     0.1000 C.ar  1 <1>  -0.1500 
 10 C        2.4330     0.2270     0.0720 C.ar  1 <1>  -0.1500 
 11 O        2.3710    -3.5470     1.6790 O.2   1 <1>  -0.5700 
 12 C       -2.6650    -4.0810    -0.0930 C.3   1 <1>   0.1100 
 13 C       -2.3870    -1.7500    -0.7640 C.3   1 <1>   0.1100 
 14 C        5.0640    -0.6280     0.1190 C.ar  1 <1>  -0.1500 
 15 C        3.4620     1.1520     0.0900 C.ar  1 <1>  -0.1500 
 16 C       -4.0820    -3.7690     0.4330 C.3   1 <1>   0.3430 
 17 C       -3.8100    -1.4260    -0.2640 C.3   1 <1>   0.3430 
 18 C        4.7820     0.7350     0.1140 C.ar  1 <1>   0.0830 
 19 N       -4.7150    -2.6280    -0.3120 N.4   1 <1>  -0.9590 
 20 O        5.7310     1.7070     0.1330 O.3   1 <1>  -0.3630 
 21 C       -6.0770    -2.3420     0.2370 C.3   1 <1>   0.3430 
 22 C        7.1010     1.3850     0.1790 C.3   1 <1>   0.1200 
 23 C       -6.8730    -1.3800    -0.6510 C.3   1 <1>  -0.0170 
 24 C        7.8910     2.6900     0.2020 C.3   1 <1>  -0.2400 
 25 C       -8.2670    -1.2210    -0.0740 C.ar  1 <1>  -0.1430 
 26 C       -9.3180    -2.0240    -0.4730 C.ar  1 <1>  -0.1500 
 27 C       -8.5550    -0.2690     0.8840 C.ar  1 <1>  -0.1500 
 28 C      -10.5680    -1.8470     0.0980 C.ar  1 <1>   0.1600 
 29 C       -9.8410    -0.1750     1.3900 C.ar  1 <1>   0.1600 
 30 N      -10.8490    -0.9460     1.0230 N.ar  1 <1>  -0.6200 
 31 H       -0.4520    -3.7960    -1.4300 H     1 <1>   0.0800 
 32 H        0.6470    -4.9900     0.1920 H     1 <1>   0.0800 
 33 H       -0.2210    -4.1310     1.4650 H     1 <1>   0.0800 
 34 H        4.2650    -2.5980     0.1080 H     1 <1>   0.1500 
 35 H        1.4160     0.5740     0.0500 H     1 <1>   0.1500 
 36 H       -2.2500    -4.8710     0.5110 H     1 <1>   0.0800 
 37 H       -2.7330    -4.4440    -1.1050 H     1 <1>   0.0800 
 38 H       -2.4070    -1.9500    -1.8230 H     1 <1>   0.0800 
 39 H       -1.7910    -0.8670    -0.6090 H     1 <1>   0.0800 
 40 H        6.0740    -0.9900     0.1380 H     1 <1>   0.1500 
 41 H        3.2490     2.2050     0.0840 H     1 <1>   0.1500 
 42 H       -4.0080    -3.5230     1.4800 H     1 <1>   0.0800 
 43 H       -4.6940    -4.6510     0.3420 H     1 <1>   0.0800 
 44 H       -4.2160    -0.6310    -0.8680 H     1 <1>   0.0800 
 45 H       -3.7360    -1.0680     0.7490 H     1 <1>   0.0800 
 46 H       -4.8040    -2.9140    -1.2960 H     1 <1>   0.4500 
 47 H       -5.9940    -1.9250     1.2280 H     1 <1>   0.0800 
 48 H       -6.6330    -3.2630     0.3160 H     1 <1>   0.0800 
 49 H        7.3460     0.8080    -0.6960 H     1 <1>   0.0800 
 50 H        7.2870     0.8120     1.0710 H     1 <1>   0.0800 
 51 H       -6.9460    -1.7710    -1.6500 H     1 <1>   0.0800 
 52 H       -6.4010    -0.4150    -0.6900 H     1 <1>   0.0800 
 53 H        7.6840     3.2620    -0.6850 H     1 <1>   0.0800 
 54 H        8.9440     2.4790     0.2370 H     1 <1>   0.0800 
 55 H        7.6260     3.2660     1.0700 H     1 <1>   0.0800 
 56 H       -9.1910    -2.7850    -1.2210 H     1 <1>   0.1500 
 57 H       -7.8030     0.4080     1.2470 H     1 <1>   0.1500 
 58 H      -11.3800    -2.4790    -0.2230 H     1 <1>   0.1500 
 59 H      -10.0530     0.5730     2.1370 H     1 <1>   0.1500 
@<TRIPOS>BOND
  1   1   2  2   
  2   2   3  am  
  3   2   4  1   
  4   3   5  1   
  5   3   6  am  
  6   4   7  1   
  7   4   8  1   
  8   4  31  1   
  9   5   9  ar  
 10   5  10  ar  
 11   6   8  1   
 12   6  11  2   
 13   7  12  1   
 14   7  13  1   
 15   8  32  1   
 16   8  33  1   
 17   9  14  ar  
 18   9  34  1   
 19  10  15  ar  
 20  10  35  1   
 21  12  16  1   
 22  12  36  1   
 23  12  37  1   
 24  13  17  1   
 25  13  38  1   
 26  13  39  1   
 27  14  18  ar  
 28  14  40  1   
 29  15  18  ar  
 30  15  41  1   
 31  16  19  1   
 32  16  42  1   
 33  16  43  1   
 34  17  19  1   
 35  17  44  1   
 36  17  45  1   
 37  18  20  1   
 38  19  21  1   
 39  19  46  1   
 40  20  22  1   
 41  21  23  1   
 42  21  47  1   
 43  21  48  1   
 44  22  24  1   
 45  22  49  1   
 46  22  50  1   
 47  23  25  1   
 48  23  51  1   
 49  23  52  1   
 50  24  53  1   
 51  24  54  1   
 52  24  55  1   
 53  25  26  ar  
 54  25  27  ar  
 55  26  28  ar  
 56  26  56  1   
 57  27  29  ar  
 58  27  57  1   
 59  28  30  ar  
 60  28  58  1   
 61  29  30  ar  
 62  29  59  1   
@<TRIPOS>SUBSTRUCTURE
  1 ****  13 GROUP 4 **** **** 0

# MOE 2024.06 (io_trps.svl 2023.06)
