@<TRIPOS>MOLECULE
NONAME
45 46 1 0 0 
SMALL
USER_CHARGES


@<TRIPOS>ATOM
  1 O       -1.7640     0.0060     1.4540 O.2   1 <1>  -0.5700 
  2 C       -1.5550     0.4250     0.3460 C.2   1 <1>   0.6590 
  3 O       -2.4950     0.9520    -0.4330 O.3   1 <1>  -0.4300 
  4 C       -0.1630     0.3840    -0.2550 C.3   1 <1>  -0.0990 
  5 C       -3.8830     1.1270    -0.1560 C.3   1 <1>   0.2000 
  6 C       -0.0350    -0.6410    -1.3930 C.3   1 <1>  -0.2400 
  7 C       -4.1750     2.5040     0.5330 C.3   1 <1>   0.0000 
  8 C       -4.5040    -0.1200     0.5190 C.3   1 <1>  -0.0220 
  9 C       -5.5360     2.5140     1.2740 C.3   1 <1>  -0.0220 
 10 C       -3.1070     2.8890     1.5800 C.3   1 <1>  -0.2400 
 11 C       -4.1800     3.6070    -0.5430 C.3   1 <1>  -0.2400 
 12 C       -6.0020    -0.3430     0.2630 C.2   1 <1>  -0.2760 
 13 C       -6.7640     2.1280     0.4540 C.2   1 <1>  -0.2760 
 14 C       -6.5340    -1.5390     0.5500 C.2   1 <1>  -0.3000 
 15 C       -6.7800     0.8380    -0.3470 C.3   1 <1>   0.1960 
 16 C       -7.9150     2.7870     0.3320 C.2   1 <1>  -0.2760 
 17 C       -8.2890     0.6280    -0.5610 C.3   1 <1>  -0.1600 
 18 C       -8.9130     2.0290    -0.5110 C.3   1 <1>  -0.0220 
 19 C       -8.3670     4.1210     0.9010 C.3   1 <1>  -0.1020 
 20 H        0.5370     0.1410     0.5240 H     1 <1>   0.0800 
 21 H        0.0770     1.3650    -0.6220 H     1 <1>   0.0800 
 22 H       -4.3110     1.1710    -1.1380 H     1 <1>   0.0800 
 23 H       -0.2660    -1.6280    -1.0310 H     1 <1>   0.0800 
 24 H        0.9680    -0.6420    -1.7810 H     1 <1>   0.0800 
 25 H       -0.7140    -0.3990    -2.1920 H     1 <1>   0.0800 
 26 H       -4.3420    -0.0670     1.5810 H     1 <1>   0.0800 
 27 H       -3.9870    -0.9930     0.1620 H     1 <1>   0.0800 
 28 H       -5.6900     3.4920     1.6880 H     1 <1>   0.0800 
 29 H       -5.4890     1.8470     2.1160 H     1 <1>   0.0800 
 30 H       -3.3580     3.8200     2.0570 H     1 <1>   0.0800 
 31 H       -3.0340     2.1330     2.3420 H     1 <1>   0.0800 
 32 H       -2.1410     3.0100     1.1230 H     1 <1>   0.0800 
 33 H       -3.2350     3.6370    -1.0560 H     1 <1>   0.0800 
 34 H       -4.9550     3.4270    -1.2670 H     1 <1>   0.0800 
 35 H       -4.3580     4.5710    -0.1000 H     1 <1>   0.0800 
 36 H       -7.5600    -1.8210     0.4000 H     1 <1>   0.1500 
 37 H       -5.9700    -2.3540     0.9710 H     1 <1>   0.1500 
 38 H       -6.3710     1.0520    -1.3170 H     1 <1>   0.0800 
 39 H       -8.6910     0.0710     0.2650 H     1 <1>   0.0800 
 40 H       -8.5010     0.1130    -1.4800 H     1 <1>   0.0800 
 41 H       -8.9780     2.4680    -1.4910 H     1 <1>   0.0800 
 42 H       -9.8860     1.9980    -0.0530 H     1 <1>   0.0800 
 43 H       -9.2200     3.9760     1.5390 H     1 <1>   0.0800 
 44 H       -8.6400     4.7860     0.1020 H     1 <1>   0.0800 
 45 H       -7.5900     4.5870     1.4770 H     1 <1>   0.0800 
@<TRIPOS>BOND
  1   1   2  2   
  2   2   3  1   
  3   2   4  1   
  4   3   5  1   
  5   4   6  1   
  6   4  20  1   
  7   4  21  1   
  8   5   7  1   
  9   5   8  1   
 10   5  22  1   
 11   6  23  1   
 12   6  24  1   
 13   6  25  1   
 14   7   9  1   
 15   7  10  1   
 16   7  11  1   
 17   8  12  1   
 18   8  26  1   
 19   8  27  1   
 20   9  13  1   
 21   9  28  1   
 22   9  29  1   
 23  10  30  1   
 24  10  31  1   
 25  10  32  1   
 26  11  33  1   
 27  11  34  1   
 28  11  35  1   
 29  12  14  2   
 30  12  15  1   
 31  13  15  1   
 32  13  16  2   
 33  14  36  1   
 34  14  37  1   
 35  15  17  1   
 36  15  38  1   
 37  16  18  1   
 38  16  19  1   
 39  17  18  1   
 40  17  39  1   
 41  17  40  1   
 42  18  41  1   
 43  18  42  1   
 44  19  43  1   
 45  19  44  1   
 46  19  45  1   
@<TRIPOS>SUBSTRUCTURE
  1 ****   5 GROUP 4 **** **** 0

# MOE 2024.06 (io_trps.svl 2023.06)
