@<TRIPOS>MOLECULE
NONAME
41 41 1 0 0 
SMALL
USER_CHARGES


@<TRIPOS>ATOM
  1 O       -1.7590     0.7120     0.7310 O.3   1 <1>  -0.3630 
  2 C       -0.8310     1.6630     0.4060 C.ar  1 <1>   0.0830 
  3 C       -1.3560    -0.5990     1.0800 C.3   1 <1>   0.0400 
  4 C        0.4180     1.7990     1.0350 C.ar  1 <1>   0.0830 
  5 C       -1.1920     2.5450    -0.6090 C.ar  1 <1>  -0.1440 
  6 O        0.7410     0.9770     2.0750 O.3   1 <1>  -0.3620 
  7 C        1.2900     2.7920     0.5980 C.ar  1 <1>  -0.1500 
  8 C       -0.3100     3.5290    -1.0260 C.ar  1 <1>  -0.1500 
  9 C       -2.5570     2.4350    -1.2610 C.3   1 <1>   0.4860 
 10 C        1.9660     1.0820     2.7690 C.3   1 <1>   0.0400 
 11 C        0.9290     3.6470    -0.4270 C.ar  1 <1>  -0.1500 
 12 N       -3.5950     2.6320    -0.2160 N.4   1 <1>  -0.9590 
 13 C       -4.9370     2.2060    -0.6880 C.3   1 <1>   0.3430 
 14 C       -3.5610     4.0160     0.3510 C.3   1 <1>   0.2630 
 15 C       -5.8760     1.9960     0.5000 C.3   1 <1>  -0.1600 
 16 C       -7.2270     1.4370     0.0340 C.3   1 <1>  -0.1600 
 17 C       -8.1690     1.2220     1.2220 C.3   1 <1>  -0.2400 
 18 H       -1.1170    -0.6240     2.1280 H     1 <1>   0.0800 
 19 H       -0.4980    -0.8760     0.4920 H     1 <1>   0.0800 
 20 H       -2.1700    -1.2720     0.8810 H     1 <1>   0.0800 
 21 H        2.2590     2.9230     1.0410 H     1 <1>   0.1500 
 22 H       -0.5700     4.2110    -1.8190 H     1 <1>   0.1500 
 23 H       -2.6540     1.4530    -1.6950 H     1 <1>   0.0800 
 24 H       -2.6630     3.1710    -2.0410 H     1 <1>   0.0800 
 25 H        2.0380     2.0620     3.2090 H     1 <1>   0.0800 
 26 H        2.7750     0.9050     2.0830 H     1 <1>   0.0800 
 27 H        1.9770     0.3360     3.5430 H     1 <1>   0.0800 
 28 H        1.6180     4.4090    -0.7550 H     1 <1>   0.1500 
 29 H       -3.2890     1.9760     0.5290 H     1 <1>   0.4500 
 30 H       -4.8500     1.2740    -1.2240 H     1 <1>   0.0800 
 31 H       -5.3490     2.9440    -1.3570 H     1 <1>   0.0800 
 32 H       -3.8400     4.7370    -0.4000 H     1 <1>   0.0800 
 33 H       -2.5690     4.2500     0.7040 H     1 <1>   0.0800 
 34 H       -4.2420     4.0990     1.1820 H     1 <1>   0.0800 
 35 H       -6.0470     2.9290     1.0070 H     1 <1>   0.0800 
 36 H       -5.4320     1.3000     1.1910 H     1 <1>   0.0800 
 37 H       -7.0820     0.4950    -0.4700 H     1 <1>   0.0800 
 38 H       -7.6900     2.1190    -0.6590 H     1 <1>   0.0800 
 39 H       -7.7460     0.5230     1.9220 H     1 <1>   0.0800 
 40 H       -9.1100     0.8270     0.8780 H     1 <1>   0.0800 
 41 H       -8.3590     2.1500     1.7310 H     1 <1>   0.0800 
@<TRIPOS>BOND
  1   1   2  1   
  2   1   3  1   
  3   2   4  ar  
  4   2   5  ar  
  5   3  18  1   
  6   3  19  1   
  7   3  20  1   
  8   4   6  1   
  9   4   7  ar  
 10   5   8  ar  
 11   5   9  1   
 12   6  10  1   
 13   7  11  ar  
 14   7  21  1   
 15   8  11  ar  
 16   8  22  1   
 17   9  12  1   
 18   9  23  1   
 19   9  24  1   
 20  10  25  1   
 21  10  26  1   
 22  10  27  1   
 23  11  28  1   
 24  12  13  1   
 25  12  14  1   
 26  12  29  1   
 27  13  15  1   
 28  13  30  1   
 29  13  31  1   
 30  14  32  1   
 31  14  33  1   
 32  14  34  1   
 33  15  16  1   
 34  15  35  1   
 35  15  36  1   
 36  16  17  1   
 37  16  37  1   
 38  16  38  1   
 39  17  39  1   
 40  17  40  1   
 41  17  41  1   
@<TRIPOS>SUBSTRUCTURE
  1 ****   2 GROUP 4 **** **** 0

# MOE 2024.06 (io_trps.svl 2023.06)
