@<TRIPOS>MOLECULE
NONAME
51 53 1 0 0 
SMALL
USER_CHARGES


@<TRIPOS>ATOM
  1 O       -1.7430    -0.4640     0.6010 O.2   1 <1>  -0.5700 
  2 C       -1.3720    -1.0560    -0.3940 C.2   1 <1>   0.6900 
  3 N       -2.2150    -1.1230    -1.4620 N.am  1 <1>  -0.6600 
  4 N       -0.1880    -1.7190    -0.4790 N.am  1 <1>  -0.5470 
  5 C       -3.0270    -2.3650    -1.5830 C.3   1 <1>   0.1400 
  6 C       -2.9880     0.1080    -1.8000 C.3   1 <1>   0.1400 
  7 C        0.8130    -1.9960     0.4640 C.ar  1 <1>   0.1170 
  8 C       -4.2810    -2.2620    -0.6880 C.3   1 <1>   0.3430 
  9 C       -4.2510     0.2130    -0.9190 C.3   1 <1>   0.3430 
 10 C        1.7460    -2.9790     0.1600 C.ar  1 <1>  -0.1500 
 11 C        0.9270    -1.3370     1.6860 C.ar  1 <1>  -0.1500 
 12 N       -5.1050    -1.0330    -0.9870 N.4   1 <1>  -0.9590 
 13 C        2.7590    -3.3110     1.0410 C.ar  1 <1>   0.0820 
 14 C        1.9360    -1.6600     2.5750 C.ar  1 <1>  -0.1500 
 15 C       -6.2590    -0.9640    -0.0360 C.3   1 <1>   0.3430 
 16 O        3.6120    -4.2890     0.6460 O.3   1 <1>  -0.3620 
 17 C        2.8540    -2.6460     2.2600 C.ar  1 <1>  -0.1500 
 18 C       -7.2790     0.1060    -0.4320 C.3   1 <1>  -0.0170 
 19 C        4.6740    -4.7090     1.4730 C.3   1 <1>   0.0400 
 20 C       -8.4600     0.0180     0.5140 C.ar  1 <1>  -0.1440 
 21 C       -9.5860    -0.7130     0.1660 C.ar  1 <1>  -0.1500 
 22 C       -8.4170     0.6600     1.7430 C.ar  1 <1>  -0.1500 
 23 C      -10.6550    -0.8050     1.0400 C.ar  1 <1>  -0.1500 
 24 C       -9.4860     0.5670     2.6160 C.ar  1 <1>  -0.1500 
 25 C      -10.6050    -0.1660     2.2660 C.ar  1 <1>  -0.1500 
 26 H       -0.0030    -2.0760    -1.4120 H     1 <1>   0.3700 
 27 H       -2.4400    -3.2140    -1.2720 H     1 <1>   0.0800 
 28 H       -3.3100    -2.5170    -2.6100 H     1 <1>   0.0800 
 29 H       -3.2570     0.0940    -2.8410 H     1 <1>   0.0800 
 30 H       -2.3680     0.9740    -1.6320 H     1 <1>   0.0800 
 31 H       -3.9550    -2.2330     0.3400 H     1 <1>   0.0800 
 32 H       -4.8820    -3.1480    -0.8180 H     1 <1>   0.0800 
 33 H       -4.8220     1.0720    -1.2290 H     1 <1>   0.0800 
 34 H       -3.9340     0.3780     0.0990 H     1 <1>   0.0800 
 35 H        1.6940    -3.5050    -0.7740 H     1 <1>   0.1500 
 36 H        0.2340    -0.5620     1.9530 H     1 <1>   0.1500 
 37 H       -5.4710    -1.1230    -1.9440 H     1 <1>   0.4500 
 38 H        2.0050    -1.1400     3.5150 H     1 <1>   0.1500 
 39 H       -5.9020    -0.7610     0.9620 H     1 <1>   0.0800 
 40 H       -6.7650    -1.9160    -0.0140 H     1 <1>   0.0800 
 41 H        3.6260    -2.8780     2.9680 H     1 <1>   0.1500 
 42 H       -7.6170    -0.0540    -1.4400 H     1 <1>   0.0800 
 43 H       -6.8510     1.0900    -0.3620 H     1 <1>   0.0800 
 44 H        5.2090    -5.4870     0.9590 H     1 <1>   0.0800 
 45 H        4.2710    -5.0890     2.3940 H     1 <1>   0.0800 
 46 H        5.3280    -3.8740     1.6520 H     1 <1>   0.0800 
 47 H       -9.6490    -1.2140    -0.7840 H     1 <1>   0.1500 
 48 H       -7.5590     1.2400     2.0350 H     1 <1>   0.1500 
 49 H      -11.5300    -1.3710     0.7670 H     1 <1>   0.1500 
 50 H       -9.4510     1.0660     3.5690 H     1 <1>   0.1500 
 51 H      -11.4380    -0.2380     2.9450 H     1 <1>   0.1500 
@<TRIPOS>BOND
  1   1   2  2   
  2   2   3  am  
  3   2   4  am  
  4   3   5  1   
  5   3   6  1   
  6   4   7  1   
  7   4  26  1   
  8   5   8  1   
  9   5  27  1   
 10   5  28  1   
 11   6   9  1   
 12   6  29  1   
 13   6  30  1   
 14   7  10  ar  
 15   7  11  ar  
 16   8  12  1   
 17   8  31  1   
 18   8  32  1   
 19   9  12  1   
 20   9  33  1   
 21   9  34  1   
 22  10  13  ar  
 23  10  35  1   
 24  11  14  ar  
 25  11  36  1   
 26  12  15  1   
 27  12  37  1   
 28  13  16  1   
 29  13  17  ar  
 30  14  17  ar  
 31  14  38  1   
 32  15  18  1   
 33  15  39  1   
 34  15  40  1   
 35  16  19  1   
 36  17  41  1   
 37  18  20  1   
 38  18  42  1   
 39  18  43  1   
 40  19  44  1   
 41  19  45  1   
 42  19  46  1   
 43  20  21  ar  
 44  20  22  ar  
 45  21  23  ar  
 46  21  47  1   
 47  22  24  ar  
 48  22  48  1   
 49  23  25  ar  
 50  23  49  1   
 51  24  25  ar  
 52  24  50  1   
 53  25  51  1   
@<TRIPOS>SUBSTRUCTURE
  1 ****   1 GROUP 4 **** **** 0

# MOE 2024.06 (io_trps.svl 2023.06)
