@<TRIPOS>MOLECULE
NONAME
40 41 1 0 0 
SMALL
USER_CHARGES


@<TRIPOS>ATOM
  1 S        0.9270    -0.0040    -1.8500 S.3   1 <1>  -0.0800 
  2 C        1.9230    -1.3300    -1.3480 C.2   1 <1>   0.4420 
  3 C       -0.3500    -0.7080    -0.9150 C.2   1 <1>   0.1980 
  4 N        1.2930    -2.1510    -0.5880 N.2   1 <1>  -0.3380 
  5 N        3.2180    -1.3410    -1.8080 N.am  1 <1>  -0.4940 
  6 N       -0.0040    -1.7900    -0.3460 N.2   1 <1>  -0.3380 
  7 C       -1.6900     0.0010    -0.8650 C.3   1 <1>   0.0200 
  8 C        4.2150    -2.2350    -1.6030 C.2   1 <1>   0.7800 
  9 C       -1.8540     0.8150     0.4250 C.3   1 <1>  -0.0160 
 10 O        5.3020    -2.0550    -2.1080 O.2   1 <1>  -0.5700 
 11 O        3.9880    -3.3050    -0.8480 O.3   1 <1>  -0.4300 
 12 C       -0.8240     1.9310     0.5190 C.ar  1 <1>  -0.1430 
 13 C        4.9950    -4.2610    -0.6100 C.3   1 <1>   0.1200 
 14 C       -1.0780     3.1690    -0.0510 C.ar  1 <1>  -0.1500 
 15 C        0.3790     1.7180     1.1750 C.ar  1 <1>  -0.1500 
 16 C        4.4130    -5.3510     0.2900 C.3   1 <1>  -0.1600 
 17 C       -0.1370     4.1820     0.0310 C.ar  1 <1>  -0.1500 
 18 C        1.3200     2.7290     1.2570 C.ar  1 <1>  -0.1500 
 19 C        5.4560    -6.4340     0.5950 C.3   1 <1>  -0.1600 
 20 C        1.0620     3.9620     0.6840 C.ar  1 <1>  -0.1500 
 21 C        4.8690    -7.5240     1.4960 C.3   1 <1>  -0.2400 
 22 H        3.5050    -0.5660    -2.3960 H     1 <1>   0.3700 
 23 H       -2.4670    -0.7410    -0.9120 H     1 <1>   0.0800 
 24 H       -1.7920     0.6450    -1.7200 H     1 <1>   0.0800 
 25 H       -1.7560     0.1600     1.2740 H     1 <1>   0.0800 
 26 H       -2.8420     1.2380     0.4560 H     1 <1>   0.0800 
 27 H        5.8250    -3.7680    -0.1320 H     1 <1>   0.0800 
 28 H        5.3090    -4.6670    -1.5560 H     1 <1>   0.0800 
 29 H       -2.0070     3.3530    -0.5610 H     1 <1>   0.1500 
 30 H        0.5900     0.7610     1.6220 H     1 <1>   0.1500 
 31 H        3.5660    -5.7960    -0.2030 H     1 <1>   0.0800 
 32 H        4.0790    -4.9040     1.2100 H     1 <1>   0.0800 
 33 H       -0.3400     5.1410    -0.4130 H     1 <1>   0.1500 
 34 H        2.2510     2.5550     1.7670 H     1 <1>   0.1500 
 35 H        6.3060    -5.9900     1.0850 H     1 <1>   0.0800 
 36 H        5.7950    -6.8800    -0.3250 H     1 <1>   0.0800 
 37 H        1.7940     4.7490     0.7480 H     1 <1>   0.1500 
 38 H        4.5430    -7.1030     2.4310 H     1 <1>   0.0800 
 39 H        5.6120    -8.2740     1.6990 H     1 <1>   0.0800 
 40 H        4.0290    -7.9950     1.0170 H     1 <1>   0.0800 
@<TRIPOS>BOND
  1   1   2  1   
  2   1   3  1   
  3   2   4  2   
  4   2   5  1   
  5   3   6  2   
  6   3   7  1   
  7   4   6  1   
  8   5   8  am  
  9   5  22  1   
 10   7   9  1   
 11   7  23  1   
 12   7  24  1   
 13   8  10  2   
 14   8  11  1   
 15   9  12  1   
 16   9  25  1   
 17   9  26  1   
 18  11  13  1   
 19  12  14  ar  
 20  12  15  ar  
 21  13  16  1   
 22  13  27  1   
 23  13  28  1   
 24  14  17  ar  
 25  14  29  1   
 26  15  18  ar  
 27  15  30  1   
 28  16  19  1   
 29  16  31  1   
 30  16  32  1   
 31  17  20  ar  
 32  17  33  1   
 33  18  20  ar  
 34  18  34  1   
 35  19  21  1   
 36  19  35  1   
 37  19  36  1   
 38  20  37  1   
 39  21  38  1   
 40  21  39  1   
 41  21  40  1   
@<TRIPOS>SUBSTRUCTURE
  1 ****   2 GROUP 4 **** **** 0

# MOE 2024.06 (io_trps.svl 2023.06)
