@<TRIPOS>MOLECULE
NONAME
44 45 1 0 0 
SMALL
USER_CHARGES


@<TRIPOS>ATOM
  1 O        1.7600     2.6910    -0.8830 O.2   1 <1>  -0.5700 
  2 C        1.0610     2.6400     0.1100 C.2   1 <1>   0.6900 
  3 N       -0.2710     2.3900     0.0450 N.am  1 <1>  -0.5470 
  4 N        1.6220     2.7600     1.3410 N.am  1 <1>  -0.7300 
  5 C       -1.1070     2.1020    -1.0470 C.ar  1 <1>   0.1170 
  6 C        3.0370     3.1230     1.6940 C.3   1 <1>   0.1400 
  7 C       -2.2440     1.3190    -0.8190 C.ar  1 <1>   0.0830 
  8 C       -0.8600     2.5730    -2.3310 C.ar  1 <1>  -0.1500 
  9 C        4.1430     2.6270     0.7260 C.3   1 <1>   0.3430 
 10 O       -2.4590     0.8910     0.4630 O.3   1 <1>  -0.3630 
 11 C       -3.0970     1.0080    -1.8740 C.ar  1 <1>  -0.1500 
 12 C       -1.7110     2.2620    -3.3760 C.ar  1 <1>  -0.1500 
 13 N        3.8710     1.2770     0.1460 N.4   1 <1>  -0.9590 
 14 C       -3.5990     0.1260     0.7930 C.3   1 <1>   0.0400 
 15 C       -2.8280     1.4780    -3.1480 C.ar  1 <1>  -0.1500 
 16 C        3.6970     0.1900     1.1470 C.3   1 <1>   0.3430 
 17 C        4.8270     0.9280    -0.9370 C.3   1 <1>   0.3430 
 18 C        3.1840    -1.0690     0.4460 C.3   1 <1>  -0.1600 
 19 C        4.3310    -0.3200    -1.6690 C.3   1 <1>  -0.1600 
 20 C        4.1020    -1.4940    -0.7080 C.3   1 <1>  -0.1600 
 21 H       -0.7210     2.1490     0.9260 H     1 <1>   0.3700 
 22 H        0.9600     2.8940     2.1080 H     1 <1>   0.3700 
 23 H        3.2500     2.7270     2.6710 H     1 <1>   0.0800 
 24 H        3.1080     4.1950     1.7700 H     1 <1>   0.0800 
 25 H       -0.0030     3.1920    -2.5230 H     1 <1>   0.1500 
 26 H        5.0920     2.6290     1.2360 H     1 <1>   0.0800 
 27 H        4.2080     3.3380    -0.0820 H     1 <1>   0.0800 
 28 H       -3.9730     0.4050    -1.7320 H     1 <1>   0.1500 
 29 H       -1.5050     2.6310    -4.3660 H     1 <1>   0.1500 
 30 H        2.9530     1.4080    -0.3270 H     1 <1>   0.4500 
 31 H       -3.5690    -0.0840     1.8470 H     1 <1>   0.0800 
 32 H       -3.5750    -0.7960     0.2380 H     1 <1>   0.0800 
 33 H       -4.4820     0.6940     0.5590 H     1 <1>   0.0800 
 34 H       -3.4880     1.2360    -3.9630 H     1 <1>   0.1500 
 35 H        2.9860     0.4900     1.9000 H     1 <1>   0.0800 
 36 H        4.6390    -0.0210     1.6270 H     1 <1>   0.0800 
 37 H        5.8030     0.7410    -0.5180 H     1 <1>   0.0800 
 38 H        4.9030     1.7450    -1.6370 H     1 <1>   0.0800 
 39 H        2.1910    -0.8830     0.0730 H     1 <1>   0.0800 
 40 H        3.1140    -1.8690     1.1620 H     1 <1>   0.0800 
 41 H        5.0540    -0.6020    -2.4140 H     1 <1>   0.0800 
 42 H        3.4150    -0.0840    -2.1840 H     1 <1>   0.0800 
 43 H        3.6610    -2.3210    -1.2400 H     1 <1>   0.0800 
 44 H        5.0480    -1.8250    -0.3120 H     1 <1>   0.0800 
@<TRIPOS>BOND
  1   1   2  2   
  2   2   3  am  
  3   2   4  am  
  4   3   5  1   
  5   3  21  1   
  6   4   6  1   
  7   4  22  1   
  8   5   7  ar  
  9   5   8  ar  
 10   6   9  1   
 11   6  23  1   
 12   6  24  1   
 13   7  10  1   
 14   7  11  ar  
 15   8  12  ar  
 16   8  25  1   
 17   9  13  1   
 18   9  26  1   
 19   9  27  1   
 20  10  14  1   
 21  11  15  ar  
 22  11  28  1   
 23  12  15  ar  
 24  12  29  1   
 25  13  16  1   
 26  13  17  1   
 27  13  30  1   
 28  14  31  1   
 29  14  32  1   
 30  14  33  1   
 31  15  34  1   
 32  16  18  1   
 33  16  35  1   
 34  16  36  1   
 35  17  19  1   
 36  17  37  1   
 37  17  38  1   
 38  18  20  1   
 39  18  39  1   
 40  18  40  1   
 41  19  20  1   
 42  19  41  1   
 43  19  42  1   
 44  20  43  1   
 45  20  44  1   
@<TRIPOS>SUBSTRUCTURE
  1 ****   2 GROUP 4 **** **** 0

# MOE 2024.06 (io_trps.svl 2023.06)
