@<TRIPOS>MOLECULE
NONAME
43 44 1 0 0 
SMALL
USER_CHARGES


@<TRIPOS>ATOM
  1 S        0.5280    -1.2360    -1.2860 S.o2  1 <1>   1.4470 
  2 O        1.5430    -2.2200    -1.5800 O.2   1 <1>  -0.6500 
  3 O        0.1290    -0.2460    -2.2580 O.2   1 <1>  -0.6500 
  4 N        1.1350    -0.4280     0.0500 N.am  1 <1>  -0.9140 
  5 C       -0.9450    -2.0530    -0.6120 C.ar  1 <1>  -0.0090 
  6 C        1.9950     0.7160    -0.3120 C.3   1 <1>   0.3370 
  7 C       -1.9570    -1.3120    -0.0120 C.ar  1 <1>  -0.1500 
  8 C       -1.1010    -3.4340    -0.6770 C.ar  1 <1>  -0.1500 
  9 C        3.3250     0.3010    -0.9950 C.2   1 <1>   0.5690 
 10 C        2.2040     1.6120     0.9400 C.3   1 <1>  -0.0800 
 11 C       -3.0840    -1.9250     0.5080 C.ar  1 <1>  -0.1500 
 12 C       -2.2250    -4.0540    -0.1590 C.ar  1 <1>  -0.1500 
 13 O        3.5630     0.7780    -2.0810 O.2   1 <1>  -0.5700 
 14 N        4.2120    -0.5770    -0.4120 N.am  1 <1>  -0.6600 
 15 C        0.8690     2.1370     1.5000 C.3   1 <1>  -0.2400 
 16 C        3.1150     2.8160     0.6400 C.3   1 <1>  -0.2400 
 17 C       -3.2190    -3.2990     0.4350 C.ar  1 <1>  -0.1500 
 18 C        5.3560    -1.1140    -1.1840 C.3   1 <1>   0.1400 
 19 C        4.2190    -1.1190     0.9670 C.3   1 <1>   0.1400 
 20 C        6.2000    -1.8790    -0.1710 C.3   1 <1>  -0.1600 
 21 C        5.2170    -2.2680     0.9270 C.3   1 <1>  -0.1600 
 22 H        1.7660    -1.1190     0.4410 H     1 <1>   0.4200 
 23 H        1.4670     1.3270    -1.0250 H     1 <1>   0.0800 
 24 H       -1.8590    -0.2410     0.0460 H     1 <1>   0.1500 
 25 H       -0.3340    -4.0320    -1.1400 H     1 <1>   0.1500 
 26 H        2.6770     1.0290     1.7080 H     1 <1>   0.0800 
 27 H       -3.8560    -1.3310     0.9680 H     1 <1>   0.1500 
 28 H       -2.3260    -5.1240    -0.2200 H     1 <1>   0.1500 
 29 H        0.3470     2.7120     0.7550 H     1 <1>   0.0800 
 30 H        1.0400     2.7630     2.3580 H     1 <1>   0.0800 
 31 H        0.2360     1.3230     1.8070 H     1 <1>   0.0800 
 32 H        2.7020     3.4140    -0.1550 H     1 <1>   0.0800 
 33 H        4.0980     2.4930     0.3470 H     1 <1>   0.0800 
 34 H        3.2200     3.4350     1.5140 H     1 <1>   0.0800 
 35 H       -4.0940    -3.7780     0.8380 H     1 <1>   0.1500 
 36 H        5.9150    -0.3180    -1.6480 H     1 <1>   0.0800 
 37 H        4.9790    -1.7780    -1.9440 H     1 <1>   0.0800 
 38 H        3.2500    -1.4660     1.2760 H     1 <1>   0.0800 
 39 H        4.5690    -0.3560     1.6410 H     1 <1>   0.0800 
 40 H        6.9530    -1.2210     0.2240 H     1 <1>   0.0800 
 41 H        6.6780    -2.7330    -0.6170 H     1 <1>   0.0800 
 42 H        4.7010    -3.1720     0.6500 H     1 <1>   0.0800 
 43 H        5.7000    -2.4160     1.8770 H     1 <1>   0.0800 
@<TRIPOS>BOND
  1   1   2  2   
  2   1   3  2   
  3   1   4  am  
  4   1   5  1   
  5   4   6  1   
  6   4  22  1   
  7   5   7  ar  
  8   5   8  ar  
  9   6   9  1   
 10   6  10  1   
 11   6  23  1   
 12   7  11  ar  
 13   7  24  1   
 14   8  12  ar  
 15   8  25  1   
 16   9  13  2   
 17   9  14  am  
 18  10  15  1   
 19  10  16  1   
 20  10  26  1   
 21  11  17  ar  
 22  11  27  1   
 23  12  17  ar  
 24  12  28  1   
 25  14  18  1   
 26  14  19  1   
 27  15  29  1   
 28  15  30  1   
 29  15  31  1   
 30  16  32  1   
 31  16  33  1   
 32  16  34  1   
 33  17  35  1   
 34  18  20  1   
 35  18  36  1   
 36  18  37  1   
 37  19  21  1   
 38  19  38  1   
 39  19  39  1   
 40  20  21  1   
 41  20  40  1   
 42  20  41  1   
 43  21  42  1   
 44  21  43  1   
@<TRIPOS>SUBSTRUCTURE
  1 ****   4 GROUP 4 **** **** 0

# MOE 2024.06 (io_trps.svl 2023.06)
