@<TRIPOS>MOLECULE
NONAME
52 53 1 0 0 
SMALL
USER_CHARGES


@<TRIPOS>ATOM
  1 O       -0.8180     2.3360     1.7600 O.2   1 <1>  -0.5700 
  2 C       -0.8160     2.5790     0.5700 C.2   1 <1>   0.5440 
  3 N       -1.8770     2.1950    -0.2170 N.am  1 <1>  -0.5470 
  4 C        0.2980     3.2920    -0.0250 C.ar  1 <1>   0.0860 
  5 C       -3.0770     1.5300     0.0650 C.ar  1 <1>   0.1170 
  6 C        0.1280     4.2450    -1.0400 C.ar  1 <1>   0.0830 
  7 C        1.6000     3.0540     0.4200 C.ar  1 <1>  -0.1500 
  8 C       -3.2470     0.6890     1.1590 C.ar  1 <1>  -0.1500 
  9 C       -4.1520     1.7220    -0.7950 C.ar  1 <1>  -0.1500 
 10 O       -1.1190     4.5300    -1.4750 O.3   1 <1>  -0.3630 
 11 C        1.2210     4.8990    -1.5970 C.ar  1 <1>  -0.1500 
 12 C        2.6860     3.7110    -0.1260 C.ar  1 <1>  -0.1500 
 13 C       -4.4590     0.0660     1.3990 C.ar  1 <1>  -0.1430 
 14 C       -5.3700     1.1050    -0.5690 C.ar  1 <1>  -0.1430 
 15 C       -1.5310     5.8870    -1.5920 C.3   1 <1>   0.1810 
 16 C        2.4980     4.6340    -1.1400 C.ar  1 <1>  -0.1500 
 17 C       -5.5180     0.2780     0.5320 C.ar  1 <1>  -0.1500 
 18 C       -4.6320    -0.8450     2.6000 C.3   1 <1>  -0.0970 
 19 C       -6.5420     1.3270    -1.5070 C.3   1 <1>  -0.0970 
 20 C       -2.9350     6.0910    -1.0340 C.2   1 <1>   0.5690 
 21 O       -3.6150     6.9510    -1.5400 O.2   1 <1>  -0.5700 
 22 N       -3.3560     5.3260     0.0150 N.am  1 <1>  -0.7300 
 23 C       -4.5840     5.4400     0.8070 C.3   1 <1>   0.3000 
 24 C       -5.7950     5.1330    -0.0720 C.3   1 <1>  -0.2400 
 25 C       -4.4840     4.4100     1.9300 C.3   1 <1>  -0.2400 
 26 C       -4.6790     6.8400     1.4160 C.3   1 <1>  -0.2400 
 27 H       -1.8200     2.5740    -1.1640 H     1 <1>   0.3700 
 28 H        1.7540     2.3390     1.2110 H     1 <1>   0.1500 
 29 H       -2.4230     0.5190     1.8270 H     1 <1>   0.1500 
 30 H       -4.0330     2.3690    -1.6440 H     1 <1>   0.1500 
 31 H        1.0830     5.6110    -2.3900 H     1 <1>   0.1500 
 32 H        3.6790     3.5060     0.2360 H     1 <1>   0.1500 
 33 H       -1.5090     6.1550    -2.6320 H     1 <1>   0.0800 
 34 H       -0.8520     6.5150    -1.0440 H     1 <1>   0.0800 
 35 H        3.3460     5.1420    -1.5690 H     1 <1>   0.1500 
 36 H       -6.4620    -0.2050     0.7140 H     1 <1>   0.1500 
 37 H       -3.8650    -0.6590     3.3310 H     1 <1>   0.0800 
 38 H       -4.5710    -1.8720     2.2890 H     1 <1>   0.0800 
 39 H       -5.5880    -0.6750     3.0620 H     1 <1>   0.0800 
 40 H       -6.2800     2.0040    -2.3000 H     1 <1>   0.0800 
 41 H       -7.3720     1.7420    -0.9630 H     1 <1>   0.0800 
 42 H       -6.8440     0.3910    -1.9410 H     1 <1>   0.0800 
 43 H       -2.7600     4.5550     0.3250 H     1 <1>   0.3700 
 44 H       -5.7010     4.1590    -0.5130 H     1 <1>   0.0800 
 45 H       -5.8900     5.8650    -0.8540 H     1 <1>   0.0800 
 46 H       -6.6940     5.1550     0.5160 H     1 <1>   0.0800 
 47 H       -4.4530     3.4130     1.5310 H     1 <1>   0.0800 
 48 H       -5.3410     4.4780     2.5730 H     1 <1>   0.0800 
 49 H       -3.6030     4.5770     2.5240 H     1 <1>   0.0800 
 50 H       -4.7940     7.5830     0.6480 H     1 <1>   0.0800 
 51 H       -3.7980     7.0600     1.9900 H     1 <1>   0.0800 
 52 H       -5.5340     6.9030     2.0640 H     1 <1>   0.0800 
@<TRIPOS>BOND
  1   1   2  2   
  2   2   3  am  
  3   2   4  1   
  4   3   5  1   
  5   3  27  1   
  6   4   6  ar  
  7   4   7  ar  
  8   5   8  ar  
  9   5   9  ar  
 10   6  10  1   
 11   6  11  ar  
 12   7  12  ar  
 13   7  28  1   
 14   8  13  ar  
 15   8  29  1   
 16   9  14  ar  
 17   9  30  1   
 18  10  15  1   
 19  11  16  ar  
 20  11  31  1   
 21  12  16  ar  
 22  12  32  1   
 23  13  17  ar  
 24  13  18  1   
 25  14  17  ar  
 26  14  19  1   
 27  15  20  1   
 28  15  33  1   
 29  15  34  1   
 30  16  35  1   
 31  17  36  1   
 32  18  37  1   
 33  18  38  1   
 34  18  39  1   
 35  19  40  1   
 36  19  41  1   
 37  19  42  1   
 38  20  21  2   
 39  20  22  am  
 40  22  23  1   
 41  22  43  1   
 42  23  24  1   
 43  23  25  1   
 44  23  26  1   
 45  24  44  1   
 46  24  45  1   
 47  24  46  1   
 48  25  47  1   
 49  25  48  1   
 50  25  49  1   
 51  26  50  1   
 52  26  51  1   
 53  26  52  1   
@<TRIPOS>SUBSTRUCTURE
  1 ****   3 GROUP 4 **** **** 0

# MOE 2024.06 (io_trps.svl 2023.06)
