@<TRIPOS>MOLECULE
NONAME
40 41 1 0 0 
SMALL
USER_CHARGES


@<TRIPOS>ATOM
  1 BR       0.1990     0.3400     1.2850 Br    1 <1>  -0.1110 
  2 C        1.7090    -0.7670     0.8580 C.ar  1 <1>   0.1110 
  3 C        2.8390    -0.6930     1.6480 C.ar  1 <1>  -0.1500 
  4 C        1.6340    -1.6120    -0.2320 C.ar  1 <1>  -0.1500 
  5 C        3.9200    -1.4970     1.3340 C.ar  1 <1>  -0.1500 
  6 C        2.7250    -2.4060    -0.5330 C.ar  1 <1>  -0.1500 
  7 C        3.8870    -2.3730     0.2460 C.ar  1 <1>   0.0280 
  8 C        5.0430    -3.1840    -0.0350 C.2   1 <1>  -0.1780 
  9 C        5.1300    -4.4670    -0.4860 C.2   1 <1>   0.0790 
 10 C        3.9870    -5.2840    -0.7530 C.1   1 <1>   0.4920 
 11 C        6.3860    -5.1330    -0.7180 C.2   1 <1>   0.6160 
 12 N        3.0400    -5.8930    -0.9410 N.1   1 <1>  -0.5570 
 13 O        6.5120    -5.9440    -1.6150 O.2   1 <1>  -0.5700 
 14 N        7.4700    -4.8550     0.0670 N.am  1 <1>  -0.7300 
 15 C        8.8290    -5.4060    -0.1180 C.3   1 <1>   0.2200 
 16 C        9.8620    -4.2600    -0.1820 C.3   1 <1>  -0.0800 
 17 C        9.1210    -6.3630     1.0430 C.3   1 <1>  -0.1600 
 18 C       11.2900    -4.8290    -0.2610 C.3   1 <1>  -0.1600 
 19 C        9.6140    -3.3250    -1.3780 C.3   1 <1>  -0.2400 
 20 C       10.5480    -6.9210     0.9600 C.3   1 <1>  -0.1600 
 21 C       11.5810    -5.7890     0.9010 C.3   1 <1>  -0.1600 
 22 H        2.8660    -0.0220     2.4880 H     1 <1>   0.1500 
 23 H        0.7410    -1.6440    -0.8300 H     1 <1>   0.1500 
 24 H        4.8030    -1.4450     1.9470 H     1 <1>   0.1500 
 25 H        2.6660    -3.0490    -1.3930 H     1 <1>   0.1500 
 26 H        5.9610    -2.6550     0.1550 H     1 <1>   0.1500 
 27 H        7.3690    -4.2540     0.8820 H     1 <1>   0.3700 
 28 H        8.8740    -5.9610    -1.0410 H     1 <1>   0.0800 
 29 H        9.7890    -3.6840     0.7250 H     1 <1>   0.0800 
 30 H        9.0020    -5.8450     1.9780 H     1 <1>   0.0800 
 31 H        8.4210    -7.1800     1.0110 H     1 <1>   0.0800 
 32 H       11.4160    -5.3560    -1.1920 H     1 <1>   0.0800 
 33 H       12.0040    -4.0240    -0.2400 H     1 <1>   0.0800 
 34 H        9.6480    -3.8780    -2.3000 H     1 <1>   0.0800 
 35 H       10.3630    -2.5530    -1.4120 H     1 <1>   0.0800 
 36 H        8.6510    -2.8530    -1.3010 H     1 <1>   0.0800 
 37 H       10.7430    -7.5450     1.8150 H     1 <1>   0.0800 
 38 H       10.6400    -7.5330     0.0780 H     1 <1>   0.0800 
 39 H       12.5660    -6.2070     0.7840 H     1 <1>   0.0800 
 40 H       11.5660    -5.2420     1.8290 H     1 <1>   0.0800 
@<TRIPOS>BOND
  1   1   2  1   
  2   2   3  ar  
  3   2   4  ar  
  4   3   5  ar  
  5   3  22  1   
  6   4   6  ar  
  7   4  23  1   
  8   5   7  ar  
  9   5  24  1   
 10   6   7  ar  
 11   6  25  1   
 12   7   8  1   
 13   8   9  2   
 14   8  26  1   
 15   9  10  1   
 16   9  11  1   
 17  10  12  3   
 18  11  13  2   
 19  11  14  am  
 20  14  15  1   
 21  14  27  1   
 22  15  16  1   
 23  15  17  1   
 24  15  28  1   
 25  16  18  1   
 26  16  19  1   
 27  16  29  1   
 28  17  20  1   
 29  17  30  1   
 30  17  31  1   
 31  18  21  1   
 32  18  32  1   
 33  18  33  1   
 34  19  34  1   
 35  19  35  1   
 36  19  36  1   
 37  20  21  1   
 38  20  37  1   
 39  20  38  1   
 40  21  39  1   
 41  21  40  1   
@<TRIPOS>SUBSTRUCTURE
  1 ****   8 GROUP 4 **** **** 0

# MOE 2024.06 (io_trps.svl 2023.06)
