@<TRIPOS>MOLECULE
NONAME
56 57 1 0 0 
SMALL
USER_CHARGES


@<TRIPOS>ATOM
  1 O        2.1050    -2.1410    -0.1740 O.3   1 <1>  -0.3630 
  2 C        0.8010    -2.5290    -0.1900 C.ar  1 <1>   0.0830 
  3 C        2.4890    -0.7790    -0.1230 C.3   1 <1>   0.1200 
  4 C        0.5170    -3.8930    -0.2820 C.ar  1 <1>  -0.1440 
  5 C       -0.2440    -1.6080    -0.1140 C.ar  1 <1>  -0.1500 
  6 C        4.0200    -0.6880    -0.1140 C.3   1 <1>   0.2000 
  7 C       -0.8100    -4.2990    -0.2930 C.ar  1 <1>  -0.1500 
  8 C        1.6260    -4.9500    -0.3720 C.3   1 <1>   0.0640 
  9 C       -1.5630    -2.0280    -0.1290 C.ar  1 <1>  -0.1440 
 10 O        4.4910    -1.5350     0.8850 O.3   1 <1>  -0.6800 
 11 C        4.5100     0.7570     0.1340 C.3   1 <1>   0.1100 
 12 C       -1.8400    -3.3800    -0.2170 C.ar  1 <1>  -0.1500 
 13 C        1.5220    -5.7490    -1.6760 C.3   1 <1>  -0.2400 
 14 C        1.5880    -5.8850     0.8420 C.3   1 <1>  -0.2400 
 15 C       -2.6970    -1.0220    -0.0450 C.3   1 <1>  -0.0970 
 16 N        5.9170     1.0280    -0.2700 N.3   1 <1>  -0.8100 
 17 C        6.8930     0.2050     0.4820 C.3   1 <1>   0.1100 
 18 C        6.2150     2.4690    -0.1360 C.3   1 <1>   0.1100 
 19 C        8.3490     0.5270     0.0950 C.3   1 <1>   0.3430 
 20 C        7.6650     2.7980    -0.5460 C.3   1 <1>   0.3430 
 21 N        8.6610     1.9890     0.2400 N.4   1 <1>  -0.9590 
 22 C       10.0640     2.2700    -0.1530 C.3   1 <1>   0.3430 
 23 C       10.4690     3.6540     0.3390 C.3   1 <1>  -0.2400 
 24 H        2.0840    -0.3450     0.7740 H     1 <1>   0.0800 
 25 H        2.0880    -0.2810    -0.9880 H     1 <1>   0.0800 
 26 H       -0.0520    -0.5560    -0.0400 H     1 <1>   0.1500 
 27 H        4.3950    -1.0380    -1.0610 H     1 <1>   0.0800 
 28 H       -1.0560    -5.3440    -0.3610 H     1 <1>   0.1500 
 29 H        2.5900    -4.4730    -0.3740 H     1 <1>   0.0800 
 30 H        3.9430    -2.3500     0.8640 H     1 <1>   0.4000 
 31 H        4.3670     1.0010     1.1740 H     1 <1>   0.0800 
 32 H        3.8770     1.4110    -0.4410 H     1 <1>   0.0800 
 33 H       -2.8600    -3.7240    -0.2270 H     1 <1>   0.1500 
 34 H        0.6120    -6.3200    -1.7080 H     1 <1>   0.0800 
 35 H        2.3540    -6.4240    -1.7650 H     1 <1>   0.0800 
 36 H        1.5360    -5.0770    -2.5150 H     1 <1>   0.0800 
 37 H        0.6740    -6.4500     0.8650 H     1 <1>   0.0800 
 38 H        1.6570    -5.3070     1.7460 H     1 <1>   0.0800 
 39 H        2.4160    -6.5700     0.8100 H     1 <1>   0.0800 
 40 H       -2.3890    -0.0700    -0.4390 H     1 <1>   0.0800 
 41 H       -2.9940    -0.8950     0.9810 H     1 <1>   0.0800 
 42 H       -3.5440    -1.3650    -0.6120 H     1 <1>   0.0800 
 43 H        6.7300    -0.8350     0.2600 H     1 <1>   0.0800 
 44 H        6.7530     0.3400     1.5410 H     1 <1>   0.0800 
 45 H        6.0500     2.7850     0.8800 H     1 <1>   0.0800 
 46 H        5.5460     3.0270    -0.7690 H     1 <1>   0.0800 
 47 H        8.4980     0.2240    -0.9290 H     1 <1>   0.0800 
 48 H        9.0120    -0.0550     0.7130 H     1 <1>   0.0800 
 49 H        7.8400     3.8500    -0.3940 H     1 <1>   0.0800 
 50 H        7.7760     2.5900    -1.5980 H     1 <1>   0.0800 
 51 H        8.5430     2.2280     1.2320 H     1 <1>   0.4500 
 52 H       10.1710     2.2090    -1.2250 H     1 <1>   0.0800 
 53 H       10.7190     1.5370     0.2930 H     1 <1>   0.0800 
 54 H        9.9060     4.4280    -0.1500 H     1 <1>   0.0800 
 55 H       11.5090     3.8160     0.1120 H     1 <1>   0.0800 
 56 H       10.3480     3.7330     1.4050 H     1 <1>   0.0800 
@<TRIPOS>BOND
  1   1   2  1   
  2   1   3  1   
  3   2   4  ar  
  4   2   5  ar  
  5   3   6  1   
  6   3  24  1   
  7   3  25  1   
  8   4   7  ar  
  9   4   8  1   
 10   5   9  ar  
 11   5  26  1   
 12   6  10  1   
 13   6  11  1   
 14   6  27  1   
 15   7  12  ar  
 16   7  28  1   
 17   8  13  1   
 18   8  14  1   
 19   8  29  1   
 20   9  12  ar  
 21   9  15  1   
 22  10  30  1   
 23  11  16  1   
 24  11  31  1   
 25  11  32  1   
 26  12  33  1   
 27  13  34  1   
 28  13  35  1   
 29  13  36  1   
 30  14  37  1   
 31  14  38  1   
 32  14  39  1   
 33  15  40  1   
 34  15  41  1   
 35  15  42  1   
 36  16  17  1   
 37  16  18  1   
 38  17  19  1   
 39  17  43  1   
 40  17  44  1   
 41  18  20  1   
 42  18  45  1   
 43  18  46  1   
 44  19  21  1   
 45  19  47  1   
 46  19  48  1   
 47  20  21  1   
 48  20  49  1   
 49  20  50  1   
 50  21  22  1   
 51  21  51  1   
 52  22  23  1   
 53  22  52  1   
 54  22  53  1   
 55  23  54  1   
 56  23  55  1   
 57  23  56  1   
@<TRIPOS>SUBSTRUCTURE
  1 ****   6 GROUP 4 **** **** 0

# MOE 2024.06 (io_trps.svl 2023.06)
