@<TRIPOS>MOLECULE
NONAME
33 33 1 0 0 
SMALL
USER_CHARGES


@<TRIPOS>ATOM
  1 O       -0.2430    -0.3110     0.2650 O.2   1 <1>  -0.5700 
  2 C        0.1040    -1.4480     0.0230 C.2   1 <1>   0.7800 
  3 O       -0.7960    -2.4280    -0.0300 O.3   1 <1>  -0.4300 
  4 N        1.3880    -1.8410    -0.2030 N.am  1 <1>  -0.5470 
  5 C       -2.1690    -2.1710     0.1920 C.3   1 <1>   0.0400 
  6 C        2.5960    -1.1380    -0.2470 C.ar  1 <1>   0.1170 
  7 C        2.6780     0.2490    -0.3240 C.ar  1 <1>  -0.1500 
  8 C        3.7870    -1.8550    -0.2250 C.ar  1 <1>  -0.1500 
  9 C        3.9030     0.8880    -0.3660 C.ar  1 <1>  -0.1500 
 10 C        5.0100    -1.2140    -0.2680 C.ar  1 <1>  -0.1500 
 11 C        5.1040     0.1790    -0.3310 C.ar  1 <1>   0.0860 
 12 C        6.3810     0.8660    -0.3600 C.2   1 <1>   0.5440 
 13 O        6.4970     1.9440    -0.9100 O.2   1 <1>  -0.5700 
 14 N        7.4800     0.3200     0.2460 N.am  1 <1>  -0.7300 
 15 C        8.8330     0.9150     0.2590 C.3   1 <1>   0.1400 
 16 C        9.8660    -0.1910     0.0430 C.3   1 <1>  -0.1600 
 17 C       11.2920     0.3720     0.0480 C.3   1 <1>  -0.2400 
 18 H        1.4490    -2.8450    -0.3380 H     1 <1>   0.3700 
 19 H       -2.7090    -3.0960     0.1020 H     1 <1>   0.0800 
 20 H       -2.5150    -1.4670    -0.5460 H     1 <1>   0.0800 
 21 H       -2.2920    -1.7630     1.1800 H     1 <1>   0.0800 
 22 H        1.7830     0.8430    -0.3560 H     1 <1>   0.1500 
 23 H        3.7560    -2.9290    -0.1750 H     1 <1>   0.1500 
 24 H        3.9390     1.9630    -0.4280 H     1 <1>   0.1500 
 25 H        5.9100    -1.8020    -0.2610 H     1 <1>   0.1500 
 26 H        7.3590    -0.5030     0.8360 H     1 <1>   0.3700 
 27 H        8.9970     1.4010     1.2050 H     1 <1>   0.0800 
 28 H        8.9170     1.6530    -0.5220 H     1 <1>   0.0800 
 29 H        9.6800    -0.6660    -0.9050 H     1 <1>   0.0800 
 30 H        9.7770    -0.9260     0.8230 H     1 <1>   0.0800 
 31 H       11.4120     1.0980    -0.7380 H     1 <1>   0.0800 
 32 H       12.0010    -0.4220    -0.1100 H     1 <1>   0.0800 
 33 H       11.5090     0.8420     0.9910 H     1 <1>   0.0800 
@<TRIPOS>BOND
  1   1   2  2   
  2   2   3  1   
  3   2   4  am  
  4   3   5  1   
  5   4   6  1   
  6   4  18  1   
  7   5  19  1   
  8   5  20  1   
  9   5  21  1   
 10   6   7  ar  
 11   6   8  ar  
 12   7   9  ar  
 13   7  22  1   
 14   8  10  ar  
 15   8  23  1   
 16   9  11  ar  
 17   9  24  1   
 18  10  11  ar  
 19  10  25  1   
 20  11  12  1   
 21  12  13  2   
 22  12  14  am  
 23  14  15  1   
 24  14  26  1   
 25  15  16  1   
 26  15  27  1   
 27  15  28  1   
 28  16  17  1   
 29  16  29  1   
 30  16  30  1   
 31  17  31  1   
 32  17  32  1   
 33  17  33  1   
@<TRIPOS>SUBSTRUCTURE
  1 ****  11 GROUP 4 **** **** 0

# MOE 2024.06 (io_trps.svl 2023.06)
