@<TRIPOS>MOLECULE
NONAME
39 40 1 0 0 
SMALL
USER_CHARGES


@<TRIPOS>ATOM
  1 O        0.8990    -0.2080     0.0170 O.2   1 <1>  -0.5700 
  2 C        1.8380     0.5590     0.0960 C.2   1 <1>   0.6900 
  3 N        1.6850     1.8690     0.5270 N.am  1 <1>  -0.4200 
  4 N        3.0750     0.0990    -0.2550 N.am  1 <1>  -0.4940 
  5 C        2.7790     2.7350     0.5820 C.2   1 <1>   0.7160 
  6 C        0.3350     2.3760     0.9080 C.3   1 <1>   0.0600 
  7 C        4.1910     0.9290    -0.1980 C.2   1 <1>  -0.0880 
  8 O        2.5960     3.8910     0.9410 O.2   1 <1>  -0.5700 
  9 C        4.0760     2.2210     0.2100 C.2   1 <1>   0.1410 
 10 N        5.4810     0.6930    -0.4860 N.pl3 1 <1>   0.0480 
 11 N        5.3090     2.8070     0.1810 N.2   1 <1>  -0.5650 
 12 C        6.1100     1.8780    -0.2300 C.2   1 <1>   0.0060 
 13 C        6.0640    -0.5790    -0.9660 C.3   1 <1>   0.0960 
 14 C        7.6140     2.0580    -0.4210 C.3   1 <1>   0.0200 
 15 C        6.4150    -1.4880     0.2180 C.3   1 <1>  -0.1600 
 16 C        8.1280     3.4270     0.0490 C.3   1 <1>  -0.1600 
 17 C        7.0210    -2.8120    -0.2610 C.3   1 <1>  -0.1600 
 18 C        9.6430     3.5640    -0.1440 C.3   1 <1>  -0.2400 
 19 C        7.3710    -3.7150     0.9250 C.3   1 <1>  -0.2400 
 20 H        3.1130    -0.8770    -0.5470 H     1 <1>   0.3700 
 21 H       -0.3440     1.5630     1.0990 H     1 <1>   0.0800 
 22 H       -0.0570     2.9830     0.1120 H     1 <1>   0.0800 
 23 H        0.4070     2.9740     1.8000 H     1 <1>   0.0800 
 24 H        6.9430    -0.3670    -1.5460 H     1 <1>   0.0800 
 25 H        5.3490    -1.0650    -1.6060 H     1 <1>   0.0800 
 26 H        7.8440     1.9390    -1.4650 H     1 <1>   0.0800 
 27 H        8.1270     1.2900     0.1280 H     1 <1>   0.0800 
 28 H        5.5250    -1.6900     0.7900 H     1 <1>   0.0800 
 29 H        7.1210    -0.9850     0.8570 H     1 <1>   0.0800 
 30 H        7.8860     3.5570     1.0900 H     1 <1>   0.0800 
 31 H        7.6250     4.2030    -0.5030 H     1 <1>   0.0800 
 32 H        7.9150    -2.6200    -0.8310 H     1 <1>   0.0800 
 33 H        6.3210    -3.3250    -0.8990 H     1 <1>   0.0800 
 34 H       10.1650     2.8130     0.4220 H     1 <1>   0.0800 
 35 H        9.9660     4.5320     0.1950 H     1 <1>   0.0800 
 36 H        9.9010     3.4630    -1.1830 H     1 <1>   0.0800 
 37 H        8.0880    -3.2350     1.5670 H     1 <1>   0.0800 
 38 H        7.7940    -4.6390     0.5720 H     1 <1>   0.0800 
 39 H        6.4900    -3.9420     1.5000 H     1 <1>   0.0800 
@<TRIPOS>BOND
  1   1   2  2   
  2   2   3  am  
  3   2   4  am  
  4   3   5  am  
  5   3   6  1   
  6   4   7  1   
  7   4  20  1   
  8   5   8  2   
  9   5   9  1   
 10   6  21  1   
 11   6  22  1   
 12   6  23  1   
 13   7   9  2   
 14   7  10  1   
 15   9  11  1   
 16  10  12  1   
 17  10  13  1   
 18  11  12  2   
 19  12  14  1   
 20  13  15  1   
 21  13  24  1   
 22  13  25  1   
 23  14  16  1   
 24  14  26  1   
 25  14  27  1   
 26  15  17  1   
 27  15  28  1   
 28  15  29  1   
 29  16  18  1   
 30  16  30  1   
 31  16  31  1   
 32  17  19  1   
 33  17  32  1   
 34  17  33  1   
 35  18  34  1   
 36  18  35  1   
 37  18  36  1   
 38  19  37  1   
 39  19  38  1   
 40  19  39  1   
@<TRIPOS>SUBSTRUCTURE
  1 ****   7 GROUP 4 **** **** 0

# MOE 2024.06 (io_trps.svl 2023.06)
