@<TRIPOS>MOLECULE
NONAME
33 34 1 0 0 
SMALL
USER_CHARGES


@<TRIPOS>ATOM
  1 O        0.0310     2.4400    -1.7080 O.2   1 <1>  -0.5700 
  2 C       -0.6610     1.7570    -0.9930 C.2   1 <1>   0.5690 
  3 N       -0.7510     0.4360    -1.2610 N.am  1 <1>  -0.8000 
  4 C       -1.4370     2.3580     0.2100 C.3   1 <1>   0.2040 
  5 C       -2.6330     1.4390     0.5580 C.ar  1 <1>  -0.1430 
  6 C       -1.9050     3.8020    -0.0690 C.3   1 <1>  -0.1600 
  7 C       -0.4840     2.5770     1.4000 C.3   1 <1>  -0.1600 
  8 C       -3.8090     1.5220    -0.1790 C.ar  1 <1>  -0.1500 
  9 C       -2.5610     0.4910     1.5740 C.ar  1 <1>  -0.1500 
 10 C       -0.7440     4.7350     0.2990 C.3   1 <1>  -0.1600 
 11 C        0.2280     3.9040     1.1380 C.3   1 <1>  -0.1600 
 12 C       -4.8880     0.6990     0.0950 C.ar  1 <1>  -0.1500 
 13 C       -3.6360    -0.3340     1.8510 C.ar  1 <1>  -0.1500 
 14 C       -4.8060    -0.2380     1.1190 C.ar  1 <1>   0.0830 
 15 O       -5.8120    -1.0820     1.4560 O.3   1 <1>  -0.3630 
 16 C       -7.0610    -1.0300     0.8040 C.3   1 <1>   0.0400 
 17 H       -0.2620     0.0460    -2.0660 H     1 <1>   0.3700 
 18 H       -1.3940    -0.1770    -0.7550 H     1 <1>   0.3700 
 19 H       -2.7410     4.0330     0.5690 H     1 <1>   0.0800 
 20 H       -2.2030     3.9360    -1.0940 H     1 <1>   0.0800 
 21 H        0.2160     1.7680     1.5150 H     1 <1>   0.0800 
 22 H       -1.0590     2.6800     2.3050 H     1 <1>   0.0800 
 23 H       -3.8970     2.2290    -0.9860 H     1 <1>   0.1500 
 24 H       -1.6700     0.3730     2.1650 H     1 <1>   0.1500 
 25 H       -1.1040     5.5870     0.8490 H     1 <1>   0.0800 
 26 H       -0.2480     5.0800    -0.5930 H     1 <1>   0.0800 
 27 H        1.1240     3.7250     0.5680 H     1 <1>   0.0800 
 28 H        0.4920     4.4010     2.0560 H     1 <1>   0.0800 
 29 H       -5.7760     0.7990    -0.4980 H     1 <1>   0.1500 
 30 H       -3.5760    -1.0620     2.6410 H     1 <1>   0.1500 
 31 H       -7.7020    -1.7700     1.2490 H     1 <1>   0.0800 
 32 H       -6.9200    -1.2500    -0.2390 H     1 <1>   0.0800 
 33 H       -7.4850    -0.0510     0.9390 H     1 <1>   0.0800 
@<TRIPOS>BOND
  1   1   2  2   
  2   2   3  am  
  3   2   4  1   
  4   3  17  1   
  5   3  18  1   
  6   4   5  1   
  7   4   6  1   
  8   4   7  1   
  9   5   8  ar  
 10   5   9  ar  
 11   6  10  1   
 12   6  19  1   
 13   6  20  1   
 14   7  11  1   
 15   7  21  1   
 16   7  22  1   
 17   8  12  ar  
 18   8  23  1   
 19   9  13  ar  
 20   9  24  1   
 21  10  11  1   
 22  10  25  1   
 23  10  26  1   
 24  11  27  1   
 25  11  28  1   
 26  12  14  ar  
 27  12  29  1   
 28  13  14  ar  
 29  13  30  1   
 30  14  15  1   
 31  15  16  1   
 32  16  31  1   
 33  16  32  1   
 34  16  33  1   
@<TRIPOS>SUBSTRUCTURE
  1 ****   5 GROUP 4 **** **** 0

# MOE 2024.06 (io_trps.svl 2023.06)
