@<TRIPOS>MOLECULE
NONAME
46 47 1 0 0 
SMALL
USER_CHARGES


@<TRIPOS>ATOM
  1 O        0.0760    -0.2210     0.5500 O.2   1 <1>  -0.5700 
  2 C        0.1190    -1.3850     0.1950 C.2   1 <1>   0.5440 
  3 N        1.2810    -1.8520    -0.3770 N.am  1 <1>  -0.6600 
  4 C       -1.0430    -2.2280     0.3960 C.ar  1 <1>   0.0860 
  5 C        1.3440    -2.5980    -1.6670 C.3   1 <1>   0.2200 
  6 C        2.5770    -1.2610     0.0610 C.3   1 <1>   0.2840 
  7 C       -2.3110    -1.7990     0.0130 C.ar  1 <1>  -0.1500 
  8 C       -0.9390    -3.4790     0.9960 C.ar  1 <1>  -0.1500 
  9 C        0.2950    -2.0900    -2.6580 C.3   1 <1>  -0.2400 
 10 C        1.2230    -4.1040    -1.4480 C.3   1 <1>  -0.2400 
 11 C        3.5640    -2.3640     0.4180 C.ar  1 <1>  -0.1440 
 12 C       -3.4470    -2.5820     0.1930 C.ar  1 <1>   0.0830 
 13 C       -2.0520    -4.2760     1.1790 C.ar  1 <1>  -0.1500 
 14 C        4.6580    -2.6290    -0.3920 C.ar  1 <1>  -0.1500 
 15 C        3.3690    -3.1180     1.5650 C.ar  1 <1>  -0.1500 
 16 O       -4.6750    -2.1250    -0.1920 O.3   1 <1>  -0.3630 
 17 C       -3.3110    -3.8540     0.7820 C.ar  1 <1>   0.0830 
 18 C        5.5450    -3.6390    -0.0590 C.ar  1 <1>  -0.1500 
 19 C        4.2550    -4.1280     1.8990 C.ar  1 <1>  -0.1500 
 20 C       -4.9000    -0.7740    -0.5340 C.3   1 <1>   0.0400 
 21 O       -4.2990    -4.7590     1.0240 O.3   1 <1>  -0.3630 
 22 C        5.3430    -4.3890     1.0860 C.ar  1 <1>  -0.1500 
 23 C       -5.6490    -4.5700     0.6650 C.3   1 <1>   0.0400 
 24 H        2.3090    -2.4150    -2.1110 H     1 <1>   0.0800 
 25 H        2.4310    -0.6380     0.9270 H     1 <1>   0.0800 
 26 H        2.9690    -0.6400    -0.7250 H     1 <1>   0.0800 
 27 H       -2.3700    -0.8250    -0.4330 H     1 <1>   0.1500 
 28 H        0.0280    -3.8260     1.3170 H     1 <1>   0.1500 
 29 H       -0.6980    -2.3550    -2.3460 H     1 <1>   0.0800 
 30 H        0.3680    -1.0220    -2.7600 H     1 <1>   0.0800 
 31 H        0.4670    -2.5340    -3.6220 H     1 <1>   0.0800 
 32 H        1.9030    -4.4270    -0.6800 H     1 <1>   0.0800 
 33 H        1.4760    -4.6190    -2.3570 H     1 <1>   0.0800 
 34 H        0.2210    -4.3810    -1.1840 H     1 <1>   0.0800 
 35 H       -1.9520    -5.2430     1.6380 H     1 <1>   0.1500 
 36 H        4.8270    -2.0530    -1.2840 H     1 <1>   0.1500 
 37 H        2.5220    -2.9180     2.1990 H     1 <1>   0.1500 
 38 H        6.3920    -3.8410    -0.6910 H     1 <1>   0.1500 
 39 H        4.0960    -4.7090     2.7910 H     1 <1>   0.1500 
 40 H       -5.9560    -0.6380    -0.6790 H     1 <1>   0.0800 
 41 H       -4.3760    -0.5510    -1.4470 H     1 <1>   0.0800 
 42 H       -4.5580    -0.1470     0.2710 H     1 <1>   0.0800 
 43 H        6.0320    -5.1740     1.3440 H     1 <1>   0.1500 
 44 H       -6.1960    -5.4510     0.9440 H     1 <1>   0.0800 
 45 H       -5.7090    -4.4220    -0.3980 H     1 <1>   0.0800 
 46 H       -6.0330    -3.7170     1.1950 H     1 <1>   0.0800 
@<TRIPOS>BOND
  1   1   2  2   
  2   2   3  am  
  3   2   4  1   
  4   3   5  1   
  5   3   6  1   
  6   4   7  ar  
  7   4   8  ar  
  8   5   9  1   
  9   5  10  1   
 10   5  24  1   
 11   6  11  1   
 12   6  25  1   
 13   6  26  1   
 14   7  12  ar  
 15   7  27  1   
 16   8  13  ar  
 17   8  28  1   
 18   9  29  1   
 19   9  30  1   
 20   9  31  1   
 21  10  32  1   
 22  10  33  1   
 23  10  34  1   
 24  11  14  ar  
 25  11  15  ar  
 26  12  16  1   
 27  12  17  ar  
 28  13  17  ar  
 29  13  35  1   
 30  14  18  ar  
 31  14  36  1   
 32  15  19  ar  
 33  15  37  1   
 34  16  20  1   
 35  17  21  1   
 36  18  22  ar  
 37  18  38  1   
 38  19  22  ar  
 39  19  39  1   
 40  20  40  1   
 41  20  41  1   
 42  20  42  1   
 43  21  23  1   
 44  22  43  1   
 45  23  44  1   
 46  23  45  1   
 47  23  46  1   
@<TRIPOS>SUBSTRUCTURE
  1 ****   4 GROUP 4 **** **** 0

# MOE 2024.06 (io_trps.svl 2023.06)
