@<TRIPOS>MOLECULE
NONAME
51 53 1 0 0 
SMALL
USER_CHARGES


@<TRIPOS>ATOM
  1 S        0.0930    -0.1680    -0.0760 S.o2  1 <1>   1.2040 
  2 O       -0.2370    -0.5930     1.2690 O.2   1 <1>  -0.6500 
  3 O       -0.1180    -1.0670    -1.1910 O.2   1 <1>  -0.6500 
  4 C        1.8090     0.4020    -0.1030 C.ar  1 <1>  -0.0090 
  5 C       -0.7690     1.3730    -0.4100 C.3   1 <1>   0.0890 
  6 C        2.4270     0.8750     1.0490 C.ar  1 <1>  -0.1500 
  7 C        2.5430     0.4160    -1.2830 C.ar  1 <1>  -0.1500 
  8 C       -2.2850     1.2360    -0.4690 C.ar  1 <1>  -0.1440 
  9 C        3.7260     1.3530     1.0230 C.ar  1 <1>  -0.1500 
 10 C        3.8420     0.8920    -1.3160 C.ar  1 <1>  -0.1500 
 11 C       -3.0140     1.0360     0.6930 C.ar  1 <1>  -0.1500 
 12 C       -2.9540     1.3060    -1.6800 C.ar  1 <1>  -0.1500 
 13 C        4.4400     1.3680    -0.1620 C.ar  1 <1>  -0.1430 
 14 C       -4.3900     0.9090     0.6400 C.ar  1 <1>  -0.1500 
 15 C       -4.3310     1.1790    -1.7240 C.ar  1 <1>  -0.1500 
 16 C        5.8650     1.8880    -0.1940 C.3   1 <1>  -0.0970 
 17 C       -5.0830     0.9710    -0.5690 C.ar  1 <1>   0.0860 
 18 C       -6.5290     0.8230    -0.6290 C.2   1 <1>   0.5440 
 19 O       -7.1580     1.4370    -1.4710 O.2   1 <1>  -0.5700 
 20 N       -7.1850    -0.0390     0.2270 N.am  1 <1>  -0.6600 
 21 C       -8.5980     0.1100     0.6790 C.3   1 <1>   0.2200 
 22 C       -6.7060    -1.4420     0.3390 C.3   1 <1>   0.1400 
 23 C       -9.5010    -0.7230    -0.2380 C.3   1 <1>  -0.1600 
 24 C       -9.0570     1.5670     0.7930 C.3   1 <1>  -0.2400 
 25 C       -7.5730    -2.3380    -0.5560 C.3   1 <1>  -0.1600 
 26 C       -9.0710    -2.2000    -0.2370 C.3   1 <1>  -0.1600 
 27 H       -0.4210     1.7740    -1.3420 H     1 <1>   0.0800 
 28 H       -0.5250     2.0860     0.3540 H     1 <1>   0.0800 
 29 H        1.8900     0.8660     1.9830 H     1 <1>   0.1500 
 30 H        2.0970     0.0440    -2.1910 H     1 <1>   0.1500 
 31 H        4.1800     1.7100     1.9310 H     1 <1>   0.1500 
 32 H        4.3860     0.8880    -2.2450 H     1 <1>   0.1500 
 33 H       -2.5150     0.9710     1.6460 H     1 <1>   0.1500 
 34 H       -2.4120     1.4570    -2.5980 H     1 <1>   0.1500 
 35 H       -4.9430     0.7590     1.5500 H     1 <1>   0.1500 
 36 H       -4.8440     1.2390    -2.6690 H     1 <1>   0.1500 
 37 H        6.0050     2.6500     0.5520 H     1 <1>   0.0800 
 38 H        6.0910     2.3110    -1.1570 H     1 <1>   0.0800 
 39 H        6.5510     1.0830     0.0000 H     1 <1>   0.0800 
 40 H       -8.6590    -0.3070     1.6700 H     1 <1>   0.0800 
 41 H       -6.7760    -1.7620     1.3650 H     1 <1>   0.0800 
 42 H       -5.6770    -1.5200     0.0320 H     1 <1>   0.0800 
 43 H       -9.4440    -0.3250    -1.2370 H     1 <1>   0.0800 
 44 H      -10.5210    -0.6450     0.0910 H     1 <1>   0.0800 
 45 H       -9.1890     2.0100    -0.1770 H     1 <1>   0.0800 
 46 H       -8.3410     2.1380     1.3540 H     1 <1>   0.0800 
 47 H      -10.0010     1.6080     1.3030 H     1 <1>   0.0800 
 48 H       -7.2700    -3.3630    -0.4360 H     1 <1>   0.0800 
 49 H       -7.4010    -2.0650    -1.5820 H     1 <1>   0.0800 
 50 H       -9.6500    -2.7470    -0.9610 H     1 <1>   0.0800 
 51 H       -9.2670    -2.6230     0.7330 H     1 <1>   0.0800 
@<TRIPOS>BOND
  1   1   2  2   
  2   1   3  2   
  3   1   4  1   
  4   1   5  1   
  5   4   6  ar  
  6   4   7  ar  
  7   5   8  1   
  8   5  27  1   
  9   5  28  1   
 10   6   9  ar  
 11   6  29  1   
 12   7  10  ar  
 13   7  30  1   
 14   8  11  ar  
 15   8  12  ar  
 16   9  13  ar  
 17   9  31  1   
 18  10  13  ar  
 19  10  32  1   
 20  11  14  ar  
 21  11  33  1   
 22  12  15  ar  
 23  12  34  1   
 24  13  16  1   
 25  14  17  ar  
 26  14  35  1   
 27  15  17  ar  
 28  15  36  1   
 29  16  37  1   
 30  16  38  1   
 31  16  39  1   
 32  17  18  1   
 33  18  19  2   
 34  18  20  am  
 35  20  21  1   
 36  20  22  1   
 37  21  23  1   
 38  21  24  1   
 39  21  40  1   
 40  22  25  1   
 41  22  41  1   
 42  22  42  1   
 43  23  26  1   
 44  23  43  1   
 45  23  44  1   
 46  24  45  1   
 47  24  46  1   
 48  24  47  1   
 49  25  26  1   
 50  25  48  1   
 51  25  49  1   
 52  26  50  1   
 53  26  51  1   
@<TRIPOS>SUBSTRUCTURE
  1 ****   8 GROUP 4 **** **** 0

# MOE 2024.06 (io_trps.svl 2023.06)
