@<TRIPOS>MOLECULE
NONAME
44 46 1 0 0 
SMALL
USER_CHARGES


@<TRIPOS>ATOM
  1 O        0.4320     3.8430    -1.8230 O.2   1 <1>  -0.5700 
  2 C        0.0970     2.9310    -1.1050 C.2   1 <1>   0.5690 
  3 N        0.8110     1.7770    -0.9920 N.am  1 <1>  -0.7300 
  4 C       -1.1740     3.1000    -0.2630 C.3   1 <1>   0.1250 
  5 C        2.1190     1.3900    -1.5560 C.3   1 <1>   0.3640 
  6 C       -1.3550     1.9510     0.7440 C.ar  1 <1>  -0.1440 
  7 C       -2.4200     3.3140    -1.1530 C.3   1 <1>  -0.1600 
  8 C        3.2280     1.8150    -0.5990 C.ar  1 <1>  -0.1440 
  9 C        2.3430     1.9040    -2.9780 C.3   1 <1>  -0.2400 
 10 C       -1.8160     0.7020     0.3460 C.ar  1 <1>  -0.1500 
 11 C       -1.0290     2.1510     2.0780 C.ar  1 <1>  -0.1500 
 12 C       -3.7020     3.5720    -0.3460 C.3   1 <1>  -0.2400 
 13 C        4.0200     0.8430     0.0090 C.ar  1 <1>  -0.1500 
 14 C        3.4560     3.1640    -0.3180 C.ar  1 <1>  -0.1500 
 15 C       -1.9520    -0.3240     1.2650 C.ar  1 <1>  -0.1500 
 16 C       -1.1640     1.1260     2.9980 C.ar  1 <1>  -0.1500 
 17 C        5.0140     1.2540     0.8750 C.ar  1 <1>   0.0820 
 18 C        4.4610     3.5590     0.5560 C.ar  1 <1>  -0.1500 
 19 C       -1.6250    -0.1130     2.5920 C.ar  1 <1>  -0.1500 
 20 O        5.8790     0.4980     1.5590 O.3   1 <1>  -0.3630 
 21 C        5.2290     2.5740     1.1420 C.ar  1 <1>   0.0820 
 22 C        6.6970     1.3930     2.3100 C.3   1 <1>   0.4000 
 23 O        6.2410     2.7100     2.0060 O.3   1 <1>  -0.3620 
 24 H        0.4990     1.1430    -0.2520 H     1 <1>   0.3700 
 25 H       -1.0340     4.0090     0.2940 H     1 <1>   0.0800 
 26 H        2.1230     0.3150    -1.6150 H     1 <1>   0.0800 
 27 H       -2.5640     2.4630    -1.7930 H     1 <1>   0.0800 
 28 H       -2.2430     4.1630    -1.7910 H     1 <1>   0.0800 
 29 H        2.4690     2.9710    -2.9920 H     1 <1>   0.0800 
 30 H        1.5120     1.6360    -3.6040 H     1 <1>   0.0800 
 31 H        3.2360     1.4630    -3.3810 H     1 <1>   0.0800 
 32 H       -2.0720     0.5160    -0.6820 H     1 <1>   0.1500 
 33 H       -0.6650     3.1070     2.4120 H     1 <1>   0.1500 
 34 H       -3.9510     2.7210     0.2630 H     1 <1>   0.0800 
 35 H       -4.5240     3.7610    -1.0140 H     1 <1>   0.0800 
 36 H       -3.5790     4.4290     0.2930 H     1 <1>   0.0800 
 37 H        3.8810    -0.2060    -0.1760 H     1 <1>   0.1500 
 38 H        2.8430     3.9180    -0.7840 H     1 <1>   0.1500 
 39 H       -2.3120    -1.2870     0.9470 H     1 <1>   0.1500 
 40 H       -0.9080     1.2930     4.0300 H     1 <1>   0.1500 
 41 H        4.6420     4.5950     0.7760 H     1 <1>   0.1500 
 42 H       -1.7310    -0.9100     3.3080 H     1 <1>   0.1500 
 43 H        7.7230     1.2880     2.0040 H     1 <1>   0.0800 
 44 H        6.5710     1.2020     3.3600 H     1 <1>   0.0800 
@<TRIPOS>BOND
  1   1   2  2   
  2   2   3  am  
  3   2   4  1   
  4   3   5  1   
  5   3  24  1   
  6   4   6  1   
  7   4   7  1   
  8   4  25  1   
  9   5   8  1   
 10   5   9  1   
 11   5  26  1   
 12   6  10  ar  
 13   6  11  ar  
 14   7  12  1   
 15   7  27  1   
 16   7  28  1   
 17   8  13  ar  
 18   8  14  ar  
 19   9  29  1   
 20   9  30  1   
 21   9  31  1   
 22  10  15  ar  
 23  10  32  1   
 24  11  16  ar  
 25  11  33  1   
 26  12  34  1   
 27  12  35  1   
 28  12  36  1   
 29  13  17  ar  
 30  13  37  1   
 31  14  18  ar  
 32  14  38  1   
 33  15  19  ar  
 34  15  39  1   
 35  16  19  ar  
 36  16  40  1   
 37  17  20  1   
 38  17  21  ar  
 39  18  21  ar  
 40  18  41  1   
 41  19  42  1   
 42  20  22  1   
 43  21  23  1   
 44  22  23  1   
 45  22  43  1   
 46  22  44  1   
@<TRIPOS>SUBSTRUCTURE
  1 ****   3 GROUP 4 **** **** 0

# MOE 2024.06 (io_trps.svl 2023.06)
