@<TRIPOS>MOLECULE
NONAME
38 39 1 0 0 
SMALL
USER_CHARGES


@<TRIPOS>ATOM
  1 O       -0.2900     0.8750     2.5980 O.3   1 <1>  -0.0190 
  2 N       -1.5600     0.6370     2.5480 N.2   1 <1>  -0.4100 
  3 C       -0.0330     1.4380     1.4520 C.2   1 <1>   0.2980 
  4 C       -2.0070     1.0500     1.4140 C.2   1 <1>   0.4620 
  5 N       -1.0250     1.5820     0.6710 N.2   1 <1>  -0.5650 
  6 C        1.3990     1.8620     1.1580 C.3   1 <1>   0.5230 
  7 C       -3.3870     0.9670     0.9630 C.ar  1 <1>   0.0540 
  8 N        1.4890     2.4870    -0.2030 N.4   1 <1>  -0.9060 
  9 C       -3.7840     1.4420    -0.2900 C.ar  1 <1>  -0.1500 
 10 C       -4.3770     0.4060     1.7730 C.ar  1 <1>  -0.1500 
 11 C        2.7920     2.9580    -0.6590 C.3   1 <1>   0.5030 
 12 C       -5.0980     1.3640    -0.7200 C.ar  1 <1>  -0.1430 
 13 C       -5.6910     0.3220     1.3540 C.ar  1 <1>  -0.1500 
 14 C        2.5770     3.5340    -2.0540 C.3   1 <1>  -0.2400 
 15 C        3.7680     1.7840    -0.7240 C.3   1 <1>  -0.2400 
 16 C        3.3030     4.0460     0.2840 C.3   1 <1>  -0.2400 
 17 C       -6.0520     0.8010     0.1090 C.ar  1 <1>  -0.1500 
 18 C       -5.5070     1.8860    -2.0860 C.3   1 <1>  -0.0970 
 19 H        2.0350     0.9950     1.2110 H     1 <1>   0.0800 
 20 H        1.7130     2.5660     1.9100 H     1 <1>   0.0800 
 21 H        0.8210     3.2650    -0.2320 H     1 <1>   0.4500 
 22 H        1.1200     1.8100    -0.8800 H     1 <1>   0.4500 
 23 H       -3.0500     1.8800    -0.9400 H     1 <1>   0.1500 
 24 H       -4.1160     0.0270     2.7460 H     1 <1>   0.1500 
 25 H       -6.4350    -0.1150     1.9970 H     1 <1>   0.1500 
 26 H        1.8870     4.3600    -2.0320 H     1 <1>   0.0800 
 27 H        2.2110     2.7850    -2.7330 H     1 <1>   0.0800 
 28 H        3.5090     3.9010    -2.4470 H     1 <1>   0.0800 
 29 H        3.3870     0.9960    -1.3490 H     1 <1>   0.0800 
 30 H        3.9880     1.3910     0.2520 H     1 <1>   0.0800 
 31 H        4.7000     2.1140    -1.1490 H     1 <1>   0.0800 
 32 H        4.2180     4.4590    -0.1050 H     1 <1>   0.0800 
 33 H        2.5940     4.8520     0.3680 H     1 <1>   0.0800 
 34 H        3.5220     3.6590     1.2620 H     1 <1>   0.0800 
 35 H       -7.0780     0.7330    -0.2120 H     1 <1>   0.1500 
 36 H       -4.6670     2.3050    -2.6090 H     1 <1>   0.0800 
 37 H       -6.2560     2.6490    -1.9760 H     1 <1>   0.0800 
 38 H       -5.9130     1.0840    -2.6760 H     1 <1>   0.0800 
@<TRIPOS>BOND
  1   1   2  1   
  2   1   3  1   
  3   2   4  2   
  4   3   5  2   
  5   3   6  1   
  6   4   5  1   
  7   4   7  1   
  8   6   8  1   
  9   6  19  1   
 10   6  20  1   
 11   7   9  ar  
 12   7  10  ar  
 13   8  11  1   
 14   8  21  1   
 15   8  22  1   
 16   9  12  ar  
 17   9  23  1   
 18  10  13  ar  
 19  10  24  1   
 20  11  14  1   
 21  11  15  1   
 22  11  16  1   
 23  12  17  ar  
 24  12  18  1   
 25  13  17  ar  
 26  13  25  1   
 27  14  26  1   
 28  14  27  1   
 29  14  28  1   
 30  15  29  1   
 31  15  30  1   
 32  15  31  1   
 33  16  32  1   
 34  16  33  1   
 35  16  34  1   
 36  17  35  1   
 37  18  36  1   
 38  18  37  1   
 39  18  38  1   
@<TRIPOS>SUBSTRUCTURE
  1 ****   5 GROUP 4 **** **** 0

# MOE 2024.06 (io_trps.svl 2023.06)
