@<TRIPOS>MOLECULE
NONAME
41 43 1 0 0 
SMALL
USER_CHARGES


@<TRIPOS>ATOM
  1 O       -0.5690     1.1240     1.0730 O.2   1 <1>  -0.5700 
  2 C       -0.8270     1.5610    -0.0330 C.2   1 <1>   0.7150 
  3 N        0.1880     2.0800    -0.7970 N.am  1 <1>  -0.5390 
  4 C       -2.1740     1.5750    -0.5620 C.2   1 <1>   0.0550 
  5 C        1.5810     2.1440    -0.5910 C.2   1 <1>   0.1230 
  6 O       -3.2120     1.2040     0.1830 O.3   1 <1>  -0.2800 
  7 C       -2.6430     1.9300    -1.7940 C.2   1 <1>  -0.1500 
  8 C        2.2010     3.3280    -1.1600 C.2   1 <1>   0.6160 
  9 C        2.2530     1.1490     0.0550 C.2   1 <1>  -0.1050 
 10 C       -4.3110     1.3110    -0.5270 C.2   1 <1>  -0.0100 
 11 C       -4.0270     1.7590    -1.7680 C.2   1 <1>  -0.1500 
 12 O        1.9730     3.5850    -2.3300 O.2   1 <1>  -0.5700 
 13 N        2.9690     4.2060    -0.4190 N.am  1 <1>  -0.6600 
 14 C        3.6590     0.9810     0.2530 C.2   1 <1>   0.0950 
 15 C        3.0400     4.1830     1.0710 C.3   1 <1>   0.1400 
 16 C        3.7120     5.3340    -1.0500 C.3   1 <1>   0.1400 
 17 O        4.0720     0.1030     1.1580 O.3   1 <1>  -0.2800 
 18 C        4.7550     1.5490    -0.3260 C.2   1 <1>  -0.1500 
 19 C        2.5260     5.5110     1.6360 C.3   1 <1>  -0.1600 
 20 C        3.1930     6.6670    -0.5030 C.3   1 <1>  -0.1600 
 21 C        5.3890     0.1010     1.1790 C.2   1 <1>  -0.0100 
 22 C        5.8760     0.9800     0.2790 C.2   1 <1>  -0.1500 
 23 C        3.2630     6.7130     1.0300 C.3   1 <1>  -0.1600 
 24 H       -0.1200     2.6340    -1.5990 H     1 <1>   0.3700 
 25 H       -2.0880     2.2760    -2.6490 H     1 <1>   0.1500 
 26 H        1.6860     0.3430     0.4840 H     1 <1>   0.1500 
 27 H       -5.2520     1.0490    -0.0750 H     1 <1>   0.1500 
 28 H       -4.7050     1.9500    -2.5820 H     1 <1>   0.1500 
 29 H        2.4510     3.3810     1.4790 H     1 <1>   0.0800 
 30 H        4.0630     4.0290     1.3710 H     1 <1>   0.0800 
 31 H        4.7590     5.2300    -0.8240 H     1 <1>   0.0800 
 32 H        3.6010     5.3160    -2.1210 H     1 <1>   0.0800 
 33 H        4.7860     2.2880    -1.1060 H     1 <1>   0.1500 
 34 H        1.4720     5.5900     1.4290 H     1 <1>   0.0800 
 35 H        2.6480     5.5130     2.7050 H     1 <1>   0.0800 
 36 H        3.7760     7.4710    -0.9160 H     1 <1>   0.0800 
 37 H        2.1760     6.8010    -0.8260 H     1 <1>   0.0800 
 38 H        5.8970    -0.5560     1.8620 H     1 <1>   0.1500 
 39 H        6.9010     1.2120     0.0520 H     1 <1>   0.1500 
 40 H        4.2940     6.6950     1.3420 H     1 <1>   0.0800 
 41 H        2.8230     7.6290     1.3870 H     1 <1>   0.0800 
@<TRIPOS>BOND
  1   1   2  2   
  2   2   3  am  
  3   2   4  1   
  4   3   5  1   
  5   3  24  1   
  6   4   6  1   
  7   4   7  2   
  8   5   8  1   
  9   5   9  2   
 10   6  10  1   
 11   7  11  1   
 12   7  25  1   
 13   8  12  2   
 14   8  13  am  
 15   9  14  1   
 16   9  26  1   
 17  10  11  2   
 18  10  27  1   
 19  11  28  1   
 20  13  15  1   
 21  13  16  1   
 22  14  17  1   
 23  14  18  2   
 24  15  19  1   
 25  15  29  1   
 26  15  30  1   
 27  16  20  1   
 28  16  31  1   
 29  16  32  1   
 30  17  21  1   
 31  18  22  1   
 32  18  33  1   
 33  19  23  1   
 34  19  34  1   
 35  19  35  1   
 36  20  23  1   
 37  20  36  1   
 38  20  37  1   
 39  21  22  2   
 40  21  38  1   
 41  22  39  1   
 42  23  40  1   
 43  23  41  1   
@<TRIPOS>SUBSTRUCTURE
  1 ****   5 GROUP 4 **** **** 0

# MOE 2024.06 (io_trps.svl 2023.06)
