@<TRIPOS>MOLECULE
NONAME
35 36 1 0 0 
SMALL
USER_CHARGES


@<TRIPOS>ATOM
  1 F        1.8260     0.9840     2.6900 F     1 <1>  -0.1900 
  2 C        2.0990     0.0750     1.7940 C.ar  1 <1>   0.1900 
  3 C        3.1960     0.2550     0.9770 C.ar  1 <1>  -0.1500 
  4 C        1.2770    -1.0310     1.7010 C.ar  1 <1>  -0.1500 
  5 C        3.5100    -0.7070     0.0180 C.ar  1 <1>   0.0860 
  6 C        1.5710    -1.9880     0.7450 C.ar  1 <1>  -0.1500 
  7 C        4.6660    -0.5410    -0.8430 C.2   1 <1>   0.5440 
  8 C        2.6700    -1.8210    -0.0830 C.ar  1 <1>  -0.1500 
  9 O        4.8750     0.5160    -1.3990 O.2   1 <1>  -0.5700 
 10 N        5.5790    -1.5240    -1.0610 N.am  1 <1>  -0.7300 
 11 C        5.8580    -2.7030    -0.2240 C.3   1 <1>   0.2200 
 12 C        7.2050    -2.4790     0.4740 C.3   1 <1>  -0.1600 
 13 C        5.8020    -3.9390    -1.1280 C.3   1 <1>  -0.1600 
 14 C        7.4370    -3.4680     1.6270 C.3   1 <1>  -0.1600 
 15 C        6.1350    -5.2680    -0.4300 C.3   1 <1>  -0.1600 
 16 C        8.0800    -4.8030     1.2190 C.3   1 <1>  -0.1600 
 17 C        7.6320    -5.4090    -0.1210 C.3   1 <1>  -0.1600 
 18 H        3.8060     1.1340     1.0760 H     1 <1>   0.1500 
 19 H        0.4320    -1.1340     2.3570 H     1 <1>   0.1500 
 20 H        0.9440    -2.8590     0.6450 H     1 <1>   0.1500 
 21 H        2.8850    -2.5650    -0.8300 H     1 <1>   0.1500 
 22 H        6.3290    -1.2670    -1.7040 H     1 <1>   0.3700 
 23 H        5.0950    -2.7910     0.5310 H     1 <1>   0.0800 
 24 H        7.1940    -1.4900     0.8990 H     1 <1>   0.0800 
 25 H        8.0160    -2.5250    -0.2320 H     1 <1>   0.0800 
 26 H        6.4690    -3.8040    -1.9620 H     1 <1>   0.0800 
 27 H        4.8050    -4.0150    -1.5230 H     1 <1>   0.0800 
 28 H        6.5030    -3.6600     2.1280 H     1 <1>   0.0800 
 29 H        8.0830    -3.0040     2.3530 H     1 <1>   0.0800 
 30 H        5.8630    -6.0640    -1.1020 H     1 <1>   0.0800 
 31 H        5.5470    -5.3920     0.4640 H     1 <1>   0.0800 
 32 H        7.8840    -5.5160     2.0020 H     1 <1>   0.0800 
 33 H        9.1480    -4.6730     1.1780 H     1 <1>   0.0800 
 34 H        8.2060    -4.9720    -0.9200 H     1 <1>   0.0800 
 35 H        7.8810    -6.4560    -0.1030 H     1 <1>   0.0800 
@<TRIPOS>BOND
  1   1   2  1   
  2   2   3  ar  
  3   2   4  ar  
  4   3   5  ar  
  5   3  18  1   
  6   4   6  ar  
  7   4  19  1   
  8   5   7  1   
  9   5   8  ar  
 10   6   8  ar  
 11   6  20  1   
 12   7   9  2   
 13   7  10  am  
 14   8  21  1   
 15  10  11  1   
 16  10  22  1   
 17  11  12  1   
 18  11  13  1   
 19  11  23  1   
 20  12  14  1   
 21  12  24  1   
 22  12  25  1   
 23  13  15  1   
 24  13  26  1   
 25  13  27  1   
 26  14  16  1   
 27  14  28  1   
 28  14  29  1   
 29  15  17  1   
 30  15  30  1   
 31  15  31  1   
 32  16  17  1   
 33  16  32  1   
 34  16  33  1   
 35  17  34  1   
 36  17  35  1   
@<TRIPOS>SUBSTRUCTURE
  1 ****  11 GROUP 4 **** **** 0

# MOE 2024.06 (io_trps.svl 2023.06)
