@<TRIPOS>MOLECULE
NONAME
30 31 1 0 0 
SMALL
USER_CHARGES


@<TRIPOS>ATOM
  1 S        0.1030     0.0000    -0.1670 S.o2  1 <1>   1.2040 
  2 O        0.2390    -0.5530    -1.5050 O.2   1 <1>  -0.6500 
  3 O        1.1620    -0.3170     0.7760 O.2   1 <1>  -0.6500 
  4 C        0.0440     1.8000    -0.3270 C.ar  1 <1>  -0.0090 
  5 C       -1.5910    -0.3300     0.5540 C.3   1 <1>   1.1250 
  6 C        0.4590     2.6290     0.7120 C.ar  1 <1>  -0.1500 
  7 C       -0.4530     2.4040    -1.4780 C.ar  1 <1>  -0.1500 
  8 F       -1.8450    -1.6170     0.8000 F     1 <1>  -0.3400 
  9 F       -2.5990     0.0670    -0.2250 F     1 <1>  -0.3400 
 10 F       -1.8120     0.2820     1.7190 F     1 <1>  -0.3400 
 11 C        0.3720     4.0050     0.6080 C.ar  1 <1>  -0.1500 
 12 C       -0.5410     3.7800    -1.5820 C.ar  1 <1>  -0.1500 
 13 C       -0.1350     4.5990    -0.5400 C.ar  1 <1>   0.1000 
 14 N       -0.2410     5.9760    -0.6720 N.pl3 1 <1>  -0.8380 
 15 C       -1.1060     6.6920     0.2990 C.3   1 <1>   0.2090 
 16 C        1.0270     6.7260    -0.8580 C.3   1 <1>   0.2090 
 17 C       -0.2050     7.7290     0.9550 C.3   1 <1>  -0.1600 
 18 C        0.8420     8.0390    -0.1070 C.3   1 <1>  -0.1600 
 19 H        0.8610     2.1970     1.6140 H     1 <1>   0.1500 
 20 H       -0.7730     1.7970    -2.3090 H     1 <1>   0.1500 
 21 H        0.6990     4.6310     1.4180 H     1 <1>   0.1500 
 22 H       -0.9270     4.2410    -2.4730 H     1 <1>   0.1500 
 23 H       -1.5320     6.0190     1.0240 H     1 <1>   0.0800 
 24 H       -1.9000     7.1770    -0.2430 H     1 <1>   0.0800 
 25 H        1.2090     6.8970    -1.9050 H     1 <1>   0.0800 
 26 H        1.8480     6.1670    -0.4410 H     1 <1>   0.0800 
 27 H        0.2650     7.2880     1.8170 H     1 <1>   0.0800 
 28 H       -0.7550     8.6010     1.2590 H     1 <1>   0.0800 
 29 H        0.4620     8.7780    -0.7900 H     1 <1>   0.0800 
 30 H        1.7660     8.3910     0.3150 H     1 <1>   0.0800 
@<TRIPOS>BOND
  1   1   2  2   
  2   1   3  2   
  3   1   4  1   
  4   1   5  1   
  5   4   6  ar  
  6   4   7  ar  
  7   5   8  1   
  8   5   9  1   
  9   5  10  1   
 10   6  11  ar  
 11   6  19  1   
 12   7  12  ar  
 13   7  20  1   
 14  11  13  ar  
 15  11  21  1   
 16  12  13  ar  
 17  12  22  1   
 18  13  14  1   
 19  14  15  1   
 20  14  16  1   
 21  15  17  1   
 22  15  23  1   
 23  15  24  1   
 24  16  18  1   
 25  16  25  1   
 26  16  26  1   
 27  17  18  1   
 28  17  27  1   
 29  17  28  1   
 30  18  29  1   
 31  18  30  1   
@<TRIPOS>SUBSTRUCTURE
  1 ****   6 GROUP 4 **** **** 0

# MOE 2024.06 (io_trps.svl 2023.06)
