@<TRIPOS>MOLECULE
NONAME
42 43 1 0 0 
SMALL
USER_CHARGES


@<TRIPOS>ATOM
  1 O        0.9480    -3.2790    -0.2330 O.2   1 <1>  -0.5700 
  2 C        0.0450    -3.7870     0.4040 C.2   1 <1>   0.5440 
  3 N        0.3930    -4.5610     1.4800 N.am  1 <1>  -0.7300 
  4 C       -1.3440    -3.5900     0.0310 C.ar  1 <1>   0.0860 
  5 C        1.7320    -4.5950     2.1470 C.3   1 <1>   0.1400 
  6 C       -1.7430    -2.4390    -0.6500 C.ar  1 <1>  -0.1500 
  7 C       -2.3370    -4.5290     0.3290 C.ar  1 <1>  -0.1500 
  8 C        2.7350    -5.5190     1.4240 C.3   1 <1>   0.3430 
  9 C       -3.0620    -2.2290    -1.0050 C.ar  1 <1>  -0.1500 
 10 C       -3.6590    -4.3250    -0.0220 C.ar  1 <1>  -0.1500 
 11 N        3.0510    -5.0150     0.0580 N.4   1 <1>  -0.9590 
 12 C       -4.0330    -3.1650    -0.6930 C.ar  1 <1>   0.0830 
 13 C        3.4320    -6.0470    -0.9290 C.3   1 <1>   0.3430 
 14 C        4.0820    -3.9580     0.0000 C.3   1 <1>   0.3430 
 15 O       -5.3000    -2.8850    -1.0710 O.3   1 <1>  -0.3630 
 16 C        4.0950    -5.2660    -2.0570 C.3   1 <1>  -0.1600 
 17 C        4.4590    -3.8970    -1.4720 C.3   1 <1>  -0.1600 
 18 C       -6.3690    -3.7670    -0.8190 C.3   1 <1>   0.1200 
 19 C       -7.6410    -3.1400    -1.3810 C.3   1 <1>  -0.2400 
 20 H       -0.3800    -4.8880     2.0690 H     1 <1>   0.3700 
 21 H        1.6020    -4.9470     3.1560 H     1 <1>   0.0800 
 22 H        2.1310    -3.5960     2.2000 H     1 <1>   0.0800 
 23 H       -1.0060    -1.6960    -0.9050 H     1 <1>   0.1500 
 24 H       -2.0760    -5.4400     0.8360 H     1 <1>   0.1500 
 25 H        2.3000    -6.5020     1.3580 H     1 <1>   0.0800 
 26 H        3.6420    -5.5940     2.0010 H     1 <1>   0.0800 
 27 H       -3.3520    -1.3340    -1.5280 H     1 <1>   0.1500 
 28 H       -4.3860    -5.0750     0.2300 H     1 <1>   0.1500 
 29 H        2.1820    -4.5480    -0.2850 H     1 <1>   0.4500 
 30 H        2.5720    -6.5970    -1.2780 H     1 <1>   0.0800 
 31 H        4.1450    -6.7270    -0.4920 H     1 <1>   0.0800 
 32 H        4.9400    -4.2450     0.5850 H     1 <1>   0.0800 
 33 H        3.6970    -3.0120     0.3490 H     1 <1>   0.0800 
 34 H        3.4060    -5.1520    -2.8760 H     1 <1>   0.0800 
 35 H        4.9650    -5.7920    -2.4110 H     1 <1>   0.0800 
 36 H        5.5040    -3.6700    -1.5910 H     1 <1>   0.0800 
 37 H        3.8830    -3.1240    -1.9530 H     1 <1>   0.0800 
 38 H       -6.4520    -3.9060     0.2450 H     1 <1>   0.0800 
 39 H       -6.1600    -4.7040    -1.3050 H     1 <1>   0.0800 
 40 H       -7.8310    -2.1970    -0.9010 H     1 <1>   0.0800 
 41 H       -8.4780    -3.7910    -1.2040 H     1 <1>   0.0800 
 42 H       -7.5410    -2.9890    -2.4410 H     1 <1>   0.0800 
@<TRIPOS>BOND
  1   1   2  2   
  2   2   3  am  
  3   2   4  1   
  4   3   5  1   
  5   3  20  1   
  6   4   6  ar  
  7   4   7  ar  
  8   5   8  1   
  9   5  21  1   
 10   5  22  1   
 11   6   9  ar  
 12   6  23  1   
 13   7  10  ar  
 14   7  24  1   
 15   8  11  1   
 16   8  25  1   
 17   8  26  1   
 18   9  12  ar  
 19   9  27  1   
 20  10  12  ar  
 21  10  28  1   
 22  11  13  1   
 23  11  14  1   
 24  11  29  1   
 25  12  15  1   
 26  13  16  1   
 27  13  30  1   
 28  13  31  1   
 29  14  17  1   
 30  14  32  1   
 31  14  33  1   
 32  15  18  1   
 33  16  17  1   
 34  16  34  1   
 35  16  35  1   
 36  17  36  1   
 37  17  37  1   
 38  18  19  1   
 39  18  38  1   
 40  18  39  1   
 41  19  40  1   
 42  19  41  1   
 43  19  42  1   
@<TRIPOS>SUBSTRUCTURE
  1 ****   2 GROUP 4 **** **** 0

# MOE 2024.06 (io_trps.svl 2023.06)
