@<TRIPOS>MOLECULE
NONAME
26 26 1 0 0 
SMALL
USER_CHARGES


@<TRIPOS>ATOM
  1 CL       0.3770     0.4790    -0.2740 Cl    1 <1>  -0.1770 
  2 C       -1.2970     0.9890    -0.2350 C.ar  1 <1>   0.1770 
  3 C       -1.6790     2.1780     0.3720 C.ar  1 <1>  -0.1440 
  4 C       -2.2230     0.1560    -0.8330 C.ar  1 <1>  -0.1500 
  5 C       -3.0320     2.5100     0.3580 C.ar  1 <1>  -0.1500 
  6 C       -0.6310     3.0790     1.0270 C.3   1 <1>   1.1640 
  7 C       -3.5600     0.5050    -0.8340 C.ar  1 <1>  -0.1500 
  8 C       -3.9840     1.6900    -0.2400 C.ar  1 <1>   0.1170 
  9 F        0.0170     2.4760     2.0150 F     1 <1>  -0.3400 
 10 F        0.2870     3.5060     0.1690 F     1 <1>  -0.3400 
 11 F       -1.1620     4.1740     1.5600 F     1 <1>  -0.3400 
 12 N       -5.3260     2.0930    -0.2080 N.am  1 <1>  -0.5470 
 13 C       -6.4440     1.6650    -0.8700 C.2   1 <1>   0.5690 
 14 O       -6.4520     0.7720    -1.6820 O.2   1 <1>  -0.5700 
 15 C       -7.7560     2.3790    -0.5550 C.3   1 <1>   0.1810 
 16 O       -7.5670     3.4230     0.3750 O.3   1 <1>  -0.5600 
 17 C       -8.7370     4.1050     0.6960 C.3   1 <1>   0.0400 
 18 H       -1.8990    -0.7600    -1.2950 H     1 <1>   0.1500 
 19 H       -3.3700     3.4240     0.8160 H     1 <1>   0.1500 
 20 H       -4.2710    -0.1540    -1.2990 H     1 <1>   0.1500 
 21 H       -5.5490     2.8830     0.4060 H     1 <1>   0.3700 
 22 H       -8.4520     1.6700    -0.1440 H     1 <1>   0.0800 
 23 H       -8.1570     2.7930    -1.4630 H     1 <1>   0.0800 
 24 H       -8.4930     4.8770     1.4050 H     1 <1>   0.0800 
 25 H       -9.4410     3.4200     1.1360 H     1 <1>   0.0800 
 26 H       -9.1470     4.5500    -0.1950 H     1 <1>   0.0800 
@<TRIPOS>BOND
  1   1   2  1   
  2   2   3  ar  
  3   2   4  ar  
  4   3   5  ar  
  5   3   6  1   
  6   4   7  ar  
  7   4  18  1   
  8   5   8  ar  
  9   5  19  1   
 10   6   9  1   
 11   6  10  1   
 12   6  11  1   
 13   7   8  ar  
 14   7  20  1   
 15   8  12  1   
 16  12  13  am  
 17  12  21  1   
 18  13  14  2   
 19  13  15  1   
 20  15  16  1   
 21  15  22  1   
 22  15  23  1   
 23  16  17  1   
 24  17  24  1   
 25  17  25  1   
 26  17  26  1   
@<TRIPOS>SUBSTRUCTURE
  1 ****   5 GROUP 4 **** **** 0

# MOE 2024.06 (io_trps.svl 2023.06)
