@<TRIPOS>MOLECULE
NONAME
46 48 1 0 0 
SMALL
USER_CHARGES


@<TRIPOS>ATOM
  1 S       -0.1510     0.1870    -0.0020 S.o2  1 <1>   1.5010 
  2 O        0.1680     0.9990    -1.1570 O.2   1 <1>  -0.6500 
  3 O       -0.3030     0.8150     1.2920 O.2   1 <1>  -0.6500 
  4 N        1.0780    -0.9680     0.1470 N.am  1 <1>  -0.8490 
  5 C       -1.5960    -0.8200    -0.3540 C.2   1 <1>  -0.0630 
  6 C        2.2910    -0.3890     0.7570 C.3   1 <1>   0.1960 
  7 C        1.4250    -1.5960    -1.1460 C.3   1 <1>   0.1960 
  8 C       -2.3970    -0.6670    -1.4780 C.2   1 <1>   0.1390 
  9 C       -2.1680    -1.8560     0.3100 C.2   1 <1>  -0.3020 
 10 C        3.4150    -1.4290     0.9320 C.3   1 <1>   0.2090 
 11 C        2.5240    -2.6660    -0.9980 C.3   1 <1>   0.2090 
 12 N       -3.3710    -1.5250    -1.5210 N.2   1 <1>  -0.7070 
 13 N       -3.2310    -2.2620    -0.4070 N.pl3 1 <1>   0.3140 
 14 N        3.7450    -2.0880    -0.3660 N.pl3 1 <1>  -0.8380 
 15 C       -4.1570    -3.3630    -0.0710 C.3   1 <1>   0.0960 
 16 C        4.8710    -2.9240    -0.3520 C.ar  1 <1>   0.1000 
 17 C       -3.5370    -4.7270    -0.4010 C.3   1 <1>  -0.2400 
 18 C        4.9610    -4.1270     0.3740 C.ar  1 <1>   0.0830 
 19 C        5.9600    -2.5210    -1.1100 C.ar  1 <1>  -0.1500 
 20 O        3.8830    -4.5210     1.1220 O.3   1 <1>  -0.3630 
 21 C        6.1310    -4.8800     0.3140 C.ar  1 <1>  -0.1500 
 22 C        7.1190    -3.2740    -1.1630 C.ar  1 <1>  -0.1500 
 23 C        3.9310    -5.6710     1.9360 C.3   1 <1>   0.0400 
 24 C        7.2050    -4.4540    -0.4510 C.ar  1 <1>  -0.1500 
 25 H        2.0500     0.0140     1.7250 H     1 <1>   0.0800 
 26 H        2.6590     0.4180     0.1440 H     1 <1>   0.0800 
 27 H        1.7730    -0.8480    -1.8390 H     1 <1>   0.0800 
 28 H        0.5510    -2.0610    -1.5690 H     1 <1>   0.0800 
 29 H       -2.2300     0.0800    -2.2370 H     1 <1>   0.1500 
 30 H       -1.8690    -2.3100     1.2370 H     1 <1>   0.1500 
 31 H        3.1000    -2.1690     1.6470 H     1 <1>   0.0800 
 32 H        4.2960    -0.9460     1.3160 H     1 <1>   0.0800 
 33 H        2.7800    -3.0570    -1.9670 H     1 <1>   0.0800 
 34 H        2.1490    -3.4760    -0.3970 H     1 <1>   0.0800 
 35 H       -5.0610    -3.2240    -0.6360 H     1 <1>   0.0800 
 36 H       -4.3930    -3.3020     0.9750 H     1 <1>   0.0800 
 37 H       -3.3070    -4.7830    -1.4510 H     1 <1>   0.0800 
 38 H       -4.2330    -5.5100    -0.1620 H     1 <1>   0.0800 
 39 H       -2.6380    -4.8810     0.1700 H     1 <1>   0.0800 
 40 H        5.8880    -1.6020    -1.6620 H     1 <1>   0.1500 
 41 H        6.2350    -5.8020     0.8520 H     1 <1>   0.1500 
 42 H        7.9510    -2.9390    -1.7590 H     1 <1>   0.1500 
 43 H        2.9890    -5.7570     2.4470 H     1 <1>   0.0800 
 44 H        4.7260    -5.5590     2.6530 H     1 <1>   0.0800 
 45 H        4.0890    -6.5340     1.3140 H     1 <1>   0.0800 
 46 H        8.1050    -5.0420    -0.4910 H     1 <1>   0.1500 
@<TRIPOS>BOND
  1   1   2  2   
  2   1   3  2   
  3   1   4  am  
  4   1   5  1   
  5   4   6  1   
  6   4   7  1   
  7   5   8  1   
  8   5   9  2   
  9   6  10  1   
 10   6  25  1   
 11   6  26  1   
 12   7  11  1   
 13   7  27  1   
 14   7  28  1   
 15   8  12  2   
 16   8  29  1   
 17   9  13  1   
 18   9  30  1   
 19  10  14  1   
 20  10  31  1   
 21  10  32  1   
 22  11  14  1   
 23  11  33  1   
 24  11  34  1   
 25  12  13  1   
 26  13  15  1   
 27  14  16  1   
 28  15  17  1   
 29  15  35  1   
 30  15  36  1   
 31  16  18  ar  
 32  16  19  ar  
 33  17  37  1   
 34  17  38  1   
 35  17  39  1   
 36  18  20  1   
 37  18  21  ar  
 38  19  22  ar  
 39  19  40  1   
 40  20  23  1   
 41  21  24  ar  
 42  21  41  1   
 43  22  24  ar  
 44  22  42  1   
 45  23  43  1   
 46  23  44  1   
 47  23  45  1   
 48  24  46  1   
@<TRIPOS>SUBSTRUCTURE
  1 ****   7 GROUP 4 **** **** 0

# MOE 2024.06 (io_trps.svl 2023.06)
