@<TRIPOS>MOLECULE
NONAME
35 36 1 0 0 
SMALL
USER_CHARGES


@<TRIPOS>ATOM
  1 O       -2.8090    -0.1160     0.9950 O.3   1 <1>  -0.6800 
  2 C       -3.8220     0.1330     0.0660 C.3   1 <1>   0.2000 
  3 C       -3.8760     1.6580    -0.2750 C.3   1 <1>   0.4230 
  4 C       -5.1320    -0.4200     0.6520 C.3   1 <1>  -0.1600 
  5 N       -2.5760     2.2990     0.0220 N.4   1 <1>  -0.9060 
  6 C       -4.9510     2.3770     0.5460 C.3   1 <1>  -0.1600 
  7 C       -6.3470     0.2720     0.0210 C.3   1 <1>  -0.1600 
  8 C       -1.5340     2.0890    -0.9950 C.3   1 <1>   0.4860 
  9 C       -6.3520     1.7890     0.2890 C.3   1 <1>  -0.1600 
 10 C       -0.2770     2.7270    -0.4550 C.ar  1 <1>  -0.1430 
 11 C        0.0820     4.0100    -0.8430 C.ar  1 <1>  -0.1500 
 12 C        0.5220     2.0350     0.4440 C.ar  1 <1>  -0.1500 
 13 C        1.2270     4.5960    -0.3320 C.ar  1 <1>  -0.1500 
 14 C        1.6660     2.6230     0.9530 C.ar  1 <1>  -0.1500 
 15 C        2.0180     3.9030     0.5660 C.ar  1 <1>  -0.1500 
 16 H       -2.8600    -1.0450     1.3100 H     1 <1>   0.4000 
 17 H       -3.5830    -0.4120    -0.8320 H     1 <1>   0.0800 
 18 H       -4.1260     1.7790    -1.3170 H     1 <1>   0.0800 
 19 H       -5.1920    -1.4800     0.4710 H     1 <1>   0.0800 
 20 H       -5.1660    -0.2580     1.7170 H     1 <1>   0.0800 
 21 H       -2.6610     3.2940     0.2440 H     1 <1>   0.4500 
 22 H       -2.2440     1.8180     0.8740 H     1 <1>   0.4500 
 23 H       -4.7230     2.2690     1.5940 H     1 <1>   0.0800 
 24 H       -4.9690     3.4270     0.3110 H     1 <1>   0.0800 
 25 H       -6.3420     0.0950    -1.0420 H     1 <1>   0.0800 
 26 H       -7.2560    -0.1600     0.4090 H     1 <1>   0.0800 
 27 H       -1.3700     1.0350    -1.1540 H     1 <1>   0.0800 
 28 H       -1.8130     2.5500    -1.9280 H     1 <1>   0.0800 
 29 H       -6.9700     1.9950     1.1480 H     1 <1>   0.0800 
 30 H       -6.8100     2.2850    -0.5510 H     1 <1>   0.0800 
 31 H       -0.5150     4.5690    -1.5440 H     1 <1>   0.1500 
 32 H        0.2690     1.0350     0.7580 H     1 <1>   0.1500 
 33 H        1.5080     5.5920    -0.6330 H     1 <1>   0.1500 
 34 H        2.2880     2.0860     1.6510 H     1 <1>   0.1500 
 35 H        2.9100     4.3600     0.9630 H     1 <1>   0.1500 
@<TRIPOS>BOND
  1   1   2  1   
  2   1  16  1   
  3   2   3  1   
  4   2   4  1   
  5   2  17  1   
  6   3   5  1   
  7   3   6  1   
  8   3  18  1   
  9   4   7  1   
 10   4  19  1   
 11   4  20  1   
 12   5   8  1   
 13   5  21  1   
 14   5  22  1   
 15   6   9  1   
 16   6  23  1   
 17   6  24  1   
 18   7   9  1   
 19   7  25  1   
 20   7  26  1   
 21   8  10  1   
 22   8  27  1   
 23   8  28  1   
 24   9  29  1   
 25   9  30  1   
 26  10  11  ar  
 27  10  12  ar  
 28  11  13  ar  
 29  11  31  1   
 30  12  14  ar  
 31  12  32  1   
 32  13  15  ar  
 33  13  33  1   
 34  14  15  ar  
 35  14  34  1   
 36  15  35  1   
@<TRIPOS>SUBSTRUCTURE
  1 ****   5 GROUP 4 **** **** 0

# MOE 2024.06 (io_trps.svl 2023.06)
