@<TRIPOS>MOLECULE
NONAME
52 53 1 0 0 
SMALL
USER_CHARGES


@<TRIPOS>ATOM
  1 O        1.2550    -1.3220    -1.9400 O.2   1 <1>  -0.5700 
  2 C        1.1190    -1.6640    -0.7900 C.2   1 <1>   0.5690 
  3 N        1.6800    -1.0070     0.2660 N.am  1 <1>  -0.5470 
  4 C        0.2300    -2.8740    -0.4920 C.3   1 <1>   0.1710 
  5 C        2.4380     0.1750     0.2490 C.ar  1 <1>   0.1170 
  6 N       -1.0980    -2.5230     0.0980 N.3   1 <1>  -0.8100 
  7 C        3.7640     0.1720    -0.1970 C.ar  1 <1>  -0.1430 
  8 C        1.8600     1.3620     0.7160 C.ar  1 <1>  -0.1430 
  9 C       -1.8580    -3.7410     0.4430 C.3   1 <1>   0.1100 
 10 C       -1.8660    -1.6610    -0.8310 C.3   1 <1>   0.1100 
 11 C        4.4950     1.3470    -0.1740 C.ar  1 <1>  -0.1500 
 12 C        4.4620    -1.0870    -0.7060 C.3   1 <1>  -0.0170 
 13 C        2.6190     2.5240     0.7280 C.ar  1 <1>  -0.1500 
 14 C        0.4020     1.3480     1.1960 C.3   1 <1>  -0.0170 
 15 C       -3.2450    -3.4000     1.0290 C.3   1 <1>   0.3430 
 16 C       -3.2540    -1.2990    -0.2660 C.3   1 <1>   0.3430 
 17 C        3.9280     2.5190     0.2850 C.ar  1 <1>  -0.1500 
 18 C        4.9950    -1.9260     0.4600 C.3   1 <1>  -0.2400 
 19 C       -0.1850     2.7010     1.6180 C.3   1 <1>  -0.2400 
 20 N       -4.0450    -2.5270     0.1020 N.4   1 <1>  -0.9590 
 21 C       -5.3650    -2.1950     0.6970 C.3   1 <1>   0.3430 
 22 C       -6.2900    -1.6380    -0.3790 C.3   1 <1>  -0.2400 
 23 H        1.3690    -1.3030     1.1880 H     1 <1>   0.3700 
 24 H        0.7650    -3.5150     0.1870 H     1 <1>   0.0800 
 25 H        0.0880    -3.4170    -1.4100 H     1 <1>   0.0800 
 26 H       -1.3050    -4.3080     1.1730 H     1 <1>   0.0800 
 27 H       -1.9810    -4.3600    -0.4310 H     1 <1>   0.0800 
 28 H       -1.9820    -2.1530    -1.7830 H     1 <1>   0.0800 
 29 H       -1.3260    -0.7450    -1.0060 H     1 <1>   0.0800 
 30 H        5.5160     1.3590    -0.5130 H     1 <1>   0.1500 
 31 H        5.2840    -0.8120    -1.3440 H     1 <1>   0.0800 
 32 H        3.7930    -1.6750    -1.3060 H     1 <1>   0.0800 
 33 H        2.2150     3.4560     1.0760 H     1 <1>   0.1500 
 34 H        0.3250     0.6740     2.0310 H     1 <1>   0.0800 
 35 H       -0.2070     0.9580     0.4010 H     1 <1>   0.0800 
 36 H       -3.0980    -2.8920     1.9680 H     1 <1>   0.0800 
 37 H       -3.7800    -4.3140     1.2250 H     1 <1>   0.0800 
 38 H       -3.7880    -0.7190    -0.9990 H     1 <1>   0.0800 
 39 H       -3.1140    -0.6820     0.6070 H     1 <1>   0.0800 
 40 H        4.5050     3.4270     0.2980 H     1 <1>   0.1500 
 41 H        5.6870    -1.3460     1.0440 H     1 <1>   0.0800 
 42 H        5.5010    -2.7980     0.0860 H     1 <1>   0.0800 
 43 H        4.1860    -2.2390     1.0940 H     1 <1>   0.0800 
 44 H        0.3630     3.1040     2.4510 H     1 <1>   0.0800 
 45 H       -1.2110     2.5800     1.9150 H     1 <1>   0.0800 
 46 H       -0.1480     3.3970     0.7980 H     1 <1>   0.0800 
 47 H       -4.2070    -3.0590    -0.7620 H     1 <1>   0.4500 
 48 H       -5.2470    -1.4780     1.4940 H     1 <1>   0.0800 
 49 H       -5.8110    -3.0870     1.1100 H     1 <1>   0.0800 
 50 H       -5.9370    -0.6950    -0.7550 H     1 <1>   0.0800 
 51 H       -7.2640    -1.4730     0.0480 H     1 <1>   0.0800 
 52 H       -6.4000    -2.3360    -1.1900 H     1 <1>   0.0800 
@<TRIPOS>BOND
  1   1   2  2   
  2   2   3  am  
  3   2   4  1   
  4   3   5  1   
  5   3  23  1   
  6   4   6  1   
  7   4  24  1   
  8   4  25  1   
  9   5   7  ar  
 10   5   8  ar  
 11   6   9  1   
 12   6  10  1   
 13   7  11  ar  
 14   7  12  1   
 15   8  13  ar  
 16   8  14  1   
 17   9  15  1   
 18   9  26  1   
 19   9  27  1   
 20  10  16  1   
 21  10  28  1   
 22  10  29  1   
 23  11  17  ar  
 24  11  30  1   
 25  12  18  1   
 26  12  31  1   
 27  12  32  1   
 28  13  17  ar  
 29  13  33  1   
 30  14  19  1   
 31  14  34  1   
 32  14  35  1   
 33  15  20  1   
 34  15  36  1   
 35  15  37  1   
 36  16  20  1   
 37  16  38  1   
 38  16  39  1   
 39  17  40  1   
 40  18  41  1   
 41  18  42  1   
 42  18  43  1   
 43  19  44  1   
 44  19  45  1   
 45  19  46  1   
 46  20  21  1   
 47  20  47  1   
 48  21  22  1   
 49  21  48  1   
 50  21  49  1   
 51  22  50  1   
 52  22  51  1   
 53  22  52  1   
@<TRIPOS>SUBSTRUCTURE
  1 ****   3 GROUP 4 **** **** 0

# MOE 2024.06 (io_trps.svl 2023.06)
