@<TRIPOS>MOLECULE
NONAME
42 43 1 0 0 
SMALL
USER_CHARGES


@<TRIPOS>ATOM
  1 S        0.6340     0.0090    -0.3490 S.3   1 <1>  -0.2860 
  2 C        1.9650    -0.3280     0.8140 C.2   1 <1>   0.2420 
  3 C       -0.5860    -1.3340    -0.0080 C.3   1 <1>  -0.0100 
  4 N        1.9490    -1.3060     1.6500 N.2   1 <1>  -0.3380 
  5 N        3.0680     0.4310     0.8830 N.pl3 1 <1>   0.3260 
  6 N        3.0950    -1.2200     2.3320 N.2   1 <1>  -0.3380 
  7 C        3.4160     1.5970     0.1540 C.ar  1 <1>  -0.0230 
  8 C        3.7360    -0.1960     1.8710 C.2   1 <1>   0.0060 
  9 C        4.4030     1.5520    -0.8240 C.ar  1 <1>  -0.1500 
 10 C        2.7770     2.8050     0.4120 C.ar  1 <1>  -0.1500 
 11 C        5.0910     0.2600     2.3730 C.3   1 <1>   0.3200 
 12 C        4.7540     2.6940    -1.5210 C.ar  1 <1>  -0.1500 
 13 C        3.1260     3.9470    -0.2870 C.ar  1 <1>  -0.1500 
 14 N        6.1420    -0.3120     1.5130 N.am  1 <1>  -0.7300 
 15 C        4.1160     3.8920    -1.2530 C.ar  1 <1>  -0.1500 
 16 C        7.1210     0.3940     0.9150 C.2   1 <1>   0.7800 
 17 O        7.2820     1.5770     1.1250 O.2   1 <1>  -0.5700 
 18 O        7.8780    -0.2930     0.0660 O.3   1 <1>  -0.4300 
 19 C        8.9340     0.2110    -0.7250 C.3   1 <1>   0.2800 
 20 C        8.4030     1.2640    -1.7040 C.3   1 <1>  -0.2400 
 21 C        9.4540    -0.9930    -1.5120 C.3   1 <1>  -0.2400 
 22 C       10.0560     0.7540     0.1680 C.3   1 <1>  -0.2400 
 23 H       -1.4210    -1.1990    -0.6710 H     1 <1>   0.0800 
 24 H       -0.8900    -1.2490     1.0210 H     1 <1>   0.0800 
 25 H       -0.0970    -2.2750    -0.1850 H     1 <1>   0.0800 
 26 H        4.9050     0.6250    -1.0420 H     1 <1>   0.1500 
 27 H        2.0040     2.8570     1.1590 H     1 <1>   0.1500 
 28 H        5.2350    -0.0890     3.3810 H     1 <1>   0.0800 
 29 H        5.1460     1.3360     2.3750 H     1 <1>   0.0800 
 30 H        5.5240     2.6530    -2.2720 H     1 <1>   0.1500 
 31 H        2.6290     4.8790    -0.0810 H     1 <1>   0.1500 
 32 H        6.0710    -1.3080     1.3090 H     1 <1>   0.3700 
 33 H        4.3900     4.7810    -1.7950 H     1 <1>   0.1500 
 34 H        8.0840     2.1500    -1.1870 H     1 <1>   0.0800 
 35 H        7.5800     0.8670    -2.2710 H     1 <1>   0.0800 
 36 H        9.1800     1.5510    -2.3890 H     1 <1>   0.0800 
 37 H        8.6730    -1.4040    -2.1250 H     1 <1>   0.0800 
 38 H        9.8090    -1.7530    -0.8390 H     1 <1>   0.0800 
 39 H       10.2670    -0.6990    -2.1500 H     1 <1>   0.0800 
 40 H        9.7480     1.6470     0.6810 H     1 <1>   0.0800 
 41 H       10.9110     1.0060    -0.4320 H     1 <1>   0.0800 
 42 H       10.3510     0.0150     0.8900 H     1 <1>   0.0800 
@<TRIPOS>BOND
  1   1   2  1   
  2   1   3  1   
  3   2   4  2   
  4   2   5  1   
  5   3  23  1   
  6   3  24  1   
  7   3  25  1   
  8   4   6  1   
  9   5   7  1   
 10   5   8  1   
 11   6   8  2   
 12   7   9  ar  
 13   7  10  ar  
 14   8  11  1   
 15   9  12  ar  
 16   9  26  1   
 17  10  13  ar  
 18  10  27  1   
 19  11  14  1   
 20  11  28  1   
 21  11  29  1   
 22  12  15  ar  
 23  12  30  1   
 24  13  15  ar  
 25  13  31  1   
 26  14  16  am  
 27  14  32  1   
 28  15  33  1   
 29  16  17  2   
 30  16  18  1   
 31  18  19  1   
 32  19  20  1   
 33  19  21  1   
 34  19  22  1   
 35  20  34  1   
 36  20  35  1   
 37  20  36  1   
 38  21  37  1   
 39  21  38  1   
 40  21  39  1   
 41  22  40  1   
 42  22  41  1   
 43  22  42  1   
@<TRIPOS>SUBSTRUCTURE
  1 ****   9 GROUP 4 **** **** 0

# MOE 2024.06 (io_trps.svl 2023.06)
