@<TRIPOS>MOLECULE
NONAME
26 26 1 0 0 
SMALL
USER_CHARGES


@<TRIPOS>ATOM
  1 S       -0.1080     0.1460     0.0530 S.o2  1 <1>   1.3330 
  2 O        0.0550     0.6520    -1.2900 O.2   1 <1>  -0.6500 
  3 O       -0.2040     1.0450     1.1750 O.2   1 <1>  -0.6500 
  4 N       -1.5420    -0.7070     0.0960 N.am  1 <1>  -0.9140 
  5 C        1.1270    -1.1210     0.3760 C.3   1 <1>  -0.0550 
  6 C       -2.5790    -0.0420    -0.6660 C.3   1 <1>   0.3390 
  7 C        2.5730    -0.5980     0.4340 C.3   1 <1>  -0.2400 
  8 C       -3.9020    -0.7390    -0.3920 C.ar  1 <1>  -0.1440 
  9 C       -4.9590    -0.0890     0.2270 C.ar  1 <1>   0.1900 
 10 C       -4.0870    -2.0630    -0.7660 C.ar  1 <1>  -0.1500 
 11 F       -4.8240     1.1570     0.5960 F     1 <1>  -0.1900 
 12 C       -6.1700    -0.7080     0.4780 C.ar  1 <1>  -0.1500 
 13 C       -5.2940    -2.7020    -0.5240 C.ar  1 <1>  -0.1500 
 14 C       -6.3350    -2.0280     0.0960 C.ar  1 <1>  -0.1500 
 15 H       -1.8420    -0.6360     1.0680 H     1 <1>   0.4200 
 16 H        1.0630    -1.8670    -0.3930 H     1 <1>   0.0800 
 17 H        0.8980    -1.5990     1.3090 H     1 <1>   0.0800 
 18 H       -2.3540    -0.1020    -1.7180 H     1 <1>   0.0800 
 19 H       -2.6280     1.0000    -0.3920 H     1 <1>   0.0800 
 20 H        2.8380    -0.1390    -0.5030 H     1 <1>   0.0800 
 21 H        3.2540    -1.4080     0.6280 H     1 <1>   0.0800 
 22 H        2.6710     0.1340     1.2160 H     1 <1>   0.0800 
 23 H       -3.2870    -2.6000    -1.2460 H     1 <1>   0.1500 
 24 H       -6.9630    -0.1660     0.9600 H     1 <1>   0.1500 
 25 H       -5.4230    -3.7290    -0.8200 H     1 <1>   0.1500 
 26 H       -7.2690    -2.5310     0.2810 H     1 <1>   0.1500 
@<TRIPOS>BOND
  1   1   2  2   
  2   1   3  2   
  3   1   4  am  
  4   1   5  1   
  5   4   6  1   
  6   4  15  1   
  7   5   7  1   
  8   5  16  1   
  9   5  17  1   
 10   6   8  1   
 11   6  18  1   
 12   6  19  1   
 13   7  20  1   
 14   7  21  1   
 15   7  22  1   
 16   8   9  ar  
 17   8  10  ar  
 18   9  11  1   
 19   9  12  ar  
 20  10  13  ar  
 21  10  23  1   
 22  12  14  ar  
 23  12  24  1   
 24  13  14  ar  
 25  13  25  1   
 26  14  26  1   
@<TRIPOS>SUBSTRUCTURE
  1 ****   6 GROUP 4 **** **** 0

# MOE 2024.06 (io_trps.svl 2023.06)
