@<TRIPOS>MOLECULE
NONAME
44 46 1 0 0 
SMALL
USER_CHARGES


@<TRIPOS>ATOM
  1 CL      -0.1750    -1.8770     1.2520 Cl    1 <1>  -0.1770 
  2 C        1.4280    -1.9690     0.5780 C.ar  1 <1>   0.1770 
  3 C        2.5170    -1.6430     1.3610 C.ar  1 <1>  -0.1500 
  4 C        1.5970    -2.3650    -0.7330 C.ar  1 <1>  -0.1500 
  5 C        3.7910    -1.7180     0.8230 C.ar  1 <1>  -0.1500 
  6 C        2.8740    -2.4360    -1.2600 C.ar  1 <1>  -0.1500 
  7 C        4.0090    -2.1200    -0.5030 C.ar  1 <1>   0.0860 
  8 C        5.3250    -2.2210    -1.1110 C.2   1 <1>   0.4230 
  9 O        5.4740    -2.4810    -2.2800 O.2   1 <1>  -0.5700 
 10 C        6.6050    -2.0270    -0.2930 C.3   1 <1>   0.1250 
 11 C        6.7810    -0.5670     0.1150 C.ar  1 <1>  -0.1430 
 12 C        7.8120    -2.5210    -1.1310 C.3   1 <1>   0.3430 
 13 C        6.6870     0.4420    -0.8350 C.ar  1 <1>  -0.1500 
 14 C        7.0590    -0.2320     1.4350 C.ar  1 <1>  -0.1500 
 15 N        9.1900    -2.4420    -0.5090 N.4   1 <1>  -0.9590 
 16 C        6.8810     1.7630    -0.4730 C.ar  1 <1>  -0.1500 
 17 C        7.2540     1.0900     1.7940 C.ar  1 <1>  -0.1500 
 18 C        9.2920    -3.0840     0.8480 C.3   1 <1>   0.3430 
 19 C        9.7480    -1.0380    -0.4720 C.3   1 <1>   0.3430 
 20 C        7.1670     2.0870     0.8400 C.ar  1 <1>  -0.1500 
 21 C       10.7170    -2.9620     1.4210 C.3   1 <1>   0.1200 
 22 C       11.1480    -1.0060     0.1710 C.3   1 <1>   0.1200 
 23 O       11.1230    -1.6250     1.4260 O.3   1 <1>  -0.5600 
 24 H        2.3610    -1.3320     2.3790 H     1 <1>   0.1500 
 25 H        0.7370    -2.6120    -1.3300 H     1 <1>   0.1500 
 26 H        4.6100    -1.4490     1.4610 H     1 <1>   0.1500 
 27 H        2.9920    -2.7440    -2.2860 H     1 <1>   0.1500 
 28 H        6.5190    -2.6490     0.5780 H     1 <1>   0.0800 
 29 H        7.8190    -1.9610    -2.0530 H     1 <1>   0.0800 
 30 H        7.6150    -3.5460    -1.4010 H     1 <1>   0.0800 
 31 H        6.4590     0.2170    -1.8650 H     1 <1>   0.1500 
 32 H        7.1290    -0.9850     2.2010 H     1 <1>   0.1500 
 33 H        9.8210    -2.9690    -1.1270 H     1 <1>   0.4500 
 34 H        6.8030     2.5430    -1.2120 H     1 <1>   0.1500 
 35 H        7.4700     1.3480     2.8170 H     1 <1>   0.1500 
 36 H        9.0220    -4.1260     0.7860 H     1 <1>   0.0800 
 37 H        8.6150    -2.6020     1.5320 H     1 <1>   0.0800 
 38 H        9.1130    -0.3930     0.1070 H     1 <1>   0.0800 
 39 H        9.8020    -0.6340    -1.4690 H     1 <1>   0.0800 
 40 H        7.3150     3.1170     1.1210 H     1 <1>   0.1500 
 41 H       11.4220    -3.5370     0.8450 H     1 <1>   0.0800 
 42 H       10.7390    -3.3130     2.4380 H     1 <1>   0.0800 
 43 H       11.4620     0.0140     0.3170 H     1 <1>   0.0800 
 44 H       11.8750    -1.5020    -0.4480 H     1 <1>   0.0800 
@<TRIPOS>BOND
  1   1   2  1   
  2   2   3  ar  
  3   2   4  ar  
  4   3   5  ar  
  5   3  24  1   
  6   4   6  ar  
  7   4  25  1   
  8   5   7  ar  
  9   5  26  1   
 10   6   7  ar  
 11   6  27  1   
 12   7   8  1   
 13   8   9  2   
 14   8  10  1   
 15  10  11  1   
 16  10  12  1   
 17  10  28  1   
 18  11  13  ar  
 19  11  14  ar  
 20  12  15  1   
 21  12  29  1   
 22  12  30  1   
 23  13  16  ar  
 24  13  31  1   
 25  14  17  ar  
 26  14  32  1   
 27  15  18  1   
 28  15  19  1   
 29  15  33  1   
 30  16  20  ar  
 31  16  34  1   
 32  17  20  ar  
 33  17  35  1   
 34  18  21  1   
 35  18  36  1   
 36  18  37  1   
 37  19  22  1   
 38  19  38  1   
 39  19  39  1   
 40  20  40  1   
 41  21  23  1   
 42  21  41  1   
 43  21  42  1   
 44  22  23  1   
 45  22  43  1   
 46  22  44  1   
@<TRIPOS>SUBSTRUCTURE
  1 ****  10 GROUP 4 **** **** 0

# MOE 2024.06 (io_trps.svl 2023.06)
