@<TRIPOS>MOLECULE
NONAME
49 52 1 0 0 
SMALL
USER_CHARGES


@<TRIPOS>ATOM
  1 O       -0.3880    -0.3210    -0.2070 O.3   1 <1>  -0.5600 
  2 C       -1.3970    -0.5920     0.7200 C.3   1 <1>   0.1200 
  3 C        0.8180    -0.9880     0.0180 C.3   1 <1>   0.1200 
  4 C       -1.7200    -2.0990     0.7280 C.3   1 <1>   0.3430 
  5 C        0.5930    -2.5120    -0.0110 C.3   1 <1>   0.3430 
  6 N       -0.4840    -2.9330     0.9570 N.4   1 <1>  -0.9590 
  7 C       -0.7100    -4.4360     0.9670 C.3   1 <1>   0.3430 
  8 C       -1.5790    -5.1100    -0.1640 C.3   1 <1>   0.2800 
  9 O       -1.4650    -4.3850    -1.3530 O.3   1 <1>  -0.6800 
 10 C       -1.1560    -6.5830    -0.4380 C.3   1 <1>   0.0000 
 11 C       -3.0770    -5.1360     0.2100 C.3   1 <1>  -0.0800 
 12 C       -2.0220    -7.1900    -1.5740 C.3   1 <1>   0.3430 
 13 C       -1.3500    -7.3990     0.8560 C.3   1 <1>   0.1100 
 14 C        0.3250    -6.7140    -0.8730 C.3   1 <1>  -0.2400 
 15 C       -3.9180    -5.6670    -0.9610 C.3   1 <1>   0.3430 
 16 C       -3.3150    -5.9650     1.4830 C.3   1 <1>   0.1100 
 17 N       -3.5080    -7.0320    -1.4190 N.4   1 <1>  -0.9590 
 18 N       -2.7240    -7.3030     1.3680 N.3   1 <1>  -0.8100 
 19 C       -4.1490    -8.1300    -0.6080 C.3   1 <1>   0.3430 
 20 C       -3.6370    -8.3330     0.8370 C.3   1 <1>   0.1100 
 21 H       -2.2660    -0.0280     0.4290 H     1 <1>   0.0800 
 22 H       -1.0790    -0.2520     1.6900 H     1 <1>   0.0800 
 23 H        1.2230    -0.6670     0.9620 H     1 <1>   0.0800 
 24 H        1.5010    -0.6990    -0.7630 H     1 <1>   0.0800 
 25 H       -2.1570    -2.3500    -0.2240 H     1 <1>   0.0800 
 26 H       -2.4490    -2.2980     1.4960 H     1 <1>   0.0800 
 27 H        1.5200    -3.0090     0.2260 H     1 <1>   0.0800 
 28 H        0.3130    -2.7850    -1.0140 H     1 <1>   0.0800 
 29 H       -0.1340    -2.6680     1.8880 H     1 <1>   0.4500 
 30 H       -1.1470    -4.7050     1.9130 H     1 <1>   0.0800 
 31 H        0.2560    -4.9070     0.9660 H     1 <1>   0.0800 
 32 H       -0.5940    -4.5230    -1.7790 H     1 <1>   0.4000 
 33 H       -3.4200    -4.1400     0.4130 H     1 <1>   0.0800 
 34 H       -1.7830    -8.2360    -1.6780 H     1 <1>   0.0800 
 35 H       -1.7320    -6.7050    -2.4910 H     1 <1>   0.0800 
 36 H       -0.6810    -7.0470     1.6230 H     1 <1>   0.0800 
 37 H       -1.0980    -8.4340     0.6880 H     1 <1>   0.0800 
 38 H        0.5290    -6.1510    -1.7670 H     1 <1>   0.0800 
 39 H        0.5580    -7.7450    -1.0840 H     1 <1>   0.0800 
 40 H        1.0060    -6.3940    -0.1050 H     1 <1>   0.0800 
 41 H       -3.8070    -4.9800    -1.7850 H     1 <1>   0.0800 
 42 H       -4.9590    -5.6740    -0.6830 H     1 <1>   0.0800 
 43 H       -2.8800    -5.4750     2.3370 H     1 <1>   0.0800 
 44 H       -4.3710    -6.0480     1.6860 H     1 <1>   0.0800 
 45 H       -3.9020    -7.1370    -2.3650 H     1 <1>   0.4500 
 46 H       -4.0310    -9.0660    -1.1280 H     1 <1>   0.0800 
 47 H       -5.2090    -7.9470    -0.5550 H     1 <1>   0.0800 
 48 H       -4.4920    -8.4020     1.4880 H     1 <1>   0.0800 
 49 H       -3.1510    -9.2930     0.8950 H     1 <1>   0.0800 
@<TRIPOS>BOND
  1   1   2  1   
  2   1   3  1   
  3   2   4  1   
  4   2  21  1   
  5   2  22  1   
  6   3   5  1   
  7   3  23  1   
  8   3  24  1   
  9   4   6  1   
 10   4  25  1   
 11   4  26  1   
 12   5   6  1   
 13   5  27  1   
 14   5  28  1   
 15   6   7  1   
 16   6  29  1   
 17   7   8  1   
 18   7  30  1   
 19   7  31  1   
 20   8   9  1   
 21   8  10  1   
 22   8  11  1   
 23   9  32  1   
 24  10  12  1   
 25  10  13  1   
 26  10  14  1   
 27  11  15  1   
 28  11  16  1   
 29  11  33  1   
 30  12  17  1   
 31  12  34  1   
 32  12  35  1   
 33  13  18  1   
 34  13  36  1   
 35  13  37  1   
 36  14  38  1   
 37  14  39  1   
 38  14  40  1   
 39  15  17  1   
 40  15  41  1   
 41  15  42  1   
 42  16  18  1   
 43  16  43  1   
 44  16  44  1   
 45  17  19  1   
 46  17  45  1   
 47  18  20  1   
 48  19  20  1   
 49  19  46  1   
 50  19  47  1   
 51  20  48  1   
 52  20  49  1   
@<TRIPOS>SUBSTRUCTURE
  1 ****   8 GROUP 4 **** **** 0

# MOE 2024.06 (io_trps.svl 2023.06)
