@<TRIPOS>MOLECULE
NONAME
45 46 1 0 0 
SMALL
USER_CHARGES


@<TRIPOS>ATOM
  1 O       -0.6460    -0.4920    -0.8950 O.3   1 <1>  -0.5600 
  2 C       -0.1790    -1.7940    -0.6650 C.3   1 <1>   0.1200 
  3 C       -1.3150     0.0790     0.1980 C.3   1 <1>   0.1200 
  4 C       -1.3270    -2.7380    -0.2370 C.3   1 <1>   0.3430 
  5 C       -2.5460    -0.7660     0.6010 C.3   1 <1>   0.3430 
  6 N       -2.6480    -2.0240    -0.2190 N.4   1 <1>  -0.9590 
  7 C       -3.7740    -2.9170     0.1610 C.3   1 <1>   0.3430 
  8 C       -5.1140    -2.2600    -0.1730 C.3   1 <1>  -0.1600 
  9 C       -6.2810    -3.2200     0.0970 C.3   1 <1>  -0.1600 
 10 C       -7.6230    -2.5580    -0.2430 C.3   1 <1>  -0.1600 
 11 C       -8.7980    -3.5020     0.0160 C.3   1 <1>   0.1200 
 12 O       -9.9820    -2.8170    -0.3160 O.3   1 <1>  -0.3630 
 13 C      -11.1960    -3.4080    -0.1870 C.ar  1 <1>   0.0820 
 14 C      -12.3000    -2.6500    -0.5400 C.ar  1 <1>  -0.1500 
 15 C      -11.3820    -4.7090     0.2720 C.ar  1 <1>  -0.1500 
 16 C      -13.5760    -3.1760    -0.4380 C.ar  1 <1>  -0.1500 
 17 C      -12.6600    -5.2330     0.3720 C.ar  1 <1>  -0.1500 
 18 C      -13.7630    -4.4700     0.0200 C.ar  1 <1>  -0.1430 
 19 C      -15.1610    -5.0490     0.1300 C.3   1 <1>  -0.0970 
 20 H        0.5870    -1.7570     0.0910 H     1 <1>   0.0800 
 21 H        0.2690    -2.1460    -1.5780 H     1 <1>   0.0800 
 22 H       -1.6230     1.0710    -0.0860 H     1 <1>   0.0800 
 23 H       -0.6240     0.1640     1.0190 H     1 <1>   0.0800 
 24 H       -1.1080    -3.1310     0.7430 H     1 <1>   0.0800 
 25 H       -1.3660    -3.5720    -0.9180 H     1 <1>   0.0800 
 26 H       -3.4330    -0.1680     0.4700 H     1 <1>   0.0800 
 27 H       -2.4730    -1.0120     1.6480 H     1 <1>   0.0800 
 28 H       -2.7830    -1.6980    -1.1890 H     1 <1>   0.4500 
 29 H       -3.7290    -3.1450     1.2140 H     1 <1>   0.0800 
 30 H       -3.6990    -3.8430    -0.3870 H     1 <1>   0.0800 
 31 H       -5.1290    -1.9810    -1.2130 H     1 <1>   0.0800 
 32 H       -5.2540    -1.3770     0.4250 H     1 <1>   0.0800 
 33 H       -6.2830    -3.5100     1.1350 H     1 <1>   0.0800 
 34 H       -6.1660    -4.1100    -0.5000 H     1 <1>   0.0800 
 35 H       -7.6350    -2.2720    -1.2810 H     1 <1>   0.0800 
 36 H       -7.7540    -1.6740     0.3580 H     1 <1>   0.0800 
 37 H       -8.8490    -3.7780     1.0550 H     1 <1>   0.0800 
 38 H       -8.7300    -4.3790    -0.6030 H     1 <1>   0.0800 
 39 H      -12.1540    -1.6460    -0.8950 H     1 <1>   0.1500 
 40 H      -10.5520    -5.3270     0.5540 H     1 <1>   0.1500 
 41 H      -14.4220    -2.5730    -0.7180 H     1 <1>   0.1500 
 42 H      -12.7940    -6.2400     0.7270 H     1 <1>   0.1500 
 43 H      -15.8760    -4.2710     0.3290 H     1 <1>   0.0800 
 44 H      -15.2100    -5.7660     0.9310 H     1 <1>   0.0800 
 45 H      -15.4260    -5.5370    -0.7900 H     1 <1>   0.0800 
@<TRIPOS>BOND
  1   1   2  1   
  2   1   3  1   
  3   2   4  1   
  4   2  20  1   
  5   2  21  1   
  6   3   5  1   
  7   3  22  1   
  8   3  23  1   
  9   4   6  1   
 10   4  24  1   
 11   4  25  1   
 12   5   6  1   
 13   5  26  1   
 14   5  27  1   
 15   6   7  1   
 16   6  28  1   
 17   7   8  1   
 18   7  29  1   
 19   7  30  1   
 20   8   9  1   
 21   8  31  1   
 22   8  32  1   
 23   9  10  1   
 24   9  33  1   
 25   9  34  1   
 26  10  11  1   
 27  10  35  1   
 28  10  36  1   
 29  11  12  1   
 30  11  37  1   
 31  11  38  1   
 32  12  13  1   
 33  13  14  ar  
 34  13  15  ar  
 35  14  16  ar  
 36  14  39  1   
 37  15  17  ar  
 38  15  40  1   
 39  16  18  ar  
 40  16  41  1   
 41  17  18  ar  
 42  17  42  1   
 43  18  19  1   
 44  19  43  1   
 45  19  44  1   
 46  19  45  1   
@<TRIPOS>SUBSTRUCTURE
  1 ****  10 GROUP 4 **** **** 0

# MOE 2024.06 (io_trps.svl 2023.06)
