@<TRIPOS>MOLECULE
NONAME
52 54 1 0 0 
SMALL
USER_CHARGES


@<TRIPOS>ATOM
  1 S       -0.6330     1.3150    -2.1550 S.3   1 <1>  -0.0800 
  2 C       -0.3710    -0.0990    -1.1560 C.2   1 <1>   0.1040 
  3 C       -1.9760     1.8480    -1.1650 C.2   1 <1>  -0.1400 
  4 N        0.6470    -0.9830    -1.4800 N.am  1 <1>  -0.4940 
  5 C       -1.2760    -0.1490    -0.1280 C.2   1 <1>  -0.0860 
  6 C       -2.1850     0.9860    -0.1490 C.2   1 <1>  -0.1810 
  7 C       -2.6250     3.1400    -1.6230 C.3   1 <1>  -0.0600 
  8 C        1.6750    -0.9710    -2.3860 C.2   1 <1>   0.5690 
  9 C       -1.2730    -1.2240     0.8360 C.2   1 <1>   0.8060 
 10 C       -3.2730     1.1840     0.9000 C.3   1 <1>  -0.0590 
 11 O        1.9080    -0.0690    -3.1530 O.2   1 <1>  -0.5700 
 12 C        2.5770    -2.2070    -2.4020 C.3   1 <1>   0.1710 
 13 O       -0.3320    -1.9870     0.9750 O.2   1 <1>  -0.5700 
 14 O       -2.3460    -1.4200     1.6100 O.3   1 <1>  -0.4300 
 15 N        2.4740    -3.0580    -1.1760 N.3   1 <1>  -0.8100 
 16 C       -2.4050    -2.4690     2.5520 C.3   1 <1>   0.1200 
 17 C        3.0910    -2.3940     0.0010 C.3   1 <1>   0.1100 
 18 C        2.9220    -4.4500    -1.4180 C.3   1 <1>   0.1100 
 19 C       -3.7530    -2.3900     3.2600 C.3   1 <1>  -0.2400 
 20 C        3.3950    -3.4090     1.0990 C.3   1 <1>  -0.1600 
 21 C        4.3470    -4.6730    -0.9190 C.3   1 <1>  -0.1600 
 22 C        4.4160    -4.4360     0.5910 C.3   1 <1>   0.5600 
 23 O        5.7060    -4.0330     0.9130 O.3   1 <1>  -0.5600 
 24 O        4.2330    -5.6440     1.2500 O.3   1 <1>  -0.5600 
 25 C        6.0940    -4.6320     2.0980 C.3   1 <1>   0.1200 
 26 C        5.0020    -5.6410     2.3950 C.3   1 <1>   0.1200 
 27 H        0.7130    -1.8180    -0.8770 H     1 <1>   0.3700 
 28 H       -2.9770     3.0280    -2.6330 H     1 <1>   0.0800 
 29 H       -1.9030     3.9360    -1.5960 H     1 <1>   0.0800 
 30 H       -3.4560     3.4090    -1.0000 H     1 <1>   0.0800 
 31 H       -3.7740     2.1250     0.7790 H     1 <1>   0.0800 
 32 H       -2.8440     1.1650     1.8860 H     1 <1>   0.0800 
 33 H       -4.0090     0.4030     0.8200 H     1 <1>   0.0800 
 34 H        3.5960    -1.8950    -2.5480 H     1 <1>   0.0800 
 35 H        2.2850    -2.7820    -3.2620 H     1 <1>   0.0800 
 36 H       -1.5940    -2.3480     3.2510 H     1 <1>   0.0800 
 37 H       -2.2970    -3.4040     2.0290 H     1 <1>   0.0800 
 38 H        2.4240    -1.6420     0.3870 H     1 <1>   0.0800 
 39 H        4.0100    -1.9110    -0.2870 H     1 <1>   0.0800 
 40 H        2.8510    -4.6990    -2.4630 H     1 <1>   0.0800 
 41 H        2.2640    -5.1170    -0.8850 H     1 <1>   0.0800 
 42 H       -3.8510    -1.4480     3.7700 H     1 <1>   0.0800 
 43 H       -3.8280    -3.1810     3.9850 H     1 <1>   0.0800 
 44 H       -4.5530    -2.5000     2.5500 H     1 <1>   0.0800 
 45 H        2.4760    -3.9010     1.3620 H     1 <1>   0.0800 
 46 H        3.7740    -2.9030     1.9670 H     1 <1>   0.0800 
 47 H        4.9990    -3.9870    -1.4280 H     1 <1>   0.0800 
 48 H        4.6660    -5.6740    -1.1420 H     1 <1>   0.0800 
 49 H        6.1700    -3.8850     2.8680 H     1 <1>   0.0800 
 50 H        7.0460    -5.1110     1.9470 H     1 <1>   0.0800 
 51 H        5.3900    -6.6290     2.5670 H     1 <1>   0.0800 
 52 H        4.3910    -5.3280     3.2230 H     1 <1>   0.0800 
@<TRIPOS>BOND
  1   1   2  1   
  2   1   3  1   
  3   2   4  1   
  4   2   5  2   
  5   3   6  2   
  6   3   7  1   
  7   4   8  am  
  8   4  27  1   
  9   5   6  1   
 10   5   9  1   
 11   6  10  1   
 12   7  28  1   
 13   7  29  1   
 14   7  30  1   
 15   8  11  2   
 16   8  12  1   
 17   9  13  2   
 18   9  14  1   
 19  10  31  1   
 20  10  32  1   
 21  10  33  1   
 22  12  15  1   
 23  12  34  1   
 24  12  35  1   
 25  14  16  1   
 26  15  17  1   
 27  15  18  1   
 28  16  19  1   
 29  16  36  1   
 30  16  37  1   
 31  17  20  1   
 32  17  38  1   
 33  17  39  1   
 34  18  21  1   
 35  18  40  1   
 36  18  41  1   
 37  19  42  1   
 38  19  43  1   
 39  19  44  1   
 40  20  22  1   
 41  20  45  1   
 42  20  46  1   
 43  21  22  1   
 44  21  47  1   
 45  21  48  1   
 46  22  23  1   
 47  22  24  1   
 48  23  25  1   
 49  24  26  1   
 50  25  26  1   
 51  25  49  1   
 52  25  50  1   
 53  26  51  1   
 54  26  52  1   
@<TRIPOS>SUBSTRUCTURE
  1 ****  13 GROUP 4 **** **** 0

# MOE 2024.06 (io_trps.svl 2023.06)
