@<TRIPOS>MOLECULE
NONAME
29 29 1 0 0 
SMALL
USER_CHARGES


@<TRIPOS>ATOM
  1 S       -0.0970    -1.2100    -1.9440 S.2   1 <1>  -0.6770 
  2 P        1.1100    -1.5950    -0.4760 P.3   1 <1>   0.8160 
  3 C        2.5740    -0.5910    -0.4440 C.ar  1 <1>  -0.1390 
  4 C        0.3460    -1.3490     1.1060 C.3   1 <1>  -0.1600 
  5 C        1.6770    -3.2760    -0.4950 C.3   1 <1>  -0.1600 
  6 C        3.5360    -0.7630     0.5430 C.ar  1 <1>  -0.1500 
  7 C        2.8170     0.3940    -1.3920 C.ar  1 <1>  -0.1500 
  8 C       -0.9350    -2.1610     1.3580 C.3   1 <1>  -0.2400 
  9 C        2.5160    -3.6570    -1.7250 C.3   1 <1>  -0.2400 
 10 C        4.7050    -0.0070     0.6240 C.ar  1 <1>  -0.1790 
 11 C        3.9640     1.1670    -1.3510 C.ar  1 <1>  -0.1500 
 12 C        5.6760    -0.2350     1.6880 C.2   1 <1>   0.9790 
 13 C        4.8970     0.9670    -0.3530 C.ar  1 <1>  -0.1500 
 14 O        5.4690    -1.1110     2.5480 O.co2 1 <1>  -0.9000 
 15 O        6.7200     0.4370     1.7540 O.co2 1 <1>  -0.9000 
 16 H        0.0910    -0.3100     1.2180 H     1 <1>   0.0800 
 17 H        1.0350    -1.5730     1.8990 H     1 <1>   0.0800 
 18 H        0.8380    -3.9460    -0.4620 H     1 <1>   0.0800 
 19 H        2.2700    -3.4840     0.3760 H     1 <1>   0.0800 
 20 H        3.3970    -1.5150     1.3000 H     1 <1>   0.1500 
 21 H        2.1010     0.5650    -2.1790 H     1 <1>   0.1500 
 22 H       -1.6730    -1.9370     0.6060 H     1 <1>   0.0800 
 23 H       -1.3450    -1.9140     2.3220 H     1 <1>   0.0800 
 24 H       -0.7290    -3.2170     1.3360 H     1 <1>   0.0800 
 25 H        3.4080    -3.0540    -1.7720 H     1 <1>   0.0800 
 26 H        1.9490    -3.5030    -2.6270 H     1 <1>   0.0800 
 27 H        2.8070    -4.6910    -1.6720 H     1 <1>   0.0800 
 28 H        4.1310     1.9240    -2.0960 H     1 <1>   0.1500 
 29 H        5.7920     1.5660    -0.3150 H     1 <1>   0.1500 
@<TRIPOS>BOND
  1   1   2  2   
  2   2   3  1   
  3   2   4  1   
  4   2   5  1   
  5   3   6  ar  
  6   3   7  ar  
  7   4   8  1   
  8   4  16  1   
  9   4  17  1   
 10   5   9  1   
 11   5  18  1   
 12   5  19  1   
 13   6  10  ar  
 14   6  20  1   
 15   7  11  ar  
 16   7  21  1   
 17   8  22  1   
 18   8  23  1   
 19   8  24  1   
 20   9  25  1   
 21   9  26  1   
 22   9  27  1   
 23  10  12  1   
 24  10  13  ar  
 25  11  13  ar  
 26  11  28  1   
 27  12  14  ar  
 28  12  15  ar  
 29  13  29  1   
@<TRIPOS>SUBSTRUCTURE
  1 ****   6 GROUP 4 **** **** 0

# MOE 2024.06 (io_trps.svl 2023.06)
