@<TRIPOS>MOLECULE
NONAME
60 62 1 0 0 
SMALL
USER_CHARGES


@<TRIPOS>ATOM
  1 O       -1.1720    -2.7990    -0.6070 O.3   1 <1>  -0.3630 
  2 C       -2.4990    -2.9970    -0.4090 C.ar  1 <1>   0.0830 
  3 C       -0.4580    -1.8210     0.1170 C.3   1 <1>   0.1200 
  4 C       -3.2570    -2.3150     0.5380 C.ar  1 <1>  -0.1500 
  5 C       -3.1150    -3.9400    -1.2100 C.ar  1 <1>  -0.1500 
  6 C        0.9990    -1.8360    -0.3610 C.3   1 <1>   0.2000 
  7 C       -4.6130    -2.5700     0.6830 C.ar  1 <1>  -0.1440 
  8 C       -4.4640    -4.1970    -1.0700 C.ar  1 <1>  -0.1500 
  9 O        1.4770    -3.1480    -0.3170 O.3   1 <1>  -0.6800 
 10 C        1.9200    -0.9380     0.4920 C.3   1 <1>   0.3430 
 11 C       -5.2330    -3.5220    -0.1280 C.ar  1 <1>  -0.1440 
 12 C       -5.3770    -1.7830     1.7410 C.3   1 <1>  -0.0970 
 13 N        3.3380    -1.4020     0.3920 N.4   1 <1>  -0.9590 
 14 C       -6.7280    -3.8580    -0.0270 C.3   1 <1>   0.0630 
 15 C        4.1720    -1.0320     1.5940 C.3   1 <1>   0.3430 
 16 C        4.0030    -0.9880    -0.8990 C.3   1 <1>   0.3430 
 17 C       -6.9370    -5.3250     0.3640 C.3   1 <1>  -0.2400 
 18 C       -7.4530    -3.5390    -1.3400 C.3   1 <1>  -0.2400 
 19 C        5.6240    -1.5450     1.4880 C.3   1 <1>   0.2090 
 20 C        5.4530    -1.5050    -1.0080 C.3   1 <1>   0.2090 
 21 N        6.2410    -1.1220     0.1980 N.pl3 1 <1>  -0.8380 
 22 C        7.6190    -1.2810     0.1040 C.ar  1 <1>   0.1000 
 23 C        8.4410    -0.1630     0.1080 C.ar  1 <1>  -0.1500 
 24 C        8.2020    -2.5410     0.0060 C.ar  1 <1>  -0.1500 
 25 C        9.8150    -0.2940     0.0170 C.ar  1 <1>  -0.1500 
 26 C        9.5750    -2.6760    -0.0860 C.ar  1 <1>  -0.1500 
 27 C       10.3840    -1.5520    -0.0810 C.ar  1 <1>  -0.1500 
 28 H       -0.5210    -2.0620     1.1640 H     1 <1>   0.0800 
 29 H       -0.9130    -0.8630    -0.0680 H     1 <1>   0.0800 
 30 H       -2.8040    -1.5810     1.1730 H     1 <1>   0.1500 
 31 H       -2.5380    -4.4720    -1.9440 H     1 <1>   0.1500 
 32 H        1.0290    -1.5120    -1.3880 H     1 <1>   0.0800 
 33 H       -4.9160    -4.9360    -1.7070 H     1 <1>   0.1500 
 34 H        0.7590    -3.7470    -0.6370 H     1 <1>   0.4000 
 35 H        1.5970    -1.0100     1.5170 H     1 <1>   0.0800 
 36 H        1.8300     0.0920     0.1890 H     1 <1>   0.0800 
 37 H       -4.7330    -1.0990     2.2640 H     1 <1>   0.0800 
 38 H       -5.8040    -2.4560     2.4630 H     1 <1>   0.0800 
 39 H       -6.1630    -1.2130     1.2800 H     1 <1>   0.0800 
 40 H        3.2470    -2.4360     0.3530 H     1 <1>   0.4500 
 41 H       -7.1930    -3.2640     0.7370 H     1 <1>   0.0800 
 42 H        3.7240    -1.4320     2.4880 H     1 <1>   0.0800 
 43 H        4.2060     0.0400     1.6900 H     1 <1>   0.0800 
 44 H        4.0280     0.0870    -0.9620 H     1 <1>   0.0800 
 45 H        3.4370    -1.3590    -1.7370 H     1 <1>   0.0800 
 46 H       -6.5670    -5.9860    -0.3990 H     1 <1>   0.0800 
 47 H       -7.9820    -5.5260     0.5140 H     1 <1>   0.0800 
 48 H       -6.4130    -5.5340     1.2800 H     1 <1>   0.0800 
 49 H       -7.0940    -4.1590    -2.1400 H     1 <1>   0.0800 
 50 H       -7.2870    -2.5090    -1.6040 H     1 <1>   0.0800 
 51 H       -8.5100    -3.6980    -1.2290 H     1 <1>   0.0800 
 52 H        5.6390    -2.6190     1.5630 H     1 <1>   0.0800 
 53 H        6.2040    -1.1480     2.3040 H     1 <1>   0.0800 
 54 H        5.9190    -1.0830    -1.8830 H     1 <1>   0.0800 
 55 H        5.4510    -2.5750    -1.1180 H     1 <1>   0.0800 
 56 H        7.9960     0.8120     0.1830 H     1 <1>   0.1500 
 57 H        7.5810    -3.4160     0.0030 H     1 <1>   0.1500 
 58 H       10.4420     0.5810     0.0210 H     1 <1>   0.1500 
 59 H       10.0180    -3.6540    -0.1610 H     1 <1>   0.1500 
 60 H       11.4530    -1.6560    -0.1520 H     1 <1>   0.1500 
@<TRIPOS>BOND
  1   1   2  1   
  2   1   3  1   
  3   2   4  ar  
  4   2   5  ar  
  5   3   6  1   
  6   3  28  1   
  7   3  29  1   
  8   4   7  ar  
  9   4  30  1   
 10   5   8  ar  
 11   5  31  1   
 12   6   9  1   
 13   6  10  1   
 14   6  32  1   
 15   7  11  ar  
 16   7  12  1   
 17   8  11  ar  
 18   8  33  1   
 19   9  34  1   
 20  10  13  1   
 21  10  35  1   
 22  10  36  1   
 23  11  14  1   
 24  12  37  1   
 25  12  38  1   
 26  12  39  1   
 27  13  15  1   
 28  13  16  1   
 29  13  40  1   
 30  14  17  1   
 31  14  18  1   
 32  14  41  1   
 33  15  19  1   
 34  15  42  1   
 35  15  43  1   
 36  16  20  1   
 37  16  44  1   
 38  16  45  1   
 39  17  46  1   
 40  17  47  1   
 41  17  48  1   
 42  18  49  1   
 43  18  50  1   
 44  18  51  1   
 45  19  21  1   
 46  19  52  1   
 47  19  53  1   
 48  20  21  1   
 49  20  54  1   
 50  20  55  1   
 51  21  22  1   
 52  22  23  ar  
 53  22  24  ar  
 54  23  25  ar  
 55  23  56  1   
 56  24  26  ar  
 57  24  57  1   
 58  25  27  ar  
 59  25  58  1   
 60  26  27  ar  
 61  26  59  1   
 62  27  60  1   
@<TRIPOS>SUBSTRUCTURE
  1 ****   6 GROUP 4 **** **** 0

# MOE 2024.06 (io_trps.svl 2023.06)
