@<TRIPOS>MOLECULE
NONAME
37 39 1 0 0 
SMALL
USER_CHARGES


@<TRIPOS>ATOM
  1 O       -3.5280    -0.8280     0.0980 O.2   1 <1>  -0.5700 
  2 C       -4.6300    -0.4650    -0.1810 C.2   1 <1>   0.4480 
  3 C       -5.0120     0.3080    -1.4060 C.3   1 <1>  -0.0190 
  4 C       -5.8700    -0.5210     0.6660 C.3   1 <1>  -0.0190 
  5 C       -4.9890     1.7910    -0.9430 C.3   1 <1>   0.4230 
  6 C       -6.4240    -0.2360    -1.7130 C.3   1 <1>  -0.1600 
  7 C       -6.0350     0.8910     1.2740 C.3   1 <1>  -0.1600 
  8 C       -6.9600    -0.8060    -0.3810 C.3   1 <1>  -0.1600 
  9 N       -3.6210     2.1930    -0.4400 N.4   1 <1>  -0.9590 
 10 C       -6.0460     1.9950     0.1830 C.3   1 <1>  -0.1600 
 11 C       -3.5220     3.6420    -0.0720 C.3   1 <1>   0.3430 
 12 C       -2.5020     1.8200    -1.3680 C.3   1 <1>   0.3430 
 13 C       -2.1950     3.9180     0.6370 C.3   1 <1>  -0.1600 
 14 C       -1.1520     2.0590    -0.6890 C.3   1 <1>  -0.1600 
 15 C       -0.9960     3.5100    -0.2240 C.3   1 <1>  -0.1600 
 16 H       -4.3580     0.1190    -2.2360 H     1 <1>   0.0800 
 17 H       -5.8100    -1.2850     1.4230 H     1 <1>   0.0800 
 18 H       -5.2490     2.4190    -1.7800 H     1 <1>   0.0800 
 19 H       -6.3540    -1.0370    -2.4300 H     1 <1>   0.0800 
 20 H       -7.0750     0.5190    -2.1210 H     1 <1>   0.0800 
 21 H       -6.9470     0.9350     1.8460 H     1 <1>   0.0800 
 22 H       -5.2220     1.0680     1.9580 H     1 <1>   0.0800 
 23 H       -7.9090    -0.3760    -0.1060 H     1 <1>   0.0800 
 24 H       -7.0900    -1.8720    -0.4780 H     1 <1>   0.0800 
 25 H       -3.4470     1.6400     0.4140 H     1 <1>   0.4500 
 26 H       -7.0180     1.9870    -0.2790 H     1 <1>   0.0800 
 27 H       -5.9780     2.9610     0.6440 H     1 <1>   0.0800 
 28 H       -4.3210     3.9270     0.5900 H     1 <1>   0.0800 
 29 H       -3.5870     4.2480    -0.9610 H     1 <1>   0.0800 
 30 H       -2.5630     2.4030    -2.2720 H     1 <1>   0.0800 
 31 H       -2.5590     0.7760    -1.6260 H     1 <1>   0.0800 
 32 H       -2.1720     3.3870     1.5730 H     1 <1>   0.0800 
 33 H       -2.1280     4.9690     0.8620 H     1 <1>   0.0800 
 34 H       -0.3640     1.8200    -1.3820 H     1 <1>   0.0800 
 35 H       -1.0550     1.3890     0.1480 H     1 <1>   0.0800 
 36 H       -0.0840     3.6180     0.3400 H     1 <1>   0.0800 
 37 H       -0.9290     4.1590    -1.0820 H     1 <1>   0.0800 
@<TRIPOS>BOND
  1   1   2  2   
  2   2   3  1   
  3   2   4  1   
  4   3   5  1   
  5   3   6  1   
  6   3  16  1   
  7   4   7  1   
  8   4   8  1   
  9   4  17  1   
 10   5   9  1   
 11   5  10  1   
 12   5  18  1   
 13   6   8  1   
 14   6  19  1   
 15   6  20  1   
 16   7  10  1   
 17   7  21  1   
 18   7  22  1   
 19   8  23  1   
 20   8  24  1   
 21   9  11  1   
 22   9  12  1   
 23   9  25  1   
 24  10  26  1   
 25  10  27  1   
 26  11  13  1   
 27  11  28  1   
 28  11  29  1   
 29  12  14  1   
 30  12  30  1   
 31  12  31  1   
 32  13  15  1   
 33  13  32  1   
 34  13  33  1   
 35  14  15  1   
 36  14  34  1   
 37  14  35  1   
 38  15  36  1   
 39  15  37  1   
@<TRIPOS>SUBSTRUCTURE
  1 ****   9 GROUP 4 **** **** 0

# MOE 2024.06 (io_trps.svl 2023.06)
