@<TRIPOS>MOLECULE
NONAME
41 42 1 0 0 
SMALL
USER_CHARGES


@<TRIPOS>ATOM
  1 S        0.3070     2.0200    -1.2100 S.o2  1 <1>   1.4470 
  2 O       -0.1740     2.9960    -2.1630 O.2   1 <1>  -0.6500 
  3 O        1.5450     1.3240    -1.4850 O.2   1 <1>  -0.6500 
  4 N        0.5400     2.8500     0.2450 N.am  1 <1>  -0.8490 
  5 C       -0.9930     0.8220    -0.8030 C.ar  1 <1>  -0.0090 
  6 C        1.6970     3.7810     0.1920 C.3   1 <1>   0.3370 
  7 C       -0.6350     3.5890     0.6960 C.3   1 <1>   0.1960 
  8 C       -0.8540    -0.0420     0.2760 C.ar  1 <1>  -0.1500 
  9 C       -2.1600     0.7390    -1.5530 C.ar  1 <1>  -0.1500 
 10 C        2.9760     3.2020     0.8630 C.2   1 <1>   0.5690 
 11 C        1.1870     5.0950     0.8140 C.3   1 <1>  -0.1600 
 12 C       -0.0810     4.7080     1.5550 C.3   1 <1>  -0.1600 
 13 C       -1.8440    -0.9540     0.6000 C.ar  1 <1>  -0.1500 
 14 C       -3.1540    -0.1710    -1.2350 C.ar  1 <1>  -0.1500 
 15 O        3.5070     3.7770     1.7870 O.2   1 <1>  -0.5700 
 16 N        3.5040     2.0440     0.3860 N.am  1 <1>  -0.7300 
 17 C       -3.0010    -1.0230    -0.1560 C.ar  1 <1>  -0.1430 
 18 C        4.6980     1.3700     0.9030 C.3   1 <1>   0.2780 
 19 C       -4.0890    -2.0210     0.1960 C.3   1 <1>  -0.0970 
 20 C        5.4530     0.8070    -0.2810 C.2   1 <1>  -0.2880 
 21 C        5.6890    -0.4890    -0.5080 C.2   1 <1>  -0.3000 
 22 H        1.9540     3.9890    -0.8330 H     1 <1>   0.0800 
 23 H       -1.3040     2.9520     1.2510 H     1 <1>   0.0800 
 24 H       -1.1610     4.0180    -0.1410 H     1 <1>   0.0800 
 25 H        0.0430     0.0020     0.8720 H     1 <1>   0.1500 
 26 H       -2.2950     1.3940    -2.3980 H     1 <1>   0.1500 
 27 H        0.9460     5.7770     0.0180 H     1 <1>   0.0800 
 28 H        1.9000     5.5770     1.4590 H     1 <1>   0.0800 
 29 H        0.1600     4.3240     2.5320 H     1 <1>   0.0800 
 30 H       -0.7720     5.5260     1.6510 H     1 <1>   0.0800 
 31 H       -1.7080    -1.6090     1.4430 H     1 <1>   0.1500 
 32 H       -4.0490    -0.2120    -1.8340 H     1 <1>   0.1500 
 33 H        3.0160     1.5440    -0.3730 H     1 <1>   0.3700 
 34 H        4.3990     0.5790     1.5700 H     1 <1>   0.0800 
 35 H        5.3170     2.0660     1.4450 H     1 <1>   0.0800 
 36 H       -3.6630    -2.9000     0.6460 H     1 <1>   0.0800 
 37 H       -4.6260    -2.3210    -0.6870 H     1 <1>   0.0800 
 38 H       -4.7810    -1.5770     0.8880 H     1 <1>   0.0800 
 39 H        5.7900     1.5830    -0.9480 H     1 <1>   0.1500 
 40 H        6.2280    -0.8590    -1.3630 H     1 <1>   0.1500 
 41 H        5.3620    -1.2880     0.1360 H     1 <1>   0.1500 
@<TRIPOS>BOND
  1   1   2  2   
  2   1   3  2   
  3   1   4  am  
  4   1   5  1   
  5   4   6  1   
  6   4   7  1   
  7   5   8  ar  
  8   5   9  ar  
  9   6  10  1   
 10   6  11  1   
 11   6  22  1   
 12   7  12  1   
 13   7  23  1   
 14   7  24  1   
 15   8  13  ar  
 16   8  25  1   
 17   9  14  ar  
 18   9  26  1   
 19  10  15  2   
 20  10  16  am  
 21  11  12  1   
 22  11  27  1   
 23  11  28  1   
 24  12  29  1   
 25  12  30  1   
 26  13  17  ar  
 27  13  31  1   
 28  14  17  ar  
 29  14  32  1   
 30  16  18  1   
 31  16  33  1   
 32  17  19  1   
 33  18  20  1   
 34  18  34  1   
 35  18  35  1   
 36  19  36  1   
 37  19  37  1   
 38  19  38  1   
 39  20  21  2   
 40  20  39  1   
 41  21  40  1   
 42  21  41  1   
@<TRIPOS>SUBSTRUCTURE
  1 ****   4 GROUP 4 **** **** 0

# MOE 2024.06 (io_trps.svl 2023.06)
