@<TRIPOS>MOLECULE
NONAME
44 44 1 0 0 
SMALL
USER_CHARGES


@<TRIPOS>ATOM
  1 O       -0.6760    -0.5300    -0.9090 O.2   1 <1>  -0.5700 
  2 C        0.0400    -1.3230    -0.3210 C.2   1 <1>   0.5440 
  3 N        1.3500    -0.9850    -0.1200 N.am  1 <1>  -0.7300 
  4 C       -0.4750    -2.5850     0.1800 C.ar  1 <1>   0.0860 
  5 C        2.0050     0.2480    -0.6040 C.3   1 <1>   0.1400 
  6 C       -1.7760    -2.7020     0.7080 C.ar  1 <1>   0.1170 
  7 C        0.3330    -3.7260     0.1540 C.ar  1 <1>  -0.1500 
  8 C        3.3810    -0.1070    -1.1660 C.3   1 <1>  -0.1600 
  9 N       -2.6150    -1.5780     0.7140 N.am  1 <1>  -0.5470 
 10 C       -2.2030    -3.9350     1.1970 C.ar  1 <1>  -0.1500 
 11 C       -0.1070    -4.9390     0.6450 C.ar  1 <1>  -0.1500 
 12 C        4.1100     1.1380    -1.6830 C.3   1 <1>  -0.2400 
 13 C       -3.8080    -1.2820     1.3120 C.2   1 <1>   0.5690 
 14 C       -1.3810    -5.0420     1.1710 C.ar  1 <1>  -0.1500 
 15 O       -4.3850    -2.0250     2.0670 O.2   1 <1>  -0.5700 
 16 C       -4.4080     0.0850     1.0310 C.3   1 <1>  -0.0990 
 17 C       -5.2020     0.2040    -0.2920 C.3   1 <1>   0.0000 
 18 C       -5.7930     1.6190    -0.3800 C.3   1 <1>  -0.2400 
 19 C       -6.3530    -0.8120    -0.3270 C.3   1 <1>  -0.2400 
 20 C       -4.2990    -0.0180    -1.5170 C.3   1 <1>  -0.2400 
 21 H        1.9220    -1.5720     0.4870 H     1 <1>   0.3700 
 22 H        2.1040     0.9420     0.2130 H     1 <1>   0.0800 
 23 H        1.4050     0.7090    -1.3720 H     1 <1>   0.0800 
 24 H        1.3220    -3.6640    -0.2650 H     1 <1>   0.1500 
 25 H        3.2620    -0.8050    -1.9770 H     1 <1>   0.0800 
 26 H        3.9770    -0.5680    -0.3980 H     1 <1>   0.0800 
 27 H       -2.2580    -0.8260     0.1080 H     1 <1>   0.3700 
 28 H       -3.1930    -4.0400     1.6010 H     1 <1>   0.1500 
 29 H        0.5330    -5.8050     0.6170 H     1 <1>   0.1500 
 30 H        3.5430     1.6070    -2.4680 H     1 <1>   0.0800 
 31 H        5.0740     0.8640    -2.0760 H     1 <1>   0.0800 
 32 H        4.2560     1.8480    -0.8870 H     1 <1>   0.0800 
 33 H       -1.7330    -5.9840     1.5560 H     1 <1>   0.1500 
 34 H       -3.6160     0.8100     1.0410 H     1 <1>   0.0800 
 35 H       -5.0600     0.3230     1.8510 H     1 <1>   0.0800 
 36 H       -5.0120     2.3570    -0.3730 H     1 <1>   0.0800 
 37 H       -6.4480     1.8080     0.4530 H     1 <1>   0.0800 
 38 H       -6.3610     1.7370    -1.2860 H     1 <1>   0.0800 
 39 H       -6.9960    -0.6830     0.5250 H     1 <1>   0.0800 
 40 H       -5.9760    -1.8200    -0.3130 H     1 <1>   0.0800 
 41 H       -6.9400    -0.6880    -1.2200 H     1 <1>   0.0800 
 42 H       -3.4490     0.6410    -1.4910 H     1 <1>   0.0800 
 43 H       -4.8440     0.1740    -2.4240 H     1 <1>   0.0800 
 44 H       -3.9450    -1.0320    -1.5610 H     1 <1>   0.0800 
@<TRIPOS>BOND
  1   1   2  2   
  2   2   3  am  
  3   2   4  1   
  4   3   5  1   
  5   3  21  1   
  6   4   6  ar  
  7   4   7  ar  
  8   5   8  1   
  9   5  22  1   
 10   5  23  1   
 11   6   9  1   
 12   6  10  ar  
 13   7  11  ar  
 14   7  24  1   
 15   8  12  1   
 16   8  25  1   
 17   8  26  1   
 18   9  13  am  
 19   9  27  1   
 20  10  14  ar  
 21  10  28  1   
 22  11  14  ar  
 23  11  29  1   
 24  12  30  1   
 25  12  31  1   
 26  12  32  1   
 27  13  15  2   
 28  13  16  1   
 29  14  33  1   
 30  16  17  1   
 31  16  34  1   
 32  16  35  1   
 33  17  18  1   
 34  17  19  1   
 35  17  20  1   
 36  18  36  1   
 37  18  37  1   
 38  18  38  1   
 39  19  39  1   
 40  19  40  1   
 41  19  41  1   
 42  20  42  1   
 43  20  43  1   
 44  20  44  1   
@<TRIPOS>SUBSTRUCTURE
  1 ****   9 GROUP 4 **** **** 0

# MOE 2024.06 (io_trps.svl 2023.06)
