@<TRIPOS>MOLECULE
NONAME
44 45 1 0 0 
SMALL
USER_CHARGES


@<TRIPOS>ATOM
  1 F       -1.0960     1.5070     1.0060 F     1 <1>  -0.3400 
  2 C       -1.4920     1.1260    -0.2010 C.3   1 <1>   1.1640 
  3 F       -0.4540     0.5180    -0.7630 F     1 <1>  -0.3400 
  4 F       -1.6890     2.2410    -0.8960 F     1 <1>  -0.3400 
  5 C       -2.7480     0.2420    -0.1400 C.ar  1 <1>  -0.1440 
  6 C       -4.0160     0.8130    -0.1250 C.ar  1 <1>  -0.1500 
  7 C       -2.6430    -1.1440    -0.0880 C.ar  1 <1>  -0.1500 
  8 C       -5.1680     0.0360    -0.0640 C.ar  1 <1>   0.1170 
  9 C       -3.7780    -1.9310    -0.0290 C.ar  1 <1>  -0.1500 
 10 N       -6.4130     0.6850    -0.0680 N.am  1 <1>  -0.5470 
 11 C       -5.0290    -1.3470    -0.0200 C.ar  1 <1>  -0.1500 
 12 C       -7.6250     0.2610     0.4190 C.2   1 <1>   0.5690 
 13 O       -7.7890    -0.7960     0.9810 O.2   1 <1>  -0.5700 
 14 C       -8.8670     1.1560     0.2590 C.3   1 <1>   0.4040 
 15 N      -10.1660     0.3910     0.3570 N.4   1 <1>  -0.9590 
 16 C      -10.3890    -0.5160    -0.8040 C.3   1 <1>   0.3430 
 17 C      -11.3520     1.2590     0.6520 C.3   1 <1>   0.3430 
 18 C      -11.4730    -1.5500    -0.4460 C.3   1 <1>  -0.0800 
 19 C      -12.6960     0.5310     0.4260 C.3   1 <1>  -0.0800 
 20 C      -12.5410    -0.9980     0.5260 C.3   1 <1>  -0.1600 
 21 C      -10.8370    -2.8210     0.1370 C.3   1 <1>  -0.2400 
 22 C      -13.3460     0.9420    -0.9070 C.3   1 <1>  -0.2400 
 23 H       -4.1120     1.8840    -0.1560 H     1 <1>   0.1500 
 24 H       -1.6760    -1.6220    -0.0910 H     1 <1>   0.1500 
 25 H       -3.6860    -3.0040     0.0100 H     1 <1>   0.1500 
 26 H       -6.3650     1.6310    -0.4460 H     1 <1>   0.3700 
 27 H       -5.8940    -1.9830     0.0210 H     1 <1>   0.1500 
 28 H       -8.8170     1.6640    -0.6890 H     1 <1>   0.0800 
 29 H       -8.8340     1.8960     1.0400 H     1 <1>   0.0800 
 30 H      -10.0390    -0.2600     1.1510 H     1 <1>   0.4500 
 31 H       -9.4790    -1.0340    -1.0620 H     1 <1>   0.0800 
 32 H      -10.7050     0.0610    -1.6570 H     1 <1>   0.0800 
 33 H      -11.3280     2.1390     0.0310 H     1 <1>   0.0800 
 34 H      -11.3000     1.5810     1.6800 H     1 <1>   0.0800 
 35 H      -11.9600    -1.8260    -1.3670 H     1 <1>   0.0800 
 36 H      -13.3680     0.8500     1.2050 H     1 <1>   0.0800 
 37 H      -12.2630    -1.2350     1.5400 H     1 <1>   0.0800 
 38 H      -13.4850    -1.4840     0.3420 H     1 <1>   0.0800 
 39 H      -10.2970    -2.6090     1.0430 H     1 <1>   0.0800 
 40 H      -10.1520    -3.2590    -0.5690 H     1 <1>   0.0800 
 41 H      -11.5970    -3.5520     0.3560 H     1 <1>   0.0800 
 42 H      -12.7410     0.6820    -1.7550 H     1 <1>   0.0800 
 43 H      -13.5190     2.0040    -0.9270 H     1 <1>   0.0800 
 44 H      -14.3000     0.4550    -1.0160 H     1 <1>   0.0800 
@<TRIPOS>BOND
  1   1   2  1   
  2   2   3  1   
  3   2   4  1   
  4   2   5  1   
  5   5   6  ar  
  6   5   7  ar  
  7   6   8  ar  
  8   6  23  1   
  9   7   9  ar  
 10   7  24  1   
 11   8  10  1   
 12   8  11  ar  
 13   9  11  ar  
 14   9  25  1   
 15  10  12  am  
 16  10  26  1   
 17  11  27  1   
 18  12  13  2   
 19  12  14  1   
 20  14  15  1   
 21  14  28  1   
 22  14  29  1   
 23  15  16  1   
 24  15  17  1   
 25  15  30  1   
 26  16  18  1   
 27  16  31  1   
 28  16  32  1   
 29  17  19  1   
 30  17  33  1   
 31  17  34  1   
 32  18  20  1   
 33  18  21  1   
 34  18  35  1   
 35  19  20  1   
 36  19  22  1   
 37  19  36  1   
 38  20  37  1   
 39  20  38  1   
 40  21  39  1   
 41  21  40  1   
 42  21  41  1   
 43  22  42  1   
 44  22  43  1   
 45  22  44  1   
@<TRIPOS>SUBSTRUCTURE
  1 ****  10 GROUP 4 **** **** 0

# MOE 2024.06 (io_trps.svl 2023.06)
