@<TRIPOS>MOLECULE
NONAME
33 33 1 0 0 
SMALL
USER_CHARGES


@<TRIPOS>ATOM
  1 O        0.1370    -0.2530     0.5330 O.3   1 <1>  -0.3630 
  2 C       -1.0870    -0.7480     0.1860 C.ar  1 <1>   0.0830 
  3 C        1.3240    -0.8990     0.1520 C.3   1 <1>   0.1200 
  4 C       -1.3860    -2.0970    -0.0800 C.ar  1 <1>   0.0830 
  5 C       -2.0910     0.2040     0.1040 C.ar  1 <1>  -0.1500 
  6 C        2.4550     0.1200     0.2710 C.3   1 <1>   0.3430 
  7 O       -0.4170    -3.0530     0.0390 O.3   1 <1>  -0.3630 
  8 C       -2.6860    -2.4350    -0.4520 C.ar  1 <1>  -0.1500 
  9 C       -3.3780    -0.1490    -0.2570 C.ar  1 <1>  -0.1500 
 10 N        3.7700    -0.4710    -0.1250 N.4   1 <1>  -0.9060 
 11 C       -0.7430    -4.4270     0.1020 C.3   1 <1>   0.0400 
 12 C       -3.6730    -1.4690    -0.5390 C.ar  1 <1>  -0.1500 
 13 C        4.8700     0.5350    -0.0180 C.3   1 <1>   0.3430 
 14 C        6.2280    -0.0520    -0.4220 C.3   1 <1>   0.1200 
 15 O        7.1670     0.9530    -0.2950 O.3   1 <1>  -0.6800 
 16 H        1.2100    -1.2380    -0.8630 H     1 <1>   0.0800 
 17 H        1.4790    -1.7260     0.8220 H     1 <1>   0.0800 
 18 H       -1.8640     1.2310     0.3230 H     1 <1>   0.1500 
 19 H        2.5030     0.4650     1.2910 H     1 <1>   0.0800 
 20 H        2.2280     0.9610    -0.3650 H     1 <1>   0.0800 
 21 H       -2.9600    -3.4470    -0.6800 H     1 <1>   0.1500 
 22 H       -4.1470     0.6010    -0.3190 H     1 <1>   0.1500 
 23 H        3.7110    -0.8160    -1.0920 H     1 <1>   0.4500 
 24 H        3.9770    -1.2760     0.4800 H     1 <1>   0.4500 
 25 H        0.1510    -4.9760     0.3370 H     1 <1>   0.0800 
 26 H       -1.1210    -4.7430    -0.8540 H     1 <1>   0.0800 
 27 H       -1.4760    -4.5790     0.8750 H     1 <1>   0.0800 
 28 H       -4.6740    -1.7450    -0.8250 H     1 <1>   0.1500 
 29 H        4.9390     0.8910     0.9980 H     1 <1>   0.0800 
 30 H        4.6560     1.3760    -0.6580 H     1 <1>   0.0800 
 31 H        6.2250    -0.3750    -1.4500 H     1 <1>   0.0800 
 32 H        6.5160    -0.8600     0.2290 H     1 <1>   0.0800 
 33 H        8.0690     0.6480    -0.5380 H     1 <1>   0.4000 
@<TRIPOS>BOND
  1   1   2  1   
  2   1   3  1   
  3   2   4  ar  
  4   2   5  ar  
  5   3   6  1   
  6   3  16  1   
  7   3  17  1   
  8   4   7  1   
  9   4   8  ar  
 10   5   9  ar  
 11   5  18  1   
 12   6  10  1   
 13   6  19  1   
 14   6  20  1   
 15   7  11  1   
 16   8  12  ar  
 17   8  21  1   
 18   9  12  ar  
 19   9  22  1   
 20  10  13  1   
 21  10  23  1   
 22  10  24  1   
 23  11  25  1   
 24  11  26  1   
 25  11  27  1   
 26  12  28  1   
 27  13  14  1   
 28  13  29  1   
 29  13  30  1   
 30  14  15  1   
 31  14  31  1   
 32  14  32  1   
 33  15  33  1   
@<TRIPOS>SUBSTRUCTURE
  1 ****   3 GROUP 4 **** **** 0

# MOE 2024.06 (io_trps.svl 2023.06)
