@<TRIPOS>MOLECULE
NONAME
39 41 1 0 0 
SMALL
USER_CHARGES


@<TRIPOS>ATOM
  1 CL      -0.7840    -0.7600    -1.8590 Cl    1 <1>  -0.1240 
  2 C       -2.4280    -1.0830    -1.3900 C.2   1 <1>   0.1640 
  3 S       -2.6670    -2.0740     0.0250 S.3   1 <1>  -0.0800 
  4 C       -3.5950    -0.6970    -1.9320 C.2   1 <1>  -0.1500 
  5 C       -4.4310    -1.9620    -0.1270 C.2   1 <1>  -0.0450 
  6 C       -4.7220    -1.1940    -1.2160 C.2   1 <1>  -0.1500 
  7 C       -5.2380    -2.6390     0.8500 C.2   1 <1>   0.5940 
  8 O       -4.7840    -3.2060     1.8130 O.2   1 <1>  -0.5700 
  9 C       -6.7470    -2.6120     0.7510 C.3   1 <1>  -0.0990 
 10 C       -7.2910    -3.6310    -0.2510 C.3   1 <1>   0.4850 
 11 O       -7.1770    -3.1130    -1.5390 O.3   1 <1>  -0.6800 
 12 C       -6.7250    -5.0670    -0.1290 C.2   1 <1>   0.5690 
 13 C       -8.7660    -3.9080    -0.0010 C.ar  1 <1>  -0.1440 
 14 O       -5.5800    -5.3850    -0.3610 O.2   1 <1>  -0.5700 
 15 N       -7.7280    -5.9300     0.2130 N.am  1 <1>  -0.4770 
 16 C       -8.9430    -5.2500     0.2830 C.ar  1 <1>   0.1170 
 17 C       -9.8410    -3.0370    -0.0210 C.ar  1 <1>  -0.1500 
 18 C       -7.5230    -7.3820     0.4360 C.3   1 <1>   0.1400 
 19 C      -10.2090    -5.7400     0.5680 C.ar  1 <1>  -0.1500 
 20 C      -11.1070    -3.5280     0.2610 C.ar  1 <1>  -0.1500 
 21 C       -7.5020    -8.1540    -0.8920 C.3   1 <1>  -0.1600 
 22 C      -11.2890    -4.8730     0.5560 C.ar  1 <1>  -0.1500 
 23 C       -8.8260    -8.0910    -1.6660 C.3   1 <1>  -0.2400 
 24 H       -3.6980    -0.0830    -2.8080 H     1 <1>   0.1500 
 25 H       -5.7170    -0.9560    -1.5520 H     1 <1>   0.1500 
 26 H       -7.0870    -1.6260     0.5010 H     1 <1>   0.0800 
 27 H       -7.1400    -2.8510     1.7230 H     1 <1>   0.0800 
 28 H       -7.5010    -3.7850    -2.1700 H     1 <1>   0.4000 
 29 H       -9.7010    -1.9950    -0.2520 H     1 <1>   0.1500 
 30 H       -8.2970    -7.7640     1.0770 H     1 <1>   0.0800 
 31 H       -6.5810    -7.5200     0.9380 H     1 <1>   0.0800 
 32 H      -10.3520    -6.7810     0.7920 H     1 <1>   0.1500 
 33 H      -11.9540    -2.8640     0.2510 H     1 <1>   0.1500 
 34 H       -7.2780    -9.1840    -0.6770 H     1 <1>   0.0800 
 35 H       -6.7020    -7.7760    -1.5050 H     1 <1>   0.0800 
 36 H      -12.2760    -5.2420     0.7750 H     1 <1>   0.1500 
 37 H       -9.6340    -8.4660    -1.0650 H     1 <1>   0.0800 
 38 H       -8.7560    -8.6910    -2.5570 H     1 <1>   0.0800 
 39 H       -9.0490    -7.0800    -1.9590 H     1 <1>   0.0800 
@<TRIPOS>BOND
  1   1   2  1   
  2   2   3  1   
  3   2   4  2   
  4   3   5  1   
  5   4   6  1   
  6   4  24  1   
  7   5   6  2   
  8   5   7  1   
  9   6  25  1   
 10   7   8  2   
 11   7   9  1   
 12   9  10  1   
 13   9  26  1   
 14   9  27  1   
 15  10  11  1   
 16  10  12  1   
 17  10  13  1   
 18  11  28  1   
 19  12  14  2   
 20  12  15  am  
 21  13  16  ar  
 22  13  17  ar  
 23  15  16  1   
 24  15  18  1   
 25  16  19  ar  
 26  17  20  ar  
 27  17  29  1   
 28  18  21  1   
 29  18  30  1   
 30  18  31  1   
 31  19  22  ar  
 32  19  32  1   
 33  20  22  ar  
 34  20  33  1   
 35  21  23  1   
 36  21  34  1   
 37  21  35  1   
 38  22  36  1   
 39  23  37  1   
 40  23  38  1   
 41  23  39  1   
@<TRIPOS>SUBSTRUCTURE
  1 ****  10 GROUP 4 **** **** 0

# MOE 2024.06 (io_trps.svl 2023.06)
