@<TRIPOS>MOLECULE
NONAME
41 43 1 0 0 
SMALL
USER_CHARGES


@<TRIPOS>ATOM
  1 O        0.4070    -0.8920    -2.0290 O.2   1 <1>  -0.5700 
  2 C        0.1990    -1.8090    -1.2730 C.2   1 <1>   0.5690 
  3 N        1.2470    -2.5370    -0.7500 N.am  1 <1>  -0.6600 
  4 C       -1.2590    -2.1160    -0.9360 C.3   1 <1>   0.0440 
  5 C        2.6260    -2.3660    -1.3130 C.3   1 <1>   0.1400 
  6 C        1.0900    -3.6590     0.2340 C.3   1 <1>   0.1400 
  7 C       -1.6320    -3.5800    -1.2030 C.ar  1 <1>  -0.1440 
  8 C        3.7050    -2.3960    -0.2180 C.3   1 <1>   0.3430 
  9 C        2.2240    -3.6890     1.2780 C.3   1 <1>   0.3430 
 10 C       -2.1990    -4.4270    -0.2080 C.ar  1 <1>   0.0000 
 11 C       -1.3690    -4.0660    -2.4570 C.ar  1 <1>  -0.1500 
 12 N        3.5880    -3.6210     0.6490 N.4   1 <1>  -0.9590 
 13 C       -2.4020    -5.7910    -0.5320 C.ar  1 <1>   0.0000 
 14 C       -2.5770    -4.0140     1.0940 C.ar  1 <1>  -0.1500 
 15 C       -1.6100    -5.4030    -2.7800 C.ar  1 <1>  -0.1500 
 16 C        4.6640    -3.6530     1.6850 C.3   1 <1>   0.2630 
 17 C       -2.1080    -6.2460    -1.8310 C.ar  1 <1>  -0.1500 
 18 C       -2.9000    -6.6740     0.4470 C.ar  1 <1>  -0.1500 
 19 C       -3.0650    -4.8900     2.0230 C.ar  1 <1>  -0.1500 
 20 C       -3.2210    -6.2390     1.7010 C.ar  1 <1>  -0.1500 
 21 H       -1.8880    -1.4940    -1.5470 H     1 <1>   0.0800 
 22 H       -1.4160    -1.8140     0.0760 H     1 <1>   0.0800 
 23 H        2.7040    -1.4300    -1.8400 H     1 <1>   0.0800 
 24 H        2.8110    -3.1500    -2.0270 H     1 <1>   0.0800 
 25 H        1.0580    -4.5940    -0.2990 H     1 <1>   0.0800 
 26 H        0.1640    -3.5570     0.7680 H     1 <1>   0.0800 
 27 H        3.6020    -1.5100     0.3860 H     1 <1>   0.0800 
 28 H        4.6770    -2.3670    -0.6840 H     1 <1>   0.0800 
 29 H        2.1340    -4.5900     1.8630 H     1 <1>   0.0800 
 30 H        2.0930    -2.8520     1.9430 H     1 <1>   0.0800 
 31 H       -0.9620    -3.4300    -3.2270 H     1 <1>   0.1500 
 32 H        3.6890    -4.4440     0.0370 H     1 <1>   0.4500 
 33 H       -2.5000    -2.9840     1.3790 H     1 <1>   0.1500 
 34 H       -1.3970    -5.7500    -3.7760 H     1 <1>   0.1500 
 35 H        4.5810    -2.8010     2.3400 H     1 <1>   0.0800 
 36 H        5.6360    -3.6350     1.2180 H     1 <1>   0.0800 
 37 H        4.5870    -4.5510     2.2780 H     1 <1>   0.0800 
 38 H       -2.2920    -7.2790    -2.0680 H     1 <1>   0.1500 
 39 H       -3.0300    -7.7090     0.1860 H     1 <1>   0.1500 
 40 H       -3.3440    -4.5560     3.0080 H     1 <1>   0.1500 
 41 H       -3.6040    -6.9180     2.4440 H     1 <1>   0.1500 
@<TRIPOS>BOND
  1   1   2  2   
  2   2   3  am  
  3   2   4  1   
  4   3   5  1   
  5   3   6  1   
  6   4   7  1   
  7   4  21  1   
  8   4  22  1   
  9   5   8  1   
 10   5  23  1   
 11   5  24  1   
 12   6   9  1   
 13   6  25  1   
 14   6  26  1   
 15   7  10  ar  
 16   7  11  ar  
 17   8  12  1   
 18   8  27  1   
 19   8  28  1   
 20   9  12  1   
 21   9  29  1   
 22   9  30  1   
 23  10  13  ar  
 24  10  14  ar  
 25  11  15  ar  
 26  11  31  1   
 27  12  16  1   
 28  12  32  1   
 29  13  17  ar  
 30  13  18  ar  
 31  14  19  ar  
 32  14  33  1   
 33  15  17  ar  
 34  15  34  1   
 35  16  35  1   
 36  16  36  1   
 37  16  37  1   
 38  17  38  1   
 39  18  20  ar  
 40  18  39  1   
 41  19  20  ar  
 42  19  40  1   
 43  20  41  1   
@<TRIPOS>SUBSTRUCTURE
  1 ****   6 GROUP 4 **** **** 0

# MOE 2024.06 (io_trps.svl 2023.06)
