@<TRIPOS>MOLECULE
NONAME
30 31 1 0 0 
SMALL
USER_CHARGES


@<TRIPOS>ATOM
  1 S       -0.0470    -0.2420    -0.3920 S.o2  1 <1>   1.5000 
  2 O       -0.7890     0.8260     0.2440 O.2   1 <1>  -0.6500 
  3 O       -0.2600    -0.4760    -1.8040 O.2   1 <1>  -0.6500 
  4 N       -0.4760    -1.6700     0.4170 N.am  1 <1>  -0.8490 
  5 C        1.7320    -0.0200    -0.0280 C.2   1 <1>   0.0780 
  6 C       -1.9110    -1.8710     0.4700 C.3   1 <1>   0.1960 
  7 C        0.0640    -2.8860    -0.1740 C.3   1 <1>   0.1960 
  8 O        2.6270    -0.9340    -0.3670 O.3   1 <1>  -0.2800 
  9 C        2.3720     1.0050     0.5830 C.2   1 <1>  -0.1500 
 10 C       -2.0810    -3.3370     0.8520 C.3   1 <1>  -0.1600 
 11 C       -0.7710    -4.0060     0.4330 C.3   1 <1>  -0.1600 
 12 C        3.8420    -0.5450     0.0080 C.2   1 <1>   0.0550 
 13 C        3.7260     0.6720     0.6070 C.2   1 <1>  -0.1500 
 14 C        5.0030    -1.3690    -0.2350 C.2   1 <1>   0.8050 
 15 O        4.9620    -2.4700    -0.7490 O.2   1 <1>  -0.5700 
 16 O        6.1900    -0.8760     0.1410 O.3   1 <1>  -0.4300 
 17 C        7.3900    -1.6010    -0.0480 C.3   1 <1>   0.0400 
 18 H       -2.3430    -1.6950    -0.5030 H     1 <1>   0.0800 
 19 H       -2.3670    -1.2100     1.1890 H     1 <1>   0.0800 
 20 H        1.1110    -3.0020     0.0540 H     1 <1>   0.0800 
 21 H       -0.0710    -2.8780    -1.2440 H     1 <1>   0.0800 
 22 H        1.9350     1.9060     0.9810 H     1 <1>   0.1500 
 23 H       -2.9330    -3.7640     0.3540 H     1 <1>   0.0800 
 24 H       -2.2170    -3.4180     1.9160 H     1 <1>   0.0800 
 25 H       -0.2650    -4.4060     1.2940 H     1 <1>   0.0800 
 26 H       -0.9280    -4.7950    -0.2810 H     1 <1>   0.0800 
 27 H        4.5130     1.2760     1.0270 H     1 <1>   0.1500 
 28 H        8.2080    -1.0110     0.3270 H     1 <1>   0.0800 
 29 H        7.5220    -1.7900    -1.1000 H     1 <1>   0.0800 
 30 H        7.3270    -2.5300     0.4920 H     1 <1>   0.0800 
@<TRIPOS>BOND
  1   1   2  2   
  2   1   3  2   
  3   1   4  am  
  4   1   5  1   
  5   4   6  1   
  6   4   7  1   
  7   5   8  1   
  8   5   9  2   
  9   6  10  1   
 10   6  18  1   
 11   6  19  1   
 12   7  11  1   
 13   7  20  1   
 14   7  21  1   
 15   8  12  1   
 16   9  13  1   
 17   9  22  1   
 18  10  11  1   
 19  10  23  1   
 20  10  24  1   
 21  11  25  1   
 22  11  26  1   
 23  12  13  2   
 24  12  14  1   
 25  13  27  1   
 26  14  15  2   
 27  14  16  1   
 28  16  17  1   
 29  17  28  1   
 30  17  29  1   
 31  17  30  1   
@<TRIPOS>SUBSTRUCTURE
  1 ****   8 GROUP 4 **** **** 0

# MOE 2024.06 (io_trps.svl 2023.06)
