@<TRIPOS>MOLECULE
NONAME
48 49 1 0 0 
SMALL
USER_CHARGES


@<TRIPOS>ATOM
  1 O       -0.0950    -4.0480    -1.2870 O.2   1 <1>  -0.5700 
  2 C        0.1310    -3.1270    -0.5470 C.2   1 <1>   0.6590 
  3 O       -0.6020    -2.0240    -0.5350 O.3   1 <1>  -0.4300 
  4 C        1.3010    -3.1490     0.4340 C.3   1 <1>  -0.0190 
  5 C       -1.7080    -1.8670    -1.3940 C.3   1 <1>   0.1200 
  6 C        2.5170    -2.4110    -0.1560 C.3   1 <1>  -0.1600 
  7 C        1.7010    -4.5820     0.8410 C.3   1 <1>  -0.1600 
  8 C       -2.3190    -0.4940    -1.1330 C.3   1 <1>  -0.2400 
  9 C        3.7290    -2.4690     0.7720 C.3   1 <1>   0.3430 
 10 C        2.9240    -4.5990     1.7550 C.3   1 <1>   0.3430 
 11 N        4.0510    -3.8930     1.0860 N.4   1 <1>  -0.9590 
 12 C        5.3130    -4.0140     1.8690 C.3   1 <1>   0.4860 
 13 C        6.4540    -3.4660     1.0330 C.ar  1 <1>  -0.1440 
 14 C        6.8650    -4.1380    -0.1100 C.ar  1 <1>  -0.1500 
 15 C        7.0830    -2.2810     1.3930 C.ar  1 <1>  -0.1500 
 16 C        7.8790    -3.6220    -0.8990 C.ar  1 <1>   0.0820 
 17 C        8.0990    -1.7600     0.6080 C.ar  1 <1>  -0.1500 
 18 O        8.2310    -4.2820    -2.0290 O.3   1 <1>  -0.3620 
 19 C        8.4940    -2.4220    -0.5420 C.ar  1 <1>   0.0820 
 20 C        9.0080    -5.4530    -1.8940 C.3   1 <1>   0.1200 
 21 O        9.4730    -1.8920    -1.3030 O.3   1 <1>  -0.5330 
 22 C       10.4680    -5.0760    -1.6470 C.3   1 <1>  -0.2400 
 23 H        0.9800    -2.6260     1.3180 H     1 <1>   0.0800 
 24 H       -2.4170    -2.6520    -1.1870 H     1 <1>   0.0800 
 25 H       -1.3650    -1.9500    -2.4130 H     1 <1>   0.0800 
 26 H        2.2600    -1.3800    -0.3290 H     1 <1>   0.0800 
 27 H        2.7790    -2.8380    -1.1100 H     1 <1>   0.0800 
 28 H        1.9090    -5.1730    -0.0350 H     1 <1>   0.0800 
 29 H        0.8750    -5.0500     1.3490 H     1 <1>   0.0800 
 30 H       -2.6490    -0.4220    -0.1120 H     1 <1>   0.0800 
 31 H       -3.1680    -0.3490    -1.7770 H     1 <1>   0.0800 
 32 H       -1.6000     0.2790    -1.3370 H     1 <1>   0.0800 
 33 H        3.5170    -1.9310     1.6810 H     1 <1>   0.0800 
 34 H        4.5690    -1.9960     0.2860 H     1 <1>   0.0800 
 35 H        3.1970    -5.6210     1.9670 H     1 <1>   0.0800 
 36 H        2.6850    -4.1100     2.6870 H     1 <1>   0.0800 
 37 H        4.2280    -4.3530     0.1840 H     1 <1>   0.4500 
 38 H        5.5100    -5.0490     2.1000 H     1 <1>   0.0800 
 39 H        5.2350    -3.4650     2.7930 H     1 <1>   0.0800 
 40 H        6.4070    -5.0620    -0.4160 H     1 <1>   0.1500 
 41 H        6.7940    -1.7480     2.2830 H     1 <1>   0.1500 
 42 H        8.5800    -0.8410     0.8940 H     1 <1>   0.1500 
 43 H        8.9190    -6.0030    -2.8140 H     1 <1>   0.0800 
 44 H        8.6170    -6.0480    -1.0870 H     1 <1>   0.0800 
 45 H        9.8200    -1.0480    -0.9660 H     1 <1>   0.4500 
 46 H       10.8210    -4.4390    -2.4390 H     1 <1>   0.0800 
 47 H       11.0750    -5.9630    -1.6220 H     1 <1>   0.0800 
 48 H       10.5730    -4.5650    -0.7070 H     1 <1>   0.0800 
@<TRIPOS>BOND
  1   1   2  2   
  2   2   3  1   
  3   2   4  1   
  4   3   5  1   
  5   4   6  1   
  6   4   7  1   
  7   4  23  1   
  8   5   8  1   
  9   5  24  1   
 10   5  25  1   
 11   6   9  1   
 12   6  26  1   
 13   6  27  1   
 14   7  10  1   
 15   7  28  1   
 16   7  29  1   
 17   8  30  1   
 18   8  31  1   
 19   8  32  1   
 20   9  11  1   
 21   9  33  1   
 22   9  34  1   
 23  10  11  1   
 24  10  35  1   
 25  10  36  1   
 26  11  12  1   
 27  11  37  1   
 28  12  13  1   
 29  12  38  1   
 30  12  39  1   
 31  13  14  ar  
 32  13  15  ar  
 33  14  16  ar  
 34  14  40  1   
 35  15  17  ar  
 36  15  41  1   
 37  16  18  1   
 38  16  19  ar  
 39  17  19  ar  
 40  17  42  1   
 41  18  20  1   
 42  19  21  1   
 43  20  22  1   
 44  20  43  1   
 45  20  44  1   
 46  21  45  1   
 47  22  46  1   
 48  22  47  1   
 49  22  48  1   
@<TRIPOS>SUBSTRUCTURE
  1 ****   9 GROUP 4 **** **** 0

# MOE 2024.06 (io_trps.svl 2023.06)
