@<TRIPOS>MOLECULE
NONAME
28 28 1 0 0 
SMALL
USER_CHARGES


@<TRIPOS>ATOM
  1 S       -0.1780    -0.3590     0.0900 S.3   1 <1>  -0.3710 
  2 C       -1.6570     0.6270    -0.1490 C.2   1 <1>   0.6510 
  3 C        1.0490     0.8680     0.7280 C.3   1 <1>   0.0700 
  4 N       -1.5630     1.8710     0.1360 N.2   1 <1>  -0.6210 
  5 N       -2.7770    -0.0230    -0.6230 N.am  1 <1>  -0.4200 
  6 C        2.3690     0.1370     0.9770 C.3   1 <1>  -0.1600 
  7 C       -2.6740     2.6470    -0.0390 C.2   1 <1>   0.0210 
  8 C       -3.9140     0.7480    -0.8120 C.2   1 <1>   0.6160 
  9 C       -2.8070    -1.4710    -0.9270 C.3   1 <1>   0.2780 
 10 C        3.4400     1.0940     1.5110 C.3   1 <1>  -0.2400 
 11 O       -2.5780     3.8440     0.2350 O.3   1 <1>  -0.8500 
 12 C       -3.8480     2.0950    -0.5090 C.2   1 <1>  -0.1360 
 13 O       -4.9450     0.2120    -1.2600 O.2   1 <1>  -0.5700 
 14 C       -3.1020    -2.2610     0.3380 C.2   1 <1>  -0.2880 
 15 C       -4.1860    -3.0190     0.5370 C.2   1 <1>  -0.3000 
 16 H        0.6400     1.2870     1.6320 H     1 <1>   0.0800 
 17 H        1.1460     1.6390    -0.0160 H     1 <1>   0.0800 
 18 H        2.7080    -0.3030     0.0560 H     1 <1>   0.0800 
 19 H        2.2060    -0.6520     1.6910 H     1 <1>   0.0800 
 20 H       -1.8690    -1.7840    -1.3490 H     1 <1>   0.0800 
 21 H       -3.5620    -1.6750    -1.6660 H     1 <1>   0.0800 
 22 H        3.6230     1.8830     0.8020 H     1 <1>   0.0800 
 23 H        4.3600     0.5630     1.6800 H     1 <1>   0.0800 
 24 H        3.1200     1.5330     2.4400 H     1 <1>   0.0800 
 25 H       -4.7040     2.7230    -0.6390 H     1 <1>   0.1500 
 26 H       -2.3330    -2.1430     1.0820 H     1 <1>   0.1500 
 27 H       -4.3770    -3.5670     1.4430 H     1 <1>   0.1500 
 28 H       -4.9750    -3.1450    -0.1840 H     1 <1>   0.1500 
@<TRIPOS>BOND
  1   1   2  1   
  2   1   3  1   
  3   2   4  2   
  4   2   5  1   
  5   3   6  1   
  6   3  16  1   
  7   3  17  1   
  8   4   7  1   
  9   5   8  am  
 10   5   9  1   
 11   6  10  1   
 12   6  18  1   
 13   6  19  1   
 14   7  11  1   
 15   7  12  2   
 16   8  12  1   
 17   8  13  2   
 18   9  14  1   
 19   9  20  1   
 20   9  21  1   
 21  10  22  1   
 22  10  23  1   
 23  10  24  1   
 24  12  25  1   
 25  14  15  2   
 26  14  26  1   
 27  15  27  1   
 28  15  28  1   
@<TRIPOS>SUBSTRUCTURE
  1 ****   2 GROUP 4 **** **** 0

# MOE 2024.06 (io_trps.svl 2023.06)
