@<TRIPOS>MOLECULE
NONAME
41 42 1 0 0 
SMALL
USER_CHARGES


@<TRIPOS>ATOM
  1 S        0.1200     0.8880    -1.2360 S.3   1 <1>  -0.0800 
  2 C        1.7460     0.5040    -0.7780 C.2   1 <1>   0.4420 
  3 C       -0.3970    -0.4150    -0.2190 C.2   1 <1>   0.1980 
  4 N        1.8000    -0.4930     0.0290 N.2   1 <1>  -0.3380 
  5 N        2.7420     1.2840    -1.3160 N.am  1 <1>  -0.4940 
  6 N        0.5750    -1.0120     0.3440 N.2   1 <1>  -0.3380 
  7 C       -1.8810    -0.7110    -0.1170 C.3   1 <1>   0.3000 
  8 C        4.0840     1.2300    -1.1480 C.2   1 <1>   0.7800 
  9 O       -2.5860     0.4710     0.2080 O.3   1 <1>  -0.3630 
 10 O        4.7990     2.0120    -1.7360 O.2   1 <1>  -0.5700 
 11 O        4.6020     0.3160    -0.3350 O.3   1 <1>  -0.4300 
 12 C       -3.9370     0.4720     0.3210 C.ar  1 <1>   0.0830 
 13 C        5.9960     0.2080    -0.1420 C.3   1 <1>   0.1200 
 14 C       -4.7310    -0.6650     0.1870 C.ar  1 <1>  -0.1500 
 15 C       -4.5380     1.6910     0.5850 C.ar  1 <1>  -0.1500 
 16 C        6.2860    -0.9380     0.8400 C.3   1 <1>  -0.0800 
 17 C       -6.1060    -0.5670     0.3140 C.ar  1 <1>  -0.1500 
 18 C       -5.9120     1.7850     0.7110 C.ar  1 <1>  -0.1500 
 19 C        7.7940    -1.0390     1.1030 C.3   1 <1>  -0.2400 
 20 C        5.7580    -2.2830     0.3190 C.3   1 <1>  -0.2400 
 21 C       -6.7040     0.6560     0.5740 C.ar  1 <1>  -0.1430 
 22 C       -8.2120     0.7580     0.7140 C.3   1 <1>  -0.0970 
 23 H        2.4590     2.0270    -1.9450 H     1 <1>   0.3700 
 24 H       -2.0570    -1.4350     0.6580 H     1 <1>   0.0800 
 25 H       -2.2470    -1.0760    -1.0590 H     1 <1>   0.0800 
 26 H        6.3530     1.1450     0.2500 H     1 <1>   0.0800 
 27 H        6.4560     0.0210    -1.0970 H     1 <1>   0.0800 
 28 H       -4.3080    -1.6300    -0.0130 H     1 <1>   0.1500 
 29 H       -3.9240     2.5670     0.6920 H     1 <1>   0.1500 
 30 H        5.7960    -0.7110     1.7720 H     1 <1>   0.0800 
 31 H       -6.7130    -1.4490     0.2100 H     1 <1>   0.1500 
 32 H       -6.3620     2.7400     0.9180 H     1 <1>   0.1500 
 33 H        8.3230    -1.2660     0.1940 H     1 <1>   0.0800 
 34 H        7.9950    -1.8150     1.8200 H     1 <1>   0.0800 
 35 H        8.1680    -0.1100     1.4970 H     1 <1>   0.0800 
 36 H        6.2070    -2.5270    -0.6280 H     1 <1>   0.0800 
 37 H        4.6900    -2.2400     0.1910 H     1 <1>   0.0800 
 38 H        5.9780    -3.0680     1.0190 H     1 <1>   0.0800 
 39 H       -8.6980     0.0120     0.1110 H     1 <1>   0.0800 
 40 H       -8.5550     1.7260     0.3950 H     1 <1>   0.0800 
 41 H       -8.4930     0.6120     1.7410 H     1 <1>   0.0800 
@<TRIPOS>BOND
  1   1   2  1   
  2   1   3  1   
  3   2   4  2   
  4   2   5  1   
  5   3   6  2   
  6   3   7  1   
  7   4   6  1   
  8   5   8  am  
  9   5  23  1   
 10   7   9  1   
 11   7  24  1   
 12   7  25  1   
 13   8  10  2   
 14   8  11  1   
 15   9  12  1   
 16  11  13  1   
 17  12  14  ar  
 18  12  15  ar  
 19  13  16  1   
 20  13  26  1   
 21  13  27  1   
 22  14  17  ar  
 23  14  28  1   
 24  15  18  ar  
 25  15  29  1   
 26  16  19  1   
 27  16  20  1   
 28  16  30  1   
 29  17  21  ar  
 30  17  31  1   
 31  18  21  ar  
 32  18  32  1   
 33  19  33  1   
 34  19  34  1   
 35  19  35  1   
 36  20  36  1   
 37  20  37  1   
 38  20  38  1   
 39  21  22  1   
 40  22  39  1   
 41  22  40  1   
 42  22  41  1   
@<TRIPOS>SUBSTRUCTURE
  1 ****   3 GROUP 4 **** **** 0

# MOE 2024.06 (io_trps.svl 2023.06)
