@<TRIPOS>MOLECULE
NONAME
46 48 1 0 0 
SMALL
USER_CHARGES


@<TRIPOS>ATOM
  1 F       -0.9120    -0.5400    -1.9800 F     1 <1>  -0.1900 
  2 C       -1.9340    -0.8480    -1.2290 C.ar  1 <1>   0.1900 
  3 C       -2.4560    -2.1240    -1.3030 C.ar  1 <1>  -0.1500 
  4 C       -2.4560     0.1140    -0.3870 C.ar  1 <1>  -0.1500 
  5 C       -3.5440    -2.4450    -0.5080 C.ar  1 <1>  -0.1500 
  6 C       -3.5440    -0.2150     0.4050 C.ar  1 <1>  -0.1500 
  7 C       -4.0950    -1.4920     0.3430 C.ar  1 <1>  -0.1430 
  8 C       -5.2960    -1.8410     1.2030 C.3   1 <1>   0.4870 
  9 N       -6.5050    -1.8900     0.3380 N.4   1 <1>  -0.9590 
 10 C       -6.7990    -0.5500    -0.2980 C.3   1 <1>   0.3430 
 11 C       -7.7090    -2.4050     1.0870 C.3   1 <1>   0.3430 
 12 C       -8.0500    -0.5740    -1.2020 C.3   1 <1>   0.2090 
 13 C       -8.9650    -2.4970     0.1970 C.3   1 <1>   0.2090 
 14 N       -9.2140    -1.2170    -0.5230 N.pl3 1 <1>  -0.8380 
 15 C      -10.2540    -0.4130    -0.0530 C.ar  1 <1>   0.1000 
 16 C      -11.5640    -0.5630    -0.5230 C.ar  1 <1>  -0.1430 
 17 C       -9.9880     0.5440     0.9210 C.ar  1 <1>  -0.1500 
 18 C      -12.5820     0.2270     0.0050 C.ar  1 <1>  -0.1430 
 19 C      -11.8740    -1.5940    -1.6110 C.3   1 <1>  -0.0970 
 20 C      -10.9960     1.3340     1.4310 C.ar  1 <1>  -0.1500 
 21 C      -12.2890     1.1730     0.9750 C.ar  1 <1>  -0.1500 
 22 C      -14.0310     0.0930    -0.4470 C.3   1 <1>  -0.0970 
 23 H       -2.0120    -2.8440    -1.9690 H     1 <1>   0.1500 
 24 H       -2.0130     1.0940    -0.3560 H     1 <1>   0.1500 
 25 H       -3.9430    -3.4440    -0.5610 H     1 <1>   0.1500 
 26 H       -3.9460     0.5340     1.0670 H     1 <1>   0.1500 
 27 H       -5.4210    -1.1030     1.9780 H     1 <1>   0.0800 
 28 H       -5.1320    -2.8000     1.6680 H     1 <1>   0.0800 
 29 H       -6.3040    -2.5390    -0.4310 H     1 <1>   0.4500 
 30 H       -5.9550    -0.2290    -0.8870 H     1 <1>   0.0800 
 31 H       -6.9580     0.1850     0.4710 H     1 <1>   0.0800 
 32 H       -7.9340    -1.7430     1.9070 H     1 <1>   0.0800 
 33 H       -7.5020    -3.3790     1.4960 H     1 <1>   0.0800 
 34 H       -7.8340    -1.1130    -2.1080 H     1 <1>   0.0800 
 35 H       -8.3110     0.4330    -1.4820 H     1 <1>   0.0800 
 36 H       -9.8200    -2.7340     0.8090 H     1 <1>   0.0800 
 37 H       -8.8510    -3.2890    -0.5220 H     1 <1>   0.0800 
 38 H       -8.9910     0.6730     1.2890 H     1 <1>   0.1500 
 39 H      -11.0080    -1.8050    -2.2100 H     1 <1>   0.0800 
 40 H      -12.6340    -1.2350    -2.2780 H     1 <1>   0.0800 
 41 H      -12.2100    -2.5080    -1.1570 H     1 <1>   0.0800 
 42 H      -10.7830     2.0740     2.1830 H     1 <1>   0.1500 
 43 H      -13.0690     1.7920     1.3830 H     1 <1>   0.1500 
 44 H      -14.3340    -0.9380    -0.4260 H     1 <1>   0.0800 
 45 H      -14.1390     0.4730    -1.4470 H     1 <1>   0.0800 
 46 H      -14.6890     0.6460     0.1980 H     1 <1>   0.0800 
@<TRIPOS>BOND
  1   1   2  1   
  2   2   3  ar  
  3   2   4  ar  
  4   3   5  ar  
  5   3  23  1   
  6   4   6  ar  
  7   4  24  1   
  8   5   7  ar  
  9   5  25  1   
 10   6   7  ar  
 11   6  26  1   
 12   7   8  1   
 13   8   9  1   
 14   8  27  1   
 15   8  28  1   
 16   9  10  1   
 17   9  11  1   
 18   9  29  1   
 19  10  12  1   
 20  10  30  1   
 21  10  31  1   
 22  11  13  1   
 23  11  32  1   
 24  11  33  1   
 25  12  14  1   
 26  12  34  1   
 27  12  35  1   
 28  13  14  1   
 29  13  36  1   
 30  13  37  1   
 31  14  15  1   
 32  15  16  ar  
 33  15  17  ar  
 34  16  18  ar  
 35  16  19  1   
 36  17  20  ar  
 37  17  38  1   
 38  18  21  ar  
 39  18  22  1   
 40  19  39  1   
 41  19  40  1   
 42  19  41  1   
 43  20  21  ar  
 44  20  42  1   
 45  21  43  1   
 46  22  44  1   
 47  22  45  1   
 48  22  46  1   
@<TRIPOS>SUBSTRUCTURE
  1 ****  10 GROUP 4 **** **** 0

# MOE 2024.06 (io_trps.svl 2023.06)
