@<TRIPOS>MOLECULE
NONAME
27 27 1 0 0 
SMALL
USER_CHARGES


@<TRIPOS>ATOM
  1 S        0.0440    -0.2340    -0.3060 S.o2  1 <1>   1.4470 
  2 O        0.6440    -0.1120    -1.6150 O.2   1 <1>  -0.6500 
  3 O       -0.1540    -1.5380     0.2840 O.2   1 <1>  -0.6500 
  4 N        1.0700     0.5340     0.7800 N.am  1 <1>  -0.9140 
  5 C       -1.4770     0.7470    -0.2130 C.ar  1 <1>  -0.0090 
  6 C        2.4810     0.2340     0.5550 C.3   1 <1>   0.1160 
  7 C       -1.4610     2.1130    -0.4650 C.ar  1 <1>  -0.1500 
  8 C       -2.6960     0.1620     0.1100 C.ar  1 <1>  -0.1500 
  9 C       -2.6110     2.8820    -0.3970 C.ar  1 <1>  -0.1430 
 10 C       -3.8560     0.9120     0.1820 C.ar  1 <1>  -0.1500 
 11 C       -3.8220     2.2800    -0.0700 C.ar  1 <1>   0.0830 
 12 C       -2.5410     4.3760    -0.6810 C.3   1 <1>  -0.0970 
 13 O       -4.9260     3.0690    -0.0130 O.3   1 <1>  -0.3630 
 14 C       -6.1990     2.5480     0.2990 C.3   1 <1>   0.0400 
 15 H        0.8070     0.1260     1.6760 H     1 <1>   0.4200 
 16 H        2.7940     0.6250    -0.4000 H     1 <1>   0.0800 
 17 H        2.6450    -0.8320     0.5650 H     1 <1>   0.0800 
 18 H        3.0790     0.6900     1.3250 H     1 <1>   0.0800 
 19 H       -0.5220     2.5760    -0.7180 H     1 <1>   0.1500 
 20 H       -2.7380    -0.8970     0.3070 H     1 <1>   0.1500 
 21 H       -4.7720     0.4140     0.4360 H     1 <1>   0.1500 
 22 H       -1.5380     4.6820    -0.9170 H     1 <1>   0.0800 
 23 H       -2.8740     4.9250     0.1800 H     1 <1>   0.0800 
 24 H       -3.1790     4.6170    -1.5120 H     1 <1>   0.0800 
 25 H       -6.9050     3.3580     0.2780 H     1 <1>   0.0800 
 26 H       -6.1670     2.1160     1.2840 H     1 <1>   0.0800 
 27 H       -6.4650     1.8110    -0.4380 H     1 <1>   0.0800 
@<TRIPOS>BOND
  1   1   2  2   
  2   1   3  2   
  3   1   4  am  
  4   1   5  1   
  5   4   6  1   
  6   4  15  1   
  7   5   7  ar  
  8   5   8  ar  
  9   6  16  1   
 10   6  17  1   
 11   6  18  1   
 12   7   9  ar  
 13   7  19  1   
 14   8  10  ar  
 15   8  20  1   
 16   9  11  ar  
 17   9  12  1   
 18  10  11  ar  
 19  10  21  1   
 20  11  13  1   
 21  12  22  1   
 22  12  23  1   
 23  12  24  1   
 24  13  14  1   
 25  14  25  1   
 26  14  26  1   
 27  14  27  1   
@<TRIPOS>SUBSTRUCTURE
  1 ****   5 GROUP 4 **** **** 0

# MOE 2024.06 (io_trps.svl 2023.06)
