@<TRIPOS>MOLECULE
NONAME
37 40 1 0 0 
SMALL
USER_CHARGES


@<TRIPOS>ATOM
  1 BR      -0.2040    -0.5170     2.0160 Br    1 <1>  -0.1110 
  2 C       -1.7510    -1.1410     1.0560 C.ar  1 <1>   0.1110 
  3 C       -2.8390    -0.3020     0.9340 C.ar  1 <1>  -0.1500 
  4 C       -1.7280    -2.4150     0.5220 C.ar  1 <1>  -0.1500 
  5 C       -3.9680    -0.7040     0.2120 C.ar  1 <1>   0.0000 
  6 C       -2.8610    -2.8620    -0.1250 C.ar  1 <1>  -0.1500 
  7 C       -5.1430     0.1160    -0.0430 C.ar  1 <1>   0.0000 
  8 C       -3.9680    -2.0310    -0.2420 C.ar  1 <1>   0.0830 
  9 C       -6.3280    -0.5760    -0.3010 C.ar  1 <1>   0.0860 
 10 C       -5.2230     1.5180    -0.0740 C.ar  1 <1>  -0.1440 
 11 O       -5.0890    -2.5660    -0.7570 O.3   1 <1>  -0.2320 
 12 C       -6.2770    -1.9680    -0.6640 C.2   1 <1>   0.6340 
 13 C       -7.5330     0.1380    -0.2610 C.ar  1 <1>   0.4100 
 14 C       -6.4860     2.1200    -0.0750 C.ar  1 <1>   0.1660 
 15 C       -3.9260     2.3410    -0.1700 C.3   1 <1>  -0.0160 
 16 O       -7.2410    -2.6630    -0.9310 O.2   1 <1>  -0.5700 
 17 N       -7.6140     1.4410    -0.1400 N.ar  1 <1>  -0.6200 
 18 N       -8.7550    -0.4460    -0.3530 N.pl3 1 <1>  -0.9000 
 19 C       -6.7640     3.6260    -0.0100 C.3   1 <1>  -0.0170 
 20 C       -4.0220     3.6060    -1.0300 C.3   1 <1>  -0.1600 
 21 C       -5.7070     4.4930     0.6810 C.3   1 <1>  -0.1600 
 22 C       -4.5240     4.8180    -0.2380 C.3   1 <1>  -0.1600 
 23 H       -2.7910     0.6520     1.4190 H     1 <1>   0.1500 
 24 H       -0.8560    -3.0370     0.6270 H     1 <1>   0.1500 
 25 H       -2.9030    -3.8600    -0.5260 H     1 <1>   0.1500 
 26 H       -3.1740     1.7360    -0.6430 H     1 <1>   0.0800 
 27 H       -3.5730     2.6000     0.8120 H     1 <1>   0.0800 
 28 H       -9.5560     0.1630    -0.5180 H     1 <1>   0.4000 
 29 H       -8.8280    -1.4180    -0.6840 H     1 <1>   0.4000 
 30 H       -7.6800     3.7600     0.5400 H     1 <1>   0.0800 
 31 H       -6.9510     3.9900    -1.0050 H     1 <1>   0.0800 
 32 H       -4.6580     3.4170    -1.8780 H     1 <1>   0.0800 
 33 H       -3.0450     3.8430    -1.4170 H     1 <1>   0.0800 
 34 H       -5.3710     3.9980     1.5760 H     1 <1>   0.0800 
 35 H       -6.1600     5.4200     0.9850 H     1 <1>   0.0800 
 36 H       -4.8120     5.5870    -0.9340 H     1 <1>   0.0800 
 37 H       -3.7220     5.2120     0.3630 H     1 <1>   0.0800 
@<TRIPOS>BOND
  1   1   2  1   
  2   2   3  ar  
  3   2   4  ar  
  4   3   5  ar  
  5   3  23  1   
  6   4   6  ar  
  7   4  24  1   
  8   5   7  1   
  9   5   8  ar  
 10   6   8  ar  
 11   6  25  1   
 12   7   9  ar  
 13   7  10  ar  
 14   8  11  1   
 15   9  12  1   
 16   9  13  ar  
 17  10  14  ar  
 18  10  15  1   
 19  11  12  1   
 20  12  16  2   
 21  13  17  ar  
 22  13  18  1   
 23  14  17  ar  
 24  14  19  1   
 25  15  20  1   
 26  15  26  1   
 27  15  27  1   
 28  18  28  1   
 29  18  29  1   
 30  19  21  1   
 31  19  30  1   
 32  19  31  1   
 33  20  22  1   
 34  20  32  1   
 35  20  33  1   
 36  21  22  1   
 37  21  34  1   
 38  21  35  1   
 39  22  36  1   
 40  22  37  1   
@<TRIPOS>SUBSTRUCTURE
  1 ****   7 GROUP 4 **** **** 0

# MOE 2024.06 (io_trps.svl 2023.06)
