@<TRIPOS>MOLECULE
NONAME
39 40 1 0 0 
SMALL
USER_CHARGES


@<TRIPOS>ATOM
  1 CL       0.1650    -1.1290    -0.7360 Cl    1 <1>  -0.1770 
  2 C       -0.9490     0.1720    -0.3580 C.ar  1 <1>   0.1770 
  3 C       -0.6090     1.5190    -0.5150 C.ar  1 <1>   0.0820 
  4 C       -2.2010    -0.2010     0.0900 C.ar  1 <1>  -0.1500 
  5 O        0.6130     1.9530    -0.9300 O.3   1 <1>  -0.3630 
  6 C       -1.5720     2.4890    -0.2410 C.ar  1 <1>  -0.1440 
  7 C       -3.1480     0.7660     0.3800 C.ar  1 <1>  -0.1430 
  8 C        1.7790     1.4280    -0.3410 C.3   1 <1>   0.1200 
  9 C       -2.8270     2.1030     0.2070 C.ar  1 <1>  -0.1500 
 10 C       -1.2700     3.9700    -0.4250 C.3   1 <1>  -0.0960 
 11 C       -4.5290     0.3710     0.8720 C.3   1 <1>  -0.0970 
 12 C        2.8590     2.5110    -0.4030 C.3   1 <1>   0.3430 
 13 N        4.1610     2.0580     0.1870 N.4   1 <1>  -0.9590 
 14 C        5.1430     3.1870     0.3310 C.3   1 <1>   0.3430 
 15 C        4.8030     0.9050    -0.5390 C.3   1 <1>   0.3430 
 16 C        6.4750     2.7020     0.9500 C.3   1 <1>   0.1200 
 17 C        6.1710     0.5350     0.0800 C.3   1 <1>   0.1200 
 18 O        6.4460     1.3230     1.2070 O.3   1 <1>  -0.5600 
 19 H       -2.4320    -1.2450     0.2020 H     1 <1>   0.1500 
 20 H        2.0750     0.5690    -0.9120 H     1 <1>   0.0800 
 21 H        1.5590     1.1590     0.6780 H     1 <1>   0.0800 
 22 H       -3.5700     2.8510     0.4240 H     1 <1>   0.1500 
 23 H       -0.9210     4.1500    -1.4260 H     1 <1>   0.0800 
 24 H       -0.5130     4.2800     0.2710 H     1 <1>   0.0800 
 25 H       -2.1500     4.5670    -0.2630 H     1 <1>   0.0800 
 26 H       -4.5120    -0.6120     1.3070 H     1 <1>   0.0800 
 27 H       -5.2220     0.3740     0.0500 H     1 <1>   0.0800 
 28 H       -4.8730     1.0650     1.6180 H     1 <1>   0.0800 
 29 H        2.5020     3.3720     0.1380 H     1 <1>   0.0800 
 30 H        3.0080     2.7930    -1.4320 H     1 <1>   0.0800 
 31 H        4.0120     1.7190     1.1510 H     1 <1>   0.4500 
 32 H        4.7290     3.9610     0.9560 H     1 <1>   0.0800 
 33 H        5.3460     3.6240    -0.6330 H     1 <1>   0.0800 
 34 H        4.9470     1.1560    -1.5770 H     1 <1>   0.0800 
 35 H        4.1610     0.0400    -0.5020 H     1 <1>   0.0800 
 36 H        6.6550     3.2040     1.8840 H     1 <1>   0.0800 
 37 H        7.3020     2.9120     0.2920 H     1 <1>   0.0800 
 38 H        6.9640     0.6670    -0.6360 H     1 <1>   0.0800 
 39 H        6.1700    -0.4960     0.3920 H     1 <1>   0.0800 
@<TRIPOS>BOND
  1   1   2  1   
  2   2   3  ar  
  3   2   4  ar  
  4   3   5  1   
  5   3   6  ar  
  6   4   7  ar  
  7   4  19  1   
  8   5   8  1   
  9   6   9  ar  
 10   6  10  1   
 11   7   9  ar  
 12   7  11  1   
 13   8  12  1   
 14   8  20  1   
 15   8  21  1   
 16   9  22  1   
 17  10  23  1   
 18  10  24  1   
 19  10  25  1   
 20  11  26  1   
 21  11  27  1   
 22  11  28  1   
 23  12  13  1   
 24  12  29  1   
 25  12  30  1   
 26  13  14  1   
 27  13  15  1   
 28  13  31  1   
 29  14  16  1   
 30  14  32  1   
 31  14  33  1   
 32  15  17  1   
 33  15  34  1   
 34  15  35  1   
 35  16  18  1   
 36  16  36  1   
 37  16  37  1   
 38  17  18  1   
 39  17  38  1   
 40  17  39  1   
@<TRIPOS>SUBSTRUCTURE
  1 ****   8 GROUP 4 **** **** 0

# MOE 2024.06 (io_trps.svl 2023.06)
