@<TRIPOS>MOLECULE
NONAME
39 40 1 0 0 
SMALL
USER_CHARGES


@<TRIPOS>ATOM
  1 CL      -0.5500     0.5330     2.6030 Cl    1 <1>  -0.1770 
  2 C       -0.1330     1.7880     1.4640 C.ar  1 <1>   0.1770 
  3 C       -0.6650     3.0520     1.6250 C.ar  1 <1>  -0.1500 
  4 C        0.7150     1.4920     0.4150 C.ar  1 <1>  -0.1500 
  5 C       -0.3330     4.0580     0.7320 C.ar  1 <1>  -0.1440 
  6 C        1.0610     2.4850    -0.4880 C.ar  1 <1>  -0.1440 
  7 C        0.5630     3.7760    -0.3040 C.ar  1 <1>   0.0830 
  8 C       -0.9980     5.4180     0.9080 C.3   1 <1>  -0.0960 
  9 C        1.9600     2.1180    -1.6630 C.3   1 <1>  -0.0960 
 10 O        0.9670     4.7510    -1.1540 O.3   1 <1>  -0.3630 
 11 C        1.8720     5.7200    -0.6670 C.3   1 <1>   0.1200 
 12 C        3.1700     5.0320    -0.2180 C.3   1 <1>   0.3430 
 13 N        4.1770     5.9910     0.3470 N.4   1 <1>  -0.9590 
 14 C        4.7170     6.9410    -0.6930 C.3   1 <1>   0.3430 
 15 C        5.3090     5.2350     0.9910 C.3   1 <1>   0.3430 
 16 C        5.8580     7.8110    -0.1300 C.3   1 <1>   0.1200 
 17 C        6.4210     6.1830     1.4790 C.3   1 <1>   0.1200 
 18 O        6.8500     7.0030     0.4320 O.3   1 <1>  -0.5600 
 19 H       -1.3420     3.2320     2.4410 H     1 <1>   0.1500 
 20 H        1.0870     0.4880     0.3110 H     1 <1>   0.1500 
 21 H       -1.9940     5.2950     1.2960 H     1 <1>   0.0800 
 22 H       -1.0780     5.9290    -0.0340 H     1 <1>   0.0800 
 23 H       -0.4390     6.0230     1.5970 H     1 <1>   0.0800 
 24 H        1.8010     1.0920    -1.9450 H     1 <1>   0.0800 
 25 H        2.9930     2.2420    -1.3990 H     1 <1>   0.0800 
 26 H        1.7360     2.7280    -2.5200 H     1 <1>   0.0800 
 27 H        1.4090     6.2390     0.1510 H     1 <1>   0.0800 
 28 H        2.0560     6.4060    -1.4730 H     1 <1>   0.0800 
 29 H        3.5980     4.5140    -1.0600 H     1 <1>   0.0800 
 30 H        2.9180     4.3030     0.5350 H     1 <1>   0.0800 
 31 H        3.7280     6.5490     1.0860 H     1 <1>   0.4500 
 32 H        3.9320     7.5820    -1.0570 H     1 <1>   0.0800 
 33 H        5.1030     6.3830    -1.5310 H     1 <1>   0.0800 
 34 H        5.7410     4.5490     0.2810 H     1 <1>   0.0800 
 35 H        4.9420     4.6590     1.8260 H     1 <1>   0.0800 
 36 H        5.4970     8.4930     0.6220 H     1 <1>   0.0800 
 37 H        6.3120     8.3840    -0.9200 H     1 <1>   0.0800 
 38 H        7.2710     5.6150     1.8170 H     1 <1>   0.0800 
 39 H        6.0810     6.8030     2.2910 H     1 <1>   0.0800 
@<TRIPOS>BOND
  1   1   2  1   
  2   2   3  ar  
  3   2   4  ar  
  4   3   5  ar  
  5   3  19  1   
  6   4   6  ar  
  7   4  20  1   
  8   5   7  ar  
  9   5   8  1   
 10   6   7  ar  
 11   6   9  1   
 12   7  10  1   
 13   8  21  1   
 14   8  22  1   
 15   8  23  1   
 16   9  24  1   
 17   9  25  1   
 18   9  26  1   
 19  10  11  1   
 20  11  12  1   
 21  11  27  1   
 22  11  28  1   
 23  12  13  1   
 24  12  29  1   
 25  12  30  1   
 26  13  14  1   
 27  13  15  1   
 28  13  31  1   
 29  14  16  1   
 30  14  32  1   
 31  14  33  1   
 32  15  17  1   
 33  15  34  1   
 34  15  35  1   
 35  16  18  1   
 36  16  36  1   
 37  16  37  1   
 38  17  18  1   
 39  17  38  1   
 40  17  39  1   
@<TRIPOS>SUBSTRUCTURE
  1 ****  12 GROUP 4 **** **** 0

# MOE 2024.06 (io_trps.svl 2023.06)
