@<TRIPOS>MOLECULE
NONAME
30 31 1 0 0 
SMALL
USER_CHARGES


@<TRIPOS>ATOM
  1 O       -0.4630     0.0260     0.0390 O.3   1 <1>  -0.3630 
  2 C       -1.6300     0.7060     0.0410 C.ar  1 <1>   0.3920 
  3 C       -0.4370    -1.3900    -0.0090 C.3   1 <1>   0.1200 
  4 N       -2.7490     0.0390    -0.0020 N.ar  1 <1>  -0.6200 
  5 C       -1.5640     2.1300     0.0910 C.ar  1 <1>   0.1660 
  6 C        1.0190    -1.8470     0.0030 C.3   1 <1>   0.1200 
  7 C       -3.8570     0.8210     0.0040 C.ar  1 <1>   0.3100 
  8 N       -2.6060     2.9000     0.0980 N.ar  1 <1>  -0.6200 
  9 C       -0.2070     2.8110     0.1400 C.3   1 <1>  -0.0960 
 10 O        1.0480    -3.2390    -0.0450 O.3   1 <1>  -0.5600 
 11 C       -3.7910     2.2360     0.0540 C.ar  1 <1>   0.3100 
 12 C       -5.1210     0.2100    -0.0410 C.ar  1 <1>  -0.1500 
 13 C        2.3310    -3.7760    -0.0390 C.3   1 <1>   0.0400 
 14 C       -4.9870     2.9700     0.0570 C.ar  1 <1>  -0.1500 
 15 C       -6.2750     0.9510    -0.0370 C.ar  1 <1>  -0.1500 
 16 C       -6.2070     2.3460     0.0130 C.ar  1 <1>  -0.1500 
 17 H       -0.9250    -1.7080    -0.9130 H     1 <1>   0.0800 
 18 H       -0.9580    -1.7690     0.8520 H     1 <1>   0.0800 
 19 H        1.5020    -1.5240     0.9090 H     1 <1>   0.0800 
 20 H        1.5350    -1.4630    -0.8600 H     1 <1>   0.0800 
 21 H        0.3290     2.4930     1.0150 H     1 <1>   0.0800 
 22 H       -0.3210     3.8800     0.1750 H     1 <1>   0.0800 
 23 H        0.3610     2.5540    -0.7350 H     1 <1>   0.0800 
 24 H       -5.1530    -0.8630    -0.0780 H     1 <1>   0.1500 
 25 H        2.2450    -4.8480    -0.0780 H     1 <1>   0.0800 
 26 H        2.8350    -3.4860     0.8670 H     1 <1>   0.0800 
 27 H        2.8680    -3.4250    -0.9030 H     1 <1>   0.0800 
 28 H       -4.9130     4.0410     0.0950 H     1 <1>   0.1500 
 29 H       -7.2380     0.4710    -0.0710 H     1 <1>   0.1500 
 30 H       -7.1190     2.9190     0.0150 H     1 <1>   0.1500 
@<TRIPOS>BOND
  1   1   2  1   
  2   1   3  1   
  3   2   4  ar  
  4   2   5  ar  
  5   3   6  1   
  6   3  17  1   
  7   3  18  1   
  8   4   7  ar  
  9   5   8  ar  
 10   5   9  1   
 11   6  10  1   
 12   6  19  1   
 13   6  20  1   
 14   7  11  ar  
 15   7  12  ar  
 16   8  11  ar  
 17   9  21  1   
 18   9  22  1   
 19   9  23  1   
 20  10  13  1   
 21  11  14  ar  
 22  12  15  ar  
 23  12  24  1   
 24  13  25  1   
 25  13  26  1   
 26  13  27  1   
 27  14  16  ar  
 28  14  28  1   
 29  15  16  ar  
 30  15  29  1   
 31  16  30  1   
@<TRIPOS>SUBSTRUCTURE
  1 ****   2 GROUP 4 **** **** 0

# MOE 2024.06 (io_trps.svl 2023.06)
