@<TRIPOS>MOLECULE
NONAME
48 50 1 0 0 
SMALL
USER_CHARGES


@<TRIPOS>ATOM
  1 O        0.1200    -0.5210     0.8490 O.2   1 <1>  -0.5700 
  2 C       -0.1720    -1.5090     0.2020 C.2   1 <1>   0.5440 
  3 N        0.7880    -2.0780    -0.5880 N.am  1 <1>  -0.7300 
  4 C       -1.5040    -2.0800     0.2750 C.ar  1 <1>   0.0860 
  5 C        2.1820    -1.6120    -0.7220 C.3   1 <1>   0.1400 
  6 C       -2.2900    -1.9330     1.4190 C.ar  1 <1>  -0.1500 
  7 C       -2.0650    -2.7980    -0.7850 C.ar  1 <1>  -0.1500 
  8 C        3.1300    -2.8100    -0.8500 C.3   1 <1>  -0.1600 
  9 C       -3.5540    -2.4820     1.5090 C.ar  1 <1>  -0.1500 
 10 C       -3.3290    -3.3480    -0.6970 C.ar  1 <1>  -0.1500 
 11 C        3.1420    -3.4970    -2.2290 C.3   1 <1>  -0.1600 
 12 C       -4.0980    -3.2070     0.4520 C.ar  1 <1>   0.1170 
 13 C        1.8470    -4.2380    -2.5860 C.3   1 <1>  -0.2400 
 14 N       -5.3720    -3.7840     0.4820 N.am  1 <1>  -0.5470 
 15 C       -6.2510    -4.0390     1.5040 C.2   1 <1>   0.5690 
 16 O       -6.0220    -3.7850     2.6620 O.2   1 <1>  -0.5700 
 17 C       -7.5930    -4.6820     1.1590 C.3   1 <1>   0.2610 
 18 O       -7.6550    -4.9940    -0.2350 O.3   1 <1>  -0.3630 
 19 C       -8.7520    -3.7520     1.5430 C.3   1 <1>   0.1200 
 20 C       -8.8820    -5.2490    -0.7550 C.ar  1 <1>   0.0820 
 21 O       -9.9930    -4.3120     1.1540 O.3   1 <1>  -0.3620 
 22 C      -10.0460    -4.9200    -0.0580 C.ar  1 <1>   0.0820 
 23 C       -8.9680    -5.8510    -1.9990 C.ar  1 <1>  -0.1500 
 24 C      -11.2840    -5.2110    -0.6040 C.ar  1 <1>  -0.1500 
 25 C      -10.2100    -6.1350    -2.5440 C.ar  1 <1>  -0.1500 
 26 C      -11.3660    -5.8180    -1.8470 C.ar  1 <1>  -0.1500 
 27 H        0.5970    -2.9670    -1.0480 H     1 <1>   0.3700 
 28 H        2.4480    -1.0370     0.1510 H     1 <1>   0.0800 
 29 H        2.2670    -0.9710    -1.5830 H     1 <1>   0.0800 
 30 H       -1.8920    -1.3760     2.2500 H     1 <1>   0.1500 
 31 H       -1.5040    -2.9180    -1.6950 H     1 <1>   0.1500 
 32 H        2.9160    -3.5250    -0.0740 H     1 <1>   0.0800 
 33 H        4.1260    -2.4440    -0.6680 H     1 <1>   0.0800 
 34 H       -4.1170    -2.3380     2.4120 H     1 <1>   0.1500 
 35 H       -3.7250    -3.8950    -1.5330 H     1 <1>   0.1500 
 36 H        3.9470    -4.2130    -2.2350 H     1 <1>   0.0800 
 37 H        3.3590    -2.7700    -2.9930 H     1 <1>   0.0800 
 38 H        1.5480    -4.8880    -1.7820 H     1 <1>   0.0800 
 39 H        2.0080    -4.8390    -3.4640 H     1 <1>   0.0800 
 40 H        1.0570    -3.5440    -2.8050 H     1 <1>   0.0800 
 41 H       -5.7220    -4.1100    -0.4230 H     1 <1>   0.3700 
 42 H       -7.6810    -5.6040     1.7030 H     1 <1>   0.0800 
 43 H       -8.6470    -2.7990     1.0560 H     1 <1>   0.0800 
 44 H       -8.7770    -3.5990     2.6080 H     1 <1>   0.0800 
 45 H       -8.0700    -6.0990    -2.5340 H     1 <1>   0.1500 
 46 H      -12.1750    -4.9600    -0.0570 H     1 <1>   0.1500 
 47 H      -10.2790    -6.6050    -3.5100 H     1 <1>   0.1500 
 48 H      -12.3290    -6.0420    -2.2720 H     1 <1>   0.1500 
@<TRIPOS>BOND
  1   1   2  2   
  2   2   3  am  
  3   2   4  1   
  4   3   5  1   
  5   3  27  1   
  6   4   6  ar  
  7   4   7  ar  
  8   5   8  1   
  9   5  28  1   
 10   5  29  1   
 11   6   9  ar  
 12   6  30  1   
 13   7  10  ar  
 14   7  31  1   
 15   8  11  1   
 16   8  32  1   
 17   8  33  1   
 18   9  12  ar  
 19   9  34  1   
 20  10  12  ar  
 21  10  35  1   
 22  11  13  1   
 23  11  36  1   
 24  11  37  1   
 25  12  14  1   
 26  13  38  1   
 27  13  39  1   
 28  13  40  1   
 29  14  15  am  
 30  14  41  1   
 31  15  16  2   
 32  15  17  1   
 33  17  18  1   
 34  17  19  1   
 35  17  42  1   
 36  18  20  1   
 37  19  21  1   
 38  19  43  1   
 39  19  44  1   
 40  20  22  ar  
 41  20  23  ar  
 42  21  22  1   
 43  22  24  ar  
 44  23  25  ar  
 45  23  45  1   
 46  24  26  ar  
 47  24  46  1   
 48  25  26  ar  
 49  25  47  1   
 50  26  48  1   
@<TRIPOS>SUBSTRUCTURE
  1 ****  12 GROUP 4 **** **** 0

# MOE 2024.06 (io_trps.svl 2023.06)
