@<TRIPOS>MOLECULE
NONAME
33 33 1 0 0 
SMALL
USER_CHARGES


@<TRIPOS>ATOM
  1 O        0.2340    -0.8590    -0.9540 O.2   1 <1>  -0.5700 
  2 C        0.0100    -1.7820    -0.1950 C.2   1 <1>   0.5440 
  3 N        1.0390    -2.2410     0.5800 N.am  1 <1>  -0.7300 
  4 C       -1.3120    -2.3760    -0.1110 C.ar  1 <1>   0.0860 
  5 C        2.4110    -1.6760     0.5780 C.3   1 <1>   0.1400 
  6 C       -2.4510    -1.6350    -0.4350 C.ar  1 <1>  -0.1500 
  7 C       -1.5080    -3.6990     0.2930 C.ar  1 <1>  -0.1500 
  8 C        3.2150    -2.2500    -0.5920 C.3   1 <1>   0.1200 
  9 C       -3.7210    -2.1750    -0.3520 C.ar  1 <1>  -0.1500 
 10 C       -2.7740    -4.2460     0.3800 C.ar  1 <1>  -0.1500 
 11 O        4.4910    -1.7060    -0.5840 O.3   1 <1>  -0.6800 
 12 C       -3.8910    -3.4920     0.0620 C.ar  1 <1>   0.0820 
 13 O       -5.0930    -4.0990     0.1760 O.3   1 <1>  -0.3630 
 14 C       -6.2940    -3.4310    -0.1340 C.3   1 <1>   0.1200 
 15 C       -7.4540    -4.4000     0.0960 C.3   1 <1>  -0.1600 
 16 C       -8.8020    -3.7430    -0.2210 C.3   1 <1>  -0.2400 
 17 H        0.8530    -2.9580     1.2830 H     1 <1>   0.3700 
 18 H        2.8970    -1.9160     1.5070 H     1 <1>   0.0800 
 19 H        2.3490    -0.6050     0.4810 H     1 <1>   0.0800 
 20 H       -2.3280    -0.6150    -0.7590 H     1 <1>   0.1500 
 21 H       -0.6610    -4.3150     0.5330 H     1 <1>   0.1500 
 22 H        2.7480    -2.0080    -1.5320 H     1 <1>   0.0800 
 23 H        3.3110    -3.3170    -0.4950 H     1 <1>   0.0800 
 24 H       -4.5610    -1.5590    -0.6120 H     1 <1>   0.1500 
 25 H       -2.9100    -5.2660     0.6930 H     1 <1>   0.1500 
 26 H        4.4600    -0.7660    -0.8540 H     1 <1>   0.4000 
 27 H       -6.2540    -3.1220    -1.1650 H     1 <1>   0.0800 
 28 H       -6.3810    -2.5730     0.5100 H     1 <1>   0.0800 
 29 H       -7.4480    -4.7200     1.1230 H     1 <1>   0.0800 
 30 H       -7.3230    -5.2630    -0.5340 H     1 <1>   0.0800 
 31 H       -8.9620    -2.8860     0.4100 H     1 <1>   0.0800 
 32 H       -9.6000    -4.4440    -0.0520 H     1 <1>   0.0800 
 33 H       -8.8370    -3.4290    -1.2500 H     1 <1>   0.0800 
@<TRIPOS>BOND
  1   1   2  2   
  2   2   3  am  
  3   2   4  1   
  4   3   5  1   
  5   3  17  1   
  6   4   6  ar  
  7   4   7  ar  
  8   5   8  1   
  9   5  18  1   
 10   5  19  1   
 11   6   9  ar  
 12   6  20  1   
 13   7  10  ar  
 14   7  21  1   
 15   8  11  1   
 16   8  22  1   
 17   8  23  1   
 18   9  12  ar  
 19   9  24  1   
 20  10  12  ar  
 21  10  25  1   
 22  11  26  1   
 23  12  13  1   
 24  13  14  1   
 25  14  15  1   
 26  14  27  1   
 27  14  28  1   
 28  15  16  1   
 29  15  29  1   
 30  15  30  1   
 31  16  31  1   
 32  16  32  1   
 33  16  33  1   
@<TRIPOS>SUBSTRUCTURE
  1 ****   4 GROUP 4 **** **** 0

# MOE 2024.06 (io_trps.svl 2023.06)
