@<TRIPOS>MOLECULE
NONAME
38 40 1 0 0 
SMALL
USER_CHARGES


@<TRIPOS>ATOM
  1 O        0.4390    -0.1440    -0.6180 O.2   1 <1>  -0.5700 
  2 C        1.2850    -1.0220    -0.5210 C.2   1 <1>   0.5440 
  3 N        2.5230    -0.8740    -1.1280 N.am  1 <1>  -0.2980 
  4 C        1.0450    -2.2380     0.2000 C.ar  1 <1>   0.0860 
  5 N        3.5450    -1.7580    -1.0140 N.2   1 <1>  -0.5120 
  6 C        2.7890     0.3440    -1.9290 C.3   1 <1>   0.0600 
  7 C        2.0860    -3.1790     0.2890 C.ar  1 <1>   0.0860 
  8 C       -0.1970    -2.5100     0.7840 C.ar  1 <1>  -0.1500 
  9 C        3.3730    -2.8430    -0.2980 C.2   1 <1>   0.3640 
 10 C        1.7910    -4.3980     0.9250 C.ar  1 <1>  -0.1500 
 11 C       -0.4420    -3.7020     1.4240 C.ar  1 <1>  -0.1500 
 12 C        4.5340    -3.7030    -0.1140 C.2   1 <1>   0.6300 
 13 C        0.5600    -4.6550     1.4870 C.ar  1 <1>  -0.1500 
 14 O        4.7210    -4.3560     0.9000 O.2   1 <1>  -0.5700 
 15 N        5.5010    -3.7600    -1.0860 N.am  1 <1>  -0.7300 
 16 C        6.8090    -4.4660    -0.9900 C.3   1 <1>   0.1400 
 17 C        7.9360    -3.4910    -0.6200 C.3   1 <1>   0.2000 
 18 O        9.1500    -4.1730    -0.6120 O.3   1 <1>  -0.5600 
 19 C        7.8130    -2.8720     0.7660 C.3   1 <1>  -0.1600 
 20 C       10.0130    -3.6840     0.3690 C.3   1 <1>   0.1200 
 21 C        9.2580    -2.5940     1.1210 C.3   1 <1>  -0.1600 
 22 H        2.0700     0.4140    -2.7260 H     1 <1>   0.0800 
 23 H        3.7790     0.3050    -2.3460 H     1 <1>   0.0800 
 24 H        2.7030     1.2120    -1.2990 H     1 <1>   0.0800 
 25 H       -0.9770    -1.7690     0.7210 H     1 <1>   0.1500 
 26 H        2.5270    -5.1780     0.9900 H     1 <1>   0.1500 
 27 H       -1.4030    -3.8990     1.8690 H     1 <1>   0.1500 
 28 H        0.3710    -5.5960     1.9760 H     1 <1>   0.1500 
 29 H        5.4020    -3.0950    -1.8590 H     1 <1>   0.3700 
 30 H        7.0310    -4.9200    -1.9390 H     1 <1>   0.0800 
 31 H        6.7520    -5.2410    -0.2450 H     1 <1>   0.0800 
 32 H        8.0200    -2.7200    -1.3670 H     1 <1>   0.0800 
 33 H        7.3910    -3.5890     1.4500 H     1 <1>   0.0800 
 34 H        7.2030    -1.9860     0.7600 H     1 <1>   0.0800 
 35 H       10.9030    -3.3070    -0.1040 H     1 <1>   0.0800 
 36 H       10.2620    -4.5030     1.0210 H     1 <1>   0.0800 
 37 H        9.4390    -2.6360     2.1810 H     1 <1>   0.0800 
 38 H        9.5590    -1.6300     0.7480 H     1 <1>   0.0800 
@<TRIPOS>BOND
  1   1   2  2   
  2   2   3  am  
  3   2   4  1   
  4   3   5  1   
  5   3   6  1   
  6   4   7  ar  
  7   4   8  ar  
  8   5   9  2   
  9   6  22  1   
 10   6  23  1   
 11   6  24  1   
 12   7   9  1   
 13   7  10  ar  
 14   8  11  ar  
 15   8  25  1   
 16   9  12  1   
 17  10  13  ar  
 18  10  26  1   
 19  11  13  ar  
 20  11  27  1   
 21  12  14  2   
 22  12  15  am  
 23  13  28  1   
 24  15  16  1   
 25  15  29  1   
 26  16  17  1   
 27  16  30  1   
 28  16  31  1   
 29  17  18  1   
 30  17  19  1   
 31  17  32  1   
 32  18  20  1   
 33  19  21  1   
 34  19  33  1   
 35  19  34  1   
 36  20  21  1   
 37  20  35  1   
 38  20  36  1   
 39  21  37  1   
 40  21  38  1   
@<TRIPOS>SUBSTRUCTURE
  1 ****   9 GROUP 4 **** **** 0

# MOE 2024.06 (io_trps.svl 2023.06)
