@<TRIPOS>MOLECULE
NONAME
45 47 1 0 0 
SMALL
USER_CHARGES


@<TRIPOS>ATOM
  1 O        0.7550    -2.0100     2.1770 O.2   1 <1>  -0.5700 
  2 C        0.4750    -2.4320     1.0830 C.2   1 <1>   0.5690 
  3 N        1.2160    -2.2890    -0.0600 N.am  1 <1>  -0.2370 
  4 C       -0.7970    -3.2160     0.8290 C.3   1 <1>  -0.0190 
  5 C        2.4710    -1.6390    -0.1410 C.ar  1 <1>   0.1170 
  6 C        0.5630    -2.8770    -1.1120 C.2   1 <1>   0.5690 
  7 C       -0.7680    -3.4500    -0.6910 C.3   1 <1>  -0.0990 
  8 C       -2.0500    -2.4690     1.3180 C.3   1 <1>  -0.0170 
  9 C        2.6700    -0.3950     0.4520 C.ar  1 <1>  -0.1500 
 10 C        3.5380    -2.2260    -0.8130 C.ar  1 <1>  -0.1500 
 11 O        0.9500    -2.9540    -2.2490 O.2   1 <1>  -0.5700 
 12 C       -3.3130    -3.2570     1.0070 C.ar  1 <1>  -0.1430 
 13 C        3.8950     0.2440     0.3800 C.ar  1 <1>  -0.1500 
 14 C        4.7650    -1.5910    -0.8890 C.ar  1 <1>  -0.1500 
 15 C       -4.1560    -2.8660    -0.0230 C.ar  1 <1>  -0.1500 
 16 C       -3.6310    -4.3800     1.7550 C.ar  1 <1>  -0.1500 
 17 C        4.9540    -0.3550    -0.2940 C.ar  1 <1>   0.0830 
 18 C       -5.2990    -3.5920    -0.3150 C.ar  1 <1>  -0.1430 
 19 C       -4.7730    -5.1070     1.4690 C.ar  1 <1>  -0.1500 
 20 O        6.1890     0.1970    -0.4130 O.3   1 <1>  -0.3630 
 21 C       -5.6040    -4.7140     0.4360 C.ar  1 <1>  -0.1500 
 22 C       -6.2120    -3.1540    -1.4460 C.3   1 <1>  -0.0970 
 23 C        6.4880     1.4420     0.1730 C.3   1 <1>   0.1200 
 24 C        7.9460     1.7700    -0.1320 C.3   1 <1>  -0.2400 
 25 H       -0.7140    -4.1570     1.3430 H     1 <1>   0.0800 
 26 H       -1.5520    -2.9250    -1.2050 H     1 <1>   0.0800 
 27 H       -0.8190    -4.4970    -0.9300 H     1 <1>   0.0800 
 28 H       -2.1010    -1.4960     0.8600 H     1 <1>   0.0800 
 29 H       -1.9850    -2.3180     2.3820 H     1 <1>   0.0800 
 30 H        1.8600     0.0770     0.9800 H     1 <1>   0.1500 
 31 H        3.4120    -3.1840    -1.2860 H     1 <1>   0.1500 
 32 H        4.0040     1.2010     0.8540 H     1 <1>   0.1500 
 33 H        5.5850    -2.0500    -1.4110 H     1 <1>   0.1500 
 34 H       -3.9250    -1.9910    -0.6040 H     1 <1>   0.1500 
 35 H       -2.9940    -4.6940     2.5630 H     1 <1>   0.1500 
 36 H       -5.0160    -5.9780     2.0520 H     1 <1>   0.1500 
 37 H       -6.4900    -5.2850     0.2220 H     1 <1>   0.1500 
 38 H       -6.9060    -2.4150    -1.0870 H     1 <1>   0.0800 
 39 H       -6.7660    -3.9920    -1.8310 H     1 <1>   0.0800 
 40 H       -5.6380    -2.7300    -2.2500 H     1 <1>   0.0800 
 41 H        6.3290     1.3660     1.2350 H     1 <1>   0.0800 
 42 H        5.8340     2.1840    -0.2510 H     1 <1>   0.0800 
 43 H        8.5880     1.0130     0.2810 H     1 <1>   0.0800 
 44 H        8.2050     2.7170     0.3030 H     1 <1>   0.0800 
 45 H        8.0960     1.8260    -1.1960 H     1 <1>   0.0800 
@<TRIPOS>BOND
  1   1   2  2   
  2   2   3  am  
  3   2   4  1   
  4   3   5  1   
  5   3   6  am  
  6   4   7  1   
  7   4   8  1   
  8   4  25  1   
  9   5   9  ar  
 10   5  10  ar  
 11   6   7  1   
 12   6  11  2   
 13   7  26  1   
 14   7  27  1   
 15   8  12  1   
 16   8  28  1   
 17   8  29  1   
 18   9  13  ar  
 19   9  30  1   
 20  10  14  ar  
 21  10  31  1   
 22  12  15  ar  
 23  12  16  ar  
 24  13  17  ar  
 25  13  32  1   
 26  14  17  ar  
 27  14  33  1   
 28  15  18  ar  
 29  15  34  1   
 30  16  19  ar  
 31  16  35  1   
 32  17  20  1   
 33  18  21  ar  
 34  18  22  1   
 35  19  21  ar  
 36  19  36  1   
 37  20  23  1   
 38  21  37  1   
 39  22  38  1   
 40  22  39  1   
 41  22  40  1   
 42  23  24  1   
 43  23  41  1   
 44  23  42  1   
 45  24  43  1   
 46  24  44  1   
 47  24  45  1   
@<TRIPOS>SUBSTRUCTURE
  1 ****   3 GROUP 4 **** **** 0

# MOE 2024.06 (io_trps.svl 2023.06)
