@<TRIPOS>MOLECULE
NONAME
44 47 1 0 0 
SMALL
USER_CHARGES


@<TRIPOS>ATOM
  1 BR      -0.0420     0.3420     0.2490 Br    1 <1>  -0.1110 
  2 C       -1.6320    -0.7410     0.2000 C.ar  1 <1>   0.1110 
  3 C       -1.5090    -2.0910    -0.0660 C.ar  1 <1>  -0.1500 
  4 C       -2.8510    -0.1380     0.4210 C.ar  1 <1>  -0.1500 
  5 C       -2.6360    -2.9100    -0.0900 C.ar  1 <1>  -0.1430 
  6 C       -3.9820    -0.9270     0.3530 C.ar  1 <1>  -0.1500 
  7 C       -3.8710    -2.2830     0.0850 C.ar  1 <1>  -0.1500 
  8 C       -2.5140    -4.4200    -0.4320 C.3   1 <1>   0.3400 
  9 C       -3.6660    -5.4280    -0.3090 C.2   1 <1>  -0.1240 
 10 C       -1.2140    -5.2450    -0.2850 C.2   1 <1>  -0.1240 
 11 C       -3.5310    -6.5210    -1.1120 C.2   1 <1>   0.2000 
 12 C       -4.7840    -5.3860     0.5580 C.2   1 <1>   0.7670 
 13 C       -1.1740    -6.3730    -1.0530 C.2   1 <1>  -0.0380 
 14 C       -0.1520    -4.8950     0.6010 C.2   1 <1>   0.4950 
 15 N       -4.5820    -7.3680    -1.2320 N.pl3 1 <1>  -0.5500 
 16 N       -2.3160    -6.8430    -1.6820 N.pl3 1 <1>  -0.6000 
 17 O       -4.8470    -4.6390     1.5240 O.2   1 <1>  -0.5700 
 18 N       -5.8410    -6.2380     0.3860 N.2   1 <1>  -0.6610 
 19 C        0.0730    -7.2390    -1.1800 C.3   1 <1>  -0.0220 
 20 O       -0.2300    -4.1230     1.5230 O.2   1 <1>  -0.5700 
 21 C        1.1840    -5.5950     0.4060 C.3   1 <1>  -0.0990 
 22 C       -5.6880    -7.1650    -0.4810 C.2   1 <1>   0.6410 
 23 C        0.9960    -7.0740     0.0360 C.3   1 <1>  -0.1600 
 24 S       -6.9830    -8.3390    -0.7850 S.3   1 <1>  -0.3710 
 25 C       -8.3220    -7.9050     0.4150 C.3   1 <1>   0.0700 
 26 C       -7.9890    -8.5560     1.7570 C.3   1 <1>  -0.2400 
 27 H       -0.5240    -2.4680    -0.2570 H     1 <1>   0.1500 
 28 H       -2.9110     0.9140     0.6330 H     1 <1>   0.1500 
 29 H       -4.9540    -0.4900     0.5040 H     1 <1>   0.1500 
 30 H       -4.7900    -2.8290     0.0030 H     1 <1>   0.1500 
 31 H       -2.5130    -4.2720    -1.4990 H     1 <1>   0.0800 
 32 H       -4.5740    -8.1840    -1.8400 H     1 <1>   0.4000 
 33 H       -2.2550    -7.6590    -2.2990 H     1 <1>   0.4000 
 34 H        0.5970    -6.9600    -2.0780 H     1 <1>   0.0800 
 35 H       -0.2030    -8.2750    -1.2630 H     1 <1>   0.0800 
 36 H        1.7560    -5.5230     1.3150 H     1 <1>   0.0800 
 37 H        1.7260    -5.0850    -0.3690 H     1 <1>   0.0800 
 38 H        1.9500    -7.5300    -0.1620 H     1 <1>   0.0800 
 39 H        0.5540    -7.5840     0.8760 H     1 <1>   0.0800 
 40 H       -9.2420    -8.2890     0.0120 H     1 <1>   0.0800 
 41 H       -8.3730    -6.8330     0.4880 H     1 <1>   0.0800 
 42 H       -7.9090    -9.6230     1.6440 H     1 <1>   0.0800 
 43 H       -8.7660    -8.3410     2.4680 H     1 <1>   0.0800 
 44 H       -7.0610    -8.1690     2.1390 H     1 <1>   0.0800 
@<TRIPOS>BOND
  1   1   2  1   
  2   2   3  ar  
  3   2   4  ar  
  4   3   5  ar  
  5   3  27  1   
  6   4   6  ar  
  7   4  28  1   
  8   5   7  ar  
  9   5   8  1   
 10   6   7  ar  
 11   6  29  1   
 12   7  30  1   
 13   8   9  1   
 14   8  10  1   
 15   8  31  1   
 16   9  11  2   
 17   9  12  1   
 18  10  13  2   
 19  10  14  1   
 20  11  15  1   
 21  11  16  1   
 22  12  17  2   
 23  12  18  1   
 24  13  16  1   
 25  13  19  1   
 26  14  20  2   
 27  14  21  1   
 28  15  22  1   
 29  15  32  1   
 30  16  33  1   
 31  18  22  2   
 32  19  23  1   
 33  19  34  1   
 34  19  35  1   
 35  21  23  1   
 36  21  36  1   
 37  21  37  1   
 38  22  24  1   
 39  23  38  1   
 40  23  39  1   
 41  24  25  1   
 42  25  26  1   
 43  25  40  1   
 44  25  41  1   
 45  26  42  1   
 46  26  43  1   
 47  26  44  1   
@<TRIPOS>SUBSTRUCTURE
  1 ****   8 GROUP 4 **** **** 0

# MOE 2024.06 (io_trps.svl 2023.06)
