@<TRIPOS>MOLECULE
NONAME
37 39 1 0 0 
SMALL
USER_CHARGES


@<TRIPOS>ATOM
  1 O        0.5430     0.4660     0.0280 O.co2 1 <1>  -0.9000 
  2 C        0.0860     1.5200    -0.4340 C.2   1 <1>   0.9060 
  3 O        0.1930     1.8030    -1.6280 O.co2 1 <1>  -0.9000 
  4 C       -0.6940     2.4160     0.5200 C.3   1 <1>  -0.1860 
  5 C       -2.3480     2.0780     0.6500 C.3   1 <1>  -0.0190 
  6 C       -0.5360     4.0100     0.1620 C.3   1 <1>  -0.0800 
  7 C       -2.8940     0.7770     0.0290 C.2   1 <1>   0.5690 
  8 C       -3.1490     3.4350     0.1780 C.3   1 <1>  -0.0800 
  9 C       -1.8420     3.7270     0.1950 C.3   1 <1>  -0.1600 
 10 C       -1.3550     5.3610    -0.2600 C.3   1 <1>  -0.1600 
 11 O       -4.0510     0.7290    -0.3250 O.2   1 <1>  -0.5700 
 12 N       -2.1100    -0.3210    -0.0550 N.am  1 <1>  -0.7300 
 13 C       -2.9870     5.0310    -0.1290 C.3   1 <1>  -0.1600 
 14 C       -2.4290    -1.5180    -0.8400 C.3   1 <1>   0.2840 
 15 C       -1.7080    -2.7160    -0.2460 C.ar  1 <1>  -0.1440 
 16 C       -2.3830    -3.8070     0.2650 C.ar  1 <1>  -0.1500 
 17 C       -0.3300    -2.7720    -0.1880 C.ar  1 <1>  -0.1500 
 18 C       -1.6650    -4.8720     0.7860 C.ar  1 <1>   0.1600 
 19 C        0.2900    -3.8820     0.3570 C.ar  1 <1>   0.1600 
 20 N       -0.3450    -4.9410     0.8410 N.ar  1 <1>  -0.6200 
 21 H       -0.2490     2.2350     1.4840 H     1 <1>   0.0800 
 22 H       -2.5490     1.9430     1.7020 H     1 <1>   0.0800 
 23 H       -0.0040     4.3600     1.0350 H     1 <1>   0.0800 
 24 H       -3.6330     3.1120    -0.7340 H     1 <1>   0.0800 
 25 H       -1.7850     3.4300    -0.9430 H     1 <1>   0.0800 
 26 H       -1.8820     4.0120     1.3340 H     1 <1>   0.0800 
 27 H       -1.1110     5.6260    -1.2780 H     1 <1>   0.0800 
 28 H       -1.0830     6.1940     0.3680 H     1 <1>   0.0800 
 29 H       -1.0900    -0.2100     0.1170 H     1 <1>   0.3700 
 30 H       -3.4220     5.6090     0.6730 H     1 <1>   0.0800 
 31 H       -3.4990     5.3000    -1.0390 H     1 <1>   0.0800 
 32 H       -2.0990    -1.3630    -1.8530 H     1 <1>   0.0800 
 33 H       -3.4930    -1.6780    -0.8440 H     1 <1>   0.0800 
 34 H       -3.4560    -3.8330     0.2650 H     1 <1>   0.1500 
 35 H        0.2670    -1.9520    -0.5570 H     1 <1>   0.1500 
 36 H       -2.2090    -5.7120     1.1790 H     1 <1>   0.1500 
 37 H        1.3650    -3.8940     0.3950 H     1 <1>   0.1500 
@<TRIPOS>BOND
  1   1   2  ar  
  2   2   3  ar  
  3   2   4  1   
  4   4   5  1   
  5   4   6  1   
  6   4  21  1   
  7   5   7  1   
  8   5   8  1   
  9   5  22  1   
 10   6   9  1   
 11   6  10  1   
 12   6  23  1   
 13   7  11  2   
 14   7  12  am  
 15   8   9  1   
 16   8  13  1   
 17   8  24  1   
 18   9  25  1   
 19   9  26  1   
 20  10  13  1   
 21  10  27  1   
 22  10  28  1   
 23  12  14  1   
 24  12  29  1   
 25  13  30  1   
 26  13  31  1   
 27  14  15  1   
 28  14  32  1   
 29  14  33  1   
 30  15  16  ar  
 31  15  17  ar  
 32  16  18  ar  
 33  16  34  1   
 34  17  19  ar  
 35  17  35  1   
 36  18  20  ar  
 37  18  36  1   
 38  19  20  ar  
 39  19  37  1   
@<TRIPOS>SUBSTRUCTURE
  1 ****  12 GROUP 4 **** **** 0

# MOE 2024.06 (io_trps.svl 2023.06)
