@<TRIPOS>MOLECULE
NONAME
43 44 1 0 0 
SMALL
USER_CHARGES


@<TRIPOS>ATOM
  1 O        0.3300     0.9780    -1.5880 O.2   1 <1>  -0.5700 
  2 C        0.3390     2.1360    -1.2100 C.2   1 <1>   0.5440 
  3 N        1.5270     2.8440    -1.2400 N.am  1 <1>  -0.6600 
  4 C       -0.8970     2.7170    -0.7300 C.ar  1 <1>   0.0860 
  5 C        2.7250     2.2750    -1.9110 C.3   1 <1>   0.1400 
  6 C        1.6740     4.2370    -0.7310 C.3   1 <1>   0.1400 
  7 C       -1.5130     3.7810    -1.3840 C.ar  1 <1>  -0.1500 
  8 C       -1.5210     2.2180     0.4100 C.ar  1 <1>  -0.1500 
  9 C        3.5270     1.3670    -0.9740 C.3   1 <1>  -0.1600 
 10 C        1.6370     4.3030     0.8000 C.3   1 <1>  -0.1600 
 11 C       -2.6830     4.3510    -0.9180 C.ar  1 <1>   0.0830 
 12 C       -2.6890     2.7760     0.8980 C.ar  1 <1>  -0.1500 
 13 C        4.2320     2.0850     0.1890 C.3   1 <1>  -0.1600 
 14 C        2.9420     3.9020     1.5060 C.3   1 <1>  -0.1600 
 15 O       -3.1580     5.3860    -1.6660 O.3   1 <1>  -0.3630 
 16 C       -3.2830     3.8580     0.2530 C.ar  1 <1>   0.0830 
 17 C        3.3160     2.4150     1.3830 C.3   1 <1>  -0.1600 
 18 C       -4.5450     5.5490    -1.8630 C.3   1 <1>   0.0400 
 19 O       -4.4090     4.4470     0.7410 O.3   1 <1>  -0.3630 
 20 C       -5.0060     4.0530     1.9570 C.3   1 <1>   0.0400 
 21 H        3.3530     3.0630    -2.2880 H     1 <1>   0.0800 
 22 H        2.4020     1.6930    -2.7590 H     1 <1>   0.0800 
 23 H        0.8770     4.8390    -1.1270 H     1 <1>   0.0800 
 24 H        2.5960     4.6670    -1.0820 H     1 <1>   0.0800 
 25 H       -1.0700     4.1680    -2.2820 H     1 <1>   0.1500 
 26 H       -1.0720     1.3800     0.9140 H     1 <1>   0.1500 
 27 H        4.2850     0.8940    -1.5720 H     1 <1>   0.0800 
 28 H        2.8910     0.5820    -0.6030 H     1 <1>   0.0800 
 29 H        0.8210     3.7180     1.1800 H     1 <1>   0.0800 
 30 H        1.4340     5.3250     1.0670 H     1 <1>   0.0800 
 31 H       -3.1170     2.3500     1.7850 H     1 <1>   0.1500 
 32 H        4.7380     2.9640    -0.1700 H     1 <1>   0.0800 
 33 H        4.9950     1.4170     0.5500 H     1 <1>   0.0800 
 34 H        2.8070     4.1130     2.5530 H     1 <1>   0.0800 
 35 H        3.7530     4.5240     1.1700 H     1 <1>   0.0800 
 36 H        3.8560     2.1520     2.2770 H     1 <1>   0.0800 
 37 H        2.4300     1.8030     1.3700 H     1 <1>   0.0800 
 38 H       -4.6910     6.1260    -2.7580 H     1 <1>   0.0800 
 39 H       -4.9560     6.0760    -1.0220 H     1 <1>   0.0800 
 40 H       -5.0030     4.5820    -1.9690 H     1 <1>   0.0800 
 41 H       -5.8520     4.6920     2.1350 H     1 <1>   0.0800 
 42 H       -4.2890     4.1680     2.7510 H     1 <1>   0.0800 
 43 H       -5.3310     3.0320     1.8720 H     1 <1>   0.0800 
@<TRIPOS>BOND
  1   1   2  2   
  2   2   3  am  
  3   2   4  1   
  4   3   5  1   
  5   3   6  1   
  6   4   7  ar  
  7   4   8  ar  
  8   5   9  1   
  9   5  21  1   
 10   5  22  1   
 11   6  10  1   
 12   6  23  1   
 13   6  24  1   
 14   7  11  ar  
 15   7  25  1   
 16   8  12  ar  
 17   8  26  1   
 18   9  13  1   
 19   9  27  1   
 20   9  28  1   
 21  10  14  1   
 22  10  29  1   
 23  10  30  1   
 24  11  15  1   
 25  11  16  ar  
 26  12  16  ar  
 27  12  31  1   
 28  13  17  1   
 29  13  32  1   
 30  13  33  1   
 31  14  17  1   
 32  14  34  1   
 33  14  35  1   
 34  15  18  1   
 35  16  19  1   
 36  17  36  1   
 37  17  37  1   
 38  18  38  1   
 39  18  39  1   
 40  18  40  1   
 41  19  20  1   
 42  20  41  1   
 43  20  42  1   
 44  20  43  1   
@<TRIPOS>SUBSTRUCTURE
  1 ****   4 GROUP 4 **** **** 0

# MOE 2024.06 (io_trps.svl 2023.06)
