@<TRIPOS>MOLECULE
NONAME
48 50 1 0 0 
SMALL
USER_CHARGES


@<TRIPOS>ATOM
  1 CL      -1.2970     0.9900    -2.0940 Cl    1 <1>  -0.1770 
  2 C       -1.0650    -0.4010    -1.0650 C.ar  1 <1>   0.1770 
  3 C       -2.1140    -1.2770    -0.8700 C.ar  1 <1>  -0.1500 
  4 C        0.1650    -0.6010    -0.4650 C.ar  1 <1>  -0.1500 
  5 C       -1.9400    -2.3870    -0.0520 C.ar  1 <1>   0.1000 
  6 C        0.3440    -1.7060     0.3500 C.ar  1 <1>  -0.1500 
  7 N       -2.9690    -3.2940     0.1710 N.pl3 1 <1>  -0.8380 
  8 C       -0.7040    -2.5890     0.5510 C.ar  1 <1>  -0.1500 
  9 C       -3.3250    -4.1870    -0.9700 C.3   1 <1>   0.2090 
 10 C       -4.1450    -2.7940     0.9420 C.3   1 <1>   0.2090 
 11 C       -4.2130    -5.3560    -0.4940 C.3   1 <1>   0.3430 
 12 C       -5.0310    -3.9680     1.4120 C.3   1 <1>   0.3430 
 13 N       -5.4200    -4.8880     0.2830 N.4   1 <1>  -0.9590 
 14 C       -6.2670    -6.0270     0.7510 C.3   1 <1>   0.3430 
 15 C       -7.1360    -6.5800    -0.4000 C.3   1 <1>   0.2000 
 16 O       -7.5880    -5.5090    -1.1810 O.3   1 <1>  -0.6800 
 17 C       -8.3330    -7.3800     0.1390 C.3   1 <1>   0.1200 
 18 O       -7.9070    -8.2170     1.1980 O.3   1 <1>  -0.3630 
 19 C       -6.9930    -9.2010     1.0030 C.ar  1 <1>   0.0830 
 20 C       -6.7940    -9.8320    -0.2220 C.ar  1 <1>  -0.1500 
 21 C       -6.2170    -9.5610     2.0940 C.ar  1 <1>  -0.1500 
 22 C       -5.8030   -10.7900    -0.3510 C.ar  1 <1>  -0.1500 
 23 C       -5.2290   -10.5200     1.9620 C.ar  1 <1>  -0.1500 
 24 C       -5.0180   -11.1300     0.7370 C.ar  1 <1>  -0.1500 
 25 H       -3.0540    -1.0930    -1.3520 H     1 <1>   0.1500 
 26 H        0.9640     0.0980    -0.6350 H     1 <1>   0.1500 
 27 H        1.2950    -1.8770     0.8250 H     1 <1>   0.1500 
 28 H       -0.5690    -3.4480     1.1830 H     1 <1>   0.1500 
 29 H       -2.4220    -4.5790    -1.4070 H     1 <1>   0.0800 
 30 H       -3.8400    -3.6210    -1.7270 H     1 <1>   0.0800 
 31 H       -4.7220    -2.1230     0.3300 H     1 <1>   0.0800 
 32 H       -3.7970    -2.2440     1.8000 H     1 <1>   0.0800 
 33 H       -3.6130    -5.9970     0.1300 H     1 <1>   0.0800 
 34 H       -4.5290    -5.9270    -1.3510 H     1 <1>   0.0800 
 35 H       -5.9150    -3.5730     1.8840 H     1 <1>   0.0800 
 36 H       -4.4800    -4.5230     2.1530 H     1 <1>   0.0800 
 37 H       -6.0340    -4.3750    -0.3750 H     1 <1>   0.4500 
 38 H       -6.9310    -5.6850     1.5280 H     1 <1>   0.0800 
 39 H       -5.6600    -6.8150     1.1670 H     1 <1>   0.0800 
 40 H       -6.5380    -7.2110    -1.0340 H     1 <1>   0.0800 
 41 H       -8.1870    -5.8190    -1.8950 H     1 <1>   0.4000 
 42 H       -8.7940    -7.9850    -0.6210 H     1 <1>   0.0800 
 43 H       -9.0710    -6.7140     0.5520 H     1 <1>   0.0800 
 44 H       -7.4030    -9.6050    -1.0760 H     1 <1>   0.1500 
 45 H       -6.3910    -9.0940     3.0470 H     1 <1>   0.1500 
 46 H       -5.6450   -11.2810    -1.2970 H     1 <1>   0.1500 
 47 H       -4.6270   -10.7970     2.8110 H     1 <1>   0.1500 
 48 H       -4.2500   -11.8780     0.6350 H     1 <1>   0.1500 
@<TRIPOS>BOND
  1   1   2  1   
  2   2   3  ar  
  3   2   4  ar  
  4   3   5  ar  
  5   3  25  1   
  6   4   6  ar  
  7   4  26  1   
  8   5   7  1   
  9   5   8  ar  
 10   6   8  ar  
 11   6  27  1   
 12   7   9  1   
 13   7  10  1   
 14   8  28  1   
 15   9  11  1   
 16   9  29  1   
 17   9  30  1   
 18  10  12  1   
 19  10  31  1   
 20  10  32  1   
 21  11  13  1   
 22  11  33  1   
 23  11  34  1   
 24  12  13  1   
 25  12  35  1   
 26  12  36  1   
 27  13  14  1   
 28  13  37  1   
 29  14  15  1   
 30  14  38  1   
 31  14  39  1   
 32  15  16  1   
 33  15  17  1   
 34  15  40  1   
 35  16  41  1   
 36  17  18  1   
 37  17  42  1   
 38  17  43  1   
 39  18  19  1   
 40  19  20  ar  
 41  19  21  ar  
 42  20  22  ar  
 43  20  44  1   
 44  21  23  ar  
 45  21  45  1   
 46  22  24  ar  
 47  22  46  1   
 48  23  24  ar  
 49  23  47  1   
 50  24  48  1   
@<TRIPOS>SUBSTRUCTURE
  1 ****  11 GROUP 4 **** **** 0

# MOE 2024.06 (io_trps.svl 2023.06)
