@<TRIPOS>MOLECULE
NONAME
42 44 1 0 0 
SMALL
USER_CHARGES


@<TRIPOS>ATOM
  1 S        0.0050     1.0060    -1.0510 S.3   1 <1>  -0.2860 
  2 C        0.3460    -0.7560    -1.1000 C.2   1 <1>   0.2420 
  3 C       -1.6810     1.1590    -1.8200 C.3   1 <1>   0.1310 
  4 N       -0.3880    -1.6050    -1.7280 N.2   1 <1>  -0.3380 
  5 N        1.3800    -1.3080    -0.4740 N.pl3 1 <1>   0.0480 
  6 C       -2.7590     0.7250    -0.8400 C.2   1 <1>   0.5690 
  7 N        0.1650    -2.7950    -1.5090 N.2   1 <1>  -0.3380 
  8 C        1.2200    -2.6150    -0.7610 C.2   1 <1>   0.1330 
  9 C        2.4530    -0.6500     0.3060 C.3   1 <1>   0.0960 
 10 O       -3.4970     1.5670    -0.3840 O.2   1 <1>  -0.5700 
 11 N       -2.8680    -0.5920    -0.5170 N.am  1 <1>  -0.5790 
 12 C        2.1070    -3.6540    -0.3050 C.ar  1 <1>   0.0530 
 13 C        3.6810    -0.3970    -0.5740 C.3   1 <1>  -0.2400 
 14 C       -3.8170    -1.1830     0.4300 C.3   1 <1>   0.0490 
 15 C        2.9000    -4.3560    -1.2080 C.ar  1 <1>  -0.1500 
 16 C        2.2080    -3.9860     1.0440 C.ar  1 <1>  -0.1500 
 17 C       -3.3390    -2.3250     1.2630 C.3   1 <1>  -0.2000 
 18 C       -4.3170    -2.5600     0.1520 C.3   1 <1>  -0.2000 
 19 C        3.7770    -5.3350    -0.7810 C.ar  1 <1>  -0.1500 
 20 C        3.0840    -4.9650     1.4760 C.ar  1 <1>  -0.1500 
 21 C        3.8790    -5.6430     0.5660 C.ar  1 <1>  -0.1440 
 22 C        4.8400    -6.7190     1.0370 C.3   1 <1>  -0.0970 
 23 H       -1.6950     0.5510    -2.7060 H     1 <1>   0.0800 
 24 H       -1.8130     2.1920    -2.0830 H     1 <1>   0.0800 
 25 H        2.7220    -1.2780     1.1360 H     1 <1>   0.0800 
 26 H        2.0850     0.2820     0.6980 H     1 <1>   0.0800 
 27 H       -2.1880    -1.2550    -0.9140 H     1 <1>   0.3700 
 28 H        4.0750    -1.3260    -0.9470 H     1 <1>   0.0800 
 29 H        4.4480     0.0880     0.0030 H     1 <1>   0.0800 
 30 H        3.4240     0.2410    -1.4020 H     1 <1>   0.0800 
 31 H       -4.4910    -0.4620     0.8690 H     1 <1>   0.1000 
 32 H        2.8220    -4.1270    -2.2570 H     1 <1>   0.1500 
 33 H        1.5880    -3.4760     1.7590 H     1 <1>   0.1500 
 34 H       -3.6910    -2.4080     2.2760 H     1 <1>   0.1000 
 35 H       -2.3260    -2.6670     1.1440 H     1 <1>   0.1000 
 36 H       -3.9820    -3.0630    -0.7390 H     1 <1>   0.1000 
 37 H       -5.3330    -2.8030     0.4090 H     1 <1>   0.1000 
 38 H        4.3790    -5.8610    -1.5020 H     1 <1>   0.1500 
 39 H        3.1430    -5.2020     2.5240 H     1 <1>   0.1500 
 40 H        4.3470    -7.6750     1.0290 H     1 <1>   0.0800 
 41 H        5.1790    -6.5120     2.0350 H     1 <1>   0.0800 
 42 H        5.6980    -6.7660     0.3900 H     1 <1>   0.0800 
@<TRIPOS>BOND
  1   1   2  1   
  2   1   3  1   
  3   2   4  2   
  4   2   5  1   
  5   3   6  1   
  6   3  23  1   
  7   3  24  1   
  8   4   7  1   
  9   5   8  1   
 10   5   9  1   
 11   6  10  2   
 12   6  11  am  
 13   7   8  2   
 14   8  12  1   
 15   9  13  1   
 16   9  25  1   
 17   9  26  1   
 18  11  14  1   
 19  11  27  1   
 20  12  15  ar  
 21  12  16  ar  
 22  13  28  1   
 23  13  29  1   
 24  13  30  1   
 25  14  17  1   
 26  14  18  1   
 27  14  31  1   
 28  15  19  ar  
 29  15  32  1   
 30  16  20  ar  
 31  16  33  1   
 32  17  18  1   
 33  17  34  1   
 34  17  35  1   
 35  18  36  1   
 36  18  37  1   
 37  19  21  ar  
 38  19  38  1   
 39  20  21  ar  
 40  20  39  1   
 41  21  22  1   
 42  22  40  1   
 43  22  41  1   
 44  22  42  1   
@<TRIPOS>SUBSTRUCTURE
  1 ****   8 GROUP 4 **** **** 0

# MOE 2024.06 (io_trps.svl 2023.06)
