@<TRIPOS>MOLECULE
NONAME
41 43 1 0 0 
SMALL
USER_CHARGES


@<TRIPOS>ATOM
  1 O       -0.2570     1.1670    -1.3230 O.2   1 <1>  -0.5700 
  2 C       -0.8870     1.9430    -0.6600 C.2   1 <1>   0.6590 
  3 O       -2.1680     2.1910    -0.8390 O.3   1 <1>  -0.4300 
  4 C       -0.3370     2.7110     0.5060 C.3   1 <1>  -0.0990 
  5 C       -2.7060     3.0590     0.1290 C.3   1 <1>   0.2800 
  6 C       -1.4650     3.7120     0.7910 C.3   1 <1>  -0.0190 
  7 C       -3.6850     4.0210    -0.5830 C.3   1 <1>  -0.1600 
  8 C       -3.4680     2.1840     1.1490 C.3   1 <1>  -0.1600 
  9 C       -1.1530     5.0950     0.2300 C.2   1 <1>   0.5690 
 10 C       -4.9000     3.2970    -1.1850 C.3   1 <1>  -0.1600 
 11 C       -4.6780     1.4610     0.5340 C.3   1 <1>  -0.1600 
 12 O       -0.5860     5.1880    -0.8290 O.2   1 <1>  -0.5700 
 13 N       -1.5540     6.1730     0.9600 N.am  1 <1>  -0.5470 
 14 C       -5.6330     2.4570    -0.1320 C.3   1 <1>  -0.1600 
 15 C       -1.6420     7.4970     0.5930 C.ar  1 <1>   0.4270 
 16 N       -2.8520     7.9810     0.8270 N.ar  1 <1>  -0.6200 
 17 C       -0.5810     8.2580     0.0780 C.ar  1 <1>  -0.1440 
 18 C       -3.0460     9.2470     0.4970 C.ar  1 <1>   0.1600 
 19 C       -0.8130     9.5750    -0.2570 C.ar  1 <1>  -0.1500 
 20 C        0.8300     7.7150    -0.1150 C.3   1 <1>  -0.0970 
 21 C       -2.0800    10.0730    -0.0430 C.ar  1 <1>  -0.1500 
 22 H        0.5980     3.1770     0.2520 H     1 <1>   0.0800 
 23 H       -0.1990     2.0340     1.3290 H     1 <1>   0.0800 
 24 H       -1.6070     3.8090     1.8510 H     1 <1>   0.0800 
 25 H       -3.1780     4.5470    -1.3730 H     1 <1>   0.0800 
 26 H       -4.0390     4.7520     0.1220 H     1 <1>   0.0800 
 27 H       -3.8240     2.8110     1.9470 H     1 <1>   0.0800 
 28 H       -2.8050     1.4560     1.5820 H     1 <1>   0.0800 
 29 H       -4.5700     2.6550    -1.9850 H     1 <1>   0.0800 
 30 H       -5.5770     4.0210    -1.6060 H     1 <1>   0.0800 
 31 H       -5.2020     0.9150     1.2990 H     1 <1>   0.0800 
 32 H       -4.3360     0.7500    -0.2000 H     1 <1>   0.0800 
 33 H       -2.2030     5.9860     1.7190 H     1 <1>   0.3700 
 34 H       -6.4410     1.9220    -0.6010 H     1 <1>   0.0800 
 35 H       -6.0570     3.1070     0.6140 H     1 <1>   0.0800 
 36 H       -4.0300     9.6490     0.6680 H     1 <1>   0.1500 
 37 H       -0.0390    10.2000    -0.6680 H     1 <1>   0.1500 
 38 H        1.0540     6.9610     0.6180 H     1 <1>   0.0800 
 39 H        1.5560     8.5010    -0.0160 H     1 <1>   0.0800 
 40 H        0.9240     7.2850    -1.0960 H     1 <1>   0.0800 
 41 H       -2.3150    11.0930    -0.2900 H     1 <1>   0.1500 
@<TRIPOS>BOND
  1   1   2  2   
  2   2   3  1   
  3   2   4  1   
  4   3   5  1   
  5   4   6  1   
  6   4  22  1   
  7   4  23  1   
  8   5   6  1   
  9   5   7  1   
 10   5   8  1   
 11   6   9  1   
 12   6  24  1   
 13   7  10  1   
 14   7  25  1   
 15   7  26  1   
 16   8  11  1   
 17   8  27  1   
 18   8  28  1   
 19   9  12  2   
 20   9  13  am  
 21  10  14  1   
 22  10  29  1   
 23  10  30  1   
 24  11  14  1   
 25  11  31  1   
 26  11  32  1   
 27  13  15  1   
 28  13  33  1   
 29  14  34  1   
 30  14  35  1   
 31  15  16  ar  
 32  15  17  ar  
 33  16  18  ar  
 34  17  19  ar  
 35  17  20  1   
 36  18  21  ar  
 37  18  36  1   
 38  19  21  ar  
 39  19  37  1   
 40  20  38  1   
 41  20  39  1   
 42  20  40  1   
 43  21  41  1   
@<TRIPOS>SUBSTRUCTURE
  1 ****   9 GROUP 4 **** **** 0

# MOE 2024.06 (io_trps.svl 2023.06)
