@<TRIPOS>MOLECULE
NONAME
38 39 1 0 0 
SMALL
USER_CHARGES


@<TRIPOS>ATOM
  1 O       -1.0680    -0.5500     1.2530 O.2   1 <1>  -0.5700 
  2 C       -0.9310    -1.5280     0.5820 C.2   1 <1>   0.4480 
  3 C       -2.1070    -2.3750     0.1420 C.3   1 <1>   0.1030 
  4 C        0.4620    -1.9580     0.1400 C.3   1 <1>  -0.0990 
  5 C       -1.7210    -3.1040    -1.1230 C.2   1 <1>   0.4480 
  6 C       -3.3340    -1.5180    -0.0590 C.2   1 <1>   0.3290 
  7 C        0.5960    -3.4830    -0.0650 C.3   1 <1>   0.0000 
  8 O       -2.3050    -2.9680    -2.1550 O.2   1 <1>  -0.5700 
  9 C       -0.4870    -3.9910    -1.0520 C.3   1 <1>  -0.0990 
 10 N       -4.4250    -1.7230     0.5540 N.2   1 <1>  -0.5030 
 11 C        0.4830    -4.2120     1.2880 C.3   1 <1>  -0.2400 
 12 C        1.9900    -3.7900    -0.6350 C.3   1 <1>  -0.2400 
 13 N       -5.4820    -0.8830     0.3450 N.pl3 1 <1>  -0.4870 
 14 C       -5.3070     0.5540     0.7080 C.3   1 <1>   0.1100 
 15 C       -6.7930    -1.4140     0.7970 C.3   1 <1>   0.1100 
 16 C       -6.5280     1.3790     0.2690 C.3   1 <1>   0.1200 
 17 C       -7.9380    -0.4920     0.3470 C.3   1 <1>   0.1200 
 18 O       -7.7120     0.8240     0.7680 O.3   1 <1>  -0.5600 
 19 H       -2.3270    -3.0970     0.9040 H     1 <1>   0.0800 
 20 H        1.1760    -1.6190     0.8700 H     1 <1>   0.0800 
 21 H        0.6830    -1.4490    -0.7820 H     1 <1>   0.0800 
 22 H       -3.2000    -0.7190    -0.7670 H     1 <1>   0.0600 
 23 H       -0.0800    -4.0310    -2.0480 H     1 <1>   0.0800 
 24 H       -0.7890    -4.9920    -0.8020 H     1 <1>   0.0800 
 25 H       -0.4720    -4.0650     1.7560 H     1 <1>   0.0800 
 26 H        1.2390    -3.8590     1.9680 H     1 <1>   0.0800 
 27 H        0.6280    -5.2710     1.1590 H     1 <1>   0.0800 
 28 H        2.1410    -3.2870    -1.5750 H     1 <1>   0.0800 
 29 H        2.1110    -4.8470    -0.7960 H     1 <1>   0.0800 
 30 H        2.7600    -3.4640     0.0440 H     1 <1>   0.0800 
 31 H       -4.4240     0.9460     0.2370 H     1 <1>   0.0800 
 32 H       -5.1830     0.6360     1.7740 H     1 <1>   0.0800 
 33 H       -6.7940    -1.4920     1.8700 H     1 <1>   0.0800 
 34 H       -6.9340    -2.3970     0.3860 H     1 <1>   0.0800 
 35 H       -6.5900     1.4130    -0.8050 H     1 <1>   0.0800 
 36 H       -6.4520     2.3830     0.6450 H     1 <1>   0.0800 
 37 H       -8.8680    -0.8200     0.7750 H     1 <1>   0.0800 
 38 H       -8.0270    -0.5010    -0.7260 H     1 <1>   0.0800 
@<TRIPOS>BOND
  1   1   2  2   
  2   2   3  1   
  3   2   4  1   
  4   3   5  1   
  5   3   6  1   
  6   3  19  1   
  7   4   7  1   
  8   4  20  1   
  9   4  21  1   
 10   5   8  2   
 11   5   9  1   
 12   6  10  2   
 13   6  22  1   
 14   7   9  1   
 15   7  11  1   
 16   7  12  1   
 17   9  23  1   
 18   9  24  1   
 19  10  13  1   
 20  11  25  1   
 21  11  26  1   
 22  11  27  1   
 23  12  28  1   
 24  12  29  1   
 25  12  30  1   
 26  13  14  1   
 27  13  15  1   
 28  14  16  1   
 29  14  31  1   
 30  14  32  1   
 31  15  17  1   
 32  15  33  1   
 33  15  34  1   
 34  16  18  1   
 35  16  35  1   
 36  16  36  1   
 37  17  18  1   
 38  17  37  1   
 39  17  38  1   
@<TRIPOS>SUBSTRUCTURE
  1 ****   6 GROUP 4 **** **** 0

# MOE 2024.06 (io_trps.svl 2023.06)
