@<TRIPOS>MOLECULE
NONAME
31 31 1 0 0 
SMALL
USER_CHARGES


@<TRIPOS>ATOM
  1 CL       2.5550     3.0690     2.9510 Cl    1 <1>  -0.1770 
  2 C        2.7960     2.4450     1.3330 C.ar  1 <1>   0.1770 
  3 C        1.8520     2.6890     0.3400 C.ar  1 <1>   0.0830 
  4 C        3.9380     1.7110     1.0830 C.ar  1 <1>  -0.1500 
  5 O        0.7460     3.4200     0.6620 O.3   1 <1>  -0.3630 
  6 C        2.0840     2.1730    -0.9320 C.ar  1 <1>  -0.1500 
  7 C        4.1680     1.1920    -0.1860 C.ar  1 <1>   0.1990 
  8 C       -0.2560     3.6900    -0.2940 C.3   1 <1>   0.0400 
  9 C        3.2300     1.4370    -1.1830 C.ar  1 <1>  -0.1500 
 10 N        5.3150     0.4450    -0.4530 N.am  1 <1>  -0.6930 
 11 S        5.2500    -1.2120    -0.9540 S.o2  1 <1>   1.3330 
 12 C        6.6600     1.0210    -0.1330 C.3   1 <1>   0.2570 
 13 O        4.2330    -1.3370    -1.9680 O.2   1 <1>  -0.6500 
 14 O        6.6090    -1.6250    -1.2230 O.2   1 <1>  -0.6500 
 15 C        4.6920    -2.0190     0.5320 C.3   1 <1>  -0.1350 
 16 C        7.3220     0.4210     1.1130 C.2   1 <1>   0.5690 
 17 O        7.2040     0.9710     2.1780 O.2   1 <1>  -0.5700 
 18 N        8.0300    -0.7230     1.0270 N.am  1 <1>  -0.8000 
 19 H        4.6400     1.5450     1.8790 H     1 <1>   0.1500 
 20 H        1.3910     2.3310    -1.7370 H     1 <1>   0.1500 
 21 H       -1.0240     4.2710     0.1850 H     1 <1>   0.0800 
 22 H       -0.6670     2.7600    -0.6430 H     1 <1>   0.0800 
 23 H        0.1750     4.2530    -1.1030 H     1 <1>   0.0800 
 24 H        3.4020     1.0460    -2.1710 H     1 <1>   0.1500 
 25 H        6.5630     2.0810     0.0170 H     1 <1>   0.0800 
 26 H        7.3110     0.8740    -0.9760 H     1 <1>   0.0800 
 27 H        3.7240    -1.6510     0.8100 H     1 <1>   0.0800 
 28 H        5.3740    -1.8350     1.3380 H     1 <1>   0.0800 
 29 H        4.6230    -3.0760     0.3720 H     1 <1>   0.0800 
 30 H        8.4900    -1.1140     1.8500 H     1 <1>   0.3700 
 31 H        8.0510    -1.2880     0.1650 H     1 <1>   0.3700 
@<TRIPOS>BOND
  1   1   2  1   
  2   2   3  ar  
  3   2   4  ar  
  4   3   5  1   
  5   3   6  ar  
  6   4   7  ar  
  7   4  19  1   
  8   5   8  1   
  9   6   9  ar  
 10   6  20  1   
 11   7   9  ar  
 12   7  10  1   
 13   8  21  1   
 14   8  22  1   
 15   8  23  1   
 16   9  24  1   
 17  10  11  am  
 18  10  12  1   
 19  11  13  2   
 20  11  14  2   
 21  11  15  1   
 22  12  16  1   
 23  12  25  1   
 24  12  26  1   
 25  15  27  1   
 26  15  28  1   
 27  15  29  1   
 28  16  17  2   
 29  16  18  am  
 30  18  30  1   
 31  18  31  1   
@<TRIPOS>SUBSTRUCTURE
  1 ****   7 GROUP 4 **** **** 0

# MOE 2024.06 (io_trps.svl 2023.06)
