@<TRIPOS>MOLECULE
NONAME
26 26 1 0 0 
SMALL
USER_CHARGES


@<TRIPOS>ATOM
  1 BR       1.9430    -0.6600    -3.4640 Br    1 <1>  -0.1110 
  2 C        2.5260    -1.2090    -1.7150 C.ar  1 <1>   0.1110 
  3 C        3.5550    -0.5130    -1.1090 C.ar  1 <1>  -0.1500 
  4 C        1.9010    -2.2820    -1.1110 C.ar  1 <1>  -0.1500 
  5 C        3.9770    -0.9050     0.1530 C.ar  1 <1>  -0.1440 
  6 C        2.3290    -2.6710     0.1470 C.ar  1 <1>  -0.1500 
  7 C        3.3610    -1.9860     0.7720 C.ar  1 <1>  -0.1500 
  8 C        5.1020    -0.1550     0.8460 C.3   1 <1>   0.2140 
  9 S        6.6680    -0.6580     0.0820 S.3   1 <1>  -0.4600 
 10 C        7.9150     0.3580     0.9610 C.3   1 <1>   0.1310 
 11 C        9.3320     0.1040     0.4600 C.2   1 <1>   0.5690 
 12 O       10.2320     0.7450     0.9480 O.2   1 <1>  -0.5700 
 13 N        9.5490    -0.8240    -0.5100 N.am  1 <1>  -0.7300 
 14 C       10.8610    -1.1850    -1.0970 C.3   1 <1>   0.0600 
 15 H        4.0170     0.3120    -1.6200 H     1 <1>   0.1500 
 16 H        1.1040    -2.7990    -1.6130 H     1 <1>   0.1500 
 17 H        1.8610    -3.5070     0.6390 H     1 <1>   0.1500 
 18 H        3.6850    -2.3040     1.7480 H     1 <1>   0.1500 
 19 H        5.1590    -0.3970     1.8920 H     1 <1>   0.0800 
 20 H        5.0020     0.9080     0.7140 H     1 <1>   0.0800 
 21 H        7.8500     0.1160     2.0050 H     1 <1>   0.0800 
 22 H        7.6550     1.3890     0.8070 H     1 <1>   0.0800 
 23 H        8.7250    -1.3190    -0.8730 H     1 <1>   0.3700 
 24 H       11.6460    -0.6030    -0.6430 H     1 <1>   0.0800 
 25 H       10.8510    -0.9900    -2.1560 H     1 <1>   0.0800 
 26 H       11.0600    -2.2290    -0.9290 H     1 <1>   0.0800 
@<TRIPOS>BOND
  1   1   2  1   
  2   2   3  ar  
  3   2   4  ar  
  4   3   5  ar  
  5   3  15  1   
  6   4   6  ar  
  7   4  16  1   
  8   5   7  ar  
  9   5   8  1   
 10   6   7  ar  
 11   6  17  1   
 12   7  18  1   
 13   8   9  1   
 14   8  19  1   
 15   8  20  1   
 16   9  10  1   
 17  10  11  1   
 18  10  21  1   
 19  10  22  1   
 20  11  12  2   
 21  11  13  am  
 22  13  14  1   
 23  13  23  1   
 24  14  24  1   
 25  14  25  1   
 26  14  26  1   
@<TRIPOS>SUBSTRUCTURE
  1 ****   9 GROUP 4 **** **** 0

# MOE 2024.06 (io_trps.svl 2023.06)
