@<TRIPOS>MOLECULE
NONAME
48 49 1 0 0 
SMALL
USER_CHARGES


@<TRIPOS>ATOM
  1 O       -0.0800     1.2750     3.0140 O.2   1 <1>  -0.5700 
  2 C       -0.4170     1.7150     1.9410 C.2   1 <1>   0.5690 
  3 N        0.4760     1.8930     0.9370 N.am  1 <1>  -0.7300 
  4 C       -1.8710     2.0600     1.6830 C.3   1 <1>   0.0440 
  5 C        1.8730     1.4670     0.9860 C.3   1 <1>   0.2200 
  6 C       -2.3930     1.3790     0.4160 C.ar  1 <1>  -0.1440 
  7 C        2.7110     2.3690     0.0840 C.3   1 <1>  -0.1600 
  8 C        1.9540     0.0120     0.5330 C.3   1 <1>  -0.1600 
  9 C       -2.1660     1.9180    -0.8490 C.ar  1 <1>   0.0820 
 10 C       -3.1040     0.1940     0.5330 C.ar  1 <1>  -0.1500 
 11 C        4.1520     1.8700     0.0310 C.3   1 <1>   0.3430 
 12 C        3.4060    -0.4470     0.4790 C.3   1 <1>   0.3430 
 13 O       -1.4470     3.0680    -0.9390 O.3   1 <1>  -0.3630 
 14 C       -2.6600     1.2690    -1.9770 C.ar  1 <1>  -0.1500 
 15 C       -3.5910    -0.4480    -0.5910 C.ar  1 <1>  -0.1500 
 16 N        4.1840     0.4460    -0.4310 N.4   1 <1>  -0.9590 
 17 C       -1.6370     3.9440    -2.0310 C.3   1 <1>   0.0400 
 18 C       -3.3710     0.0900    -1.8460 C.ar  1 <1>  -0.1500 
 19 C        5.5740    -0.0640    -0.5820 C.3   1 <1>   0.3430 
 20 C        6.2520     0.5740    -1.7970 C.3   1 <1>  -0.1600 
 21 C        7.6380    -0.0350    -2.0310 C.3   1 <1>  -0.2400 
 22 H        0.0940     2.2130     0.0370 H     1 <1>   0.3700 
 23 H       -1.9650     3.1260     1.5980 H     1 <1>   0.0800 
 24 H       -2.4550     1.7540     2.5320 H     1 <1>   0.0800 
 25 H        2.2260     1.5460     2.0030 H     1 <1>   0.0800 
 26 H        2.7010     3.3700     0.4790 H     1 <1>   0.0800 
 27 H        2.3020     2.3930    -0.9100 H     1 <1>   0.0800 
 28 H        1.4970    -0.1100    -0.4330 H     1 <1>   0.0800 
 29 H        1.4210    -0.6040     1.2360 H     1 <1>   0.0800 
 30 H       -3.2830    -0.2380     1.5030 H     1 <1>   0.1500 
 31 H        4.5950     1.9440     1.0110 H     1 <1>   0.0800 
 32 H        4.7170     2.4930    -0.6430 H     1 <1>   0.0800 
 33 H        3.4450    -1.4640     0.1240 H     1 <1>   0.0800 
 34 H        3.8280    -0.4180     1.4710 H     1 <1>   0.0800 
 35 H       -2.4970     1.6610    -2.9620 H     1 <1>   0.1500 
 36 H       -4.1430    -1.3670    -0.4880 H     1 <1>   0.1500 
 37 H        3.7350     0.4050    -1.3560 H     1 <1>   0.4500 
 38 H       -1.1480     4.8740    -1.8050 H     1 <1>   0.0800 
 39 H       -2.6910     4.1110    -2.1660 H     1 <1>   0.0800 
 40 H       -1.2020     3.5080    -2.9130 H     1 <1>   0.0800 
 41 H       -3.7520    -0.4110    -2.7190 H     1 <1>   0.1500 
 42 H        5.5510    -1.1330    -0.7260 H     1 <1>   0.0800 
 43 H        6.1470     0.1400     0.3090 H     1 <1>   0.0800 
 44 H        6.3700     1.6330    -1.6500 H     1 <1>   0.0800 
 45 H        5.6540     0.4100    -2.6770 H     1 <1>   0.0800 
 46 H        8.2780     0.1270    -1.1810 H     1 <1>   0.0800 
 47 H        8.1010     0.4230    -2.8900 H     1 <1>   0.0800 
 48 H        7.5680    -1.0930    -2.2150 H     1 <1>   0.0800 
@<TRIPOS>BOND
  1   1   2  2   
  2   2   3  am  
  3   2   4  1   
  4   3   5  1   
  5   3  22  1   
  6   4   6  1   
  7   4  23  1   
  8   4  24  1   
  9   5   7  1   
 10   5   8  1   
 11   5  25  1   
 12   6   9  ar  
 13   6  10  ar  
 14   7  11  1   
 15   7  26  1   
 16   7  27  1   
 17   8  12  1   
 18   8  28  1   
 19   8  29  1   
 20   9  13  1   
 21   9  14  ar  
 22  10  15  ar  
 23  10  30  1   
 24  11  16  1   
 25  11  31  1   
 26  11  32  1   
 27  12  16  1   
 28  12  33  1   
 29  12  34  1   
 30  13  17  1   
 31  14  18  ar  
 32  14  35  1   
 33  15  18  ar  
 34  15  36  1   
 35  16  19  1   
 36  16  37  1   
 37  17  38  1   
 38  17  39  1   
 39  17  40  1   
 40  18  41  1   
 41  19  20  1   
 42  19  42  1   
 43  19  43  1   
 44  20  21  1   
 45  20  44  1   
 46  20  45  1   
 47  21  46  1   
 48  21  47  1   
 49  21  48  1   
@<TRIPOS>SUBSTRUCTURE
  1 ****   3 GROUP 4 **** **** 0

# MOE 2024.06 (io_trps.svl 2023.06)
