@<TRIPOS>MOLECULE
NONAME
45 48 1 0 0 
SMALL
USER_CHARGES


@<TRIPOS>ATOM
  1 O        0.0340    -0.4630    -0.9850 O.3   1 <1>  -0.3630 
  2 C        0.0270    -1.7870    -0.7000 C.ar  1 <1>   0.0830 
  3 C       -0.1990     0.5070     0.0110 C.3   1 <1>   0.0400 
  4 C       -0.2400    -2.3080     0.5630 C.ar  1 <1>  -0.1500 
  5 C        0.3070    -2.6550    -1.7420 C.ar  1 <1>  -0.1500 
  6 C       -0.2280    -3.6760     0.7640 C.ar  1 <1>  -0.1500 
  7 C        0.3180    -4.0210    -1.5350 C.ar  1 <1>  -0.1500 
  8 C        0.0430    -4.5610    -0.2790 C.ar  1 <1>   0.0000 
  9 C        0.0400    -5.9870    -0.0690 C.ar  1 <1>   0.3100 
 10 N        1.2050    -6.5990    -0.0580 N.ar  1 <1>  -0.3100 
 11 C       -1.1830    -6.6710     0.1280 C.ar  1 <1>   0.0000 
 12 N        1.2810    -7.9080     0.1230 N.ar  1 <1>  -0.3100 
 13 C       -1.1020    -8.0480     0.3680 C.ar  1 <1>   0.0000 
 14 C       -2.4580    -6.0590     0.1070 C.ar  1 <1>  -0.1500 
 15 C        0.1900    -8.6300     0.3010 C.ar  1 <1>   0.4100 
 16 C       -2.2900    -8.7500     0.6680 C.ar  1 <1>  -0.1500 
 17 C       -3.5960    -6.7710     0.3680 C.ar  1 <1>  -0.1500 
 18 N        0.3490   -10.0020     0.3960 N.pl3 1 <1>  -0.8380 
 19 C       -3.5110    -8.1330     0.6640 C.ar  1 <1>  -0.1500 
 20 C        1.5250   -10.5420     1.1440 C.3   1 <1>   0.2090 
 21 C       -0.2310   -10.8690    -0.6720 C.3   1 <1>   0.2090 
 22 C        1.4460   -12.0680     1.2290 C.3   1 <1>  -0.1600 
 23 C        0.8340   -11.8110    -1.2410 C.3   1 <1>  -0.1600 
 24 C        1.4360   -12.7280    -0.1620 C.3   1 <1>  -0.1600 
 25 H       -0.1310     1.4780    -0.4460 H     1 <1>   0.0800 
 26 H        0.5510     0.4090     0.7760 H     1 <1>   0.0800 
 27 H       -1.1850     0.3620     0.4160 H     1 <1>   0.0800 
 28 H       -0.4550    -1.6660     1.3960 H     1 <1>   0.1500 
 29 H        0.5190    -2.2500    -2.7150 H     1 <1>   0.1500 
 30 H       -0.4300    -4.0730     1.7440 H     1 <1>   0.1500 
 31 H        0.5440    -4.6850    -2.3510 H     1 <1>   0.1500 
 32 H       -2.5330    -5.0100    -0.1180 H     1 <1>   0.1500 
 33 H       -2.2220    -9.7950     0.9100 H     1 <1>   0.1500 
 34 H       -4.5620    -6.2960     0.3540 H     1 <1>   0.1500 
 35 H       -4.4100    -8.6810     0.8870 H     1 <1>   0.1500 
 36 H        1.5390   -10.1160     2.1330 H     1 <1>   0.0800 
 37 H        2.4330   -10.2540     0.6390 H     1 <1>   0.0800 
 38 H       -0.6290   -10.2550    -1.4630 H     1 <1>   0.0800 
 39 H       -1.0370   -11.4500    -0.2570 H     1 <1>   0.0800 
 40 H        0.5470   -12.3250     1.7610 H     1 <1>   0.0800 
 41 H        2.2780   -12.4410     1.8010 H     1 <1>   0.0800 
 42 H        1.6110   -11.2060    -1.6770 H     1 <1>   0.0800 
 43 H        0.4090   -12.4070    -2.0280 H     1 <1>   0.0800 
 44 H        0.8710   -13.6430    -0.1050 H     1 <1>   0.0800 
 45 H        2.4420   -12.9830    -0.4500 H     1 <1>   0.0800 
@<TRIPOS>BOND
  1   1   2  1   
  2   1   3  1   
  3   2   4  ar  
  4   2   5  ar  
  5   3  25  1   
  6   3  26  1   
  7   3  27  1   
  8   4   6  ar  
  9   4  28  1   
 10   5   7  ar  
 11   5  29  1   
 12   6   8  ar  
 13   6  30  1   
 14   7   8  ar  
 15   7  31  1   
 16   8   9  1   
 17   9  10  ar  
 18   9  11  ar  
 19  10  12  ar  
 20  11  13  ar  
 21  11  14  ar  
 22  12  15  ar  
 23  13  15  ar  
 24  13  16  ar  
 25  14  17  ar  
 26  14  32  1   
 27  15  18  1   
 28  16  19  ar  
 29  16  33  1   
 30  17  19  ar  
 31  17  34  1   
 32  18  20  1   
 33  18  21  1   
 34  19  35  1   
 35  20  22  1   
 36  20  36  1   
 37  20  37  1   
 38  21  23  1   
 39  21  38  1   
 40  21  39  1   
 41  22  24  1   
 42  22  40  1   
 43  22  41  1   
 44  23  24  1   
 45  23  42  1   
 46  23  43  1   
 47  24  44  1   
 48  24  45  1   
@<TRIPOS>SUBSTRUCTURE
  1 ****   9 GROUP 4 **** **** 0

# MOE 2024.06 (io_trps.svl 2023.06)
