@<TRIPOS>MOLECULE
NONAME
42 45 1 0 0 
SMALL
USER_CHARGES


@<TRIPOS>ATOM
  1 O       -7.9740    -1.1770    -0.3570 O.3   1 <1>  -0.5600 
  2 C       -8.3710    -0.7100     0.9050 C.3   1 <1>   0.1200 
  3 C       -6.6240    -0.9450    -0.6560 C.3   1 <1>   0.1200 
  4 C       -8.0810     0.8010     1.0600 C.3   1 <1>   0.3430 
  5 C       -6.3030     0.5680    -0.6280 C.3   1 <1>   0.3430 
  6 N       -7.4990     1.3770    -0.2010 N.4   1 <1>  -0.9590 
  7 C       -7.2400     2.8510    -0.0770 C.3   1 <1>   0.3430 
  8 C       -6.8880     3.5340    -1.4080 C.3   1 <1>   0.2090 
  9 N       -6.6780     4.9690    -1.1530 N.pl3 1 <1>  -0.5530 
 10 C       -7.6800     5.9180    -0.9430 C.ar  1 <1>   0.1000 
 11 C       -5.5250     5.5080    -0.5800 C.2   1 <1>  -0.0680 
 12 C       -7.1380     7.0090    -0.2740 C.ar  1 <1>  -0.0230 
 13 C       -9.0300     5.9100    -1.2770 C.ar  1 <1>  -0.1500 
 14 N       -5.7850     6.7340    -0.0780 N.pl3 1 <1>   0.5930 
 15 C       -4.2230     5.2420    -0.3130 C.2   1 <1>  -0.1500 
 16 C       -7.9200     8.0990     0.0820 C.ar  1 <1>  -0.1500 
 17 C       -9.8130     6.9940    -0.9240 C.ar  1 <1>  -0.1500 
 18 N       -4.7030     7.2650     0.5450 N.2   1 <1>  -0.7070 
 19 C       -3.7770     6.3680     0.3800 C.2   1 <1>   0.1080 
 20 C       -9.2630     8.0820    -0.2470 C.ar  1 <1>  -0.1500 
 21 C       -2.3750     6.5670     0.9070 C.3   1 <1>  -0.0590 
 22 H       -7.8560    -1.2790     1.6610 H     1 <1>   0.0800 
 23 H       -9.4260    -0.8980     1.0050 H     1 <1>   0.0800 
 24 H       -6.4290    -1.3490    -1.6350 H     1 <1>   0.0800 
 25 H       -6.0160    -1.4790     0.0540 H     1 <1>   0.0800 
 26 H       -7.3960     0.9430     1.8800 H     1 <1>   0.0800 
 27 H       -8.9970     1.3090     1.3130 H     1 <1>   0.0800 
 28 H       -5.9810     0.8720    -1.6100 H     1 <1>   0.0800 
 29 H       -5.4810     0.7370     0.0490 H     1 <1>   0.0800 
 30 H       -8.2190     1.1970    -0.9190 H     1 <1>   0.4500 
 31 H       -6.4330     3.0190     0.6170 H     1 <1>   0.0800 
 32 H       -8.1200     3.3350     0.3160 H     1 <1>   0.0800 
 33 H       -7.6870     3.4180    -2.1170 H     1 <1>   0.0800 
 34 H       -5.9830     3.1260    -1.8200 H     1 <1>   0.0800 
 35 H       -9.4560     5.0810    -1.8090 H     1 <1>   0.1500 
 36 H       -3.6420     4.3760    -0.5660 H     1 <1>   0.1500 
 37 H       -7.4780     8.9320     0.6020 H     1 <1>   0.1500 
 38 H      -10.8600     7.0070    -1.1750 H     1 <1>   0.1500 
 39 H       -9.8910     8.9160     0.0180 H     1 <1>   0.1500 
 40 H       -1.7570     5.7200     0.6760 H     1 <1>   0.0800 
 41 H       -2.4060     6.7020     1.9730 H     1 <1>   0.0800 
 42 H       -1.9470     7.4460     0.4600 H     1 <1>   0.0800 
@<TRIPOS>BOND
  1   1   2  1   
  2   1   3  1   
  3   2   4  1   
  4   2  22  1   
  5   2  23  1   
  6   3   5  1   
  7   3  24  1   
  8   3  25  1   
  9   4   6  1   
 10   4  26  1   
 11   4  27  1   
 12   5   6  1   
 13   5  28  1   
 14   5  29  1   
 15   6   7  1   
 16   6  30  1   
 17   7   8  1   
 18   7  31  1   
 19   7  32  1   
 20   8   9  1   
 21   8  33  1   
 22   8  34  1   
 23   9  10  1   
 24   9  11  1   
 25  10  12  ar  
 26  10  13  ar  
 27  11  14  1   
 28  11  15  2   
 29  12  14  1   
 30  12  16  ar  
 31  13  17  ar  
 32  13  35  1   
 33  14  18  1   
 34  15  19  1   
 35  15  36  1   
 36  16  20  ar  
 37  16  37  1   
 38  17  20  ar  
 39  17  38  1   
 40  18  19  2   
 41  19  21  1   
 42  20  39  1   
 43  21  40  1   
 44  21  41  1   
 45  21  42  1   
@<TRIPOS>SUBSTRUCTURE
  1 ****   9 GROUP 4 **** **** 0

# MOE 2024.06 (io_trps.svl 2023.06)
