@<TRIPOS>MOLECULE
NONAME
37 38 1 0 0 
SMALL
USER_CHARGES


@<TRIPOS>ATOM
  1 S        0.1850     0.1080     0.7510 S.3   1 <1>  -0.3710 
  2 C        1.7220     0.9720     0.9380 C.2   1 <1>   0.6410 
  3 C       -0.9340     1.2970    -0.1100 C.3   1 <1>   0.1500 
  4 N        2.6910     0.2390     1.5350 N.pl3 1 <1>  -0.5500 
  5 N        1.8430     2.1780     0.5320 N.2   1 <1>  -0.6610 
  6 C       -2.3660     0.8970     0.2400 C.3   1 <1>  -0.2400 
  7 C       -0.6580     1.1950    -1.6100 C.3   1 <1>  -0.2400 
  8 C        3.9340     0.7590     1.7550 C.2   1 <1>  -0.0380 
  9 C        3.0660     2.7510     0.7230 C.2   1 <1>   0.7670 
 10 C        4.1430     2.0410     1.3520 C.2   1 <1>  -0.1240 
 11 C        4.9280    -0.1810     2.4180 C.3   1 <1>  -0.1020 
 12 O        3.1970     3.9040     0.3360 O.2   1 <1>  -0.5700 
 13 C        5.4760     2.7710     1.5310 C.3   1 <1>   0.1220 
 14 C        6.4760     2.3730     0.4510 C.ar  1 <1>  -0.1440 
 15 C        6.2100     2.6560    -0.8800 C.ar  1 <1>  -0.1500 
 16 C        7.6630     1.7350     0.7820 C.ar  1 <1>  -0.1500 
 17 C        7.1100     2.2970    -1.8680 C.ar  1 <1>  -0.1500 
 18 C        8.5650     1.3760    -0.2050 C.ar  1 <1>  -0.1500 
 19 C        8.2880     1.6550    -1.5320 C.ar  1 <1>  -0.1500 
 20 H       -0.7160     2.2840     0.2620 H     1 <1>   0.0800 
 21 H        2.4410    -0.7170     1.7930 H     1 <1>   0.4000 
 22 H       -2.5670    -0.1070    -0.0880 H     1 <1>   0.0800 
 23 H       -3.0620     1.5640    -0.2370 H     1 <1>   0.0800 
 24 H       -2.5130     0.9530     1.3030 H     1 <1>   0.0800 
 25 H       -0.8250     0.1910    -1.9570 H     1 <1>   0.0800 
 26 H        0.3600     1.4730    -1.8160 H     1 <1>   0.0800 
 27 H       -1.3060     1.8620    -2.1490 H     1 <1>   0.0800 
 28 H        4.5620    -0.4810     3.3830 H     1 <1>   0.0800 
 29 H        5.8900     0.2750     2.5500 H     1 <1>   0.0800 
 30 H        5.0600    -1.0570     1.8090 H     1 <1>   0.0800 
 31 H        5.8770     2.5490     2.5020 H     1 <1>   0.0800 
 32 H        5.3430     3.8380     1.5030 H     1 <1>   0.0800 
 33 H        5.2990     3.1600    -1.1570 H     1 <1>   0.1500 
 34 H        7.8980     1.5150     1.8080 H     1 <1>   0.1500 
 35 H        6.8920     2.5190    -2.8980 H     1 <1>   0.1500 
 36 H        9.4830     0.8800     0.0580 H     1 <1>   0.1500 
 37 H        8.9880     1.3770    -2.3000 H     1 <1>   0.1500 
@<TRIPOS>BOND
  1   1   2  1   
  2   1   3  1   
  3   2   4  1   
  4   2   5  2   
  5   3   6  1   
  6   3   7  1   
  7   3  20  1   
  8   4   8  1   
  9   4  21  1   
 10   5   9  1   
 11   6  22  1   
 12   6  23  1   
 13   6  24  1   
 14   7  25  1   
 15   7  26  1   
 16   7  27  1   
 17   8  10  2   
 18   8  11  1   
 19   9  10  1   
 20   9  12  2   
 21  10  13  1   
 22  11  28  1   
 23  11  29  1   
 24  11  30  1   
 25  13  14  1   
 26  13  31  1   
 27  13  32  1   
 28  14  15  ar  
 29  14  16  ar  
 30  15  17  ar  
 31  15  33  1   
 32  16  18  ar  
 33  16  34  1   
 34  17  19  ar  
 35  17  35  1   
 36  18  19  ar  
 37  18  36  1   
 38  19  37  1   
@<TRIPOS>SUBSTRUCTURE
  1 ****  10 GROUP 4 **** **** 0

# MOE 2024.06 (io_trps.svl 2023.06)
