@<TRIPOS>MOLECULE
NONAME
41 42 1 0 0 
SMALL
USER_CHARGES


@<TRIPOS>ATOM
  1 O       -6.2590     3.1950    -0.1060 O.3   1 <1>  -0.3630 
  2 C       -5.4710     4.2870    -0.2960 C.ar  1 <1>   0.0830 
  3 C       -7.6540     3.2410    -0.3110 C.3   1 <1>   0.1200 
  4 C       -4.1180     4.1780     0.0200 C.ar  1 <1>  -0.1440 
  5 C       -5.9670     5.4930    -0.7870 C.ar  1 <1>  -0.1500 
  6 C       -8.2300     1.8640     0.0300 C.3   1 <1>   0.1100 
  7 C       -3.2860     5.2750    -0.1540 C.ar  1 <1>  -0.1500 
  8 C       -3.5230     2.8840     0.5600 C.3   1 <1>   0.2640 
  9 C       -5.1270     6.5780    -0.9560 C.ar  1 <1>  -0.1500 
 10 N       -9.6990     1.8170    -0.1540 N.3   1 <1>  -0.8100 
 11 C       -3.7860     6.4700    -0.6390 C.ar  1 <1>  -0.1500 
 12 O       -2.5580     2.4500    -0.3290 O.3   1 <1>  -0.6800 
 13 C      -10.1660     0.4120    -0.2460 C.3   1 <1>   0.1100 
 14 C      -10.4250     2.5250     0.9340 C.3   1 <1>   0.1100 
 15 C      -11.6980     0.3010    -0.4470 C.3   1 <1>   0.3430 
 16 C      -11.9660     2.4070     0.8040 C.3   1 <1>   0.3430 
 17 N      -12.3510     1.6510    -0.4330 N.4   1 <1>  -0.9590 
 18 C      -13.8240     1.5990    -0.6640 C.3   1 <1>   0.2630 
 19 H       -7.8370     3.4750    -1.3450 H     1 <1>   0.0800 
 20 H       -8.0570     4.0010     0.3330 H     1 <1>   0.0800 
 21 H       -7.0010     5.6120    -1.0460 H     1 <1>   0.1500 
 22 H       -7.9750     1.6050     1.0440 H     1 <1>   0.0800 
 23 H       -7.7670     1.1500    -0.6310 H     1 <1>   0.0800 
 24 H       -2.2400     5.1950     0.0880 H     1 <1>   0.1500 
 25 H       -4.2590     2.1060     0.6580 H     1 <1>   0.0800 
 26 H       -3.0530     3.0460     1.5140 H     1 <1>   0.0800 
 27 H       -5.5140     7.5080    -1.3350 H     1 <1>   0.1500 
 28 H       -3.1300     7.3130    -0.7700 H     1 <1>   0.1500 
 29 H       -2.9010     2.5660    -1.2360 H     1 <1>   0.4000 
 30 H       -9.8900    -0.1240     0.6480 H     1 <1>   0.0800 
 31 H       -9.6760    -0.0740    -1.0740 H     1 <1>   0.0800 
 32 H      -10.1640     3.5690     0.9210 H     1 <1>   0.0800 
 33 H      -10.1260     2.1320     1.8910 H     1 <1>   0.0800 
 34 H      -12.1120    -0.3180     0.3310 H     1 <1>   0.0800 
 35 H      -11.8900    -0.1870    -1.3890 H     1 <1>   0.0800 
 36 H      -12.3910     3.3970     0.7780 H     1 <1>   0.0800 
 37 H      -12.3550     1.9070     1.6750 H     1 <1>   0.0800 
 38 H      -11.8770     2.1630    -1.1960 H     1 <1>   0.4500 
 39 H      -14.3100     1.0630     0.1350 H     1 <1>   0.0800 
 40 H      -14.0380     1.1010    -1.5960 H     1 <1>   0.0800 
 41 H      -14.2300     2.5970    -0.7090 H     1 <1>   0.0800 
@<TRIPOS>BOND
  1   1   2  1   
  2   1   3  1   
  3   2   4  ar  
  4   2   5  ar  
  5   3   6  1   
  6   3  19  1   
  7   3  20  1   
  8   4   7  ar  
  9   4   8  1   
 10   5   9  ar  
 11   5  21  1   
 12   6  10  1   
 13   6  22  1   
 14   6  23  1   
 15   7  11  ar  
 16   7  24  1   
 17   8  12  1   
 18   8  25  1   
 19   8  26  1   
 20   9  11  ar  
 21   9  27  1   
 22  10  13  1   
 23  10  14  1   
 24  11  28  1   
 25  12  29  1   
 26  13  15  1   
 27  13  30  1   
 28  13  31  1   
 29  14  16  1   
 30  14  32  1   
 31  14  33  1   
 32  15  17  1   
 33  15  34  1   
 34  15  35  1   
 35  16  17  1   
 36  16  36  1   
 37  16  37  1   
 38  17  18  1   
 39  17  38  1   
 40  18  39  1   
 41  18  40  1   
 42  18  41  1   
@<TRIPOS>SUBSTRUCTURE
  1 ****   3 GROUP 4 **** **** 0

# MOE 2024.06 (io_trps.svl 2023.06)
