@<TRIPOS>MOLECULE
NONAME
41 43 1 0 0 
SMALL
USER_CHARGES


@<TRIPOS>ATOM
  1 O       -0.2930     0.1360    -0.3080 O.2   1 <1>  -0.5700 
  2 C       -0.2120     1.3020     0.0280 C.2   1 <1>   0.6900 
  3 N       -1.3420     2.0200     0.3210 N.am  1 <1>  -0.6600 
  4 N        0.9930     1.9410     0.0840 N.am  1 <1>  -0.5470 
  5 C       -1.3770     3.1660     1.2680 C.3   1 <1>   0.1400 
  6 C       -2.6710     1.5880    -0.1830 C.3   1 <1>   0.1400 
  7 C        2.3110     1.4690     0.0160 C.ar  1 <1>   0.1170 
  8 C       -2.0400     4.3640     0.5860 C.3   1 <1>  -0.1600 
  9 C       -3.3610     2.7710    -0.8690 C.3   1 <1>  -0.1600 
 10 C        3.3450     2.3490    -0.4170 C.ar  1 <1>   0.0000 
 11 C        2.6260     0.1840     0.3950 C.ar  1 <1>  -0.1500 
 12 C       -3.4410     4.0050     0.0510 C.3   1 <1>  -0.0190 
 13 C        4.6810     1.8850    -0.4100 C.ar  1 <1>   0.0000 
 14 C        3.1140     3.6710    -0.8660 C.ar  1 <1>  -0.1500 
 15 C        3.9430    -0.2740     0.3810 C.ar  1 <1>  -0.1500 
 16 C       -4.0900     5.1830    -0.6730 C.2   1 <1>   0.5690 
 17 C        4.9490     0.5630    -0.0100 C.ar  1 <1>  -0.1500 
 18 C        5.7160     2.7550    -0.8110 C.ar  1 <1>  -0.1500 
 19 C        4.1370     4.4920    -1.2550 C.ar  1 <1>  -0.1500 
 20 O       -3.4640     5.8330    -1.4690 O.2   1 <1>  -0.5700 
 21 N       -5.3750     5.4940    -0.4210 N.am  1 <1>  -0.8000 
 22 C        5.4550     4.0310    -1.2220 C.ar  1 <1>  -0.1500 
 23 H        0.8880     2.9480     0.0700 H     1 <1>   0.3700 
 24 H       -0.3870     3.4280     1.5980 H     1 <1>   0.0800 
 25 H       -1.9460     2.8790     2.1360 H     1 <1>   0.0800 
 26 H       -3.2630     1.2350     0.6440 H     1 <1>   0.0800 
 27 H       -2.5620     0.7790    -0.8870 H     1 <1>   0.0800 
 28 H       -1.4140     4.6940    -0.2260 H     1 <1>   0.0800 
 29 H       -2.1190     5.1760     1.2870 H     1 <1>   0.0800 
 30 H       -4.3500     2.4770    -1.1720 H     1 <1>   0.0800 
 31 H       -2.8090     3.0210    -1.7600 H     1 <1>   0.0800 
 32 H        1.8570    -0.4940     0.7190 H     1 <1>   0.1500 
 33 H       -4.0600     3.7520     0.8930 H     1 <1>   0.0800 
 34 H        2.1090     4.0450    -0.9140 H     1 <1>   0.1500 
 35 H        4.1480    -1.2870     0.6820 H     1 <1>   0.1500 
 36 H        5.9680     0.2170    -0.0180 H     1 <1>   0.1500 
 37 H        6.7270     2.3910    -0.7890 H     1 <1>   0.1500 
 38 H        3.9430     5.4960    -1.5920 H     1 <1>   0.1500 
 39 H       -5.7960     6.2800    -0.9190 H     1 <1>   0.3700 
 40 H       -5.9780     4.9880     0.2250 H     1 <1>   0.3700 
 41 H        6.2500     4.6890    -1.5280 H     1 <1>   0.1500 
@<TRIPOS>BOND
  1   1   2  2   
  2   2   3  am  
  3   2   4  am  
  4   3   5  1   
  5   3   6  1   
  6   4   7  1   
  7   4  23  1   
  8   5   8  1   
  9   5  24  1   
 10   5  25  1   
 11   6   9  1   
 12   6  26  1   
 13   6  27  1   
 14   7  10  ar  
 15   7  11  ar  
 16   8  12  1   
 17   8  28  1   
 18   8  29  1   
 19   9  12  1   
 20   9  30  1   
 21   9  31  1   
 22  10  13  ar  
 23  10  14  ar  
 24  11  15  ar  
 25  11  32  1   
 26  12  16  1   
 27  12  33  1   
 28  13  17  ar  
 29  13  18  ar  
 30  14  19  ar  
 31  14  34  1   
 32  15  17  ar  
 33  15  35  1   
 34  16  20  2   
 35  16  21  am  
 36  17  36  1   
 37  18  22  ar  
 38  18  37  1   
 39  19  22  ar  
 40  19  38  1   
 41  21  39  1   
 42  21  40  1   
 43  22  41  1   
@<TRIPOS>SUBSTRUCTURE
  1 ****   4 GROUP 4 **** **** 0

# MOE 2024.06 (io_trps.svl 2023.06)
