@<TRIPOS>MOLECULE
NONAME
51 53 1 0 0 
SMALL
USER_CHARGES


@<TRIPOS>ATOM
  1 S        0.2140    -0.6110    -1.2970 S.o2  1 <1>   1.3330 
  2 O        1.5970    -0.8900    -1.6000 O.2   1 <1>  -0.6500 
  3 O       -0.8320    -1.0370    -2.1960 O.2   1 <1>  -0.6500 
  4 N        0.0670     1.1000    -1.0980 N.am  1 <1>  -0.6930 
  5 C       -0.1400    -1.2090     0.3420 C.3   1 <1>  -0.1350 
  6 C        1.1210     1.8780    -0.6610 C.ar  1 <1>   0.1990 
  7 C       -1.2140     1.7290    -1.4780 C.3   1 <1>   0.3390 
  8 C        2.1270     2.2650    -1.5360 C.ar  1 <1>  -0.1500 
  9 C        1.2010     2.2960     0.6620 C.ar  1 <1>  -0.1500 
 10 C       -2.2630     1.4880    -0.4020 C.ar  1 <1>  -0.1430 
 11 C        3.1770     3.0520    -1.1050 C.ar  1 <1>  -0.1500 
 12 C        2.2520     3.0830     1.0910 C.ar  1 <1>  -0.1500 
 13 C       -2.3240     2.3090     0.7130 C.ar  1 <1>  -0.1500 
 14 C       -3.1730     0.4490    -0.5260 C.ar  1 <1>  -0.1500 
 15 C        3.2710     3.4770     0.2230 C.ar  1 <1>   0.0860 
 16 C       -3.2700     2.0840     1.6980 C.ar  1 <1>  -0.1500 
 17 C       -4.1190     0.2250     0.4590 C.ar  1 <1>  -0.1500 
 18 C        4.3670     4.3040     0.6890 C.2   1 <1>   0.5440 
 19 C       -4.1720     1.0410     1.5770 C.ar  1 <1>  -0.1430 
 20 O        4.1260     5.2530     1.4140 O.2   1 <1>  -0.5700 
 21 N        5.6790     4.0500     0.3460 N.am  1 <1>  -0.6600 
 22 C       -5.2090     0.7940     2.6580 C.3   1 <1>  -0.0970 
 23 C        6.1970     2.6970    -0.0220 C.3   1 <1>   0.1400 
 24 C        6.7660     5.0490     0.5790 C.3   1 <1>   0.1400 
 25 C        7.3190     2.2620     0.9380 C.3   1 <1>   0.1200 
 26 C        7.8380     4.4740     1.5170 C.3   1 <1>   0.1200 
 27 O        8.3090     3.2480     1.0320 O.3   1 <1>  -0.5600 
 28 H       -0.0880    -2.2800     0.3610 H     1 <1>   0.0800 
 29 H       -1.1220    -0.9080     0.6490 H     1 <1>   0.0800 
 30 H        0.5740    -0.8180     1.0390 H     1 <1>   0.0800 
 31 H       -1.5480     1.3350    -2.4230 H     1 <1>   0.0800 
 32 H       -1.0670     2.7880    -1.6030 H     1 <1>   0.0800 
 33 H        2.0780     1.9360    -2.5590 H     1 <1>   0.1500 
 34 H        0.4330     1.9980     1.3530 H     1 <1>   0.1500 
 35 H        3.9400     3.3500    -1.8030 H     1 <1>   0.1500 
 36 H        2.2970     3.4080     2.1170 H     1 <1>   0.1500 
 37 H       -1.6360     3.1300     0.8210 H     1 <1>   0.1500 
 38 H       -3.1510    -0.1950    -1.3900 H     1 <1>   0.1500 
 39 H       -3.3030     2.7280     2.5600 H     1 <1>   0.1500 
 40 H       -4.8150    -0.5880     0.3490 H     1 <1>   0.1500 
 41 H       -5.5010     1.7220     3.1160 H     1 <1>   0.0800 
 42 H       -4.8000     0.1470     3.4130 H     1 <1>   0.0800 
 43 H       -6.0850     0.3320     2.2410 H     1 <1>   0.0800 
 44 H        6.5840     2.7280    -1.0260 H     1 <1>   0.0800 
 45 H        5.4100     1.9650     0.0120 H     1 <1>   0.0800 
 46 H        6.3700     5.9540     1.0050 H     1 <1>   0.0800 
 47 H        7.2200     5.3010    -0.3620 H     1 <1>   0.0800 
 48 H        7.7860     1.3620     0.5810 H     1 <1>   0.0800 
 49 H        6.9240     2.0790     1.9220 H     1 <1>   0.0800 
 50 H        7.4340     4.3260     2.5040 H     1 <1>   0.0800 
 51 H        8.6750     5.1460     1.5820 H     1 <1>   0.0800 
@<TRIPOS>BOND
  1   1   2  2   
  2   1   3  2   
  3   1   4  am  
  4   1   5  1   
  5   4   6  1   
  6   4   7  1   
  7   5  28  1   
  8   5  29  1   
  9   5  30  1   
 10   6   8  ar  
 11   6   9  ar  
 12   7  10  1   
 13   7  31  1   
 14   7  32  1   
 15   8  11  ar  
 16   8  33  1   
 17   9  12  ar  
 18   9  34  1   
 19  10  13  ar  
 20  10  14  ar  
 21  11  15  ar  
 22  11  35  1   
 23  12  15  ar  
 24  12  36  1   
 25  13  16  ar  
 26  13  37  1   
 27  14  17  ar  
 28  14  38  1   
 29  15  18  1   
 30  16  19  ar  
 31  16  39  1   
 32  17  19  ar  
 33  17  40  1   
 34  18  20  2   
 35  18  21  am  
 36  19  22  1   
 37  21  23  1   
 38  21  24  1   
 39  22  41  1   
 40  22  42  1   
 41  22  43  1   
 42  23  25  1   
 43  23  44  1   
 44  23  45  1   
 45  24  26  1   
 46  24  46  1   
 47  24  47  1   
 48  25  27  1   
 49  25  48  1   
 50  25  49  1   
 51  26  27  1   
 52  26  50  1   
 53  26  51  1   
@<TRIPOS>SUBSTRUCTURE
  1 ****   9 GROUP 4 **** **** 0

# MOE 2024.06 (io_trps.svl 2023.06)
