@<TRIPOS>MOLECULE
NONAME
55 57 1 0 0 
SMALL
USER_CHARGES


@<TRIPOS>ATOM
  1 O       -1.0390     0.1330    -0.7410 O.2   1 <1>  -0.5700 
  2 C       -1.4290    -0.9570    -0.4060 C.2   1 <1>   0.6900 
  3 N       -0.8340    -2.0650    -0.9120 N.am  1 <1>  -0.5390 
  4 N       -2.4510    -1.1050     0.4490 N.am  1 <1>  -0.7300 
  5 C       -1.2090    -3.3620    -0.5870 C.2   1 <1>  -0.0290 
  6 C       -3.1330    -2.3890     0.6900 C.3   1 <1>   0.5020 
  7 C       -2.2880    -3.5820     0.2200 C.2   1 <1>  -0.1240 
  8 C       -0.3260    -4.4610    -1.1850 C.3   1 <1>   0.4810 
  9 C       -4.4800    -2.3480    -0.0290 C.ar  1 <1>  -0.1440 
 10 C       -2.7410    -4.8480     0.7120 C.2   1 <1>   0.7060 
 11 N        0.9690    -4.5080    -0.4500 N.4   1 <1>  -0.9590 
 12 C       -4.5520    -2.1750    -1.4050 C.ar  1 <1>  -0.1500 
 13 C       -5.6590    -2.4890     0.6920 C.ar  1 <1>  -0.1500 
 14 O       -2.1340    -5.8800     0.4990 O.2   1 <1>  -0.5700 
 15 O       -3.8350    -4.9010     1.4730 O.3   1 <1>  -0.4300 
 16 C        2.0130    -5.2200    -1.2400 C.3   1 <1>   0.3430 
 17 C        0.7880    -5.1260     0.8980 C.3   1 <1>   0.3430 
 18 C       -5.7770    -2.1520    -2.0460 C.ar  1 <1>  -0.1500 
 19 C       -6.8860    -2.4660     0.0530 C.ar  1 <1>  -0.1500 
 20 C       -4.3610    -6.1200     1.9500 C.3   1 <1>   0.1200 
 21 C        3.3530    -5.1450    -0.5070 C.3   1 <1>  -0.1600 
 22 C        2.1000    -5.0540     1.6790 C.3   1 <1>  -0.1600 
 23 C       -6.9500    -2.2990    -1.3260 C.ar  1 <1>   0.0830 
 24 C       -5.6470    -5.8100     2.7090 C.3   1 <1>  -0.2400 
 25 C        3.2540    -5.7150     0.9140 C.3   1 <1>  -0.1600 
 26 O       -8.1080    -2.2680    -2.0320 O.3   1 <1>  -0.3620 
 27 C       -9.3590    -2.3930    -1.3950 C.3   1 <1>   0.0400 
 28 H       -0.1180    -1.8210    -1.6000 H     1 <1>   0.3700 
 29 H       -2.9990    -0.2670     0.6420 H     1 <1>   0.3700 
 30 H       -3.2950    -2.4690     1.7520 H     1 <1>   0.0800 
 31 H       -0.1510    -4.2310    -2.2230 H     1 <1>   0.0800 
 32 H       -0.8090    -5.4220    -1.1450 H     1 <1>   0.0800 
 33 H        1.2750    -3.5390    -0.2980 H     1 <1>   0.4500 
 34 H       -3.6570    -2.0530    -1.9910 H     1 <1>   0.1500 
 35 H       -5.6330    -2.6230     1.7600 H     1 <1>   0.1500 
 36 H        2.1130    -4.7710    -2.2160 H     1 <1>   0.0800 
 37 H        1.7320    -6.2530    -1.3670 H     1 <1>   0.0800 
 38 H        0.4830    -6.1550     0.7910 H     1 <1>   0.0800 
 39 H        0.0190    -4.6050     1.4450 H     1 <1>   0.0800 
 40 H       -5.8350    -2.0170    -3.1110 H     1 <1>   0.1500 
 41 H       -7.7770    -2.5800     0.6410 H     1 <1>   0.1500 
 42 H       -3.6330    -6.5820     2.5950 H     1 <1>   0.0800 
 43 H       -4.5600    -6.7620     1.1080 H     1 <1>   0.0800 
 44 H        3.6860    -4.1220    -0.4700 H     1 <1>   0.0800 
 45 H        4.0890    -5.7010    -1.0610 H     1 <1>   0.0800 
 46 H        1.9720    -5.5500     2.6260 H     1 <1>   0.0800 
 47 H        2.3370    -4.0250     1.8860 H     1 <1>   0.0800 
 48 H       -5.4430    -5.1610     3.5410 H     1 <1>   0.0800 
 49 H       -6.0730    -6.7230     3.0850 H     1 <1>   0.0800 
 50 H       -6.3620    -5.3470     2.0530 H     1 <1>   0.0800 
 51 H        4.1820    -5.5540     1.4400 H     1 <1>   0.0800 
 52 H        3.0880    -6.7780     0.8640 H     1 <1>   0.0800 
 53 H      -10.1240    -2.3310    -2.1480 H     1 <1>   0.0800 
 54 H       -9.4740    -1.5890    -0.6900 H     1 <1>   0.0800 
 55 H       -9.4060    -3.3480    -0.9030 H     1 <1>   0.0800 
@<TRIPOS>BOND
  1   1   2  2   
  2   2   3  am  
  3   2   4  am  
  4   3   5  1   
  5   3  28  1   
  6   4   6  1   
  7   4  29  1   
  8   5   7  2   
  9   5   8  1   
 10   6   7  1   
 11   6   9  1   
 12   6  30  1   
 13   7  10  1   
 14   8  11  1   
 15   8  31  1   
 16   8  32  1   
 17   9  12  ar  
 18   9  13  ar  
 19  10  14  2   
 20  10  15  1   
 21  11  16  1   
 22  11  17  1   
 23  11  33  1   
 24  12  18  ar  
 25  12  34  1   
 26  13  19  ar  
 27  13  35  1   
 28  15  20  1   
 29  16  21  1   
 30  16  36  1   
 31  16  37  1   
 32  17  22  1   
 33  17  38  1   
 34  17  39  1   
 35  18  23  ar  
 36  18  40  1   
 37  19  23  ar  
 38  19  41  1   
 39  20  24  1   
 40  20  42  1   
 41  20  43  1   
 42  21  25  1   
 43  21  44  1   
 44  21  45  1   
 45  22  25  1   
 46  22  46  1   
 47  22  47  1   
 48  23  26  1   
 49  24  48  1   
 50  24  49  1   
 51  24  50  1   
 52  25  51  1   
 53  25  52  1   
 54  26  27  1   
 55  27  53  1   
 56  27  54  1   
 57  27  55  1   
@<TRIPOS>SUBSTRUCTURE
  1 ****   7 GROUP 4 **** **** 0

# MOE 2024.06 (io_trps.svl 2023.06)
