@<TRIPOS>MOLECULE
NONAME
31 31 1 0 0 
SMALL
USER_CHARGES


@<TRIPOS>ATOM
  1 I        0.5180    -0.5000     0.3500 I     1 <1>  -0.0810 
  2 C       -1.4770    -1.2150     0.1460 C.ar  1 <1>   0.0810 
  3 C       -1.7270    -2.5580     0.3520 C.ar  1 <1>  -0.1500 
  4 C       -2.4720    -0.3200    -0.1880 C.ar  1 <1>  -0.1500 
  5 C       -3.0290    -3.0370     0.2230 C.ar  1 <1>  -0.1440 
  6 C       -3.7600    -0.8000    -0.3160 C.ar  1 <1>  -0.1500 
  7 C       -4.0590    -2.1480    -0.1170 C.ar  1 <1>   0.1170 
  8 C       -3.3270    -4.5260     0.4350 C.3   1 <1>   1.1640 
  9 N       -5.3900    -2.5860    -0.2420 N.am  1 <1>  -0.5470 
 10 F       -2.2970    -5.2080     0.9190 F     1 <1>  -0.3400 
 11 F       -3.6790    -5.1370    -0.6890 F     1 <1>  -0.3400 
 12 F       -4.3280    -4.7220     1.2900 F     1 <1>  -0.3400 
 13 C       -6.3550    -2.1990    -1.1290 C.2   1 <1>   0.5690 
 14 O       -6.1690    -1.3860    -2.0000 O.2   1 <1>  -0.5700 
 15 C       -7.7220    -2.8490    -1.0150 C.3   1 <1>  -0.0990 
 16 C       -8.4320    -2.5710     0.3250 C.3   1 <1>  -0.0800 
 17 C       -9.7710    -3.3170     0.3750 C.3   1 <1>  -0.2400 
 18 C       -8.6700    -1.0700     0.5320 C.3   1 <1>  -0.2400 
 19 H       -0.9060    -3.2070     0.6070 H     1 <1>   0.1500 
 20 H       -2.2500     0.7210    -0.3460 H     1 <1>   0.1500 
 21 H       -4.5480    -0.1140    -0.5760 H     1 <1>   0.1500 
 22 H       -5.6880    -3.3090     0.4150 H     1 <1>   0.3700 
 23 H       -7.5990    -3.9080    -1.1490 H     1 <1>   0.0800 
 24 H       -8.3340    -2.4930    -1.8240 H     1 <1>   0.0800 
 25 H       -7.8190    -2.9330     1.1340 H     1 <1>   0.0800 
 26 H      -10.4240    -2.9790    -0.4110 H     1 <1>   0.0800 
 27 H      -10.2580    -3.1470     1.3190 H     1 <1>   0.0800 
 28 H       -9.6170    -4.3760     0.2620 H     1 <1>   0.0800 
 29 H       -9.2660    -0.6660    -0.2680 H     1 <1>   0.0800 
 30 H       -7.7370    -0.5340     0.5630 H     1 <1>   0.0800 
 31 H       -9.1840    -0.8960     1.4610 H     1 <1>   0.0800 
@<TRIPOS>BOND
  1   1   2  1   
  2   2   3  ar  
  3   2   4  ar  
  4   3   5  ar  
  5   3  19  1   
  6   4   6  ar  
  7   4  20  1   
  8   5   7  ar  
  9   5   8  1   
 10   6   7  ar  
 11   6  21  1   
 12   7   9  1   
 13   8  10  1   
 14   8  11  1   
 15   8  12  1   
 16   9  13  am  
 17   9  22  1   
 18  13  14  2   
 19  13  15  1   
 20  15  16  1   
 21  15  23  1   
 22  15  24  1   
 23  16  17  1   
 24  16  18  1   
 25  16  25  1   
 26  17  26  1   
 27  17  27  1   
 28  17  28  1   
 29  18  29  1   
 30  18  30  1   
 31  18  31  1   
@<TRIPOS>SUBSTRUCTURE
  1 ****   7 GROUP 4 **** **** 0

# MOE 2024.06 (io_trps.svl 2023.06)
