@<TRIPOS>MOLECULE
NONAME
47 48 1 0 0 
SMALL
USER_CHARGES


@<TRIPOS>ATOM
  1 O        0.3930    -0.0970    -0.1590 O.3   1 <1>  -0.5600 
  2 C        0.0370    -1.2030     0.6280 C.3   1 <1>   0.2000 
  3 C        1.3460    -0.2940    -1.1750 C.3   1 <1>   0.2000 
  4 C        1.2800    -1.7830     1.3560 C.3   1 <1>   0.3430 
  5 C       -0.7020    -2.2310    -0.2390 C.3   1 <1>  -0.2400 
  6 C        2.4700    -1.2670    -0.7350 C.3   1 <1>   0.3430 
  7 C        1.9030     1.0900    -1.5030 C.3   1 <1>  -0.2400 
  8 N        2.5770    -1.3150     0.7600 N.4   1 <1>  -0.9590 
  9 C        3.7580    -2.0870     1.2260 C.3   1 <1>   0.4860 
 10 C        5.0150    -1.3880     0.7520 C.ar  1 <1>  -0.1440 
 11 C        5.6730    -1.8420    -0.3850 C.ar  1 <1>   0.0820 
 12 C        5.5090    -0.2940     1.4470 C.ar  1 <1>  -0.1500 
 13 O        5.1250    -2.9060    -1.0350 O.3   1 <1>  -0.3620 
 14 C        6.8330    -1.2050    -0.8120 C.ar  1 <1>  -0.1500 
 15 C        6.6520     0.3550     1.0140 C.ar  1 <1>   0.0820 
 16 C        5.8370    -3.5660    -2.0630 C.3   1 <1>   0.0400 
 17 C        7.3330    -0.1220    -0.1110 C.ar  1 <1>   0.0820 
 18 O        7.0480     1.4390     1.7280 O.3   1 <1>  -0.3620 
 19 O        8.4850     0.4280    -0.5620 O.3   1 <1>  -0.3620 
 20 C        7.1280     2.6710     1.0410 C.3   1 <1>   0.0400 
 21 C        9.6200     0.2650     0.2620 C.3   1 <1>   0.0400 
 22 H       -0.6540    -0.8400     1.3700 H     1 <1>   0.0800 
 23 H        0.8410    -0.6860    -2.0420 H     1 <1>   0.0800 
 24 H        1.2230    -2.8580     1.3190 H     1 <1>   0.0800 
 25 H        1.2360    -1.4960     2.3940 H     1 <1>   0.0800 
 26 H       -0.0550    -2.6950    -0.9600 H     1 <1>   0.0800 
 27 H       -1.5200    -1.7540    -0.7500 H     1 <1>   0.0800 
 28 H       -1.1130    -3.0050     0.3860 H     1 <1>   0.0800 
 29 H        3.4010    -0.9490    -1.1740 H     1 <1>   0.0800 
 30 H        2.2550    -2.2510    -1.1150 H     1 <1>   0.0800 
 31 H        2.3890     1.5210    -0.6460 H     1 <1>   0.0800 
 32 H        1.1030     1.7390    -1.8160 H     1 <1>   0.0800 
 33 H        2.6150     1.0260    -2.3070 H     1 <1>   0.0800 
 34 H        2.7030    -0.3340     1.0450 H     1 <1>   0.4500 
 35 H        3.7260    -3.0910     0.8370 H     1 <1>   0.0800 
 36 H        3.7660    -2.1380     2.3030 H     1 <1>   0.0800 
 37 H        5.0220     0.0770     2.3320 H     1 <1>   0.1500 
 38 H        7.3740    -1.5270    -1.6820 H     1 <1>   0.1500 
 39 H        5.9650    -2.8940    -2.8930 H     1 <1>   0.0800 
 40 H        5.2660    -4.4220    -2.3750 H     1 <1>   0.0800 
 41 H        6.7910    -3.8870    -1.6810 H     1 <1>   0.0800 
 42 H        7.2560     3.4530     1.7680 H     1 <1>   0.0800 
 43 H        6.2180     2.8260     0.4900 H     1 <1>   0.0800 
 44 H        7.9710     2.6570     0.3750 H     1 <1>   0.0800 
 45 H       10.4650     0.7030    -0.2380 H     1 <1>   0.0800 
 46 H        9.7880    -0.7850     0.4190 H     1 <1>   0.0800 
 47 H        9.4540     0.7610     1.2020 H     1 <1>   0.0800 
@<TRIPOS>BOND
  1   1   2  1   
  2   1   3  1   
  3   2   4  1   
  4   2   5  1   
  5   2  22  1   
  6   3   6  1   
  7   3   7  1   
  8   3  23  1   
  9   4   8  1   
 10   4  24  1   
 11   4  25  1   
 12   5  26  1   
 13   5  27  1   
 14   5  28  1   
 15   6   8  1   
 16   6  29  1   
 17   6  30  1   
 18   7  31  1   
 19   7  32  1   
 20   7  33  1   
 21   8   9  1   
 22   8  34  1   
 23   9  10  1   
 24   9  35  1   
 25   9  36  1   
 26  10  11  ar  
 27  10  12  ar  
 28  11  13  1   
 29  11  14  ar  
 30  12  15  ar  
 31  12  37  1   
 32  13  16  1   
 33  14  17  ar  
 34  14  38  1   
 35  15  17  ar  
 36  15  18  1   
 37  16  39  1   
 38  16  40  1   
 39  16  41  1   
 40  17  19  1   
 41  18  20  1   
 42  19  21  1   
 43  20  42  1   
 44  20  43  1   
 45  20  44  1   
 46  21  45  1   
 47  21  46  1   
 48  21  47  1   
@<TRIPOS>SUBSTRUCTURE
  1 ****  10 GROUP 4 **** **** 0

# MOE 2024.06 (io_trps.svl 2023.06)
