@<TRIPOS>MOLECULE
NONAME
35 37 1 0 0 
SMALL
USER_CHARGES


@<TRIPOS>ATOM
  1 BR       1.1390    -0.7070    -2.4820 Br    1 <1>  -0.1110 
  2 C        0.7300    -2.3070    -1.4810 C.ar  1 <1>   0.1110 
  3 C        1.7370    -2.9420    -0.7670 C.ar  1 <1>   0.0830 
  4 C       -0.5660    -2.7700    -1.5090 C.ar  1 <1>  -0.1500 
  5 O        2.9910    -2.4220    -0.7870 O.3   1 <1>  -0.3630 
  6 C        1.4270    -4.1000    -0.0500 C.ar  1 <1>   0.0280 
  7 C       -0.8940    -3.9250    -0.7980 C.ar  1 <1>   0.0860 
  8 C        4.1020    -2.9810    -0.1000 C.3   1 <1>   0.4180 
  9 C        0.1130    -4.5770    -0.0870 C.ar  1 <1>   0.0830 
 10 C        2.4850    -4.7380     0.6840 C.2   1 <1>  -0.1780 
 11 C       -2.2200    -4.4720    -0.7430 C.2   1 <1>   0.6340 
 12 C        3.7260    -4.2380     0.6730 C.2   1 <1>  -0.2880 
 13 C        5.1510    -3.3140    -1.1570 C.3   1 <1>  -0.2400 
 14 C        4.6090    -1.9100     0.8610 C.3   1 <1>  -0.2400 
 15 O       -0.2040    -5.7060     0.5830 O.3   1 <1>  -0.3630 
 16 O       -3.1780    -3.9730    -1.2890 O.2   1 <1>  -0.5700 
 17 O       -2.4200    -5.5910    -0.0570 O.3   1 <1>  -0.4300 
 18 C       -1.3570    -6.4560     0.2460 C.3   1 <1>   0.5600 
 19 C       -1.7560    -7.2760     1.4650 C.3   1 <1>  -0.2400 
 20 C       -1.0550    -7.3370    -0.9650 C.3   1 <1>  -0.2400 
 21 H       -1.3220    -2.2470    -2.0700 H     1 <1>   0.1500 
 22 H        2.2320    -5.6270     1.2360 H     1 <1>   0.1500 
 23 H        4.5480    -4.6810     1.2060 H     1 <1>   0.1500 
 24 H        4.7660    -4.0600    -1.8280 H     1 <1>   0.0800 
 25 H        6.0390    -3.7000    -0.6910 H     1 <1>   0.0800 
 26 H        5.4090    -2.4330    -1.7150 H     1 <1>   0.0800 
 27 H        3.8490    -1.6850     1.5870 H     1 <1>   0.0800 
 28 H        4.8620    -1.0160     0.3220 H     1 <1>   0.0800 
 29 H        5.4830    -2.2600     1.3800 H     1 <1>   0.0800 
 30 H       -1.9590    -6.6240     2.2940 H     1 <1>   0.0800 
 31 H       -0.9620    -7.9490     1.7310 H     1 <1>   0.0800 
 32 H       -2.6360    -7.8530     1.2470 H     1 <1>   0.0800 
 33 H       -0.7690    -6.7420    -1.8120 H     1 <1>   0.0800 
 34 H       -1.9250    -7.9130    -1.2210 H     1 <1>   0.0800 
 35 H       -0.2560    -8.0160    -0.7310 H     1 <1>   0.0800 
@<TRIPOS>BOND
  1   1   2  1   
  2   2   3  ar  
  3   2   4  ar  
  4   3   5  1   
  5   3   6  ar  
  6   4   7  ar  
  7   4  21  1   
  8   5   8  1   
  9   6   9  ar  
 10   6  10  1   
 11   7   9  ar  
 12   7  11  1   
 13   8  12  1   
 14   8  13  1   
 15   8  14  1   
 16   9  15  1   
 17  10  12  2   
 18  10  22  1   
 19  11  16  2   
 20  11  17  1   
 21  12  23  1   
 22  13  24  1   
 23  13  25  1   
 24  13  26  1   
 25  14  27  1   
 26  14  28  1   
 27  14  29  1   
 28  15  18  1   
 29  17  18  1   
 30  18  19  1   
 31  18  20  1   
 32  19  30  1   
 33  19  31  1   
 34  19  32  1   
 35  20  33  1   
 36  20  34  1   
 37  20  35  1   
@<TRIPOS>SUBSTRUCTURE
  1 ****   6 GROUP 4 **** **** 0

# MOE 2024.06 (io_trps.svl 2023.06)
