@<TRIPOS>MOLECULE
NONAME
40 41 1 0 0 
SMALL
USER_CHARGES


@<TRIPOS>ATOM
  1 S       -1.5410    -0.1000     1.1960 S.3   1 <1>  -0.0800 
  2 C       -2.0060     1.0240    -0.0740 C.2   1 <1>  -0.1400 
  3 C       -0.0940     0.8230     1.5440 C.2   1 <1>  -0.1100 
  4 C       -1.0960     2.0130    -0.1910 C.2   1 <1>  -0.1810 
  5 C       -3.2990     0.7110    -0.7890 C.3   1 <1>   0.5230 
  6 C       -0.0100     1.8930     0.7350 C.2   1 <1>  -0.1500 
  7 C       -1.1100     3.1770    -1.1670 C.3   1 <1>  -0.0590 
  8 N       -4.3890     0.7450     0.2360 N.4   1 <1>  -0.9590 
  9 C       -5.6180    -0.0310    -0.1340 C.3   1 <1>   0.4230 
 10 C       -4.6290     2.1840     0.6070 C.3   1 <1>   0.2630 
 11 C       -6.6970     0.1190     0.9510 C.3   1 <1>  -0.1600 
 12 C       -5.2710    -1.5190    -0.3090 C.3   1 <1>  -0.1600 
 13 C       -7.9180    -0.7590     0.6770 C.3   1 <1>   0.3430 
 14 C       -6.5130    -2.3770    -0.5620 C.3   1 <1>   0.3430 
 15 N       -7.5020    -2.1800     0.5330 N.4   1 <1>  -0.9590 
 16 C       -8.7020    -3.0530     0.3120 C.3   1 <1>   0.2630 
 17 H        0.5520     0.4640     2.3270 H     1 <1>   0.1500 
 18 H       -3.2080    -0.2640    -1.2340 H     1 <1>   0.0800 
 19 H       -3.4820     1.4320    -1.5680 H     1 <1>   0.0800 
 20 H        0.7910     2.6140     0.7500 H     1 <1>   0.1500 
 21 H       -1.9710     3.1460    -1.8080 H     1 <1>   0.0800 
 22 H       -0.2270     3.1460    -1.7820 H     1 <1>   0.0800 
 23 H       -1.1140     4.1080    -0.6280 H     1 <1>   0.0800 
 24 H       -3.9520     0.3040     1.0600 H     1 <1>   0.4500 
 25 H       -6.0110     0.3500    -1.0650 H     1 <1>   0.0800 
 26 H       -5.0840     2.7170    -0.2120 H     1 <1>   0.0800 
 27 H       -3.6960     2.6670     0.8540 H     1 <1>   0.0800 
 28 H       -5.2730     2.2540     1.4690 H     1 <1>   0.0800 
 29 H       -7.0460     1.1350     0.9880 H     1 <1>   0.0800 
 30 H       -6.2970    -0.1340     1.9180 H     1 <1>   0.0800 
 31 H       -4.7660    -1.8930     0.5650 H     1 <1>   0.0800 
 32 H       -4.6230    -1.6590    -1.1540 H     1 <1>   0.0800 
 33 H       -8.4100    -0.4300    -0.2250 H     1 <1>   0.0800 
 34 H       -8.6200    -0.6630     1.4920 H     1 <1>   0.0800 
 35 H       -6.2280    -3.4170    -0.6160 H     1 <1>   0.0800 
 36 H       -6.9590    -2.1050    -1.5070 H     1 <1>   0.0800 
 37 H       -7.0730    -2.4880     1.4210 H     1 <1>   0.4500 
 38 H       -9.2030    -2.7850    -0.6050 H     1 <1>   0.0800 
 39 H       -9.4010    -2.9470     1.1280 H     1 <1>   0.0800 
 40 H       -8.4090    -4.0900     0.2520 H     1 <1>   0.0800 
@<TRIPOS>BOND
  1   1   2  1   
  2   1   3  1   
  3   2   4  2   
  4   2   5  1   
  5   3   6  2   
  6   3  17  1   
  7   4   6  1   
  8   4   7  1   
  9   5   8  1   
 10   5  18  1   
 11   5  19  1   
 12   6  20  1   
 13   7  21  1   
 14   7  22  1   
 15   7  23  1   
 16   8   9  1   
 17   8  10  1   
 18   8  24  1   
 19   9  11  1   
 20   9  12  1   
 21   9  25  1   
 22  10  26  1   
 23  10  27  1   
 24  10  28  1   
 25  11  13  1   
 26  11  29  1   
 27  11  30  1   
 28  12  14  1   
 29  12  31  1   
 30  12  32  1   
 31  13  15  1   
 32  13  33  1   
 33  13  34  1   
 34  14  15  1   
 35  14  35  1   
 36  14  36  1   
 37  15  16  1   
 38  15  37  1   
 39  16  38  1   
 40  16  39  1   
 41  16  40  1   
@<TRIPOS>SUBSTRUCTURE
  1 ****   8 GROUP 4 **** **** 0

# MOE 2024.06 (io_trps.svl 2023.06)
