@<TRIPOS>MOLECULE
NONAME
27 28 1 0 0 
SMALL
USER_CHARGES


@<TRIPOS>ATOM
  1 S        0.9620    -0.2920    -2.0290 S.3   1 <1>  -0.2320 
  2 C        0.3250    -1.6610    -1.1890 C.cat 1 <1>   0.8400 
  3 C        2.3950    -0.3010    -0.9780 C.2   1 <1>  -0.0490 
  4 N       -0.7730    -2.3480    -1.3410 N.pl3 1 <1>  -0.7940 
  5 N        1.1230    -2.0590    -0.2300 N.pl3 1 <1>  -0.6850 
  6 C        2.3060    -1.3040    -0.0850 C.2   1 <1>   0.2030 
  7 C       -0.8090    -3.4420    -0.3340 C.3   1 <1>   0.3290 
  8 C        0.5330    -3.2580     0.4310 C.3   1 <1>   0.3290 
  9 C        3.3140    -1.6470     0.9960 C.3   1 <1>   0.0390 
 10 C        3.9090    -3.0080     0.7380 C.2   1 <1>   0.6590 
 11 O        3.4350    -3.9990     1.2330 O.2   1 <1>  -0.5700 
 12 O        4.9520    -3.0420    -0.0760 O.3   1 <1>  -0.4300 
 13 C        5.6030    -4.2500    -0.3970 C.3   1 <1>   0.1200 
 14 C        6.7210    -3.9360    -1.3860 C.3   1 <1>  -0.2400 
 15 H        3.1400     0.4550    -1.1550 H     1 <1>   0.1500 
 16 H       -1.5040    -2.1800    -2.0380 H     1 <1>   0.4500 
 17 H       -0.8500    -4.4070    -0.8120 H     1 <1>   0.0800 
 18 H       -1.6500    -3.3270     0.3300 H     1 <1>   0.0800 
 19 H        0.3700    -3.0820     1.4810 H     1 <1>   0.0800 
 20 H        1.1600    -4.1220     0.2950 H     1 <1>   0.0800 
 21 H        2.8340    -1.6450     1.9560 H     1 <1>   0.0800 
 22 H        4.1040    -0.9200     1.0120 H     1 <1>   0.0800 
 23 H        4.8840    -4.9250    -0.8310 H     1 <1>   0.0800 
 24 H        5.9980    -4.6780     0.5090 H     1 <1>   0.0800 
 25 H        6.3160    -3.5020    -2.2830 H     1 <1>   0.0800 
 26 H        7.2370    -4.8420    -1.6490 H     1 <1>   0.0800 
 27 H        7.4280    -3.2570    -0.9440 H     1 <1>   0.0800 
@<TRIPOS>BOND
  1   1   2  1   
  2   1   3  1   
  3   2   4  ar  
  4   2   5  ar  
  5   3   6  2   
  6   3  15  1   
  7   4   7  1   
  8   4  16  1   
  9   5   6  1   
 10   5   8  1   
 11   6   9  1   
 12   7   8  1   
 13   7  17  1   
 14   7  18  1   
 15   8  19  1   
 16   8  20  1   
 17   9  10  1   
 18   9  21  1   
 19   9  22  1   
 20  10  11  2   
 21  10  12  1   
 22  12  13  1   
 23  13  14  1   
 24  13  23  1   
 25  13  24  1   
 26  14  25  1   
 27  14  26  1   
 28  14  27  1   
@<TRIPOS>SUBSTRUCTURE
  1 ****   6 GROUP 4 **** **** 0

# MOE 2024.06 (io_trps.svl 2023.06)
