@<TRIPOS>MOLECULE
NONAME
41 42 1 0 0 
SMALL
USER_CHARGES


@<TRIPOS>ATOM
  1 S        0.0380     0.2420     0.0790 S.o2  1 <1>   1.2040 
  2 O       -0.3460     1.2160    -0.9190 O.2   1 <1>  -0.6500 
  3 O        0.0450     0.6180     1.4760 O.2   1 <1>  -0.6500 
  4 C       -0.9230    -1.2740    -0.1430 C.ar  1 <1>  -0.0090 
  5 C        1.6930    -0.3060    -0.3210 C.3   1 <1>  -0.0550 
  6 C       -1.1270    -2.1550     0.9130 C.ar  1 <1>  -0.1500 
  7 C       -1.4530    -1.6120    -1.3830 C.ar  1 <1>  -0.1500 
  8 C        2.7270     0.8290    -0.2310 C.3   1 <1>  -0.0990 
  9 C       -1.8340    -3.3330     0.7390 C.ar  1 <1>  -0.1500 
 10 C       -2.1600    -2.7880    -1.5660 C.ar  1 <1>  -0.1500 
 11 C        4.1310     0.3290    -0.4850 C.2   1 <1>   0.5690 
 12 C       -2.3510    -3.6510    -0.5030 C.ar  1 <1>  -0.1500 
 13 O        4.3040    -0.5380    -1.3060 O.2   1 <1>  -0.5700 
 14 N        5.1470     0.8760     0.2250 N.am  1 <1>  -0.7300 
 15 C        6.5650     0.5020     0.1000 C.3   1 <1>   0.2200 
 16 C        7.0550    -0.0380     1.4470 C.3   1 <1>  -0.1600 
 17 C        7.3650     1.7350    -0.3320 C.3   1 <1>  -0.1600 
 18 C        8.5590    -0.3440     1.4080 C.3   1 <1>  -0.1600 
 19 C        8.8700     1.4320    -0.3740 C.3   1 <1>  -0.1600 
 20 C        9.3650     0.8870     0.9730 C.3   1 <1>  -0.1600 
 21 H        1.7070    -0.7080    -1.3170 H     1 <1>   0.0800 
 22 H        1.9820    -1.0910     0.3510 H     1 <1>   0.0800 
 23 H       -0.7330    -1.9160     1.8870 H     1 <1>   0.1500 
 24 H       -1.3150    -0.9450    -2.2180 H     1 <1>   0.1500 
 25 H        2.6780     1.2770     0.7450 H     1 <1>   0.0800 
 26 H        2.4960     1.5850    -0.9610 H     1 <1>   0.0800 
 27 H       -1.9820    -4.0010     1.5710 H     1 <1>   0.1500 
 28 H       -2.5640    -3.0290    -2.5340 H     1 <1>   0.1500 
 29 H       -2.9020    -4.5650    -0.6410 H     1 <1>   0.1500 
 30 H        4.9580     1.6140     0.9020 H     1 <1>   0.3700 
 31 H        6.6750    -0.2670    -0.6480 H     1 <1>   0.0800 
 32 H        6.5160    -0.9380     1.6850 H     1 <1>   0.0800 
 33 H        6.8670     0.6890     2.2180 H     1 <1>   0.0800 
 34 H        7.1920     2.5400     0.3600 H     1 <1>   0.0800 
 35 H        7.0390     2.0460    -1.3090 H     1 <1>   0.0800 
 36 H        8.7400    -1.1500     0.7160 H     1 <1>   0.0800 
 37 H        8.8880    -0.6670     2.3810 H     1 <1>   0.0800 
 38 H        9.4130     2.3270    -0.6230 H     1 <1>   0.0800 
 39 H        9.0650     0.7040    -1.1440 H     1 <1>   0.0800 
 40 H       10.4070     0.6270     0.8950 H     1 <1>   0.0800 
 41 H        9.2740     1.6550     1.7230 H     1 <1>   0.0800 
@<TRIPOS>BOND
  1   1   2  2   
  2   1   3  2   
  3   1   4  1   
  4   1   5  1   
  5   4   6  ar  
  6   4   7  ar  
  7   5   8  1   
  8   5  21  1   
  9   5  22  1   
 10   6   9  ar  
 11   6  23  1   
 12   7  10  ar  
 13   7  24  1   
 14   8  11  1   
 15   8  25  1   
 16   8  26  1   
 17   9  12  ar  
 18   9  27  1   
 19  10  12  ar  
 20  10  28  1   
 21  11  13  2   
 22  11  14  am  
 23  12  29  1   
 24  14  15  1   
 25  14  30  1   
 26  15  16  1   
 27  15  17  1   
 28  15  31  1   
 29  16  18  1   
 30  16  32  1   
 31  16  33  1   
 32  17  19  1   
 33  17  34  1   
 34  17  35  1   
 35  18  20  1   
 36  18  36  1   
 37  18  37  1   
 38  19  20  1   
 39  19  38  1   
 40  19  39  1   
 41  20  40  1   
 42  20  41  1   
@<TRIPOS>SUBSTRUCTURE
  1 ****   5 GROUP 4 **** **** 0

# MOE 2024.06 (io_trps.svl 2023.06)
