@<TRIPOS>MOLECULE
NONAME
30 32 1 0 0 
SMALL
USER_CHARGES


@<TRIPOS>ATOM
  1 S        1.7380    -1.4870    -1.7970 S.3   1 <1>  -0.2420 
  2 C        0.4300    -2.1380    -0.8030 C.2   1 <1>   0.6510 
  3 C        2.6840    -1.0420    -0.3650 C.2   1 <1>  -0.0490 
  4 N       -0.6440    -2.6560    -1.2990 N.2   1 <1>  -0.6210 
  5 N        0.7570    -1.9930     0.5200 N.am  1 <1>  -0.2290 
  6 C        2.0120    -1.3830     0.7430 C.2   1 <1>  -0.0410 
  7 C       -1.5580    -3.1110    -0.3890 C.2   1 <1>   0.0330 
  8 C       -0.1460    -2.4440     1.4500 C.2   1 <1>   0.6160 
  9 C       -1.3360    -3.0240     0.9500 C.2   1 <1>  -0.1360 
 10 C       -2.8250    -3.7260    -0.9830 C.3   1 <1>   0.2480 
 11 O        0.0870    -2.3370     2.6450 O.2   1 <1>  -0.5700 
 12 N       -3.9780    -3.6410    -0.0650 N.3   1 <1>  -0.8100 
 13 C       -5.0700    -4.5290    -0.5060 C.3   1 <1>   0.1100 
 14 C       -4.4880    -2.2550     0.0280 C.3   1 <1>   0.1100 
 15 C       -6.3000    -4.3920     0.4110 C.3   1 <1>   0.1200 
 16 C       -5.7340    -2.1830     0.9280 C.3   1 <1>   0.1200 
 17 O       -6.7230    -3.0590     0.4660 O.3   1 <1>  -0.5600 
 18 H        3.6390    -0.5740    -0.5310 H     1 <1>   0.1500 
 19 H        2.3310    -1.2390     1.7630 H     1 <1>   0.1500 
 20 H       -2.0410    -3.3840     1.6760 H     1 <1>   0.1500 
 21 H       -2.6150    -4.7580    -1.2060 H     1 <1>   0.0800 
 22 H       -3.0640    -3.2310    -1.9090 H     1 <1>   0.0800 
 23 H       -4.7320    -5.5500    -0.4860 H     1 <1>   0.0800 
 24 H       -5.3600    -4.2890    -1.5150 H     1 <1>   0.0800 
 25 H       -4.7460    -1.8880    -0.9510 H     1 <1>   0.0800 
 26 H       -3.7270    -1.6130     0.4340 H     1 <1>   0.0800 
 27 H       -6.0650    -4.7210     1.4080 H     1 <1>   0.0800 
 28 H       -7.1160    -4.9800     0.0320 H     1 <1>   0.0800 
 29 H       -6.1450    -1.1900     0.9190 H     1 <1>   0.0800 
 30 H       -5.4830    -2.4480     1.9410 H     1 <1>   0.0800 
@<TRIPOS>BOND
  1   1   2  1   
  2   1   3  1   
  3   2   4  2   
  4   2   5  1   
  5   3   6  2   
  6   3  18  1   
  7   4   7  1   
  8   5   6  1   
  9   5   8  am  
 10   6  19  1   
 11   7   9  2   
 12   7  10  1   
 13   8   9  1   
 14   8  11  2   
 15   9  20  1   
 16  10  12  1   
 17  10  21  1   
 18  10  22  1   
 19  12  13  1   
 20  12  14  1   
 21  13  15  1   
 22  13  23  1   
 23  13  24  1   
 24  14  16  1   
 25  14  25  1   
 26  14  26  1   
 27  15  17  1   
 28  15  27  1   
 29  15  28  1   
 30  16  17  1   
 31  16  29  1   
 32  16  30  1   
@<TRIPOS>SUBSTRUCTURE
  1 ****   7 GROUP 4 **** **** 0

# MOE 2024.06 (io_trps.svl 2023.06)
