@<TRIPOS>MOLECULE
NONAME
59 61 1 0 0 
SMALL
USER_CHARGES


@<TRIPOS>ATOM
  1 O        1.0390     0.4460     1.9900 O.2   1 <1>  -0.5700 
  2 C        1.4090     1.4930     1.5210 C.2   1 <1>   0.6900 
  3 N        0.7760     2.0030     0.4360 N.am  1 <1>  -0.5390 
  4 N        2.4430     2.1690     2.0430 N.am  1 <1>  -0.7300 
  5 C        1.1180     3.2060    -0.1660 C.2   1 <1>  -0.0290 
  6 C        3.0910     3.3090     1.3720 C.3   1 <1>   0.5020 
  7 C        2.2000     3.9100     0.2770 C.2   1 <1>  -0.1240 
  8 C        0.2030     3.6440    -1.3120 C.3   1 <1>   0.4810 
  9 C        4.4110     2.8200     0.7840 C.ar  1 <1>  -0.1440 
 10 C        2.6260     5.2000    -0.1780 C.2   1 <1>   0.7060 
 11 N       -1.0890     4.1290    -0.7530 N.4   1 <1>  -0.9590 
 12 C        4.4250     1.8710    -0.2270 C.ar  1 <1>  -0.1500 
 13 C        5.6190     3.3240     1.2410 C.ar  1 <1>  -0.1500 
 14 O        1.9740     5.8560    -0.9680 O.2   1 <1>  -0.5700 
 15 O        3.7490     5.7270     0.3130 O.3   1 <1>  -0.4300 
 16 C       -2.1540     4.1460    -1.7960 C.3   1 <1>   0.3430 
 17 C       -0.9180     5.4710    -0.1220 C.3   1 <1>   0.3430 
 18 C        5.6090     1.4310    -0.7920 C.ar  1 <1>   0.0830 
 19 C        6.8130     2.8980     0.6860 C.ar  1 <1>  -0.1500 
 20 C        4.2550     6.9660    -0.1310 C.3   1 <1>   0.1200 
 21 C       -3.4890     4.5390    -1.1610 C.3   1 <1>  -0.1600 
 22 C       -2.2260     5.8980     0.5460 C.3   1 <1>  -0.1600 
 23 O        5.4550     0.5000    -1.7750 O.3   1 <1>  -0.3630 
 24 C        6.8300     1.9580    -0.3410 C.ar  1 <1>   0.0830 
 25 C        5.5820     7.2100     0.5780 C.3   1 <1>  -0.2400 
 26 C       -3.3990     5.8920    -0.4430 C.3   1 <1>  -0.1600 
 27 C        6.4190    -0.5100    -1.9810 C.3   1 <1>   0.0400 
 28 O        8.0010     1.5600    -0.9210 O.3   1 <1>  -0.3630 
 29 C        9.2350     2.1750    -0.6220 C.3   1 <1>   0.0400 
 30 H        0.0650     1.3580     0.0850 H     1 <1>   0.3700 
 31 H        3.0190     1.6570     2.7110 H     1 <1>   0.3700 
 32 H        3.2840     4.0570     2.1240 H     1 <1>   0.0800 
 33 H        0.0320     2.7960    -1.9540 H     1 <1>   0.0800 
 34 H        0.6600     4.4140    -1.9100 H     1 <1>   0.0800 
 35 H       -1.3680     3.4790    -0.0080 H     1 <1>   0.4500 
 36 H        3.5080     1.4490    -0.5950 H     1 <1>   0.1500 
 37 H        5.6420     4.0590     2.0280 H     1 <1>   0.1500 
 38 H       -2.2460     3.1730    -2.2510 H     1 <1>   0.0800 
 39 H       -1.8990     4.8590    -2.5640 H     1 <1>   0.0800 
 40 H       -0.6390     6.1950    -0.8720 H     1 <1>   0.0800 
 41 H       -0.1340     5.4370     0.6170 H     1 <1>   0.0800 
 42 H        7.7220     3.3190     1.0720 H     1 <1>   0.1500 
 43 H        3.5400     7.7370     0.1070 H     1 <1>   0.0800 
 44 H        4.3950     6.9180    -1.1990 H     1 <1>   0.0800 
 45 H       -3.7960     3.7750    -0.4680 H     1 <1>   0.0800 
 46 H       -4.2410     4.5960    -1.9290 H     1 <1>   0.0800 
 47 H       -2.1060     6.8890     0.9490 H     1 <1>   0.0800 
 48 H       -2.4370     5.2400     1.3720 H     1 <1>   0.0800 
 49 H        5.4360     7.2500     1.6430 H     1 <1>   0.0800 
 50 H        5.9970     8.1480     0.2560 H     1 <1>   0.0800 
 51 H        6.2800     6.4280     0.3370 H     1 <1>   0.0800 
 52 H       -4.3200     6.0920     0.0800 H     1 <1>   0.0800 
 53 H       -3.2580     6.6760    -1.1690 H     1 <1>   0.0800 
 54 H        5.9520    -1.3150    -2.5170 H     1 <1>   0.0800 
 55 H        6.7730    -0.8580    -1.0260 H     1 <1>   0.0800 
 56 H        7.2260    -0.1050    -2.5630 H     1 <1>   0.0800 
 57 H        9.9870     1.7340    -1.2510 H     1 <1>   0.0800 
 58 H        9.4730     1.9960     0.4110 H     1 <1>   0.0800 
 59 H        9.1600     3.2280    -0.8280 H     1 <1>   0.0800 
@<TRIPOS>BOND
  1   1   2  2   
  2   2   3  am  
  3   2   4  am  
  4   3   5  1   
  5   3  30  1   
  6   4   6  1   
  7   4  31  1   
  8   5   7  2   
  9   5   8  1   
 10   6   7  1   
 11   6   9  1   
 12   6  32  1   
 13   7  10  1   
 14   8  11  1   
 15   8  33  1   
 16   8  34  1   
 17   9  12  ar  
 18   9  13  ar  
 19  10  14  2   
 20  10  15  1   
 21  11  16  1   
 22  11  17  1   
 23  11  35  1   
 24  12  18  ar  
 25  12  36  1   
 26  13  19  ar  
 27  13  37  1   
 28  15  20  1   
 29  16  21  1   
 30  16  38  1   
 31  16  39  1   
 32  17  22  1   
 33  17  40  1   
 34  17  41  1   
 35  18  23  1   
 36  18  24  ar  
 37  19  24  ar  
 38  19  42  1   
 39  20  25  1   
 40  20  43  1   
 41  20  44  1   
 42  21  26  1   
 43  21  45  1   
 44  21  46  1   
 45  22  26  1   
 46  22  47  1   
 47  22  48  1   
 48  23  27  1   
 49  24  28  1   
 50  25  49  1   
 51  25  50  1   
 52  25  51  1   
 53  26  52  1   
 54  26  53  1   
 55  27  54  1   
 56  27  55  1   
 57  27  56  1   
 58  28  29  1   
 59  29  57  1   
 60  29  58  1   
 61  29  59  1   
@<TRIPOS>SUBSTRUCTURE
  1 ****   7 GROUP 4 **** **** 0

# MOE 2024.06 (io_trps.svl 2023.06)
