@<TRIPOS>MOLECULE
NONAME
40 42 1 0 0 
SMALL
USER_CHARGES


@<TRIPOS>ATOM
  1 CL      -0.3110    -0.3110     1.0350 Cl    1 <1>  -0.1770 
  2 C       -2.0050    -0.0700     0.6720 C.ar  1 <1>   0.1770 
  3 C       -2.4980     1.1750     0.3060 C.ar  1 <1>  -0.1440 
  4 C       -2.8310    -1.1740     0.7670 C.ar  1 <1>  -0.1500 
  5 C       -3.8610     1.2820     0.0360 C.ar  1 <1>  -0.1500 
  6 C       -1.5600     2.3790     0.2090 C.3   1 <1>   1.1640 
  7 C       -4.1800    -1.0450     0.4940 C.ar  1 <1>  -0.1500 
  8 C       -4.7130     0.1850     0.1260 C.ar  1 <1>   0.1170 
  9 F       -0.9740     2.6650     1.3640 F     1 <1>  -0.3400 
 10 F       -0.5910     2.1980    -0.6790 F     1 <1>  -0.3400 
 11 F       -2.1840     3.4900    -0.1650 F     1 <1>  -0.3400 
 12 N       -6.0930     0.3140    -0.1480 N.am  1 <1>  -0.2370 
 13 C       -6.8160    -0.5220    -0.9530 C.2   1 <1>   0.5690 
 14 C       -6.9110     1.2960     0.3370 C.2   1 <1>   0.5690 
 15 O       -6.3470    -1.3640    -1.6820 O.2   1 <1>  -0.5700 
 16 C       -8.3180    -0.2010    -0.8840 C.3   1 <1>   0.2510 
 17 O       -6.5790     2.2090     1.0480 O.2   1 <1>  -0.5700 
 18 C       -8.3270     1.1510    -0.1560 C.3   1 <1>  -0.0990 
 19 N       -9.1680    -1.1630    -0.1220 N.3   1 <1>  -0.8100 
 20 C       -8.8600    -2.5760    -0.4320 C.3   1 <1>   0.1100 
 21 C      -10.6020    -0.8940    -0.3570 C.3   1 <1>   0.1100 
 22 C       -9.6780    -3.5130     0.4620 C.3   1 <1>  -0.1600 
 23 C      -11.4660    -1.7650     0.5570 C.3   1 <1>  -0.1600 
 24 C      -11.1820    -3.2520     0.3290 C.3   1 <1>  -0.1600 
 25 H       -2.4190    -2.1260     1.0510 H     1 <1>   0.1500 
 26 H       -4.2830     2.2320    -0.2470 H     1 <1>   0.1500 
 27 H       -4.8220    -1.9070     0.5650 H     1 <1>   0.1500 
 28 H       -8.6900    -0.1000    -1.8890 H     1 <1>   0.0800 
 29 H       -8.5460     1.9520    -0.8350 H     1 <1>   0.0800 
 30 H       -9.0010     1.1770     0.6810 H     1 <1>   0.0800 
 31 H       -7.8200    -2.7820    -0.2480 H     1 <1>   0.0800 
 32 H       -9.0670    -2.7800    -1.4700 H     1 <1>   0.0800 
 33 H      -10.8470    -1.0970    -1.3870 H     1 <1>   0.0800 
 34 H      -10.8280     0.1390    -0.1550 H     1 <1>   0.0800 
 35 H       -9.3740    -3.3650     1.4840 H     1 <1>   0.0800 
 36 H       -9.4640    -4.5340     0.2000 H     1 <1>   0.0800 
 37 H      -12.5050    -1.5630     0.3680 H     1 <1>   0.0800 
 38 H      -11.2600    -1.5060     1.5810 H     1 <1>   0.0800 
 39 H      -11.7230    -3.8460     1.0450 H     1 <1>   0.0800 
 40 H      -11.5080    -3.5330    -0.6580 H     1 <1>   0.0800 
@<TRIPOS>BOND
  1   1   2  1   
  2   2   3  ar  
  3   2   4  ar  
  4   3   5  ar  
  5   3   6  1   
  6   4   7  ar  
  7   4  25  1   
  8   5   8  ar  
  9   5  26  1   
 10   6   9  1   
 11   6  10  1   
 12   6  11  1   
 13   7   8  ar  
 14   7  27  1   
 15   8  12  1   
 16  12  13  am  
 17  12  14  am  
 18  13  15  2   
 19  13  16  1   
 20  14  17  2   
 21  14  18  1   
 22  16  18  1   
 23  16  19  1   
 24  16  28  1   
 25  18  29  1   
 26  18  30  1   
 27  19  20  1   
 28  19  21  1   
 29  20  22  1   
 30  20  31  1   
 31  20  32  1   
 32  21  23  1   
 33  21  33  1   
 34  21  34  1   
 35  22  24  1   
 36  22  35  1   
 37  22  36  1   
 38  23  24  1   
 39  23  37  1   
 40  23  38  1   
 41  24  39  1   
 42  24  40  1   
@<TRIPOS>SUBSTRUCTURE
  1 ****  12 GROUP 4 **** **** 0

# MOE 2024.06 (io_trps.svl 2023.06)
