@<TRIPOS>MOLECULE
NONAME
49 51 1 0 0 
SMALL
USER_CHARGES


@<TRIPOS>ATOM
  1 F       -3.8370     1.2720    -2.4770 F     1 <1>  -0.1900 
  2 C       -2.9600     1.7670    -1.6370 C.ar  1 <1>   0.1900 
  3 C       -2.9430     1.2890    -0.3270 C.ar  1 <1>   0.1170 
  4 C       -2.0960     2.7400    -2.1010 C.ar  1 <1>  -0.1500 
  5 N       -3.8610     0.2910     0.0590 N.am  1 <1>  -0.5470 
  6 C       -1.9930     1.8430     0.5280 C.ar  1 <1>  -0.1500 
  7 C       -1.1640     3.2720    -1.2270 C.ar  1 <1>  -0.1500 
  8 C       -4.2010    -0.2430     1.2740 C.2   1 <1>   0.5690 
  9 C       -1.1160     2.8210     0.0830 C.ar  1 <1>  -0.1500 
 10 O       -3.6680     0.0750     2.3100 O.2   1 <1>  -0.5700 
 11 C       -5.2770    -1.3380     1.3040 C.3   1 <1>   0.1710 
 12 N       -6.6920    -0.8840     1.1790 N.3   1 <1>  -0.8100 
 13 C       -7.0170    -0.2820    -0.1410 C.3   1 <1>   0.1100 
 14 C       -7.6160    -2.0090     1.4690 C.3   1 <1>   0.1100 
 15 C       -8.4890     0.1630    -0.2440 C.3   1 <1>   0.2090 
 16 C       -9.1000    -1.5990     1.4000 C.3   1 <1>   0.2090 
 17 N       -9.3960    -0.9680     0.0870 N.pl3 1 <1>  -0.8380 
 18 C      -10.6880    -1.0210    -0.4340 C.ar  1 <1>   0.1000 
 19 C      -11.7010    -0.0980    -0.1320 C.ar  1 <1>  -0.1430 
 20 C      -10.9600    -2.0600    -1.3120 C.ar  1 <1>  -0.1500 
 21 C      -12.9500    -0.2250    -0.7400 C.ar  1 <1>  -0.1430 
 22 C      -11.4450     1.0440     0.8520 C.3   1 <1>  -0.0970 
 23 C      -12.2000    -2.1930    -1.9000 C.ar  1 <1>  -0.1500 
 24 C      -13.1910    -1.2740    -1.6150 C.ar  1 <1>  -0.1500 
 25 C      -14.0850     0.7580    -0.4820 C.3   1 <1>  -0.0970 
 26 H       -2.1530     3.0730    -3.1220 H     1 <1>   0.1500 
 27 H       -4.4240    -0.0520    -0.7190 H     1 <1>   0.3700 
 28 H       -1.9250     1.5160     1.5490 H     1 <1>   0.1500 
 29 H       -0.4790     4.0330    -1.5620 H     1 <1>   0.1500 
 30 H       -0.3910     3.2340     0.7640 H     1 <1>   0.1500 
 31 H       -5.1680    -1.8460     2.2460 H     1 <1>   0.0800 
 32 H       -5.0620    -2.0520     0.5300 H     1 <1>   0.0800 
 33 H       -6.8210    -0.9930    -0.9260 H     1 <1>   0.0800 
 34 H       -6.4080     0.5870    -0.3030 H     1 <1>   0.0800 
 35 H       -7.4160    -2.3890     2.4550 H     1 <1>   0.0800 
 36 H       -7.4520    -2.8050     0.7630 H     1 <1>   0.0800 
 37 H       -8.7000     0.5090    -1.2410 H     1 <1>   0.0800 
 38 H       -8.6550     0.9750     0.4390 H     1 <1>   0.0800 
 39 H       -9.3100    -0.9050     2.1930 H     1 <1>   0.0800 
 40 H       -9.7260    -2.4640     1.5310 H     1 <1>   0.0800 
 41 H      -10.1800    -2.7640    -1.5310 H     1 <1>   0.1500 
 42 H      -10.6900     0.7810     1.5650 H     1 <1>   0.0800 
 43 H      -12.3290     1.2820     1.4130 H     1 <1>   0.0800 
 44 H      -11.1250     1.9170     0.3150 H     1 <1>   0.0800 
 45 H      -12.3940    -3.0040    -2.5780 H     1 <1>   0.1500 
 46 H      -14.1530    -1.3830    -2.0830 H     1 <1>   0.1500 
 47 H      -13.7360     1.7680    -0.5970 H     1 <1>   0.0800 
 48 H      -14.4640     0.6250     0.5150 H     1 <1>   0.0800 
 49 H      -14.8930     0.6050    -1.1740 H     1 <1>   0.0800 
@<TRIPOS>BOND
  1   1   2  1   
  2   2   3  ar  
  3   2   4  ar  
  4   3   5  1   
  5   3   6  ar  
  6   4   7  ar  
  7   4  26  1   
  8   5   8  am  
  9   5  27  1   
 10   6   9  ar  
 11   6  28  1   
 12   7   9  ar  
 13   7  29  1   
 14   8  10  2   
 15   8  11  1   
 16   9  30  1   
 17  11  12  1   
 18  11  31  1   
 19  11  32  1   
 20  12  13  1   
 21  12  14  1   
 22  13  15  1   
 23  13  33  1   
 24  13  34  1   
 25  14  16  1   
 26  14  35  1   
 27  14  36  1   
 28  15  17  1   
 29  15  37  1   
 30  15  38  1   
 31  16  17  1   
 32  16  39  1   
 33  16  40  1   
 34  17  18  1   
 35  18  19  ar  
 36  18  20  ar  
 37  19  21  ar  
 38  19  22  1   
 39  20  23  ar  
 40  20  41  1   
 41  21  24  ar  
 42  21  25  1   
 43  22  42  1   
 44  22  43  1   
 45  22  44  1   
 46  23  24  ar  
 47  23  45  1   
 48  24  46  1   
 49  25  47  1   
 50  25  48  1   
 51  25  49  1   
@<TRIPOS>SUBSTRUCTURE
  1 ****  13 GROUP 4 **** **** 0

# MOE 2024.06 (io_trps.svl 2023.06)
