@<TRIPOS>MOLECULE
NONAME
43 47 1 0 0 
SMALL
USER_CHARGES


@<TRIPOS>ATOM
  1 O        0.1190     1.1920    -0.9770 O.2   1 <1>  -0.5700 
  2 C       -0.3440     1.9240    -0.1340 C.2   1 <1>   0.5690 
  3 N        0.3300     2.6900     0.7980 N.am  1 <1>  -0.1200 
  4 C       -1.8110     2.0900     0.1450 C.3   1 <1>  -0.0190 
  5 N        1.7740     2.8910     0.7930 N.am  1 <1>  -0.4300 
  6 C       -0.5500     3.5330     1.4480 C.2   1 <1>   0.5690 
  7 C       -3.1180     1.8240    -0.6470 C.3   1 <1>   0.1530 
  8 C       -1.8120     3.5490     0.6340 C.3   1 <1>  -0.0190 
  9 C        2.3990     3.8330     0.0280 C.2   1 <1>   0.5440 
 10 O       -0.3660     4.1670     2.4600 O.2   1 <1>  -0.5700 
 11 C       -4.1060     1.7410     0.5280 C.2   1 <1>  -0.2880 
 12 C       -3.5390     3.0970    -1.4480 C.3   1 <1>  -0.1950 
 13 C       -3.2760     4.0110     0.8910 C.3   1 <1>   0.1530 
 14 O        1.7130     4.6010    -0.6270 O.2   1 <1>  -0.5700 
 15 C        3.8440     3.9260     0.0120 C.ar  1 <1>   0.0860 
 16 C       -4.1460     2.8210     1.3240 C.2   1 <1>  -0.2880 
 17 C       -3.7510     4.3190    -0.5650 C.3   1 <1>  -0.1950 
 18 C       -4.8900     3.7440    -1.3670 C.3   1 <1>  -0.2000 
 19 C        4.4800     5.1670    -0.0470 C.ar  1 <1>  -0.1500 
 20 C        4.6560     2.7900     0.0570 C.ar  1 <1>  -0.1500 
 21 C        5.8580     5.2700    -0.0440 C.ar  1 <1>  -0.1500 
 22 C        6.0360     2.8860     0.0600 C.ar  1 <1>  -0.1500 
 23 C        6.6490     4.1350     0.0130 C.ar  1 <1>   0.0830 
 24 O        7.9880     4.3180     0.0150 O.3   1 <1>  -0.3630 
 25 C        8.8890     3.2330     0.0370 C.3   1 <1>   0.0400 
 26 H       -1.8960     1.4480     1.0090 H     1 <1>   0.0800 
 27 H        2.3150     2.3250     1.4490 H     1 <1>   0.3700 
 28 H       -3.0960     0.9210    -1.2320 H     1 <1>   0.0800 
 29 H       -1.4740     4.1720    -0.1810 H     1 <1>   0.0800 
 30 H       -4.6680     0.8290     0.6340 H     1 <1>   0.1500 
 31 H       -2.9620     3.2340    -2.3460 H     1 <1>   0.1000 
 32 H       -3.3530     4.8670     1.5390 H     1 <1>   0.0800 
 33 H       -4.7460     2.9560     2.2080 H     1 <1>   0.1500 
 34 H       -3.3800     5.2680    -0.9160 H     1 <1>   0.1000 
 35 H       -5.7050     3.2620    -0.8550 H     1 <1>   0.1000 
 36 H       -5.2380     4.2960    -2.2230 H     1 <1>   0.1000 
 37 H        3.8790     6.0590    -0.0960 H     1 <1>   0.1500 
 38 H        4.2030     1.8140     0.0760 H     1 <1>   0.1500 
 39 H        6.3330     6.2350    -0.0870 H     1 <1>   0.1500 
 40 H        6.6200     1.9850     0.0950 H     1 <1>   0.1500 
 41 H        9.8880     3.6290     0.0220 H     1 <1>   0.0800 
 42 H        8.7230     2.6250    -0.8340 H     1 <1>   0.0800 
 43 H        8.7330     2.6680     0.9390 H     1 <1>   0.0800 
@<TRIPOS>BOND
  1   1   2  2   
  2   2   3  am  
  3   2   4  1   
  4   3   5  1   
  5   3   6  am  
  6   4   7  1   
  7   4   8  1   
  8   4  26  1   
  9   5   9  am  
 10   5  27  1   
 11   6   8  1   
 12   6  10  2   
 13   7  11  1   
 14   7  12  1   
 15   7  28  1   
 16   8  13  1   
 17   8  29  1   
 18   9  14  2   
 19   9  15  1   
 20  11  16  2   
 21  11  30  1   
 22  12  17  1   
 23  12  18  1   
 24  12  31  1   
 25  13  16  1   
 26  13  17  1   
 27  13  32  1   
 28  15  19  ar  
 29  15  20  ar  
 30  16  33  1   
 31  17  18  1   
 32  17  34  1   
 33  18  35  1   
 34  18  36  1   
 35  19  21  ar  
 36  19  37  1   
 37  20  22  ar  
 38  20  38  1   
 39  21  23  ar  
 40  21  39  1   
 41  22  23  ar  
 42  22  40  1   
 43  23  24  1   
 44  24  25  1   
 45  25  41  1   
 46  25  42  1   
 47  25  43  1   
@<TRIPOS>SUBSTRUCTURE
  1 ****   3 GROUP 4 **** **** 0

# MOE 2024.06 (io_trps.svl 2023.06)
