@<TRIPOS>MOLECULE
NONAME
35 36 1 0 0 
SMALL
USER_CHARGES


@<TRIPOS>ATOM
  1 O       -0.6740     0.3020    -0.7590 O.2   1 <1>  -0.5700 
  2 C        0.1540     1.1440    -0.5140 C.2   1 <1>   0.5690 
  3 N       -0.1400     2.3910    -0.0390 N.am  1 <1>  -0.5470 
  4 C        1.6300     0.8120    -0.7530 C.3   1 <1>  -0.0190 
  5 C       -1.3370     3.0480     0.2890 C.ar  1 <1>   0.1170 
  6 C        2.4400     0.8230     0.5550 C.3   1 <1>  -0.2400 
  7 C        2.2760     1.7560    -1.7830 C.3   1 <1>  -0.2400 
  8 C       -1.3100     4.4290     0.5060 C.ar  1 <1>  -0.0320 
  9 C       -2.5500     2.3750     0.4140 C.ar  1 <1>  -0.1500 
 10 C       -2.4790     5.1010     0.8240 C.ar  1 <1>  -0.1500 
 11 C       -0.0120     5.2300     0.3810 C.3   1 <1>  -0.0630 
 12 C       -3.7100     3.0530     0.7360 C.ar  1 <1>  -0.1500 
 13 C       -3.6780     4.4190     0.9410 C.ar  1 <1>  -0.1500 
 14 C        0.3500     6.1760     1.4830 C.3   1 <1>  -0.2000 
 15 C        1.1330     4.9110     1.2930 C.3   1 <1>  -0.2000 
 16 C        0.2720     5.6490    -1.0630 C.3   1 <1>  -0.1450 
 17 H        0.6720     2.9970     0.0680 H     1 <1>   0.3700 
 18 H        1.6660    -0.1860    -1.1550 H     1 <1>   0.0800 
 19 H        2.4640     1.8070     0.9870 H     1 <1>   0.0800 
 20 H        3.4500     0.5020     0.3710 H     1 <1>   0.0800 
 21 H        1.9940     0.1480     1.2650 H     1 <1>   0.0800 
 22 H        2.3110     2.7670    -1.4160 H     1 <1>   0.0800 
 23 H        1.7080     1.7420    -2.6970 H     1 <1>   0.0800 
 24 H        3.2790     1.4360    -2.0020 H     1 <1>   0.0800 
 25 H       -2.5960     1.3130     0.2610 H     1 <1>   0.1500 
 26 H       -2.4590     6.1650     0.9800 H     1 <1>   0.1500 
 27 H       -4.6380     2.5150     0.8260 H     1 <1>   0.1500 
 28 H       -4.5800     4.9500     1.1890 H     1 <1>   0.1500 
 29 H       -0.2880     6.2490     2.3470 H     1 <1>   0.1000 
 30 H        0.8160     7.1140     1.2360 H     1 <1>   0.1000 
 31 H        2.1430     4.9910     0.9310 H     1 <1>   0.1000 
 32 H        1.0200     4.1420     2.0390 H     1 <1>   0.1000 
 33 H        0.3530     4.7820    -1.6940 H     1 <1>   0.0800 
 34 H        1.1860     6.2110    -1.1280 H     1 <1>   0.0800 
 35 H       -0.5340     6.2610    -1.4290 H     1 <1>   0.0800 
@<TRIPOS>BOND
  1   1   2  2   
  2   2   3  am  
  3   2   4  1   
  4   3   5  1   
  5   3  17  1   
  6   4   6  1   
  7   4   7  1   
  8   4  18  1   
  9   5   8  ar  
 10   5   9  ar  
 11   6  19  1   
 12   6  20  1   
 13   6  21  1   
 14   7  22  1   
 15   7  23  1   
 16   7  24  1   
 17   8  10  ar  
 18   8  11  1   
 19   9  12  ar  
 20   9  25  1   
 21  10  13  ar  
 22  10  26  1   
 23  11  14  1   
 24  11  15  1   
 25  11  16  1   
 26  12  13  ar  
 27  12  27  1   
 28  13  28  1   
 29  14  15  1   
 30  14  29  1   
 31  14  30  1   
 32  15  31  1   
 33  15  32  1   
 34  16  33  1   
 35  16  34  1   
 36  16  35  1   
@<TRIPOS>SUBSTRUCTURE
  1 ****   5 GROUP 4 **** **** 0

# MOE 2024.06 (io_trps.svl 2023.06)
