@<TRIPOS>MOLECULE
NONAME
47 49 1 0 0 
SMALL
USER_CHARGES


@<TRIPOS>ATOM
  1 O        3.4300     4.3090     1.2660 O.2   1 <1>  -0.5700 
  2 C        4.5210     3.8430     1.0310 C.2   1 <1>   0.4230 
  3 C        4.7280     2.6370     0.2630 C.ar  1 <1>   0.0860 
  4 C        5.7300     4.5820     1.5910 C.3   1 <1>  -0.0990 
  5 C        4.1470     2.4410    -1.0000 C.ar  1 <1>   0.0830 
  6 C        5.5340     1.6070     0.7570 C.ar  1 <1>  -0.1500 
  7 C        6.7110     5.0280     0.4960 C.3   1 <1>  -0.2400 
  8 O        3.3670     3.3820    -1.5660 O.3   1 <1>  -0.3630 
  9 C        4.3800     1.2840    -1.7280 C.ar  1 <1>  -0.1500 
 10 C        5.7590     0.4500     0.0360 C.ar  1 <1>  -0.1500 
 11 C        2.0040     3.3970    -1.2070 C.3   1 <1>   0.1200 
 12 C        5.1830     0.2870    -1.2120 C.ar  1 <1>  -0.1500 
 13 C        1.5860     4.8650    -1.0560 C.3   1 <1>   0.3430 
 14 N        0.3200     5.0350    -0.2730 N.4   1 <1>  -0.9590 
 15 C       -0.2050     6.4190    -0.4180 C.3   1 <1>   0.4860 
 16 C        0.5280     4.7500     1.1830 C.3   1 <1>   0.3430 
 17 C       -1.5100     6.5590     0.3490 C.ar  1 <1>  -0.1430 
 18 C       -0.8180     4.6790     1.9090 C.3   1 <1>  -0.0170 
 19 C       -1.7930     5.7540     1.4470 C.ar  1 <1>  -0.1430 
 20 C       -2.4290     7.5180    -0.0530 C.ar  1 <1>  -0.1500 
 21 C       -2.9870     5.9180     2.1300 C.ar  1 <1>  -0.1500 
 22 C       -3.6200     7.6750     0.6330 C.ar  1 <1>  -0.1500 
 23 C       -3.8980     6.8760     1.7250 C.ar  1 <1>  -0.1500 
 24 H        6.2390     3.9550     2.3010 H     1 <1>   0.0800 
 25 H        5.3880     5.4520     2.1240 H     1 <1>   0.0800 
 26 H        5.9930     1.7070     1.7250 H     1 <1>   0.1500 
 27 H        7.1190     4.1770    -0.0230 H     1 <1>   0.0800 
 28 H        7.5250     5.5800     0.9330 H     1 <1>   0.0800 
 29 H        6.2130     5.6610    -0.2170 H     1 <1>   0.0800 
 30 H        3.9360     1.1680    -2.7010 H     1 <1>   0.1500 
 31 H        6.3850    -0.3280     0.4400 H     1 <1>   0.1500 
 32 H        1.8910     2.8590    -0.2820 H     1 <1>   0.0800 
 33 H        1.4490     2.9080    -1.9870 H     1 <1>   0.0800 
 34 H        5.3630    -0.6130    -1.7760 H     1 <1>   0.1500 
 35 H        1.4680     5.2850    -2.0400 H     1 <1>   0.0800 
 36 H        2.3810     5.3950    -0.5550 H     1 <1>   0.0800 
 37 H       -0.4150     4.4090    -0.6220 H     1 <1>   0.4500 
 38 H       -0.3790     6.6400    -1.4580 H     1 <1>   0.0800 
 39 H        0.5100     7.1270    -0.0320 H     1 <1>   0.0800 
 40 H        1.1300     5.5310     1.6180 H     1 <1>   0.0800 
 41 H        1.0540     3.8190     1.3190 H     1 <1>   0.0800 
 42 H       -0.6460     4.7730     2.9660 H     1 <1>   0.0800 
 43 H       -1.2580     3.7120     1.7390 H     1 <1>   0.0800 
 44 H       -2.2330     8.1550    -0.8990 H     1 <1>   0.1500 
 45 H       -3.2200     5.3010     2.9820 H     1 <1>   0.1500 
 46 H       -4.3310     8.4210     0.3200 H     1 <1>   0.1500 
 47 H       -4.8250     6.9990     2.2600 H     1 <1>   0.1500 
@<TRIPOS>BOND
  1   1   2  2   
  2   2   3  1   
  3   2   4  1   
  4   3   5  ar  
  5   3   6  ar  
  6   4   7  1   
  7   4  24  1   
  8   4  25  1   
  9   5   8  1   
 10   5   9  ar  
 11   6  10  ar  
 12   6  26  1   
 13   7  27  1   
 14   7  28  1   
 15   7  29  1   
 16   8  11  1   
 17   9  12  ar  
 18   9  30  1   
 19  10  12  ar  
 20  10  31  1   
 21  11  13  1   
 22  11  32  1   
 23  11  33  1   
 24  12  34  1   
 25  13  14  1   
 26  13  35  1   
 27  13  36  1   
 28  14  15  1   
 29  14  16  1   
 30  14  37  1   
 31  15  17  1   
 32  15  38  1   
 33  15  39  1   
 34  16  18  1   
 35  16  40  1   
 36  16  41  1   
 37  17  19  ar  
 38  17  20  ar  
 39  18  19  1   
 40  18  42  1   
 41  18  43  1   
 42  19  21  ar  
 43  20  22  ar  
 44  20  44  1   
 45  21  23  ar  
 46  21  45  1   
 47  22  23  ar  
 48  22  46  1   
 49  23  47  1   
@<TRIPOS>SUBSTRUCTURE
  1 ****  13 GROUP 4 **** **** 0

# MOE 2024.06 (io_trps.svl 2023.06)
