@<TRIPOS>MOLECULE
NONAME
50 51 1 0 0 
SMALL
USER_CHARGES


@<TRIPOS>ATOM
  1 CL      -0.4230     0.6360     0.4230 Cl    1 <1>  -0.1770 
  2 C       -1.5050    -0.7360     0.2620 C.ar  1 <1>   0.1770 
  3 C       -1.0810    -2.0620     0.0860 C.ar  1 <1>   0.0830 
  4 C       -2.8530    -0.4300     0.3190 C.ar  1 <1>  -0.1500 
  5 O        0.1990    -2.5280     0.0090 O.3   1 <1>  -0.3630 
  6 C       -2.0520    -3.0480    -0.0260 C.ar  1 <1>  -0.1500 
  7 C       -3.8020    -1.4310     0.2040 C.ar  1 <1>  -0.1500 
  8 C        1.3390    -1.7150     0.0830 C.3   1 <1>   0.1200 
  9 C       -3.4030    -2.7460     0.0320 C.ar  1 <1>  -0.1440 
 10 C        2.5580    -2.6240    -0.0570 C.3   1 <1>  -0.1600 
 11 C       -4.4430    -3.8450    -0.0950 C.3   1 <1>  -0.0970 
 12 C        3.8420    -1.8030     0.0290 C.3   1 <1>   0.3430 
 13 N        5.0300    -2.6670    -0.2260 N.4   1 <1>  -0.9590 
 14 C        5.2930    -3.6200     0.8950 C.3   1 <1>   0.3430 
 15 C        6.2290    -1.8330    -0.5240 C.3   1 <1>   0.3430 
 16 C        6.4280    -4.5650     0.5060 C.3   1 <1>  -0.1600 
 17 C        7.3860    -2.7350    -0.9500 C.3   1 <1>  -0.1600 
 18 C        7.7080    -3.8040     0.1110 C.3   1 <1>  -0.0190 
 19 C        8.7810    -4.7660    -0.3890 C.2   1 <1>   0.6590 
 20 O        8.6120    -5.4250    -1.3810 O.2   1 <1>  -0.5700 
 21 O        9.8890    -4.8260     0.3330 O.3   1 <1>  -0.4300 
 22 C       10.9530    -5.6780    -0.0260 C.3   1 <1>   0.1200 
 23 C       12.0640    -5.5070     1.0050 C.3   1 <1>  -0.2400 
 24 H       -3.1590     0.5910     0.4520 H     1 <1>   0.1500 
 25 H       -1.7370    -4.0670    -0.1620 H     1 <1>   0.1500 
 26 H       -4.8480    -1.1830     0.2480 H     1 <1>   0.1500 
 27 H        1.3360    -1.2200     1.0390 H     1 <1>   0.0800 
 28 H        1.2960    -1.0010    -0.7210 H     1 <1>   0.0800 
 29 H        2.5040    -3.1190    -1.0110 H     1 <1>   0.0800 
 30 H        2.5230    -3.3530     0.7320 H     1 <1>   0.0800 
 31 H       -4.0270    -4.7950     0.1890 H     1 <1>   0.0800 
 32 H       -4.7840    -3.9070    -1.1130 H     1 <1>   0.0800 
 33 H       -5.2840    -3.6400     0.5420 H     1 <1>   0.0800 
 34 H        3.9210    -1.3400     1.0000 H     1 <1>   0.0800 
 35 H        3.8020    -1.0220    -0.7130 H     1 <1>   0.0800 
 36 H        4.8350    -3.2300    -1.0660 H     1 <1>   0.4500 
 37 H        4.4100    -4.2000     1.1080 H     1 <1>   0.0800 
 38 H        5.5630    -3.0740     1.7850 H     1 <1>   0.0800 
 39 H        6.5120    -1.2690     0.3510 H     1 <1>   0.0800 
 40 H        6.0090    -1.1380    -1.3190 H     1 <1>   0.0800 
 41 H        6.1040    -5.1890    -0.3100 H     1 <1>   0.0800 
 42 H        6.6440    -5.2150     1.3370 H     1 <1>   0.0800 
 43 H        8.2600    -2.1290    -1.1200 H     1 <1>   0.0800 
 44 H        7.1400    -3.2060    -1.8870 H     1 <1>   0.0800 
 45 H        8.0940    -3.3100     0.9860 H     1 <1>   0.0800 
 46 H       11.2940    -5.4060    -1.0110 H     1 <1>   0.0800 
 47 H       10.5900    -6.6930    -0.0380 H     1 <1>   0.0800 
 48 H       12.4110    -4.4890     1.0120 H     1 <1>   0.0800 
 49 H       12.8910    -6.1470     0.7550 H     1 <1>   0.0800 
 50 H       11.7090    -5.7750     1.9840 H     1 <1>   0.0800 
@<TRIPOS>BOND
  1   1   2  1   
  2   2   3  ar  
  3   2   4  ar  
  4   3   5  1   
  5   3   6  ar  
  6   4   7  ar  
  7   4  24  1   
  8   5   8  1   
  9   6   9  ar  
 10   6  25  1   
 11   7   9  ar  
 12   7  26  1   
 13   8  10  1   
 14   8  27  1   
 15   8  28  1   
 16   9  11  1   
 17  10  12  1   
 18  10  29  1   
 19  10  30  1   
 20  11  31  1   
 21  11  32  1   
 22  11  33  1   
 23  12  13  1   
 24  12  34  1   
 25  12  35  1   
 26  13  14  1   
 27  13  15  1   
 28  13  36  1   
 29  14  16  1   
 30  14  37  1   
 31  14  38  1   
 32  15  17  1   
 33  15  39  1   
 34  15  40  1   
 35  16  18  1   
 36  16  41  1   
 37  16  42  1   
 38  17  18  1   
 39  17  43  1   
 40  17  44  1   
 41  18  19  1   
 42  18  45  1   
 43  19  20  2   
 44  19  21  1   
 45  21  22  1   
 46  22  23  1   
 47  22  46  1   
 48  22  47  1   
 49  23  48  1   
 50  23  49  1   
 51  23  50  1   
@<TRIPOS>SUBSTRUCTURE
  1 ****  10 GROUP 4 **** **** 0

# MOE 2024.06 (io_trps.svl 2023.06)
