@<TRIPOS>MOLECULE
NONAME
28 29 1 0 0 
SMALL
USER_CHARGES


@<TRIPOS>ATOM
  1 F       -1.2140     1.0740     1.4990 F     1 <1>  -0.1900 
  2 C       -0.6650     2.0640     0.8470 C.ar  1 <1>   0.1900 
  3 C       -1.2930     2.5350    -0.2910 C.ar  1 <1>  -0.1440 
  4 C        0.5140     2.6060     1.3310 C.ar  1 <1>  -0.1500 
  5 C       -0.6870     3.5970    -0.9370 C.ar  1 <1>   0.1900 
  6 C       -2.5730     1.9170    -0.8060 C.3   1 <1>   0.4860 
  7 C        1.0960     3.6680     0.6530 C.ar  1 <1>  -0.1500 
  8 F       -1.2550     4.0860    -2.0070 F     1 <1>  -0.1900 
  9 C        0.4920     4.1700    -0.4900 C.ar  1 <1>  -0.1500 
 10 N       -3.7010     2.3170     0.0770 N.4   1 <1>  -0.9590 
 11 C       -4.9810     1.6560    -0.2600 C.3   1 <1>   0.3430 
 12 C       -3.9710     3.7760     0.0720 C.3   1 <1>   0.3430 
 13 C       -6.0350     2.5210     0.4170 C.3   1 <1>  -0.1600 
 14 C       -5.3930     3.8990     0.6030 C.3   1 <1>  -0.1600 
 15 H        0.9700     2.2040     2.2200 H     1 <1>   0.1500 
 16 H       -2.4700     0.8430    -0.8070 H     1 <1>   0.0800 
 17 H       -2.7600     2.2410    -1.8180 H     1 <1>   0.0800 
 18 H        2.0150     4.1010     1.0140 H     1 <1>   0.1500 
 19 H        0.9300     4.9950    -1.0280 H     1 <1>   0.1500 
 20 H       -3.4480     2.0500     1.0390 H     1 <1>   0.4500 
 21 H       -5.0130     0.6370     0.0930 H     1 <1>   0.0800 
 22 H       -5.1340     1.6730    -1.3270 H     1 <1>   0.0800 
 23 H       -3.9280     4.1540    -0.9370 H     1 <1>   0.0800 
 24 H       -3.2650     4.3150     0.6850 H     1 <1>   0.0800 
 25 H       -6.2950     2.0970     1.3720 H     1 <1>   0.0800 
 26 H       -6.9260     2.5720    -0.1860 H     1 <1>   0.0800 
 27 H       -5.9260     4.6640     0.0650 H     1 <1>   0.0800 
 28 H       -5.3720     4.1680     1.6460 H     1 <1>   0.0800 
@<TRIPOS>BOND
  1   1   2  1   
  2   2   3  ar  
  3   2   4  ar  
  4   3   5  ar  
  5   3   6  1   
  6   4   7  ar  
  7   4  15  1   
  8   5   8  1   
  9   5   9  ar  
 10   6  10  1   
 11   6  16  1   
 12   6  17  1   
 13   7   9  ar  
 14   7  18  1   
 15   9  19  1   
 16  10  11  1   
 17  10  12  1   
 18  10  20  1   
 19  11  13  1   
 20  11  21  1   
 21  11  22  1   
 22  12  14  1   
 23  12  23  1   
 24  12  24  1   
 25  13  14  1   
 26  13  25  1   
 27  13  26  1   
 28  14  27  1   
 29  14  28  1   
@<TRIPOS>SUBSTRUCTURE
  1 ****   3 GROUP 4 **** **** 0

# MOE 2024.06 (io_trps.svl 2023.06)
