@<TRIPOS>MOLECULE
NONAME
48 50 1 0 0 
SMALL
USER_CHARGES


@<TRIPOS>ATOM
  1 BR       2.4350    -0.4890     2.4490 Br    1 <1>  -0.1110 
  2 C        1.6080    -1.6980     1.2010 C.ar  1 <1>   0.1110 
  3 C        0.5480    -2.4680     1.6230 C.ar  1 <1>  -0.1500 
  4 C        2.0990    -1.7600    -0.0880 C.ar  1 <1>  -0.1500 
  5 C       -0.0690    -3.3540     0.7390 C.ar  1 <1>   0.0860 
  6 C        1.4950    -2.6260    -0.9800 C.ar  1 <1>  -0.1500 
  7 C        0.4160    -3.4180    -0.5800 C.ar  1 <1>   0.0830 
  8 C       -1.1770    -4.1580     1.2100 C.2   1 <1>   0.5440 
  9 O       -0.2050    -4.2570    -1.4500 O.3   1 <1>  -0.3630 
 10 O       -2.0390    -3.6540     1.9080 O.2   1 <1>  -0.5700 
 11 N       -1.2800    -5.4760     0.8560 N.am  1 <1>  -0.5470 
 12 C        0.3360    -4.5630    -2.7210 C.3   1 <1>   0.0400 
 13 C       -2.0750    -6.4880     1.4280 C.ar  1 <1>   0.1170 
 14 C       -3.4650    -6.6220     1.2150 C.ar  1 <1>   0.1000 
 15 C       -1.4210    -7.4110     2.2320 C.ar  1 <1>  -0.1500 
 16 N       -4.2550    -5.7590     0.4330 N.pl3 1 <1>  -0.8380 
 17 C       -4.1250    -7.6840     1.8220 C.ar  1 <1>  -0.1500 
 18 C       -2.1000    -8.4570     2.8280 C.ar  1 <1>  -0.1500 
 19 C       -3.8320    -5.3500    -0.9450 C.3   1 <1>   0.2090 
 20 C       -5.2480    -4.9020     1.1600 C.3   1 <1>   0.2090 
 21 C       -3.4580    -8.5940     2.6210 C.ar  1 <1>  -0.1500 
 22 C       -3.5780    -3.8280    -1.1000 C.3   1 <1>   0.3430 
 23 C       -5.3560    -3.4730     0.5880 C.3   1 <1>   0.3430 
 24 N       -4.0300    -3.0100     0.0780 N.4   1 <1>  -0.9590 
 25 C       -3.9390    -1.5420    -0.1410 C.3   1 <1>   0.2630 
 26 H        0.2000    -2.3870     2.6390 H     1 <1>   0.1500 
 27 H        2.9320    -1.1430    -0.3790 H     1 <1>   0.1500 
 28 H        1.8820    -2.6620    -1.9820 H     1 <1>   0.1500 
 29 H       -0.5340    -5.8120     0.2450 H     1 <1>   0.3700 
 30 H       -0.2730    -5.3240    -3.1750 H     1 <1>   0.0800 
 31 H        1.3410    -4.9310    -2.5970 H     1 <1>   0.0800 
 32 H        0.3270    -3.6780    -3.3320 H     1 <1>   0.0800 
 33 H       -0.3640    -7.3110     2.4020 H     1 <1>   0.1500 
 34 H       -5.1800    -7.8020     1.6590 H     1 <1>   0.1500 
 35 H       -1.5750    -9.1610     3.4500 H     1 <1>   0.1500 
 36 H       -4.6050    -5.6410    -1.6340 H     1 <1>   0.0800 
 37 H       -2.9460    -5.8900    -1.2300 H     1 <1>   0.0800 
 38 H       -4.9520    -4.8340     2.1940 H     1 <1>   0.0800 
 39 H       -6.2150    -5.3740     1.1320 H     1 <1>   0.0800 
 40 H       -3.9960    -9.4070     3.0780 H     1 <1>   0.1500 
 41 H       -4.0770    -3.4900    -1.9920 H     1 <1>   0.0800 
 42 H       -2.5220    -3.6760    -1.2480 H     1 <1>   0.0800 
 43 H       -5.7100    -2.8140     1.3630 H     1 <1>   0.0800 
 44 H       -6.0750    -3.4660    -0.2130 H     1 <1>   0.0800 
 45 H       -3.3690    -3.2790     0.8450 H     1 <1>   0.4500 
 46 H       -4.6170    -1.2350    -0.9200 H     1 <1>   0.0800 
 47 H       -2.9350    -1.2720    -0.4250 H     1 <1>   0.0800 
 48 H       -4.1880    -1.0160     0.7660 H     1 <1>   0.0800 
@<TRIPOS>BOND
  1   1   2  1   
  2   2   3  ar  
  3   2   4  ar  
  4   3   5  ar  
  5   3  26  1   
  6   4   6  ar  
  7   4  27  1   
  8   5   7  ar  
  9   5   8  1   
 10   6   7  ar  
 11   6  28  1   
 12   7   9  1   
 13   8  10  2   
 14   8  11  am  
 15   9  12  1   
 16  11  13  1   
 17  11  29  1   
 18  12  30  1   
 19  12  31  1   
 20  12  32  1   
 21  13  14  ar  
 22  13  15  ar  
 23  14  16  1   
 24  14  17  ar  
 25  15  18  ar  
 26  15  33  1   
 27  16  19  1   
 28  16  20  1   
 29  17  21  ar  
 30  17  34  1   
 31  18  21  ar  
 32  18  35  1   
 33  19  22  1   
 34  19  36  1   
 35  19  37  1   
 36  20  23  1   
 37  20  38  1   
 38  20  39  1   
 39  21  40  1   
 40  22  24  1   
 41  22  41  1   
 42  22  42  1   
 43  23  24  1   
 44  23  43  1   
 45  23  44  1   
 46  24  25  1   
 47  24  45  1   
 48  25  46  1   
 49  25  47  1   
 50  25  48  1   
@<TRIPOS>SUBSTRUCTURE
  1 ****   8 GROUP 4 **** **** 0

# MOE 2024.06 (io_trps.svl 2023.06)
