@<TRIPOS>MOLECULE
NONAME
52 53 1 0 0 
SMALL
USER_CHARGES


@<TRIPOS>ATOM
  1 O        0.2130     1.6150    -1.7870 O.2   1 <1>  -0.5700 
  2 C        0.0240     1.9140    -0.6370 C.2   1 <1>   0.6590 
  3 O       -1.0810     1.5950     0.0180 O.3   1 <1>  -0.4300 
  4 C        1.0710     2.6960     0.1520 C.3   1 <1>  -0.0190 
  5 C       -2.1200     0.8740    -0.6040 C.3   1 <1>   0.1200 
  6 C        1.3280     4.0710    -0.4880 C.3   1 <1>  -0.1600 
  7 C        2.3870     1.9050     0.2510 C.3   1 <1>  -0.1600 
  8 C       -3.2350     0.6750     0.4180 C.3   1 <1>  -0.2400 
  9 C        2.4740     4.8180     0.1890 C.3   1 <1>   0.3430 
 10 C        3.5010     2.7190     0.9050 C.3   1 <1>   0.3430 
 11 N        3.7280     3.9910     0.1380 N.4   1 <1>  -0.9590 
 12 C        4.9580     4.7410     0.5730 C.3   1 <1>   0.4230 
 13 C        5.1530     6.0040    -0.2850 C.3   1 <1>  -0.1600 
 14 C        6.2060     3.8490     0.4580 C.3   1 <1>  -0.1600 
 15 C        6.4580     6.7310     0.0450 C.3   1 <1>   0.3430 
 16 C        7.4940     4.6110     0.7740 C.3   1 <1>   0.3430 
 17 N        7.6120     5.8070    -0.1070 N.4   1 <1>  -0.9590 
 18 C        8.8860     6.5490     0.1490 C.3   1 <1>   0.3430 
 19 C       10.0840     5.7620    -0.3870 C.3   1 <1>  -0.1600 
 20 C       11.3760     6.5700    -0.2340 C.3   1 <1>  -0.2400 
 21 H        0.6860     2.8470     1.1470 H     1 <1>   0.0800 
 22 H       -1.7280    -0.0720    -0.9380 H     1 <1>   0.0800 
 23 H       -2.4690     1.4390    -1.4520 H     1 <1>   0.0800 
 24 H        0.4320     4.6640    -0.4180 H     1 <1>   0.0800 
 25 H        1.5490     3.9550    -1.5360 H     1 <1>   0.0800 
 26 H        2.7050     1.5930    -0.7300 H     1 <1>   0.0800 
 27 H        2.2190     1.0120     0.8280 H     1 <1>   0.0800 
 28 H       -2.8710     0.1170     1.2620 H     1 <1>   0.0800 
 29 H       -4.0430     0.1260    -0.0310 H     1 <1>   0.0800 
 30 H       -3.6110     1.6270     0.7490 H     1 <1>   0.0800 
 31 H        2.2130     5.0300     1.2140 H     1 <1>   0.0800 
 32 H        2.6130     5.7530    -0.3260 H     1 <1>   0.0800 
 33 H        4.3930     2.1150     0.9150 H     1 <1>   0.0800 
 34 H        3.2340     2.9460     1.9250 H     1 <1>   0.0800 
 35 H        3.8470     3.7130    -0.8470 H     1 <1>   0.4500 
 36 H        4.8410     5.0390     1.6040 H     1 <1>   0.0800 
 37 H        4.3600     6.7050    -0.1040 H     1 <1>   0.0800 
 38 H        5.1510     5.7530    -1.3310 H     1 <1>   0.0800 
 39 H        6.2830     3.4340    -0.5320 H     1 <1>   0.0800 
 40 H        6.1520     3.0380     1.1600 H     1 <1>   0.0800 
 41 H        6.4220     7.1050     1.0570 H     1 <1>   0.0800 
 42 H        6.5750     7.5760    -0.6170 H     1 <1>   0.0800 
 43 H        8.3390     3.9560     0.6240 H     1 <1>   0.0800 
 44 H        7.4940     4.9190     1.8080 H     1 <1>   0.0800 
 45 H        7.6630     5.4970    -1.0890 H     1 <1>   0.4500 
 46 H        9.0100     6.7320     1.2050 H     1 <1>   0.0800 
 47 H        8.8560     7.5040    -0.3530 H     1 <1>   0.0800 
 48 H        9.9430     5.5420    -1.4310 H     1 <1>   0.0800 
 49 H       10.2030     4.8380     0.1500 H     1 <1>   0.0800 
 50 H       11.3200     7.4950    -0.7830 H     1 <1>   0.0800 
 51 H       12.2100     6.0070    -0.6170 H     1 <1>   0.0800 
 52 H       11.5720     6.7930     0.8010 H     1 <1>   0.0800 
@<TRIPOS>BOND
  1   1   2  2   
  2   2   3  1   
  3   2   4  1   
  4   3   5  1   
  5   4   6  1   
  6   4   7  1   
  7   4  21  1   
  8   5   8  1   
  9   5  22  1   
 10   5  23  1   
 11   6   9  1   
 12   6  24  1   
 13   6  25  1   
 14   7  10  1   
 15   7  26  1   
 16   7  27  1   
 17   8  28  1   
 18   8  29  1   
 19   8  30  1   
 20   9  11  1   
 21   9  31  1   
 22   9  32  1   
 23  10  11  1   
 24  10  33  1   
 25  10  34  1   
 26  11  12  1   
 27  11  35  1   
 28  12  13  1   
 29  12  14  1   
 30  12  36  1   
 31  13  15  1   
 32  13  37  1   
 33  13  38  1   
 34  14  16  1   
 35  14  39  1   
 36  14  40  1   
 37  15  17  1   
 38  15  41  1   
 39  15  42  1   
 40  16  17  1   
 41  16  43  1   
 42  16  44  1   
 43  17  18  1   
 44  17  45  1   
 45  18  19  1   
 46  18  46  1   
 47  18  47  1   
 48  19  20  1   
 49  19  48  1   
 50  19  49  1   
 51  20  50  1   
 52  20  51  1   
 53  20  52  1   
@<TRIPOS>SUBSTRUCTURE
  1 ****  11 GROUP 4 **** **** 0

# MOE 2024.06 (io_trps.svl 2023.06)
