@<TRIPOS>MOLECULE
NONAME
40 41 1 0 0 
SMALL
USER_CHARGES


@<TRIPOS>ATOM
  1 F        3.5930     0.2210     2.5430 F     1 <1>  -0.3400 
  2 C        3.5070     1.5140     2.2270 C.3   1 <1>   0.6800 
  3 F        3.8840     2.1350     3.3450 F     1 <1>  -0.3400 
  4 C        2.0340     1.8740     1.9180 C.3   1 <1>   0.6000 
  5 C        4.5320     1.8570     1.1270 C.3   1 <1>   0.1200 
  6 F        1.5670     1.2150     0.8580 F     1 <1>  -0.3400 
  7 F        1.9100     3.1600     1.5890 F     1 <1>  -0.3400 
  8 O        4.3750     1.0580    -0.0420 O.3   1 <1>  -0.4300 
  9 C        5.0490    -0.0660    -0.2390 C.2   1 <1>   0.6590 
 10 O        5.8380    -0.4930     0.5640 O.2   1 <1>  -0.5700 
 11 C        4.8150    -0.7700    -1.5600 C.3   1 <1>  -0.0990 
 12 C        6.1200    -1.3210    -2.1680 C.3   1 <1>  -0.0990 
 13 C        7.1330    -0.2210    -2.4260 C.2   1 <1>   0.5690 
 14 O        7.1620     0.2600    -3.5300 O.2   1 <1>  -0.5700 
 15 N        7.9250     0.1800    -1.3840 N.am  1 <1>  -0.5470 
 16 C        8.9140     1.1760    -1.2810 C.ar  1 <1>   0.1170 
 17 C        9.3040     1.6400     0.0110 C.ar  1 <1>   0.0000 
 18 C        9.5160     1.7140    -2.3980 C.ar  1 <1>  -0.1500 
 19 C       10.2640     2.6770     0.1040 C.ar  1 <1>   0.0000 
 20 C        8.7870     1.1270     1.2250 C.ar  1 <1>  -0.1500 
 21 C       10.4720     2.7230    -2.2990 C.ar  1 <1>  -0.1500 
 22 C       10.8340     3.1970    -1.0710 C.ar  1 <1>  -0.1500 
 23 C       10.6360     3.1660     1.3730 C.ar  1 <1>  -0.1500 
 24 C        9.1680     1.6170     2.4430 C.ar  1 <1>  -0.1500 
 25 C       10.1020     2.6530     2.5200 C.ar  1 <1>  -0.1500 
 26 H        1.3790     1.6770     2.7460 H     1 <1>   0.0800 
 27 H        5.5330     1.7410     1.5040 H     1 <1>   0.0800 
 28 H        4.3990     2.8800     0.8260 H     1 <1>   0.0800 
 29 H        4.3700    -0.0750    -2.2500 H     1 <1>   0.0800 
 30 H        4.1210    -1.5730    -1.3980 H     1 <1>   0.0800 
 31 H        5.8980    -1.8060    -3.1020 H     1 <1>   0.0800 
 32 H        6.5530    -2.0570    -1.5150 H     1 <1>   0.0800 
 33 H        7.6660    -0.2420    -0.4890 H     1 <1>   0.3700 
 34 H        9.2630     1.3690    -3.3830 H     1 <1>   0.1500 
 35 H        8.0770     0.3260     1.2050 H     1 <1>   0.1500 
 36 H       10.9120     3.1180    -3.1980 H     1 <1>   0.1500 
 37 H       11.5670     3.9790    -0.9880 H     1 <1>   0.1500 
 38 H       11.3590     3.9600     1.4230 H     1 <1>   0.1500 
 39 H        8.7600     1.2130     3.3540 H     1 <1>   0.1500 
 40 H       10.3910     3.0300     3.4860 H     1 <1>   0.1500 
@<TRIPOS>BOND
  1   1   2  1   
  2   2   3  1   
  3   2   4  1   
  4   2   5  1   
  5   4   6  1   
  6   4   7  1   
  7   4  26  1   
  8   5   8  1   
  9   5  27  1   
 10   5  28  1   
 11   8   9  1   
 12   9  10  2   
 13   9  11  1   
 14  11  12  1   
 15  11  29  1   
 16  11  30  1   
 17  12  13  1   
 18  12  31  1   
 19  12  32  1   
 20  13  14  2   
 21  13  15  am  
 22  15  16  1   
 23  15  33  1   
 24  16  17  ar  
 25  16  18  ar  
 26  17  19  ar  
 27  17  20  ar  
 28  18  21  ar  
 29  18  34  1   
 30  19  22  ar  
 31  19  23  ar  
 32  20  24  ar  
 33  20  35  1   
 34  21  22  ar  
 35  21  36  1   
 36  22  37  1   
 37  23  25  ar  
 38  23  38  1   
 39  24  25  ar  
 40  24  39  1   
 41  25  40  1   
@<TRIPOS>SUBSTRUCTURE
  1 ****  10 GROUP 4 **** **** 0

# MOE 2024.06 (io_trps.svl 2023.06)
