@<TRIPOS>MOLECULE
NONAME
47 48 1 0 0 
SMALL
USER_CHARGES


@<TRIPOS>ATOM
  1 O        4.4100    -5.3180     0.0230 O.3   1 <1>  -0.3630 
  2 C        5.7630    -5.1860     0.0220 C.ar  1 <1>   0.0830 
  3 C        3.7910    -6.5600     0.2430 C.3   1 <1>   0.1200 
  4 C        6.2850    -3.9080    -0.1580 C.ar  1 <1>  -0.1440 
  5 C        6.6300    -6.2640     0.1920 C.ar  1 <1>  -0.1500 
  6 C        2.2790    -6.3220     0.1970 C.3   1 <1>   0.3430 
  7 C        7.6590    -3.7250    -0.1630 C.ar  1 <1>  -0.1500 
  8 C        5.3690    -2.7080    -0.3490 C.3   1 <1>  -0.0960 
  9 C        7.9990    -6.0650     0.1850 C.ar  1 <1>  -0.1500 
 10 N        1.4790    -7.5830     0.3690 N.4   1 <1>  -0.9590 
 11 C        8.5200    -4.7950     0.0090 C.ar  1 <1>  -0.1430 
 12 C        0.0560    -7.3470    -0.0240 C.3   1 <1>   0.4230 
 13 C        1.6410    -8.1630     1.7460 C.3   1 <1>   0.2630 
 14 C       10.0220    -4.5750    -0.0020 C.3   1 <1>  -0.0970 
 15 C       -0.7050    -6.4640     0.9820 C.3   1 <1>  -0.1600 
 16 C       -0.6620    -8.6860    -0.2330 C.3   1 <1>  -0.1600 
 17 C       -2.1480    -6.2310     0.5100 C.3   1 <1>  -0.1600 
 18 C       -2.1060    -8.4600    -0.7060 C.3   1 <1>  -0.1600 
 19 C       -2.8760    -7.5610     0.2710 C.3   1 <1>  -0.1600 
 20 H        4.1040    -6.9170     1.2070 H     1 <1>   0.0800 
 21 H        4.1010    -7.2280    -0.5410 H     1 <1>   0.0800 
 22 H        6.2710    -7.2640     0.3300 H     1 <1>   0.1500 
 23 H        2.0430    -5.8790    -0.7570 H     1 <1>   0.0800 
 24 H        2.0160    -5.6190     0.9700 H     1 <1>   0.0800 
 25 H        8.0670    -2.7390    -0.3030 H     1 <1>   0.1500 
 26 H        4.7560    -2.8520    -1.2210 H     1 <1>   0.0800 
 27 H        5.9350    -1.8040    -0.4770 H     1 <1>   0.0800 
 28 H        4.7330    -2.5940     0.5100 H     1 <1>   0.0800 
 29 H        8.6600    -6.9040     0.3150 H     1 <1>   0.1500 
 30 H        1.8380    -8.2700    -0.3090 H     1 <1>   0.4500 
 31 H        0.0470    -6.8340    -0.9730 H     1 <1>   0.0800 
 32 H        1.3120    -7.4570     2.4910 H     1 <1>   0.0800 
 33 H        2.6740    -8.4040     1.9360 H     1 <1>   0.0800 
 34 H        1.0600    -9.0650     1.8470 H     1 <1>   0.0800 
 35 H       10.2640    -3.6240     0.4370 H     1 <1>   0.0800 
 36 H       10.3850    -4.5940    -1.0130 H     1 <1>   0.0800 
 37 H       10.5210    -5.3440     0.5610 H     1 <1>   0.0800 
 38 H       -0.2240    -5.5080     1.0850 H     1 <1>   0.0800 
 39 H       -0.7460    -6.9370     1.9470 H     1 <1>   0.0800 
 40 H       -0.6950    -9.2450     0.6850 H     1 <1>   0.0800 
 41 H       -0.1460    -9.2690    -0.9750 H     1 <1>   0.0800 
 42 H       -2.1460    -5.6580    -0.4020 H     1 <1>   0.0800 
 43 H       -2.6840    -5.6600     1.2500 H     1 <1>   0.0800 
 44 H       -2.6120    -9.4070    -0.7930 H     1 <1>   0.0800 
 45 H       -2.1030    -8.0040    -1.6820 H     1 <1>   0.0800 
 46 H       -3.8600    -7.3650    -0.1220 H     1 <1>   0.0800 
 47 H       -3.0010    -8.0750     1.2090 H     1 <1>   0.0800 
@<TRIPOS>BOND
  1   1   2  1   
  2   1   3  1   
  3   2   4  ar  
  4   2   5  ar  
  5   3   6  1   
  6   3  20  1   
  7   3  21  1   
  8   4   7  ar  
  9   4   8  1   
 10   5   9  ar  
 11   5  22  1   
 12   6  10  1   
 13   6  23  1   
 14   6  24  1   
 15   7  11  ar  
 16   7  25  1   
 17   8  26  1   
 18   8  27  1   
 19   8  28  1   
 20   9  11  ar  
 21   9  29  1   
 22  10  12  1   
 23  10  13  1   
 24  10  30  1   
 25  11  14  1   
 26  12  15  1   
 27  12  16  1   
 28  12  31  1   
 29  13  32  1   
 30  13  33  1   
 31  13  34  1   
 32  14  35  1   
 33  14  36  1   
 34  14  37  1   
 35  15  17  1   
 36  15  38  1   
 37  15  39  1   
 38  16  18  1   
 39  16  40  1   
 40  16  41  1   
 41  17  19  1   
 42  17  42  1   
 43  17  43  1   
 44  18  19  1   
 45  18  44  1   
 46  18  45  1   
 47  19  46  1   
 48  19  47  1   
@<TRIPOS>SUBSTRUCTURE
  1 ****   3 GROUP 4 **** **** 0

# MOE 2024.06 (io_trps.svl 2023.06)
