@<TRIPOS>MOLECULE
NONAME
32 33 1 0 0 
SMALL
USER_CHARGES


@<TRIPOS>ATOM
  1 S        0.1880    -0.2270     0.4350 S.3   1 <1>  -0.2860 
  2 C        1.0310     1.3600     0.3950 C.2   1 <1>   0.2420 
  3 C       -1.5970     0.2460     0.4160 C.3   1 <1>   0.0700 
  4 N        0.4410     2.4890     0.3660 N.2   1 <1>  -0.3380 
  5 N        2.3430     1.4950     0.3920 N.pl3 1 <1>   0.3140 
  6 C       -2.4290    -1.0320     0.4550 C.3   1 <1>   0.0700 
  7 N        1.4340     3.3780     0.3450 N.2   1 <1>   0.0000 
  8 N        2.5830     2.7920     0.3610 N.2   1 <1>  -0.4180 
  9 C        3.4010     0.4630     0.4220 C.3   1 <1>   0.0960 
 10 S       -4.2140    -0.5580     0.4360 S.3   1 <1>  -0.2860 
 11 C        3.7350    -0.0320    -0.9910 C.3   1 <1>  -0.2400 
 12 C       -5.0570    -2.1450     0.4920 C.2   1 <1>   0.2430 
 13 N       -4.4670    -3.2740     0.5370 N.2   1 <1>  -0.3380 
 14 N       -6.3690    -2.2800     0.4910 N.pl3 1 <1>   0.3140 
 15 N       -5.4590    -4.1620     0.5670 N.2   1 <1>   0.0000 
 16 N       -6.6090    -3.5760     0.5410 N.2   1 <1>  -0.4180 
 17 C       -7.4260    -1.2490     0.4520 C.3   1 <1>   0.0960 
 18 C       -7.7540    -0.8430    -0.9900 C.3   1 <1>  -0.2400 
 19 H       -1.7710     0.8060    -0.4850 H     1 <1>   0.0800 
 20 H       -1.7750     0.8620     1.2800 H     1 <1>   0.0800 
 21 H       -2.2540    -1.5920     1.3570 H     1 <1>   0.0800 
 22 H       -2.2510    -1.6480    -0.4090 H     1 <1>   0.0800 
 23 H        3.0670    -0.3560     1.0340 H     1 <1>   0.0800 
 24 H        4.2760     0.8920     0.8760 H     1 <1>   0.0800 
 25 H        2.8710    -0.4810    -1.4480 H     1 <1>   0.0800 
 26 H        4.5170    -0.7690    -0.9430 H     1 <1>   0.0800 
 27 H        4.0760     0.7870    -1.6010 H     1 <1>   0.0800 
 28 H       -7.0950    -0.3930     1.0130 H     1 <1>   0.0800 
 29 H       -8.3040    -1.6480     0.9280 H     1 <1>   0.0800 
 30 H       -6.8870    -0.4230    -1.4710 H     1 <1>   0.0800 
 31 H       -8.5350    -0.1040    -0.9920 H     1 <1>   0.0800 
 32 H       -8.0920    -1.6980    -1.5500 H     1 <1>   0.0800 
@<TRIPOS>BOND
  1   1   2  1   
  2   1   3  1   
  3   2   4  2   
  4   2   5  1   
  5   3   6  1   
  6   3  19  1   
  7   3  20  1   
  8   4   7  1   
  9   5   8  1   
 10   5   9  1   
 11   6  10  1   
 12   6  21  1   
 13   6  22  1   
 14   7   8  2   
 15   9  11  1   
 16   9  23  1   
 17   9  24  1   
 18  10  12  1   
 19  11  25  1   
 20  11  26  1   
 21  11  27  1   
 22  12  13  2   
 23  12  14  1   
 24  13  15  1   
 25  14  16  1   
 26  14  17  1   
 27  15  16  2   
 28  17  18  1   
 29  17  28  1   
 30  17  29  1   
 31  18  30  1   
 32  18  31  1   
 33  18  32  1   
@<TRIPOS>SUBSTRUCTURE
  1 ****   3 GROUP 4 **** **** 0

# MOE 2024.06 (io_trps.svl 2023.06)
