@<TRIPOS>MOLECULE
NONAME
42 43 1 0 0 
SMALL
USER_CHARGES


@<TRIPOS>ATOM
  1 O       -1.1960     0.8090    -0.1110 O.2   1 <1>  -0.5700 
  2 C       -1.3460     1.8770    -0.6750 C.2   1 <1>   0.5440 
  3 N       -2.5380     2.0710    -1.3360 N.am  1 <1>  -0.6600 
  4 C       -0.3450     2.9270    -0.5780 C.ar  1 <1>   0.0860 
  5 C       -3.3040     0.8800    -1.8040 C.3   1 <1>   0.1400 
  6 C       -3.4130     3.2050    -0.9280 C.3   1 <1>   0.1400 
  7 C        0.4880     3.0280     0.5340 C.ar  1 <1>  -0.1500 
  8 C       -0.1840     3.8790    -1.5830 C.ar  1 <1>  -0.1500 
  9 C       -4.2380     0.3970    -0.6790 C.3   1 <1>   0.3430 
 10 C       -4.3790     2.7410     0.1840 C.3   1 <1>   0.3430 
 11 C        1.4260     4.0390     0.6620 C.ar  1 <1>  -0.1440 
 12 C        0.7470     4.8930    -1.4690 C.ar  1 <1>  -0.1500 
 13 N       -5.1500     1.4970    -0.1930 N.4   1 <1>  -0.9590 
 14 C        1.5550     4.9850    -0.3470 C.ar  1 <1>  -0.1430 
 15 C        2.2990     4.0850     1.9090 C.3   1 <1>  -0.0970 
 16 C       -5.9970     1.0160     0.9180 C.3   1 <1>   0.4810 
 17 C        2.5700     6.1160    -0.2550 C.3   1 <1>  -0.0970 
 18 C       -7.1520     1.9820     1.0460 C.2   1 <1>  -0.2880 
 19 C       -8.4010     1.7470     0.6290 C.2   1 <1>  -0.3000 
 20 H       -2.6210     0.0890    -2.0660 H     1 <1>   0.0800 
 21 H       -3.8700     1.1310    -2.6830 H     1 <1>   0.0800 
 22 H       -3.9680     3.5590    -1.7800 H     1 <1>   0.0800 
 23 H       -2.8170     4.0230    -0.5610 H     1 <1>   0.0800 
 24 H        0.3920     2.2890     1.3110 H     1 <1>   0.1500 
 25 H       -0.7920     3.8230    -2.4690 H     1 <1>   0.1500 
 26 H       -3.6210     0.0480     0.1340 H     1 <1>   0.0800 
 27 H       -4.8200    -0.4360    -1.0370 H     1 <1>   0.0800 
 28 H       -5.0630     3.5430     0.4100 H     1 <1>   0.0800 
 29 H       -3.7970     2.5450     1.0700 H     1 <1>   0.0800 
 30 H        0.8440     5.6120    -2.2640 H     1 <1>   0.1500 
 31 H       -5.7960     1.7450    -0.9530 H     1 <1>   0.4500 
 32 H        2.0800     3.2630     2.5670 H     1 <1>   0.0800 
 33 H        2.1290     5.0010     2.4450 H     1 <1>   0.0800 
 34 H        3.3360     4.0260     1.6340 H     1 <1>   0.0800 
 35 H       -5.4380     0.9560     1.8380 H     1 <1>   0.0800 
 36 H       -6.3830     0.0370     0.6840 H     1 <1>   0.0800 
 37 H        3.5650     5.7140    -0.2030 H     1 <1>   0.0800 
 38 H        2.3840     6.7090     0.6220 H     1 <1>   0.0800 
 39 H        2.5120     6.7590    -1.1150 H     1 <1>   0.0800 
 40 H       -6.8800     2.9050     1.5280 H     1 <1>   0.1500 
 41 H       -9.2110     2.4510     0.7390 H     1 <1>   0.1500 
 42 H       -8.7370     0.8420     0.1490 H     1 <1>   0.1500 
@<TRIPOS>BOND
  1   1   2  2   
  2   2   3  am  
  3   2   4  1   
  4   3   5  1   
  5   3   6  1   
  6   4   7  ar  
  7   4   8  ar  
  8   5   9  1   
  9   5  20  1   
 10   5  21  1   
 11   6  10  1   
 12   6  22  1   
 13   6  23  1   
 14   7  11  ar  
 15   7  24  1   
 16   8  12  ar  
 17   8  25  1   
 18   9  13  1   
 19   9  26  1   
 20   9  27  1   
 21  10  13  1   
 22  10  28  1   
 23  10  29  1   
 24  11  14  ar  
 25  11  15  1   
 26  12  14  ar  
 27  12  30  1   
 28  13  16  1   
 29  13  31  1   
 30  14  17  1   
 31  15  32  1   
 32  15  33  1   
 33  15  34  1   
 34  16  18  1   
 35  16  35  1   
 36  16  36  1   
 37  17  37  1   
 38  17  38  1   
 39  17  39  1   
 40  18  19  2   
 41  18  40  1   
 42  19  41  1   
 43  19  42  1   
@<TRIPOS>SUBSTRUCTURE
  1 ****   2 GROUP 4 **** **** 0

# MOE 2024.06 (io_trps.svl 2023.06)
