@<TRIPOS>MOLECULE
NONAME
37 38 1 0 0 
SMALL
USER_CHARGES


@<TRIPOS>ATOM
  1 F        1.7600    -1.3030    -2.8940 F     1 <1>  -0.1900 
  2 C        2.3540    -1.4370    -1.7380 C.ar  1 <1>   0.1900 
  3 C        3.6180    -0.9070    -1.5760 C.ar  1 <1>  -0.1500 
  4 C        1.6920    -2.1060    -0.7270 C.ar  1 <1>  -0.1500 
  5 C        4.2610    -1.0420    -0.3520 C.ar  1 <1>   0.1170 
  6 C        2.3310    -2.2450     0.4940 C.ar  1 <1>  -0.1500 
  7 N        5.5500    -0.5090    -0.2080 N.am  1 <1>  -0.5470 
  8 C        3.6010    -1.7190     0.6730 C.ar  1 <1>  -0.1500 
  9 C        6.2900    -0.1810     0.8880 C.2   1 <1>   0.6900 
 10 O        5.8210    -0.1950     2.0100 O.2   1 <1>  -0.5700 
 11 N        7.5730     0.2420     0.6860 N.am  1 <1>  -0.6600 
 12 C        8.6940    -0.6140     0.1870 C.3   1 <1>   0.2200 
 13 C        8.0360     1.4390     1.4320 C.3   1 <1>   0.1400 
 14 C        9.5490     0.2330    -0.7730 C.3   1 <1>  -0.1600 
 15 C        8.2260    -1.9370    -0.4540 C.3   1 <1>  -0.1600 
 16 C        8.8810     2.3150     0.5030 C.3   1 <1>  -0.1600 
 17 C       10.0480     1.5250    -0.1060 C.3   1 <1>  -0.1600 
 18 C        9.3750    -2.9070    -0.7710 C.3   1 <1>  -0.2400 
 19 H        4.0870    -0.3940    -2.3930 H     1 <1>   0.1500 
 20 H        0.7080    -2.5050    -0.8930 H     1 <1>   0.1500 
 21 H        1.8440    -2.7610     1.3040 H     1 <1>   0.1500 
 22 H        6.0310    -0.2540    -1.0640 H     1 <1>   0.3700 
 23 H        4.0830    -1.8420     1.6270 H     1 <1>   0.1500 
 24 H        9.3010    -0.8690     1.0400 H     1 <1>   0.0800 
 25 H        8.6170     1.1240     2.2820 H     1 <1>   0.0800 
 26 H        7.1890     2.0000     1.7920 H     1 <1>   0.0800 
 27 H        8.9650     0.4770    -1.6430 H     1 <1>   0.0800 
 28 H       10.4040    -0.3290    -1.0990 H     1 <1>   0.0800 
 29 H        7.6880    -1.7350    -1.3630 H     1 <1>   0.0800 
 30 H        7.5660    -2.4410     0.2310 H     1 <1>   0.0800 
 31 H        9.2620     3.1560     1.0560 H     1 <1>   0.0800 
 32 H        8.2510     2.6970    -0.2810 H     1 <1>   0.0800 
 33 H       10.5630     2.1340    -0.8290 H     1 <1>   0.0800 
 34 H       10.7480     1.2730     0.6730 H     1 <1>   0.0800 
 35 H       10.0090    -2.5210    -1.5480 H     1 <1>   0.0800 
 36 H        8.9730    -3.8470    -1.1070 H     1 <1>   0.0800 
 37 H        9.9680    -3.0880     0.1080 H     1 <1>   0.0800 
@<TRIPOS>BOND
  1   1   2  1   
  2   2   3  ar  
  3   2   4  ar  
  4   3   5  ar  
  5   3  19  1   
  6   4   6  ar  
  7   4  20  1   
  8   5   7  1   
  9   5   8  ar  
 10   6   8  ar  
 11   6  21  1   
 12   7   9  am  
 13   7  22  1   
 14   8  23  1   
 15   9  10  2   
 16   9  11  am  
 17  11  12  1   
 18  11  13  1   
 19  12  14  1   
 20  12  15  1   
 21  12  24  1   
 22  13  16  1   
 23  13  25  1   
 24  13  26  1   
 25  14  17  1   
 26  14  27  1   
 27  14  28  1   
 28  15  18  1   
 29  15  29  1   
 30  15  30  1   
 31  16  17  1   
 32  16  31  1   
 33  16  32  1   
 34  17  33  1   
 35  17  34  1   
 36  18  35  1   
 37  18  36  1   
 38  18  37  1   
@<TRIPOS>SUBSTRUCTURE
  1 ****   7 GROUP 4 **** **** 0

# MOE 2024.06 (io_trps.svl 2023.06)
