@<TRIPOS>MOLECULE
NONAME
37 38 1 0 0 
SMALL
USER_CHARGES


@<TRIPOS>ATOM
  1 CL       0.2930     0.6130     0.0370 Cl    1 <1>  -0.1770 
  2 C       -0.9230     1.7970    -0.3720 C.ar  1 <1>   0.1770 
  3 C       -2.2520     1.5160    -0.1340 C.ar  1 <1>  -0.1500 
  4 C       -0.5300     2.9990    -0.9250 C.ar  1 <1>  -0.1500 
  5 C       -3.2300     2.4520    -0.4550 C.ar  1 <1>   0.1170 
  6 C       -1.4960     3.9380    -1.2450 C.ar  1 <1>  -0.1500 
  7 N       -4.5880     2.2060    -0.2070 N.am  1 <1>  -0.5470 
  8 C       -2.8380     3.6740    -1.0140 C.ar  1 <1>  -0.1430 
  9 C       -5.3100     1.0480    -0.1450 C.2   1 <1>   0.6900 
 10 C       -3.8680     4.7330    -1.3890 C.3   1 <1>  -0.0960 
 11 O       -4.7990    -0.0250    -0.4060 O.2   1 <1>  -0.5700 
 12 N       -6.6390     1.1250     0.1910 N.am  1 <1>  -0.6600 
 13 C       -7.2100     2.2610     0.9630 C.3   1 <1>   0.1400 
 14 C       -7.5170    -0.0580    -0.0370 C.3   1 <1>   0.1400 
 15 C       -7.8470     3.2750     0.0070 C.3   1 <1>  -0.1600 
 16 C       -8.9850     0.2950    -0.3200 C.3   1 <1>  -0.1600 
 17 C       -9.2040     2.8350    -0.5640 C.3   1 <1>  -0.1600 
 18 C       -9.1870     1.4780    -1.2840 C.3   1 <1>  -0.1600 
 19 H       -2.5190     0.5720     0.3010 H     1 <1>   0.1500 
 20 H        0.5120     3.1930    -1.1000 H     1 <1>   0.1500 
 21 H       -1.1900     4.8750    -1.6770 H     1 <1>   0.1500 
 22 H       -5.1850     3.0220    -0.2130 H     1 <1>   0.3700 
 23 H       -4.5930     4.3190    -2.0670 H     1 <1>   0.0800 
 24 H       -3.4010     5.5720    -1.8720 H     1 <1>   0.0800 
 25 H       -4.3700     5.0890    -0.5070 H     1 <1>   0.0800 
 26 H       -6.4270     2.7370     1.5290 H     1 <1>   0.0800 
 27 H       -7.9360     1.9000     1.6700 H     1 <1>   0.0800 
 28 H       -7.4580    -0.7080     0.8190 H     1 <1>   0.0800 
 29 H       -7.1370    -0.6060    -0.8840 H     1 <1>   0.0800 
 30 H       -7.1690     3.4850    -0.8010 H     1 <1>   0.0800 
 31 H       -7.9990     4.1940     0.5450 H     1 <1>   0.0800 
 32 H       -9.5000     0.4760     0.6060 H     1 <1>   0.0800 
 33 H       -9.4400    -0.5780    -0.7530 H     1 <1>   0.0800 
 34 H       -9.5330     3.5850    -1.2630 H     1 <1>   0.0800 
 35 H       -9.9310     2.8050     0.2290 H     1 <1>   0.0800 
 36 H      -10.1400     1.3530    -1.7700 H     1 <1>   0.0800 
 37 H       -8.4320     1.4680    -2.0520 H     1 <1>   0.0800 
@<TRIPOS>BOND
  1   1   2  1   
  2   2   3  ar  
  3   2   4  ar  
  4   3   5  ar  
  5   3  19  1   
  6   4   6  ar  
  7   4  20  1   
  8   5   7  1   
  9   5   8  ar  
 10   6   8  ar  
 11   6  21  1   
 12   7   9  am  
 13   7  22  1   
 14   8  10  1   
 15   9  11  2   
 16   9  12  am  
 17  10  23  1   
 18  10  24  1   
 19  10  25  1   
 20  12  13  1   
 21  12  14  1   
 22  13  15  1   
 23  13  26  1   
 24  13  27  1   
 25  14  16  1   
 26  14  28  1   
 27  14  29  1   
 28  15  17  1   
 29  15  30  1   
 30  15  31  1   
 31  16  18  1   
 32  16  32  1   
 33  16  33  1   
 34  17  18  1   
 35  17  34  1   
 36  17  35  1   
 37  18  36  1   
 38  18  37  1   
@<TRIPOS>SUBSTRUCTURE
  1 ****   7 GROUP 4 **** **** 0

# MOE 2024.06 (io_trps.svl 2023.06)
