@<TRIPOS>MOLECULE
NONAME
35 36 1 0 0 
SMALL
USER_CHARGES


@<TRIPOS>ATOM
  1 O        0.4590     0.0140    -0.5780 O.3   1 <1>  -0.5600 
  2 C        1.1060    -0.4230     0.5820 C.3   1 <1>   0.1200 
  3 C        0.3460     1.4020    -0.7060 C.3   1 <1>   0.1200 
  4 C        2.5370     0.1450     0.6430 C.3   1 <1>   0.3430 
  5 C        1.7410     2.0540    -0.7060 C.3   1 <1>   0.3430 
  6 N        2.5420     1.6430     0.5050 N.4   1 <1>  -0.9590 
  7 C        3.9260     2.1990     0.5570 C.3   1 <1>   0.4230 
  8 C        3.8710     3.7140     0.7890 C.3   1 <1>  -0.1600 
  9 C        4.7520     1.8670    -0.6970 C.3   1 <1>  -0.1600 
 10 C        5.2870     4.2960     0.9130 C.3   1 <1>  -0.1600 
 11 C        6.1710     2.4420    -0.5740 C.3   1 <1>  -0.1600 
 12 C        6.1430     3.9580    -0.3190 C.3   1 <1>  -0.0800 
 13 C        7.5680     4.4930    -0.1390 C.3   1 <1>  -0.2400 
 14 H        1.1350    -1.4990     0.5520 H     1 <1>   0.0800 
 15 H        0.5270    -0.1200     1.4370 H     1 <1>   0.0800 
 16 H       -0.2620     1.7770     0.0990 H     1 <1>   0.0800 
 17 H       -0.1570     1.6030    -1.6370 H     1 <1>   0.0800 
 18 H        3.1070    -0.2990    -0.1560 H     1 <1>   0.0800 
 19 H        2.9940    -0.1430     1.5750 H     1 <1>   0.0800 
 20 H        1.6320     3.1260    -0.7340 H     1 <1>   0.0800 
 21 H        2.2520     1.7500    -1.6040 H     1 <1>   0.0800 
 22 H        2.0490     2.0160     1.3240 H     1 <1>   0.4500 
 23 H        4.4340     1.7660     1.4050 H     1 <1>   0.0800 
 24 H        3.3320     3.9290     1.6950 H     1 <1>   0.0800 
 25 H        3.3780     4.2040    -0.0310 H     1 <1>   0.0800 
 26 H        4.2990     2.2910    -1.5750 H     1 <1>   0.0800 
 27 H        4.8290     0.8030    -0.8270 H     1 <1>   0.0800 
 28 H        5.7610     3.9050     1.7980 H     1 <1>   0.0800 
 29 H        5.2260     5.3660     1.0240 H     1 <1>   0.0800 
 30 H        6.7180     2.2420    -1.4810 H     1 <1>   0.0800 
 31 H        6.6910     1.9510     0.2320 H     1 <1>   0.0800 
 32 H        5.7130     4.4440    -1.1800 H     1 <1>   0.0800 
 33 H        8.0450     4.0390     0.7110 H     1 <1>   0.0800 
 34 H        7.5510     5.5590     0.0080 H     1 <1>   0.0800 
 35 H        8.1590     4.2860    -1.0140 H     1 <1>   0.0800 
@<TRIPOS>BOND
  1   1   2  1   
  2   1   3  1   
  3   2   4  1   
  4   2  14  1   
  5   2  15  1   
  6   3   5  1   
  7   3  16  1   
  8   3  17  1   
  9   4   6  1   
 10   4  18  1   
 11   4  19  1   
 12   5   6  1   
 13   5  20  1   
 14   5  21  1   
 15   6   7  1   
 16   6  22  1   
 17   7   8  1   
 18   7   9  1   
 19   7  23  1   
 20   8  10  1   
 21   8  24  1   
 22   8  25  1   
 23   9  11  1   
 24   9  26  1   
 25   9  27  1   
 26  10  12  1   
 27  10  28  1   
 28  10  29  1   
 29  11  12  1   
 30  11  30  1   
 31  11  31  1   
 32  12  13  1   
 33  12  32  1   
 34  13  33  1   
 35  13  34  1   
 36  13  35  1   
@<TRIPOS>SUBSTRUCTURE
  1 ****   7 GROUP 4 **** **** 0

# MOE 2024.06 (io_trps.svl 2023.06)
