@<TRIPOS>MOLECULE
NONAME
53 55 1 0 0 
SMALL
USER_CHARGES


@<TRIPOS>ATOM
  1 N       -0.1940    -0.3360    -0.4120 N.4   1 <1>  -0.9590 
  2 C       -1.2360     0.7090    -0.6310 C.3   1 <1>   0.3430 
  3 C       -0.5540    -1.3060     0.6660 C.3   1 <1>   0.3430 
  4 C        1.1210     0.3240    -0.1350 C.3   1 <1>   0.3430 
  5 C       -2.5760     0.0510    -0.9620 C.3   1 <1>  -0.1600 
  6 C       -1.8970    -1.9720     0.3520 C.3   1 <1>  -0.1600 
  7 C        2.2700    -0.6690    -0.3210 C.3   1 <1>  -0.1600 
  8 C       -2.9910    -0.9250     0.1430 C.3   1 <1>   0.4230 
  9 C        3.6230     0.0310    -0.1560 C.3   1 <1>  -0.2400 
 10 N       -4.2530    -1.6040    -0.2280 N.4   1 <1>  -0.9060 
 11 C       -5.4470    -1.1360     0.5040 C.3   1 <1>   0.7100 
 12 C       -6.6240    -2.0350     0.1500 C.ar  1 <1>  -0.1430 
 13 C       -5.6670     0.3390     0.1990 C.ar  1 <1>  -0.1430 
 14 C       -7.5060    -2.3810     1.1650 C.ar  1 <1>  -0.1500 
 15 C       -6.8490    -2.5340    -1.1320 C.ar  1 <1>  -0.1500 
 16 C       -6.1500     0.7770    -1.0300 C.ar  1 <1>  -0.1500 
 17 C       -5.3540     1.2800     1.1730 C.ar  1 <1>  -0.1500 
 18 C       -8.5820    -3.2130     0.9130 C.ar  1 <1>  -0.1500 
 19 C       -7.9260    -3.3660    -1.3820 C.ar  1 <1>  -0.1500 
 20 C       -6.2910     2.1290    -1.2850 C.ar  1 <1>  -0.1500 
 21 C       -5.4960     2.6320     0.9160 C.ar  1 <1>  -0.1500 
 22 C       -8.7920    -3.7070    -0.3600 C.ar  1 <1>  -0.1500 
 23 C       -5.9600     3.0570    -0.3150 C.ar  1 <1>  -0.1500 
 24 H       -0.0600    -0.8530    -1.2950 H     1 <1>   0.4500 
 25 H       -0.9430     1.3560    -1.4450 H     1 <1>   0.0800 
 26 H       -1.3370     1.3170     0.2550 H     1 <1>   0.0800 
 27 H       -0.6130    -0.7910     1.6120 H     1 <1>   0.0800 
 28 H        0.2080    -2.0660     0.7490 H     1 <1>   0.0800 
 29 H        1.1390     0.7220     0.8680 H     1 <1>   0.0800 
 30 H        1.2670     1.1430    -0.8210 H     1 <1>   0.0800 
 31 H       -2.4920    -0.4520    -1.9090 H     1 <1>   0.0800 
 32 H       -3.3050     0.8350    -1.0610 H     1 <1>   0.0800 
 33 H       -2.1550    -2.6100     1.1790 H     1 <1>   0.0800 
 34 H       -1.7820    -2.5860    -0.5250 H     1 <1>   0.0800 
 35 H        2.2300    -1.1000    -1.3070 H     1 <1>   0.0800 
 36 H        2.2140    -1.4590     0.4070 H     1 <1>   0.0800 
 37 H       -3.1300    -0.3780     1.0640 H     1 <1>   0.0800 
 38 H        3.7440     0.8130    -0.8860 H     1 <1>   0.0800 
 39 H        4.4230    -0.6780    -0.2930 H     1 <1>   0.0800 
 40 H        3.7200     0.4570     0.8270 H     1 <1>   0.0800 
 41 H       -4.2150    -2.6180    -0.0830 H     1 <1>   0.4500 
 42 H       -4.4680    -1.4490    -1.2150 H     1 <1>   0.4500 
 43 H       -5.2700    -1.2370     1.5630 H     1 <1>   0.0800 
 44 H       -7.3780    -2.0100     2.1690 H     1 <1>   0.1500 
 45 H       -6.2140    -2.2940    -1.9650 H     1 <1>   0.1500 
 46 H       -6.4370     0.0880    -1.8060 H     1 <1>   0.1500 
 47 H       -5.0060     0.9840     2.1490 H     1 <1>   0.1500 
 48 H       -9.2630    -3.4760     1.7060 H     1 <1>   0.1500 
 49 H       -8.1010    -3.7500    -2.3740 H     1 <1>   0.1500 
 50 H       -6.6700     2.4660    -2.2360 H     1 <1>   0.1500 
 51 H       -5.2590     3.3600     1.6740 H     1 <1>   0.1500 
 52 H       -9.6310    -4.3540    -0.5560 H     1 <1>   0.1500 
 53 H       -6.0760     4.1100    -0.5150 H     1 <1>   0.1500 
@<TRIPOS>BOND
  1   1   2  1   
  2   1   3  1   
  3   1   4  1   
  4   1  24  1   
  5   2   5  1   
  6   2  25  1   
  7   2  26  1   
  8   3   6  1   
  9   3  27  1   
 10   3  28  1   
 11   4   7  1   
 12   4  29  1   
 13   4  30  1   
 14   5   8  1   
 15   5  31  1   
 16   5  32  1   
 17   6   8  1   
 18   6  33  1   
 19   6  34  1   
 20   7   9  1   
 21   7  35  1   
 22   7  36  1   
 23   8  10  1   
 24   8  37  1   
 25   9  38  1   
 26   9  39  1   
 27   9  40  1   
 28  10  11  1   
 29  10  41  1   
 30  10  42  1   
 31  11  12  1   
 32  11  13  1   
 33  11  43  1   
 34  12  14  ar  
 35  12  15  ar  
 36  13  16  ar  
 37  13  17  ar  
 38  14  18  ar  
 39  14  44  1   
 40  15  19  ar  
 41  15  45  1   
 42  16  20  ar  
 43  16  46  1   
 44  17  21  ar  
 45  17  47  1   
 46  18  22  ar  
 47  18  48  1   
 48  19  22  ar  
 49  19  49  1   
 50  20  23  ar  
 51  20  50  1   
 52  21  23  ar  
 53  21  51  1   
 54  22  52  1   
 55  23  53  1   
@<TRIPOS>SUBSTRUCTURE
  1 ****  10 GROUP 4 **** **** 0

# MOE 2024.06 (io_trps.svl 2023.06)
