@<TRIPOS>MOLECULE
NONAME
50 51 1 0 0 
SMALL
USER_CHARGES


@<TRIPOS>ATOM
  1 S       -0.6880     1.5320    -0.2660 S.o2  1 <1>   1.4470 
  2 O       -1.3050     0.4370    -0.9810 O.2   1 <1>  -0.6500 
  3 O       -1.0480     2.8930    -0.5800 O.2   1 <1>  -0.6500 
  4 N       -1.0780     1.3350     1.3510 N.am  1 <1>  -0.9140 
  5 C        1.1150     1.3420    -0.2770 C.ar  1 <1>  -0.0090 
  6 C       -2.4920     1.0230     1.5590 C.3   1 <1>   0.3370 
  7 C        1.7040     0.1180     0.0150 C.ar  1 <1>  -0.1500 
  8 C        1.9530     2.4130    -0.5650 C.ar  1 <1>  -0.1500 
  9 C       -3.4290     2.2210     1.2370 C.2   1 <1>   0.5690 
 10 C       -2.6220     0.5900     3.0210 C.3   1 <1>  -0.2400 
 11 C        3.0800    -0.0470     0.0210 C.ar  1 <1>  -0.1440 
 12 C        3.3290     2.2680    -0.5630 C.ar  1 <1>  -0.1500 
 13 O       -3.3180     3.1880     1.9610 O.2   1 <1>  -0.5700 
 14 N       -4.3250     2.2190     0.1890 N.am  1 <1>  -0.6600 
 15 C        3.9030     1.0350    -0.2700 C.ar  1 <1>   0.0830 
 16 C        3.6770    -1.4100     0.3460 C.3   1 <1>  -0.0970 
 17 C       -4.4350     1.1800    -0.8780 C.3   1 <1>   0.1400 
 18 C       -5.1890     3.4070    -0.0690 C.3   1 <1>   0.1400 
 19 O        5.2460     0.8310    -0.2530 O.3   1 <1>  -0.3620 
 20 C       -5.8890     0.7150    -1.0010 C.3   1 <1>  -0.1600 
 21 C       -6.6530     2.9700    -0.1850 C.3   1 <1>  -0.1600 
 22 C        6.1600     1.8630    -0.5510 C.3   1 <1>   0.0400 
 23 C       -6.8390     1.8940    -1.2660 C.3   1 <1>  -0.0800 
 24 C       -8.2950     1.4170    -1.3110 C.3   1 <1>  -0.2400 
 25 H       -0.9790     2.2750     1.7380 H     1 <1>   0.4200 
 26 H       -2.7570     0.1670     0.9710 H     1 <1>   0.0800 
 27 H        1.0640    -0.7180     0.2410 H     1 <1>   0.1500 
 28 H        1.5240     3.3740    -0.7930 H     1 <1>   0.1500 
 29 H       -2.3390     1.3910     3.6810 H     1 <1>   0.0800 
 30 H       -2.0010    -0.2670     3.2110 H     1 <1>   0.0800 
 31 H       -3.6430     0.3250     3.2300 H     1 <1>   0.0800 
 32 H        3.9340     3.1250    -0.7920 H     1 <1>   0.1500 
 33 H        2.9100    -2.1350     0.5490 H     1 <1>   0.0800 
 34 H        4.3140    -1.3310     1.2090 H     1 <1>   0.0800 
 35 H        4.2660    -1.7550    -0.4850 H     1 <1>   0.0800 
 36 H       -3.8150     0.3280    -0.6850 H     1 <1>   0.0800 
 37 H       -4.1110     1.6090    -1.8120 H     1 <1>   0.0800 
 38 H       -4.8710     3.8770    -0.9840 H     1 <1>   0.0800 
 39 H       -5.0980     4.1310     0.7220 H     1 <1>   0.0800 
 40 H       -6.1700     0.2120    -0.0920 H     1 <1>   0.0800 
 41 H       -5.9620     0.0060    -1.8060 H     1 <1>   0.0800 
 42 H       -7.2560     3.8290    -0.4200 H     1 <1>   0.0800 
 43 H       -6.9750     2.5940     0.7710 H     1 <1>   0.0800 
 44 H        7.1530     1.4580    -0.4800 H     1 <1>   0.0800 
 45 H        6.0360     2.6560     0.1640 H     1 <1>   0.0800 
 46 H        5.9780     2.2110    -1.5520 H     1 <1>   0.0800 
 47 H       -6.5910     2.3250    -2.2220 H     1 <1>   0.0800 
 48 H       -8.5810     0.9800    -0.3710 H     1 <1>   0.0800 
 49 H       -8.4220     0.6810    -2.0850 H     1 <1>   0.0800 
 50 H       -8.9510     2.2440    -1.5190 H     1 <1>   0.0800 
@<TRIPOS>BOND
  1   1   2  2   
  2   1   3  2   
  3   1   4  am  
  4   1   5  1   
  5   4   6  1   
  6   4  25  1   
  7   5   7  ar  
  8   5   8  ar  
  9   6   9  1   
 10   6  10  1   
 11   6  26  1   
 12   7  11  ar  
 13   7  27  1   
 14   8  12  ar  
 15   8  28  1   
 16   9  13  2   
 17   9  14  am  
 18  10  29  1   
 19  10  30  1   
 20  10  31  1   
 21  11  15  ar  
 22  11  16  1   
 23  12  15  ar  
 24  12  32  1   
 25  14  17  1   
 26  14  18  1   
 27  15  19  1   
 28  16  33  1   
 29  16  34  1   
 30  16  35  1   
 31  17  20  1   
 32  17  36  1   
 33  17  37  1   
 34  18  21  1   
 35  18  38  1   
 36  18  39  1   
 37  19  22  1   
 38  20  23  1   
 39  20  40  1   
 40  20  41  1   
 41  21  23  1   
 42  21  42  1   
 43  21  43  1   
 44  22  44  1   
 45  22  45  1   
 46  22  46  1   
 47  23  24  1   
 48  23  47  1   
 49  24  48  1   
 50  24  49  1   
 51  24  50  1   
@<TRIPOS>SUBSTRUCTURE
  1 ****   1 GROUP 4 **** **** 0

# MOE 2024.06 (io_trps.svl 2023.06)
