@<TRIPOS>MOLECULE
NONAME
49 50 1 0 0 
SMALL
USER_CHARGES


@<TRIPOS>ATOM
  1 S       -1.1370     0.3870     1.1010 S.o2  1 <1>   1.4470 
  2 O       -0.3570    -0.1560     2.1900 O.2   1 <1>  -0.6500 
  3 O       -2.1460    -0.4360     0.4690 O.2   1 <1>  -0.6500 
  4 N       -1.9520     1.7380     1.7190 N.am  1 <1>  -0.8490 
  5 C       -0.0700     1.1030    -0.1800 C.ar  1 <1>  -0.0090 
  6 C       -3.2280     1.3600     2.3910 C.3   1 <1>   0.2570 
  7 C       -1.1030     2.5730     2.5670 C.3   1 <1>   0.1960 
  8 C       -0.6130     1.9070    -1.1810 C.ar  1 <1>  -0.1500 
  9 C        1.3040     0.8670    -0.1900 C.ar  1 <1>  -0.1500 
 10 C       -4.4760     1.5830     1.5280 C.2   1 <1>   0.5690 
 11 C       -1.6490     3.9990     2.5890 C.3   1 <1>  -0.2400 
 12 C        0.1850     2.4640    -2.1670 C.ar  1 <1>  -0.1500 
 13 C        2.1180     1.4160    -1.1680 C.ar  1 <1>  -0.1500 
 14 O       -5.3900     2.2110     2.0080 O.2   1 <1>  -0.5700 
 15 N       -4.5120     1.0580     0.2650 N.am  1 <1>  -0.5470 
 16 C        1.5410     2.2070    -2.1400 C.ar  1 <1>   0.1900 
 17 C       -5.5120     1.1510    -0.7150 C.ar  1 <1>   0.1170 
 18 F        2.3010     2.7290    -3.0630 F     1 <1>  -0.1900 
 19 C       -6.0980    -0.0200    -1.2080 C.ar  1 <1>  -0.1430 
 20 C       -5.9120     2.3870    -1.2350 C.ar  1 <1>  -0.1430 
 21 C       -7.0750     0.0570    -2.1860 C.ar  1 <1>  -0.1500 
 22 C       -5.6990    -1.4050    -0.7020 C.3   1 <1>  -0.0170 
 23 C       -6.8970     2.4400    -2.2080 C.ar  1 <1>  -0.1500 
 24 C       -5.2940     3.7020    -0.7740 C.3   1 <1>  -0.0970 
 25 C       -7.4790     1.2810    -2.6830 C.ar  1 <1>  -0.1500 
 26 C       -4.5670    -1.9860    -1.5530 C.3   1 <1>  -0.2400 
 27 H       -3.3620     1.9400     3.2870 H     1 <1>   0.0800 
 28 H       -3.2020     0.3280     2.6980 H     1 <1>   0.0800 
 29 H       -0.1030     2.6060     2.1640 H     1 <1>   0.0800 
 30 H       -1.0440     2.1640     3.5630 H     1 <1>   0.0800 
 31 H       -1.6740     2.0980    -1.1880 H     1 <1>   0.1500 
 32 H        1.7420     0.2450     0.5740 H     1 <1>   0.1500 
 33 H       -1.7060     4.3870     1.5880 H     1 <1>   0.0800 
 34 H       -0.9880     4.6270     3.1580 H     1 <1>   0.0800 
 35 H       -2.6220     4.0430     3.0410 H     1 <1>   0.0800 
 36 H       -0.2320     3.0840    -2.9410 H     1 <1>   0.1500 
 37 H        3.1790     1.2350    -1.1790 H     1 <1>   0.1500 
 38 H       -3.7620     0.3880     0.0560 H     1 <1>   0.3700 
 39 H       -7.5300    -0.8400    -2.5670 H     1 <1>   0.1500 
 40 H       -6.5500    -2.0620    -0.7500 H     1 <1>   0.0800 
 41 H       -5.3980    -1.3630     0.3290 H     1 <1>   0.0800 
 42 H       -7.2180     3.3870    -2.6030 H     1 <1>   0.1500 
 43 H       -5.4350     4.4710    -1.5110 H     1 <1>   0.0800 
 44 H       -5.7580     4.0190     0.1430 H     1 <1>   0.0800 
 45 H       -4.2380     3.5890    -0.6090 H     1 <1>   0.0800 
 46 H       -8.2420     1.3310    -3.4390 H     1 <1>   0.1500 
 47 H       -4.8860    -2.0880    -2.5750 H     1 <1>   0.0800 
 48 H       -4.2820    -2.9530    -1.1790 H     1 <1>   0.0800 
 49 H       -3.7090    -1.3390    -1.5260 H     1 <1>   0.0800 
@<TRIPOS>BOND
  1   1   2  2   
  2   1   3  2   
  3   1   4  am  
  4   1   5  1   
  5   4   6  1   
  6   4   7  1   
  7   5   8  ar  
  8   5   9  ar  
  9   6  10  1   
 10   6  27  1   
 11   6  28  1   
 12   7  11  1   
 13   7  29  1   
 14   7  30  1   
 15   8  12  ar  
 16   8  31  1   
 17   9  13  ar  
 18   9  32  1   
 19  10  14  2   
 20  10  15  am  
 21  11  33  1   
 22  11  34  1   
 23  11  35  1   
 24  12  16  ar  
 25  12  36  1   
 26  13  16  ar  
 27  13  37  1   
 28  15  17  1   
 29  15  38  1   
 30  16  18  1   
 31  17  19  ar  
 32  17  20  ar  
 33  19  21  ar  
 34  19  22  1   
 35  20  23  ar  
 36  20  24  1   
 37  21  25  ar  
 38  21  39  1   
 39  22  26  1   
 40  22  40  1   
 41  22  41  1   
 42  23  25  ar  
 43  23  42  1   
 44  24  43  1   
 45  24  44  1   
 46  24  45  1   
 47  25  46  1   
 48  26  47  1   
 49  26  48  1   
 50  26  49  1   
@<TRIPOS>SUBSTRUCTURE
  1 ****  15 GROUP 4 **** **** 0

# MOE 2024.06 (io_trps.svl 2023.06)
