@<TRIPOS>MOLECULE
NONAME
43 44 1 0 0 
SMALL
USER_CHARGES


@<TRIPOS>ATOM
  1 S       -0.0440    -0.0830    -0.1630 S.o2  1 <1>   1.3330 
  2 O        0.3890    -0.8380     0.9920 O.2   1 <1>  -0.6500 
  3 O        0.3160    -0.5270    -1.4910 O.2   1 <1>  -0.6500 
  4 N       -1.7350     0.0140    -0.0970 N.am  1 <1>  -0.8490 
  5 C        0.4620     1.6320     0.0110 C.3   1 <1>  -0.0550 
  6 C       -2.3570    -1.0930    -0.8430 C.3   1 <1>   0.1960 
  7 C       -2.2530     0.0720     1.2710 C.3   1 <1>   0.1960 
  8 C        1.9860     1.8350    -0.0270 C.3   1 <1>  -0.1600 
  9 C       -3.8750    -1.1860    -0.6070 C.3   1 <1>  -0.1600 
 10 C       -3.7270     0.5040     1.2540 C.3   1 <1>  -0.1600 
 11 C        2.3550     3.3140     0.1270 C.3   1 <1>  -0.2400 
 12 C       -4.4580     0.1260    -0.0540 C.3   1 <1>  -0.0190 
 13 C       -5.9710     0.0500     0.1400 C.2   1 <1>   0.5690 
 14 O       -6.4210    -0.8120     0.8550 O.2   1 <1>  -0.5700 
 15 N       -6.7420     0.9800    -0.5040 N.am  1 <1>  -0.5470 
 16 C       -8.1340     1.1640    -0.5370 C.ar  1 <1>   0.1170 
 17 C       -8.6290     2.4080    -0.9080 C.ar  1 <1>  -0.1500 
 18 C       -9.0460     0.1530    -0.2320 C.ar  1 <1>  -0.1500 
 19 C       -9.9940     2.6070    -0.9570 C.ar  1 <1>   0.1900 
 20 C      -10.4140     0.3700    -0.2850 C.ar  1 <1>  -0.1500 
 21 F      -10.4440     3.7820    -1.3060 F     1 <1>  -0.1900 
 22 C      -10.9020     1.6130    -0.6520 C.ar  1 <1>  -0.1500 
 23 H        0.0880     2.0150     0.9400 H     1 <1>   0.0800 
 24 H        0.0170     2.2020    -0.7810 H     1 <1>   0.0800 
 25 H       -1.8980    -2.0280    -0.5640 H     1 <1>   0.0800 
 26 H       -2.1730    -0.9400    -1.8940 H     1 <1>   0.0800 
 27 H       -1.6850     0.7710     1.8620 H     1 <1>   0.0800 
 28 H       -2.1590    -0.9000     1.7300 H     1 <1>   0.0800 
 29 H        2.3710     1.4640    -0.9630 H     1 <1>   0.0800 
 30 H        2.4420     1.2660     0.7660 H     1 <1>   0.0800 
 31 H       -4.0680    -1.9810     0.0930 H     1 <1>   0.0800 
 32 H       -4.3620    -1.4530    -1.5290 H     1 <1>   0.0800 
 33 H       -3.7890     1.5680     1.3970 H     1 <1>   0.0800 
 34 H       -4.2140     0.0420     2.0960 H     1 <1>   0.0800 
 35 H        1.9280     3.8960    -0.6710 H     1 <1>   0.0800 
 36 H        3.4250     3.4280     0.0940 H     1 <1>   0.0800 
 37 H        2.0010     3.6970     1.0670 H     1 <1>   0.0800 
 38 H       -4.2460     0.8920    -0.7790 H     1 <1>   0.0800 
 39 H       -6.2160     1.6830    -1.0190 H     1 <1>   0.3700 
 40 H       -7.9700     3.2190    -1.1530 H     1 <1>   0.1500 
 41 H       -8.6920    -0.8220     0.0500 H     1 <1>   0.1500 
 42 H      -11.0950    -0.4270    -0.0410 H     1 <1>   0.1500 
 43 H      -11.9580     1.8080    -0.7010 H     1 <1>   0.1500 
@<TRIPOS>BOND
  1   1   2  2   
  2   1   3  2   
  3   1   4  am  
  4   1   5  1   
  5   4   6  1   
  6   4   7  1   
  7   5   8  1   
  8   5  23  1   
  9   5  24  1   
 10   6   9  1   
 11   6  25  1   
 12   6  26  1   
 13   7  10  1   
 14   7  27  1   
 15   7  28  1   
 16   8  11  1   
 17   8  29  1   
 18   8  30  1   
 19   9  12  1   
 20   9  31  1   
 21   9  32  1   
 22  10  12  1   
 23  10  33  1   
 24  10  34  1   
 25  11  35  1   
 26  11  36  1   
 27  11  37  1   
 28  12  13  1   
 29  12  38  1   
 30  13  14  2   
 31  13  15  am  
 32  15  16  1   
 33  15  39  1   
 34  16  17  ar  
 35  16  18  ar  
 36  17  19  ar  
 37  17  40  1   
 38  18  20  ar  
 39  18  41  1   
 40  19  21  1   
 41  19  22  ar  
 42  20  22  ar  
 43  20  42  1   
 44  22  43  1   
@<TRIPOS>SUBSTRUCTURE
  1 ****  12 GROUP 4 **** **** 0

# MOE 2024.06 (io_trps.svl 2023.06)
