@<TRIPOS>MOLECULE
NONAME
34 36 1 0 0 
SMALL
USER_CHARGES


@<TRIPOS>ATOM
  1 BR      -0.2960    -1.9130    -1.8930 Br    1 <1>  -0.1110 
  2 C       -1.9270    -1.9410    -0.8810 C.ar  1 <1>   0.1110 
  3 C       -3.0080    -1.2130    -1.3420 C.ar  1 <1>  -0.1500 
  4 C       -1.9720    -2.6920     0.2860 C.ar  1 <1>  -0.1500 
  5 C       -4.1780    -1.2460    -0.5950 C.ar  1 <1>   0.0860 
  6 C       -3.1450    -2.7180     1.0230 C.ar  1 <1>  -0.1500 
  7 C       -5.4620    -0.6280    -0.7710 C.2   1 <1>   0.5440 
  8 C       -4.2460    -1.9910     0.5760 C.ar  1 <1>   0.0860 
  9 O       -5.8080     0.1080    -1.6710 O.2   1 <1>  -0.5700 
 10 N       -6.2710    -0.9860     0.2720 N.am  1 <1>  -0.4200 
 11 C       -5.5710    -1.8200     1.1010 C.2   1 <1>   0.5440 
 12 C       -7.7530    -0.9670     0.2040 C.3   1 <1>   0.2010 
 13 O       -6.0340    -2.3060     2.1130 O.2   1 <1>  -0.5700 
 14 C       -8.3410    -2.1850    -0.5190 C.2   1 <1>   0.5690 
 15 O       -7.5850    -2.9690    -1.0510 O.2   1 <1>  -0.5700 
 16 N       -9.7020    -2.3770    -0.5610 N.am  1 <1>  -0.6600 
 17 C      -10.3000    -3.5630    -1.2490 C.3   1 <1>   0.1400 
 18 C      -10.7350    -1.5020     0.0740 C.3   1 <1>   0.1400 
 19 C      -11.2930    -4.2830    -0.3220 C.3   1 <1>   0.1200 
 20 C      -11.6980    -2.3410     0.9320 C.3   1 <1>   0.1200 
 21 O      -12.2440    -3.3850     0.1780 O.3   1 <1>  -0.5600 
 22 H       -2.9520    -0.6390    -2.2510 H     1 <1>   0.1500 
 23 H       -1.1050    -3.2440     0.6040 H     1 <1>   0.1500 
 24 H       -3.2210    -3.2910     1.9320 H     1 <1>   0.1500 
 25 H       -8.0660    -0.0770    -0.3100 H     1 <1>   0.0800 
 26 H       -8.1350    -0.9400     1.2080 H     1 <1>   0.0800 
 27 H       -9.5350    -4.2570    -1.5510 H     1 <1>   0.0800 
 28 H      -10.8150    -3.2360    -2.1350 H     1 <1>   0.0800 
 29 H      -11.2990    -1.0070    -0.6980 H     1 <1>   0.0800 
 30 H      -10.2850    -0.7460     0.6910 H     1 <1>   0.0800 
 31 H      -10.7750    -4.7370     0.5050 H     1 <1>   0.0800 
 32 H      -11.8170    -5.0500    -0.8640 H     1 <1>   0.0800 
 33 H      -12.5110    -1.7310     1.2840 H     1 <1>   0.0800 
 34 H      -11.1860    -2.7600     1.7810 H     1 <1>   0.0800 
@<TRIPOS>BOND
  1   1   2  1   
  2   2   3  ar  
  3   2   4  ar  
  4   3   5  ar  
  5   3  22  1   
  6   4   6  ar  
  7   4  23  1   
  8   5   7  1   
  9   5   8  ar  
 10   6   8  ar  
 11   6  24  1   
 12   7   9  2   
 13   7  10  am  
 14   8  11  1   
 15  10  11  am  
 16  10  12  1   
 17  11  13  2   
 18  12  14  1   
 19  12  25  1   
 20  12  26  1   
 21  14  15  2   
 22  14  16  am  
 23  16  17  1   
 24  16  18  1   
 25  17  19  1   
 26  17  27  1   
 27  17  28  1   
 28  18  20  1   
 29  18  29  1   
 30  18  30  1   
 31  19  21  1   
 32  19  31  1   
 33  19  32  1   
 34  20  21  1   
 35  20  33  1   
 36  20  34  1   
@<TRIPOS>SUBSTRUCTURE
  1 ****  10 GROUP 4 **** **** 0

# MOE 2024.06 (io_trps.svl 2023.06)
