@<TRIPOS>MOLECULE
NONAME
36 37 1 0 0 
SMALL
USER_CHARGES


@<TRIPOS>ATOM
  1 S        0.6130     1.2610     0.7490 S.3   1 <1>  -0.3320 
  2 C       -1.1590     1.5320     0.5450 C.ar  1 <1>   0.1020 
  3 C        1.2900     0.6240    -0.8640 C.3   1 <1>   0.2110 
  4 C       -1.7960     2.2340     1.5520 C.ar  1 <1>  -0.1500 
  5 C       -1.8730     1.0680    -0.5490 C.ar  1 <1>  -0.1500 
  6 C        2.6490    -0.0700    -0.6680 C.2   1 <1>   0.5690 
  7 C        1.2960     1.7820    -1.8750 C.3   1 <1>  -0.2400 
  8 C       -3.1540     2.4850     1.4630 C.ar  1 <1>  -0.1500 
  9 C       -3.2320     1.3230    -0.6320 C.ar  1 <1>  -0.1500 
 10 O        2.7060    -1.2350    -0.9960 O.2   1 <1>  -0.5700 
 11 N        3.7710     0.5650    -0.1840 N.am  1 <1>  -0.6600 
 12 C       -3.8770     2.0330     0.3700 C.ar  1 <1>  -0.1430 
 13 C        3.9000     1.9640     0.2870 C.3   1 <1>   0.1400 
 14 C        5.0480    -0.1630    -0.0100 C.3   1 <1>   0.1400 
 15 C       -5.3670     2.3080     0.2750 C.3   1 <1>  -0.0970 
 16 C        5.2360     2.0080     1.0200 C.3   1 <1>  -0.1600 
 17 C        6.0660     0.9060     0.3710 C.3   1 <1>  -0.1600 
 18 H        0.6040    -0.1340    -1.1900 H     1 <1>   0.0800 
 19 H       -1.2300     2.5810     2.3980 H     1 <1>   0.1500 
 20 H       -1.4030     0.5110    -1.3330 H     1 <1>   0.1500 
 21 H        1.8770     2.6070    -1.5110 H     1 <1>   0.0800 
 22 H        0.2950     2.1280    -2.0570 H     1 <1>   0.0800 
 23 H        1.7160     1.4470    -2.8070 H     1 <1>   0.0800 
 24 H       -3.6450     3.0310     2.2490 H     1 <1>   0.1500 
 25 H       -3.7880     0.9630    -1.4800 H     1 <1>   0.1500 
 26 H        3.0960     2.2440     0.9430 H     1 <1>   0.0800 
 27 H        3.9300     2.6220    -0.5640 H     1 <1>   0.0800 
 28 H        5.3250    -0.6740    -0.9170 H     1 <1>   0.0800 
 29 H        4.9340    -0.8800     0.7850 H     1 <1>   0.0800 
 30 H       -5.6100     3.2370     0.7600 H     1 <1>   0.0800 
 31 H       -5.9140     1.5140     0.7500 H     1 <1>   0.0800 
 32 H       -5.6730     2.3740    -0.7540 H     1 <1>   0.0800 
 33 H        5.0700     1.7770     2.0580 H     1 <1>   0.0800 
 34 H        5.7030     2.9740     0.9450 H     1 <1>   0.0800 
 35 H        6.5340     1.2770    -0.5250 H     1 <1>   0.0800 
 36 H        6.8230     0.5190     1.0280 H     1 <1>   0.0800 
@<TRIPOS>BOND
  1   1   2  1   
  2   1   3  1   
  3   2   4  ar  
  4   2   5  ar  
  5   3   6  1   
  6   3   7  1   
  7   3  18  1   
  8   4   8  ar  
  9   4  19  1   
 10   5   9  ar  
 11   5  20  1   
 12   6  10  2   
 13   6  11  am  
 14   7  21  1   
 15   7  22  1   
 16   7  23  1   
 17   8  12  ar  
 18   8  24  1   
 19   9  12  ar  
 20   9  25  1   
 21  11  13  1   
 22  11  14  1   
 23  12  15  1   
 24  13  16  1   
 25  13  26  1   
 26  13  27  1   
 27  14  17  1   
 28  14  28  1   
 29  14  29  1   
 30  15  30  1   
 31  15  31  1   
 32  15  32  1   
 33  16  17  1   
 34  16  33  1   
 35  16  34  1   
 36  17  35  1   
 37  17  36  1   
@<TRIPOS>SUBSTRUCTURE
  1 ****   1 GROUP 4 **** **** 0

# MOE 2024.06 (io_trps.svl 2023.06)
