@<TRIPOS>MOLECULE
NONAME
39 39 1 0 0 
SMALL
USER_CHARGES


@<TRIPOS>ATOM
  1 O       -0.1780     1.4800    -0.1390 O.2   1 <1>  -0.5700 
  2 C        0.5950     2.2750     0.3610 C.2   1 <1>   0.5440 
  3 N        0.0560     3.2600     1.1450 N.am  1 <1>  -0.7300 
  4 C        2.0230     2.2060     0.1050 C.ar  1 <1>   0.0860 
  5 C       -1.2970     3.2450     1.7820 C.3   1 <1>   0.1400 
  6 C        2.5150     1.6050    -1.0560 C.ar  1 <1>  -0.1500 
  7 C        2.9650     2.7300     0.9960 C.ar  1 <1>  -0.1500 
  8 C       -2.4110     3.7290     0.8300 C.3   1 <1>   0.3430 
  9 C        3.8690     1.5430    -1.3210 C.ar  1 <1>  -0.1500 
 10 C        4.3230     2.6730     0.7380 C.ar  1 <1>  -0.1500 
 11 N       -2.5790     2.8090    -0.3350 N.4   1 <1>  -0.9590 
 12 C        4.7860     2.0780    -0.4320 C.ar  1 <1>   0.0830 
 13 C       -3.0290     3.5170    -1.5670 C.3   1 <1>   0.2630 
 14 C       -3.4410     1.6310    -0.0220 C.3   1 <1>   0.2630 
 15 O        6.0920     1.9790    -0.7670 O.3   1 <1>  -0.3630 
 16 C        7.1170     2.4540     0.0750 C.3   1 <1>   0.2580 
 17 C        8.4470     2.1710    -0.5960 C.2   1 <1>  -0.2880 
 18 C        9.4480     1.4600    -0.0670 C.2   1 <1>  -0.3000 
 19 H        0.6970     3.9770     1.4990 H     1 <1>   0.3700 
 20 H       -1.2750     3.8860     2.6470 H     1 <1>   0.0800 
 21 H       -1.5200     2.2480     2.1240 H     1 <1>   0.0800 
 22 H        1.8230     1.1770    -1.7610 H     1 <1>   0.1500 
 23 H        2.6380     3.1820     1.9150 H     1 <1>   0.1500 
 24 H       -2.1470     4.7140     0.4820 H     1 <1>   0.0800 
 25 H       -3.3410     3.8060     1.3690 H     1 <1>   0.0800 
 26 H        4.2290     1.0770    -2.2220 H     1 <1>   0.1500 
 27 H        5.0050     3.0910     1.4540 H     1 <1>   0.1500 
 28 H       -1.6230     2.4170    -0.5080 H     1 <1>   0.4500 
 29 H       -4.0110     3.9380    -1.4210 H     1 <1>   0.0800 
 30 H       -3.0650     2.8310    -2.3970 H     1 <1>   0.0800 
 31 H       -2.3420     4.3110    -1.8110 H     1 <1>   0.0800 
 32 H       -4.4430     1.9480     0.2140 H     1 <1>   0.0800 
 33 H       -3.0370     1.0880     0.8170 H     1 <1>   0.0800 
 34 H       -3.4770     0.9640    -0.8690 H     1 <1>   0.0800 
 35 H        7.0480     1.9430     1.0200 H     1 <1>   0.0800 
 36 H        6.9830     3.5130     0.2110 H     1 <1>   0.0800 
 37 H        8.5030     2.6120    -1.5770 H     1 <1>   0.1500 
 38 H       10.3810     1.2740    -0.5720 H     1 <1>   0.1500 
 39 H        9.4240     1.0030     0.9070 H     1 <1>   0.1500 
@<TRIPOS>BOND
  1   1   2  2   
  2   2   3  am  
  3   2   4  1   
  4   3   5  1   
  5   3  19  1   
  6   4   6  ar  
  7   4   7  ar  
  8   5   8  1   
  9   5  20  1   
 10   5  21  1   
 11   6   9  ar  
 12   6  22  1   
 13   7  10  ar  
 14   7  23  1   
 15   8  11  1   
 16   8  24  1   
 17   8  25  1   
 18   9  12  ar  
 19   9  26  1   
 20  10  12  ar  
 21  10  27  1   
 22  11  13  1   
 23  11  14  1   
 24  11  28  1   
 25  12  15  1   
 26  13  29  1   
 27  13  30  1   
 28  13  31  1   
 29  14  32  1   
 30  14  33  1   
 31  14  34  1   
 32  15  16  1   
 33  16  17  1   
 34  16  35  1   
 35  16  36  1   
 36  17  18  2   
 37  17  37  1   
 38  18  38  1   
 39  18  39  1   
@<TRIPOS>SUBSTRUCTURE
  1 ****   4 GROUP 4 **** **** 0

# MOE 2024.06 (io_trps.svl 2023.06)
