@<TRIPOS>MOLECULE
NONAME
29 30 1 0 0 
SMALL
USER_CHARGES


@<TRIPOS>ATOM
  1 CL      -1.5500     0.7390    -1.6920 Cl    1 <1>  -0.1770 
  2 C       -0.6810     2.0540    -0.9310 C.ar  1 <1>   0.1770 
  3 C        0.4560     2.5760    -1.5280 C.ar  1 <1>   0.1770 
  4 C       -1.1520     2.5710     0.2680 C.ar  1 <1>  -0.1440 
  5 CL       1.0410     1.9300    -3.0410 Cl    1 <1>  -0.1770 
  6 C        1.1400     3.6190    -0.9340 C.ar  1 <1>  -0.1500 
  7 C       -0.4590     3.6180     0.8630 C.ar  1 <1>  -0.1500 
  8 C       -2.3980     1.9940     0.9150 C.3   1 <1>   0.4870 
  9 C        0.6790     4.1390     0.2640 C.ar  1 <1>  -0.1500 
 10 N       -3.5920     2.3610     0.1090 N.4   1 <1>  -0.9590 
 11 C       -3.8040     3.8400    -0.0520 C.3   1 <1>   0.3430 
 12 C       -4.8510     1.6800     0.5610 C.3   1 <1>   0.3430 
 13 C       -5.0450     4.1400    -0.9250 C.3   1 <1>   0.1200 
 14 C       -6.0690     2.1150    -0.2880 C.3   1 <1>   0.1200 
 15 O       -5.6790     2.9580    -1.3370 O.3   1 <1>  -0.5600 
 16 H        2.0230     4.0170    -1.4060 H     1 <1>   0.1500 
 17 H       -0.7870     4.0400     1.8000 H     1 <1>   0.1500 
 18 H       -2.4980     2.3720     1.9190 H     1 <1>   0.0800 
 19 H       -2.3040     0.9210     0.9640 H     1 <1>   0.0800 
 20 H        1.2140     4.9510     0.7330 H     1 <1>   0.1500 
 21 H       -3.4360     2.0130    -0.8520 H     1 <1>   0.4500 
 22 H       -2.9390     4.2900    -0.5120 H     1 <1>   0.0800 
 23 H       -3.9360     4.3020     0.9120 H     1 <1>   0.0800 
 24 H       -5.0490     1.9120     1.5950 H     1 <1>   0.0800 
 25 H       -4.7380     0.6110     0.4840 H     1 <1>   0.0800 
 26 H       -4.7540     4.6790    -1.8100 H     1 <1>   0.0800 
 27 H       -5.7560     4.7420    -0.3850 H     1 <1>   0.0800 
 28 H       -6.7930     2.6320     0.3190 H     1 <1>   0.0800 
 29 H       -6.5470     1.2530    -0.7190 H     1 <1>   0.0800 
@<TRIPOS>BOND
  1   1   2  1   
  2   2   3  ar  
  3   2   4  ar  
  4   3   5  1   
  5   3   6  ar  
  6   4   7  ar  
  7   4   8  1   
  8   6   9  ar  
  9   6  16  1   
 10   7   9  ar  
 11   7  17  1   
 12   8  10  1   
 13   8  18  1   
 14   8  19  1   
 15   9  20  1   
 16  10  11  1   
 17  10  12  1   
 18  10  21  1   
 19  11  13  1   
 20  11  22  1   
 21  11  23  1   
 22  12  14  1   
 23  12  24  1   
 24  12  25  1   
 25  13  15  1   
 26  13  26  1   
 27  13  27  1   
 28  14  15  1   
 29  14  28  1   
 30  14  29  1   
@<TRIPOS>SUBSTRUCTURE
  1 ****   4 GROUP 4 **** **** 0

# MOE 2024.06 (io_trps.svl 2023.06)
