@<TRIPOS>MOLECULE
NONAME
40 41 1 0 0 
SMALL
USER_CHARGES


@<TRIPOS>ATOM
  1 O       -1.0980     2.5870    -2.1140 O.2   1 <1>  -0.5700 
  2 C       -0.3210     2.5970    -1.1860 C.2   1 <1>   0.5690 
  3 N       -0.7040     2.1850     0.0700 N.am  1 <1>  -0.6600 
  4 C        1.0860     3.1190    -1.4670 C.3   1 <1>   0.1810 
  5 C       -2.0580     1.6100     0.3250 C.3   1 <1>   0.1400 
  6 C        0.1730     2.1800     1.2820 C.3   1 <1>   0.1400 
  7 O        2.0750     2.1690    -1.0990 O.3   1 <1>  -0.3620 
  8 C       -2.6750     2.2060     1.6010 C.3   1 <1>   0.1200 
  9 C       -0.5770     2.7350     2.5050 C.3   1 <1>   0.1200 
 10 C        3.3650     2.5450    -0.9040 C.ar  1 <1>   0.0820 
 11 O       -1.7970     2.0750     2.6840 O.3   1 <1>  -0.5600 
 12 C        4.1640     1.7760    -0.0570 C.ar  1 <1>  -0.1440 
 13 C        3.8930     3.6740    -1.5260 C.ar  1 <1>  -0.1500 
 14 C        5.4770     2.1730     0.1630 C.ar  1 <1>  -0.1500 
 15 C        3.6290     0.5140     0.6340 C.3   1 <1>   0.0630 
 16 C        5.2020     4.0510    -1.2960 C.ar  1 <1>  -0.1500 
 17 C        5.9940     3.3010    -0.4480 C.ar  1 <1>  -0.1500 
 18 C        3.6240     0.6880     2.1570 C.3   1 <1>  -0.2400 
 19 C        4.4430    -0.7210     0.2340 C.3   1 <1>  -0.2400 
 20 H        1.2450     4.0200    -0.9040 H     1 <1>   0.0800 
 21 H        1.1920     3.3200    -2.5170 H     1 <1>   0.0800 
 22 H       -1.9720     0.5440     0.4380 H     1 <1>   0.0800 
 23 H       -2.7140     1.8020    -0.5060 H     1 <1>   0.0800 
 24 H        1.0560     2.7710     1.1230 H     1 <1>   0.0800 
 25 H        0.4820     1.1700     1.4870 H     1 <1>   0.0800 
 26 H       -3.5840     1.6870     1.8500 H     1 <1>   0.0800 
 27 H       -2.8990     3.2490     1.4600 H     1 <1>   0.0800 
 28 H       -0.7690     3.7870     2.3860 H     1 <1>   0.0800 
 29 H        0.0090     2.5890     3.3950 H     1 <1>   0.0800 
 30 H        3.3020     4.2660    -2.2000 H     1 <1>   0.1500 
 31 H        6.1120     1.6010     0.8160 H     1 <1>   0.1500 
 32 H        2.6150     0.3290     0.3290 H     1 <1>   0.0800 
 33 H        5.6070     4.9250    -1.7770 H     1 <1>   0.1500 
 34 H        7.0140     3.5910    -0.2660 H     1 <1>   0.1500 
 35 H        4.6250     0.7930     2.5340 H     1 <1>   0.0800 
 36 H        3.1680    -0.1650     2.6270 H     1 <1>   0.0800 
 37 H        3.0650     1.5670     2.4230 H     1 <1>   0.0800 
 38 H        5.4590    -0.6450     0.5750 H     1 <1>   0.0800 
 39 H        4.4470    -0.8200    -0.8370 H     1 <1>   0.0800 
 40 H        4.0050    -1.6070     0.6560 H     1 <1>   0.0800 
@<TRIPOS>BOND
  1   1   2  2   
  2   2   3  am  
  3   2   4  1   
  4   3   5  1   
  5   3   6  1   
  6   4   7  1   
  7   4  20  1   
  8   4  21  1   
  9   5   8  1   
 10   5  22  1   
 11   5  23  1   
 12   6   9  1   
 13   6  24  1   
 14   6  25  1   
 15   7  10  1   
 16   8  11  1   
 17   8  26  1   
 18   8  27  1   
 19   9  11  1   
 20   9  28  1   
 21   9  29  1   
 22  10  12  ar  
 23  10  13  ar  
 24  12  14  ar  
 25  12  15  1   
 26  13  16  ar  
 27  13  30  1   
 28  14  17  ar  
 29  14  31  1   
 30  15  18  1   
 31  15  19  1   
 32  15  32  1   
 33  16  17  ar  
 34  16  33  1   
 35  17  34  1   
 36  18  35  1   
 37  18  36  1   
 38  18  37  1   
 39  19  38  1   
 40  19  39  1   
 41  19  40  1   
@<TRIPOS>SUBSTRUCTURE
  1 ****   7 GROUP 4 **** **** 0

# MOE 2024.06 (io_trps.svl 2023.06)
