@<TRIPOS>MOLECULE
NONAME
43 44 1 0 0 
SMALL
USER_CHARGES


@<TRIPOS>ATOM
  1 CL      -2.9340     2.4430    -2.9360 Cl    1 <1>  -0.1770 
  2 C       -2.8400     1.7080    -1.3500 C.ar  1 <1>   0.1770 
  3 C       -1.8120     2.0460    -0.4780 C.ar  1 <1>   0.0830 
  4 C       -3.8130     0.7920    -0.9990 C.ar  1 <1>  -0.1500 
  5 O       -0.8880     2.9550    -0.8850 O.3   1 <1>  -0.3630 
  6 C       -1.7830     1.4330     0.7720 C.ar  1 <1>  -0.1500 
  7 C       -3.7940     0.1810     0.2480 C.ar  1 <1>  -0.0090 
  8 C        0.2010     3.3270    -0.0690 C.3   1 <1>   0.0400 
  9 C       -2.7620     0.5160     1.1200 C.ar  1 <1>  -0.1500 
 10 S       -5.0700    -1.0210     0.7140 S.o2  1 <1>   1.4470 
 11 O       -5.1240    -1.1530     2.1550 O.2   1 <1>  -0.6500 
 12 O       -4.9170    -2.2050    -0.1010 O.2   1 <1>  -0.6500 
 13 N       -6.5090    -0.2590     0.2410 N.am  1 <1>  -0.8490 
 14 C       -6.8510     0.8640     1.1190 C.3   1 <1>   0.1960 
 15 C       -7.6130    -1.2160     0.1460 C.3   1 <1>   0.1960 
 16 C       -8.0520     1.6230     0.5540 C.3   1 <1>  -0.1600 
 17 C       -8.8520    -0.5360    -0.4430 C.3   1 <1>  -0.1600 
 18 C       -9.2690     0.6940     0.3810 C.3   1 <1>  -0.0190 
 19 C      -10.4760     1.3960    -0.2400 C.2   1 <1>   0.6590 
 20 O      -10.4110     2.4960    -0.7260 O.2   1 <1>  -0.5700 
 21 O      -11.6110     0.7110    -0.2050 O.3   1 <1>  -0.4300 
 22 C      -12.8030     1.2340    -0.7440 C.3   1 <1>   0.1200 
 23 C      -13.9040     0.1960    -0.5540 C.3   1 <1>  -0.2400 
 24 H       -4.5920     0.5540    -1.7030 H     1 <1>   0.1500 
 25 H       -1.0100     1.6560     1.4840 H     1 <1>   0.1500 
 26 H        0.7920     4.0440    -0.6100 H     1 <1>   0.0800 
 27 H        0.7920     2.4550     0.1460 H     1 <1>   0.0800 
 28 H       -0.1760     3.7740     0.8350 H     1 <1>   0.0800 
 29 H       -2.7240     0.0490     2.0910 H     1 <1>   0.1500 
 30 H       -6.0160     1.5400     1.1910 H     1 <1>   0.0800 
 31 H       -7.0780     0.5030     2.1110 H     1 <1>   0.0800 
 32 H       -7.8340    -1.6200     1.1210 H     1 <1>   0.0800 
 33 H       -7.3350    -2.0340    -0.4990 H     1 <1>   0.0800 
 34 H       -7.7770     2.0500    -0.3960 H     1 <1>   0.0800 
 35 H       -8.3060     2.4330     1.2140 H     1 <1>   0.0800 
 36 H       -9.6610    -1.2450    -0.4730 H     1 <1>   0.0800 
 37 H       -8.6360    -0.2410    -1.4550 H     1 <1>   0.0800 
 38 H       -9.5730     0.3590     1.3570 H     1 <1>   0.0800 
 39 H      -12.6420     1.4430    -1.7890 H     1 <1>   0.0800 
 40 H      -13.0390     2.1490    -0.2260 H     1 <1>   0.0800 
 41 H      -13.6490    -0.7130    -1.0690 H     1 <1>   0.0800 
 42 H      -14.8270     0.5700    -0.9580 H     1 <1>   0.0800 
 43 H      -14.0450    -0.0090     0.4920 H     1 <1>   0.0800 
@<TRIPOS>BOND
  1   1   2  1   
  2   2   3  ar  
  3   2   4  ar  
  4   3   5  1   
  5   3   6  ar  
  6   4   7  ar  
  7   4  24  1   
  8   5   8  1   
  9   6   9  ar  
 10   6  25  1   
 11   7   9  ar  
 12   7  10  1   
 13   8  26  1   
 14   8  27  1   
 15   8  28  1   
 16   9  29  1   
 17  10  11  2   
 18  10  12  2   
 19  10  13  am  
 20  13  14  1   
 21  13  15  1   
 22  14  16  1   
 23  14  30  1   
 24  14  31  1   
 25  15  17  1   
 26  15  32  1   
 27  15  33  1   
 28  16  18  1   
 29  16  34  1   
 30  16  35  1   
 31  17  18  1   
 32  17  36  1   
 33  17  37  1   
 34  18  19  1   
 35  18  38  1   
 36  19  20  2   
 37  19  21  1   
 38  21  22  1   
 39  22  23  1   
 40  22  39  1   
 41  22  40  1   
 42  23  41  1   
 43  23  42  1   
 44  23  43  1   
@<TRIPOS>SUBSTRUCTURE
  1 ****  13 GROUP 4 **** **** 0

# MOE 2024.06 (io_trps.svl 2023.06)
