@<TRIPOS>MOLECULE
NONAME
43 44 1 0 0 
SMALL
USER_CHARGES


@<TRIPOS>ATOM
  1 O       -1.8000     1.0160     0.6480 O.3   1 <1>  -0.3630 
  2 C       -1.0440     2.1030     0.3250 C.ar  1 <1>   0.0830 
  3 C       -1.2700    -0.0150     1.4590 C.3   1 <1>   0.0400 
  4 C       -1.5310     2.9530    -0.6640 C.ar  1 <1>  -0.1440 
  5 C        0.1690     2.3960     0.9440 C.ar  1 <1>  -0.1500 
  6 C       -0.8090     4.0800    -1.0220 C.ar  1 <1>  -0.1500 
  7 C       -2.8500     2.6560    -1.3480 C.3   1 <1>   0.4870 
  8 C        0.8840     3.5240     0.5820 C.ar  1 <1>  -0.1500 
  9 C        0.3940     4.3730    -0.4040 C.ar  1 <1>   0.0830 
 10 N       -3.9190     2.6710    -0.3200 N.4   1 <1>  -0.9590 
 11 O        1.0240     5.5020    -0.8170 O.3   1 <1>  -0.3620 
 12 C       -5.1980     2.0740    -0.8110 C.3   1 <1>   0.3430 
 13 C       -4.0970     4.0060     0.3090 C.3   1 <1>   0.3430 
 14 C        2.2870     5.8640    -0.3020 C.3   1 <1>   0.0400 
 15 C       -6.3930     2.4030     0.1050 C.3   1 <1>  -0.0800 
 16 C       -4.9230     3.8500     1.5920 C.3   1 <1>  -0.1600 
 17 C       -5.9430     2.6950     1.5520 C.3   1 <1>  -0.1600 
 18 C       -7.4230     1.2670     0.0270 C.3   1 <1>   0.1200 
 19 O       -8.5860     1.6630     0.6580 O.3   1 <1>  -0.6800 
 20 H       -1.0930     0.3690     2.4490 H     1 <1>   0.0800 
 21 H       -0.3550    -0.3740     1.0200 H     1 <1>   0.0800 
 22 H       -1.9880    -0.8150     1.5040 H     1 <1>   0.0800 
 23 H        0.5760     1.7630     1.7110 H     1 <1>   0.1500 
 24 H       -1.1590     4.7520    -1.7860 H     1 <1>   0.1500 
 25 H       -2.7910     1.6830    -1.8060 H     1 <1>   0.0800 
 26 H       -3.0500     3.3890    -2.1110 H     1 <1>   0.0800 
 27 H        1.8160     3.7260     1.0770 H     1 <1>   0.1500 
 28 H       -3.5390     2.0580     0.4220 H     1 <1>   0.4500 
 29 H       -5.0800     1.0040    -0.8690 H     1 <1>   0.0800 
 30 H       -5.4180     2.4350    -1.8030 H     1 <1>   0.0800 
 31 H       -4.6130     4.6590    -0.3770 H     1 <1>   0.0800 
 32 H       -3.1430     4.4490     0.5480 H     1 <1>   0.0800 
 33 H        2.5990     6.7700    -0.7880 H     1 <1>   0.0800 
 34 H        2.9900     5.0770    -0.5120 H     1 <1>   0.0800 
 35 H        2.1990     6.0300     0.7570 H     1 <1>   0.0800 
 36 H       -6.8650     3.2860    -0.2930 H     1 <1>   0.0800 
 37 H       -5.4410     4.7780     1.7620 H     1 <1>   0.0800 
 38 H       -4.2580     3.7090     2.4260 H     1 <1>   0.0800 
 39 H       -5.4930     1.8080     1.9680 H     1 <1>   0.0800 
 40 H       -6.7870     2.9510     2.1700 H     1 <1>   0.0800 
 41 H       -7.0680     0.3660     0.5000 H     1 <1>   0.0800 
 42 H       -7.6770     1.0520    -0.9980 H     1 <1>   0.0800 
 43 H       -8.4820     1.6850     1.6290 H     1 <1>   0.4000 
@<TRIPOS>BOND
  1   1   2  1   
  2   1   3  1   
  3   2   4  ar  
  4   2   5  ar  
  5   3  20  1   
  6   3  21  1   
  7   3  22  1   
  8   4   6  ar  
  9   4   7  1   
 10   5   8  ar  
 11   5  23  1   
 12   6   9  ar  
 13   6  24  1   
 14   7  10  1   
 15   7  25  1   
 16   7  26  1   
 17   8   9  ar  
 18   8  27  1   
 19   9  11  1   
 20  10  12  1   
 21  10  13  1   
 22  10  28  1   
 23  11  14  1   
 24  12  15  1   
 25  12  29  1   
 26  12  30  1   
 27  13  16  1   
 28  13  31  1   
 29  13  32  1   
 30  14  33  1   
 31  14  34  1   
 32  14  35  1   
 33  15  17  1   
 34  15  18  1   
 35  15  36  1   
 36  16  17  1   
 37  16  37  1   
 38  16  38  1   
 39  17  39  1   
 40  17  40  1   
 41  18  19  1   
 42  18  41  1   
 43  18  42  1   
 44  19  43  1   
@<TRIPOS>SUBSTRUCTURE
  1 ****  10 GROUP 4 **** **** 0

# MOE 2024.06 (io_trps.svl 2023.06)
