@<TRIPOS>MOLECULE
NONAME
55 60 1 0 0 
SMALL
USER_CHARGES


@<TRIPOS>ATOM
  1 O       -0.3450     0.2860     1.4370 O.2   1 <1>  -0.5700 
  2 C       -1.3600     0.6310     0.8710 C.2   1 <1>   0.4690 
  3 C       -1.7570     2.0250     0.9180 C.ar  1 <1>   0.0860 
  4 C       -2.1920    -0.3310     0.2020 C.2   1 <1>  -0.1360 
  5 C       -1.4850     2.8090     2.0410 C.ar  1 <1>  -0.1500 
  6 C       -2.4220     2.6450    -0.1420 C.ar  1 <1>  -0.1500 
  7 C       -1.9360    -1.5560    -0.3280 C.2   1 <1>  -0.1050 
  8 C       -1.8620     4.1370     2.1080 C.ar  1 <1>  -0.1500 
  9 C       -2.8010     3.9730    -0.0810 C.ar  1 <1>  -0.1500 
 10 C       -0.7350    -2.3270    -0.4580 C.2   1 <1>   0.0950 
 11 C       -2.5160     4.7440     1.0410 C.ar  1 <1>  -0.0230 
 12 O       -0.8500    -3.5620    -0.9320 O.3   1 <1>  -0.2800 
 13 C        0.5850    -2.0880    -0.2160 C.2   1 <1>  -0.1500 
 14 N       -2.9110     6.1060     1.1070 N.pl3 1 <1>   0.5930 
 15 C        0.3410    -4.1130    -0.9910 C.2   1 <1>  -0.0100 
 16 C        1.2800    -3.2470    -0.5590 C.2   1 <1>  -0.1500 
 17 N       -4.1310     6.4440     1.5670 N.2   1 <1>  -0.4180 
 18 C       -2.2620     7.2420     0.7530 C.2   1 <1>  -0.3320 
 19 N       -4.2690     7.7170     1.5190 N.2   1 <1>  -0.2270 
 20 C       -3.1390     8.2240     1.0250 C.2   1 <1>   0.0770 
 21 C       -0.8460     7.3640     0.1740 C.3   1 <1>   0.1800 
 22 C        0.2120     6.8290     1.1650 C.3   1 <1>  -0.1600 
 23 C       -0.5210     8.8540    -0.1030 C.3   1 <1>  -0.1600 
 24 C       -0.7160     6.5990    -1.1620 C.3   1 <1>  -0.1600 
 25 C        1.6330     6.9790     0.5880 C.3   1 <1>  -0.0800 
 26 C        0.8940     9.0230    -0.6850 C.3   1 <1>  -0.0800 
 27 C        0.7010     6.7480    -1.7480 C.3   1 <1>  -0.0800 
 28 C        1.9190     8.4660     0.3190 C.3   1 <1>  -0.1600 
 29 C        1.7250     6.1980    -0.7370 C.3   1 <1>  -0.1600 
 30 C        0.9920     8.2370    -2.0040 C.3   1 <1>  -0.1600 
 31 H       -3.2080     0.0070     0.1300 H     1 <1>   0.1500 
 32 H       -0.9700     2.3600     2.8740 H     1 <1>   0.1500 
 33 H       -2.6440     2.0830    -1.0330 H     1 <1>   0.1500 
 34 H       -2.7750    -2.0810    -0.7480 H     1 <1>   0.1500 
 35 H       -1.6480     4.7090     2.9950 H     1 <1>   0.1500 
 36 H       -3.3230     4.4210    -0.9100 H     1 <1>   0.1500 
 37 H        1.0470    -1.1950     0.1610 H     1 <1>   0.1500 
 38 H        0.4340    -5.1230    -1.3510 H     1 <1>   0.1500 
 39 H        2.3440    -3.3880    -0.4820 H     1 <1>   0.1500 
 40 H       -3.0300     9.2860     0.8950 H     1 <1>   0.1500 
 41 H        0.0420     5.7900     1.3660 H     1 <1>   0.0800 
 42 H        0.1390     7.3610     2.0970 H     1 <1>   0.0800 
 43 H       -1.2350     9.2590    -0.7980 H     1 <1>   0.0800 
 44 H       -0.5920     9.4180     0.8110 H     1 <1>   0.0800 
 45 H       -0.9050     5.5540    -1.0130 H     1 <1>   0.0800 
 46 H       -1.4420     6.9690    -1.8640 H     1 <1>   0.0800 
 47 H        2.3530     6.5910     1.2890 H     1 <1>   0.0800 
 48 H        1.0930    10.0660    -0.8670 H     1 <1>   0.0800 
 49 H        0.7730     6.2000    -2.6720 H     1 <1>   0.0800 
 50 H        2.9140     8.5800    -0.0750 H     1 <1>   0.0800 
 51 H        1.8680     9.0210     1.2400 H     1 <1>   0.0800 
 52 H        1.5370     5.1530    -0.5580 H     1 <1>   0.0800 
 53 H        2.7180     6.2850    -1.1410 H     1 <1>   0.0800 
 54 H        0.2890     8.6300    -2.7170 H     1 <1>   0.0800 
 55 H        1.9770     8.3490    -2.4220 H     1 <1>   0.0800 
@<TRIPOS>BOND
  1   1   2  2   
  2   2   3  1   
  3   2   4  1   
  4   3   5  ar  
  5   3   6  ar  
  6   4   7  2   
  7   4  31  1   
  8   5   8  ar  
  9   5  32  1   
 10   6   9  ar  
 11   6  33  1   
 12   7  10  1   
 13   7  34  1   
 14   8  11  ar  
 15   8  35  1   
 16   9  11  ar  
 17   9  36  1   
 18  10  12  1   
 19  10  13  2   
 20  11  14  1   
 21  12  15  1   
 22  13  16  1   
 23  13  37  1   
 24  14  17  1   
 25  14  18  1   
 26  15  16  2   
 27  15  38  1   
 28  16  39  1   
 29  17  19  2   
 30  18  20  2   
 31  18  21  1   
 32  19  20  1   
 33  20  40  1   
 34  21  22  1   
 35  21  23  1   
 36  21  24  1   
 37  22  25  1   
 38  22  41  1   
 39  22  42  1   
 40  23  26  1   
 41  23  43  1   
 42  23  44  1   
 43  24  27  1   
 44  24  45  1   
 45  24  46  1   
 46  25  28  1   
 47  25  29  1   
 48  25  47  1   
 49  26  28  1   
 50  26  30  1   
 51  26  48  1   
 52  27  29  1   
 53  27  30  1   
 54  27  49  1   
 55  28  50  1   
 56  28  51  1   
 57  29  52  1   
 58  29  53  1   
 59  30  54  1   
 60  30  55  1   
@<TRIPOS>SUBSTRUCTURE
  1 ****   9 GROUP 4 **** **** 0

# MOE 2024.06 (io_trps.svl 2023.06)
