@<TRIPOS>MOLECULE
NONAME
37 38 1 0 0 
SMALL
USER_CHARGES


@<TRIPOS>ATOM
  1 O       -1.0100    -0.4390    -0.8740 O.2   1 <1>  -0.5700 
  2 C       -1.7800    -1.3120    -0.5210 C.2   1 <1>   0.6300 
  3 N       -3.0960    -1.1330    -0.8150 N.am  1 <1>  -0.7300 
  4 C       -1.3860    -2.5090     0.2230 C.2   1 <1>   0.3890 
  5 C       -4.0830    -2.2030    -0.5320 C.3   1 <1>   0.1400 
  6 N       -2.1990    -3.3170     0.7900 N.2   1 <1>  -0.6960 
  7 C        0.0970    -2.8030     0.3300 C.3   1 <1>  -0.0380 
  8 C       -3.6530    -3.0740     0.6760 C.3   1 <1>   0.0860 
  9 C        0.5330    -3.6670    -0.8340 C.2   1 <1>   0.4230 
 10 O        0.1170    -3.4130    -1.9360 O.2   1 <1>  -0.5700 
 11 C        1.4590    -4.7410    -0.5590 C.ar  1 <1>   0.0860 
 12 C        2.8230    -4.5940    -0.8420 C.ar  1 <1>  -0.1430 
 13 C        1.0270    -5.9470     0.0090 C.ar  1 <1>  -0.1430 
 14 C        3.7170    -5.6080    -0.5430 C.ar  1 <1>  -0.1500 
 15 C        3.3500    -3.3170    -1.4880 C.3   1 <1>  -0.0970 
 16 C        1.9350    -6.9490     0.3040 C.ar  1 <1>  -0.1500 
 17 C       -0.4470    -6.1960     0.3110 C.3   1 <1>  -0.0970 
 18 C        3.2820    -6.7860     0.0360 C.ar  1 <1>  -0.1430 
 19 C        4.2690    -7.8920     0.3610 C.3   1 <1>  -0.0970 
 20 H       -3.3410    -0.3620    -1.4380 H     1 <1>   0.3700 
 21 H       -4.1710    -2.8300    -1.4030 H     1 <1>   0.0800 
 22 H       -5.0480    -1.7670    -0.3360 H     1 <1>   0.0800 
 23 H        0.2930    -3.3140     1.2540 H     1 <1>   0.0800 
 24 H        0.6660    -1.8940     0.3280 H     1 <1>   0.0800 
 25 H       -4.1510    -4.0250     0.5970 H     1 <1>   0.0800 
 26 H       -3.9920    -2.6120     1.5870 H     1 <1>   0.0800 
 27 H        4.7630    -5.4850    -0.7620 H     1 <1>   0.1500 
 28 H        4.4060    -3.3830    -1.6760 H     1 <1>   0.0800 
 29 H        2.8520    -3.1480    -2.4270 H     1 <1>   0.0800 
 30 H        3.1720    -2.4730    -0.8460 H     1 <1>   0.0800 
 31 H        1.5950    -7.8690     0.7440 H     1 <1>   0.1500 
 32 H       -0.7310    -5.6910     1.2160 H     1 <1>   0.0800 
 33 H       -0.6420    -7.2460     0.4340 H     1 <1>   0.0800 
 34 H       -1.0660    -5.8400    -0.4950 H     1 <1>   0.0800 
 35 H        5.2370    -7.4810     0.5820 H     1 <1>   0.0800 
 36 H        4.3570    -8.5580    -0.4780 H     1 <1>   0.0800 
 37 H        3.9360    -8.4530     1.2160 H     1 <1>   0.0800 
@<TRIPOS>BOND
  1   1   2  2   
  2   2   3  am  
  3   2   4  1   
  4   3   5  1   
  5   3  20  1   
  6   4   6  2   
  7   4   7  1   
  8   5   8  1   
  9   5  21  1   
 10   5  22  1   
 11   6   8  1   
 12   7   9  1   
 13   7  23  1   
 14   7  24  1   
 15   8  25  1   
 16   8  26  1   
 17   9  10  2   
 18   9  11  1   
 19  11  12  ar  
 20  11  13  ar  
 21  12  14  ar  
 22  12  15  1   
 23  13  16  ar  
 24  13  17  1   
 25  14  18  ar  
 26  14  27  1   
 27  15  28  1   
 28  15  29  1   
 29  15  30  1   
 30  16  18  ar  
 31  16  31  1   
 32  17  32  1   
 33  17  33  1   
 34  17  34  1   
 35  18  19  1   
 36  19  35  1   
 37  19  36  1   
 38  19  37  1   
@<TRIPOS>SUBSTRUCTURE
  1 ****   9 GROUP 4 **** **** 0

# MOE 2024.06 (io_trps.svl 2023.06)
