@<TRIPOS>MOLECULE
NONAME
33 35 1 0 0 
SMALL
USER_CHARGES


@<TRIPOS>ATOM
  1 O        0.1750     0.0190    -0.1430 O.3   1 <1>  -0.5600 
  2 C        1.3620    -0.6240     0.2190 C.3   1 <1>   0.1200 
  3 C        0.0790     1.3510     0.2700 C.3   1 <1>   0.1200 
  4 C        2.5740     0.1150    -0.3810 C.3   1 <1>   0.3430 
  5 C        1.2320     2.1800    -0.3280 C.3   1 <1>   0.3430 
  6 N        2.5750     1.5760    -0.0080 N.4   1 <1>  -0.9590 
  7 C        3.6900     2.3130    -0.6750 C.3   1 <1>   0.4230 
  8 C        5.1710     1.7240    -0.2900 C.3   1 <1>  -0.0800 
  9 C        3.6840     3.9400    -0.2830 C.3   1 <1>  -0.1600 
 10 C        5.1970     3.0530    -0.1220 C.3   1 <1>  -0.1600 
 11 C        6.7100     2.1540     0.0580 C.3   1 <1>  -0.1600 
 12 C        5.2180     4.3710     0.0920 C.3   1 <1>  -0.0800 
 13 C        6.7130     3.7880     0.4150 C.3   1 <1>  -0.1600 
 14 H        1.3160    -1.6300    -0.1620 H     1 <1>   0.0800 
 15 H        1.4220    -0.6670     1.2930 H     1 <1>   0.0800 
 16 H        0.0890     1.3840     1.3450 H     1 <1>   0.0800 
 17 H       -0.8680     1.7310    -0.0750 H     1 <1>   0.0800 
 18 H        2.5340     0.0130    -1.4530 H     1 <1>   0.0800 
 19 H        3.4790    -0.3590    -0.0390 H     1 <1>   0.0800 
 20 H        1.1750     3.1860     0.0540 H     1 <1>   0.0800 
 21 H        1.0980     2.2240    -1.3960 H     1 <1>   0.0800 
 22 H        2.7210     1.6480     1.0060 H     1 <1>   0.4500 
 23 H        3.5720     2.2310    -1.7450 H     1 <1>   0.0800 
 24 H        4.9610     1.0670     0.5420 H     1 <1>   0.0800 
 25 H        3.0480     4.1430     0.5640 H     1 <1>   0.0800 
 26 H        3.3250     4.5220    -1.1170 H     1 <1>   0.0800 
 27 H        5.4810     3.2300    -1.2530 H     1 <1>   0.0800 
 28 H        4.9310     2.8910     1.0160 H     1 <1>   0.0800 
 29 H        7.3540     1.9600    -0.7890 H     1 <1>   0.0800 
 30 H        7.0980     1.5870     0.8900 H     1 <1>   0.0800 
 31 H        5.4400     5.0730    -0.7020 H     1 <1>   0.0800 
 32 H        7.4650     4.2990    -0.1680 H     1 <1>   0.0800 
 33 H        6.9560     3.9420     1.4560 H     1 <1>   0.0800 
@<TRIPOS>BOND
  1   1   2  1   
  2   1   3  1   
  3   2   4  1   
  4   2  14  1   
  5   2  15  1   
  6   3   5  1   
  7   3  16  1   
  8   3  17  1   
  9   4   6  1   
 10   4  18  1   
 11   4  19  1   
 12   5   6  1   
 13   5  20  1   
 14   5  21  1   
 15   6   7  1   
 16   6  22  1   
 17   7   8  1   
 18   7   9  1   
 19   7  23  1   
 20   8  10  1   
 21   8  11  1   
 22   8  24  1   
 23   9  12  1   
 24   9  25  1   
 25   9  26  1   
 26  10  12  1   
 27  10  27  1   
 28  10  28  1   
 29  11  13  1   
 30  11  29  1   
 31  11  30  1   
 32  12  13  1   
 33  12  31  1   
 34  13  32  1   
 35  13  33  1   
@<TRIPOS>SUBSTRUCTURE
  1 ****   7 GROUP 4 **** **** 0

# MOE 2024.06 (io_trps.svl 2023.06)
