@<TRIPOS>MOLECULE
NONAME
52 53 1 0 0 
SMALL
USER_CHARGES


@<TRIPOS>ATOM
  1 O        2.8120    -1.5930    -1.9110 O.2   1 <1>  -0.5700 
  2 C        1.9680    -1.5000    -1.0520 C.2   1 <1>   0.5690 
  3 N        2.2130    -0.8190     0.1030 N.am  1 <1>  -0.7300 
  4 C        0.6210    -2.1840    -1.2480 C.3   1 <1>   0.1810 
  5 C        3.3530     0.1090     0.3640 C.3   1 <1>   0.1400 
  6 O        0.0830    -2.5660     0.0090 O.3   1 <1>  -0.3620 
  7 C        4.7450    -0.4120    -0.0700 C.3   1 <1>   0.3430 
  8 C       -1.1210    -3.1840     0.0930 C.ar  1 <1>   0.0830 
  9 N        5.2210    -1.6240     0.6820 N.4   1 <1>  -0.9590 
 10 C       -1.5760    -3.5000     1.3600 C.ar  1 <1>  -0.1500 
 11 C       -1.9070    -3.5100    -1.0070 C.ar  1 <1>  -0.1500 
 12 C        6.7010    -1.8290     0.5410 C.3   1 <1>   0.3430 
 13 C        4.4980    -2.8860     0.2940 C.3   1 <1>   0.3430 
 14 C       -2.7950    -4.1300     1.5310 C.ar  1 <1>  -0.1500 
 15 C       -3.1260    -4.1400    -0.8280 C.ar  1 <1>  -0.1500 
 16 C        7.1820    -3.0630     1.3410 C.3   1 <1>   0.1200 
 17 C        5.1310    -4.1410     0.9370 C.3   1 <1>   0.1200 
 18 C       -3.5960    -4.4640     0.4430 C.ar  1 <1>  -0.1440 
 19 O        6.1050    -3.7830     1.8790 O.3   1 <1>  -0.5600 
 20 C       -4.9500    -5.1660     0.6870 C.3   1 <1>   0.1430 
 21 C       -4.7130    -6.5020     1.4070 C.3   1 <1>  -0.2400 
 22 C       -5.8450    -4.2700     1.5550 C.3   1 <1>  -0.2400 
 23 C       -5.7180    -5.4700    -0.6110 C.3   1 <1>  -0.2400 
 24 H        1.4380    -0.7860     0.7790 H     1 <1>   0.3700 
 25 H        0.7450    -3.0660    -1.8480 H     1 <1>   0.0800 
 26 H       -0.0640    -1.5050    -1.7220 H     1 <1>   0.0800 
 27 H        3.3790     0.3490     1.4120 H     1 <1>   0.0800 
 28 H        3.1590     1.0250    -0.1680 H     1 <1>   0.0800 
 29 H        5.4500     0.3880     0.0860 H     1 <1>   0.0800 
 30 H        4.7310    -0.6200    -1.1270 H     1 <1>   0.0800 
 31 H        5.0460    -1.5160     1.6910 H     1 <1>   0.4500 
 32 H       -0.9750    -3.2530     2.2160 H     1 <1>   0.1500 
 33 H       -1.5960    -3.2860    -2.0090 H     1 <1>   0.1500 
 34 H        7.2340    -0.9580     0.8840 H     1 <1>   0.0800 
 35 H        6.9490    -1.9730    -0.4980 H     1 <1>   0.0800 
 36 H        4.4970    -3.0000    -0.7780 H     1 <1>   0.0800 
 37 H        3.4700    -2.8270     0.6090 H     1 <1>   0.0800 
 38 H       -3.1150    -4.3590     2.5310 H     1 <1>   0.1500 
 39 H       -3.6960    -4.3710    -1.7080 H     1 <1>   0.1500 
 40 H        7.8060    -2.7510     2.1620 H     1 <1>   0.0800 
 41 H        7.7580    -3.7210     0.7140 H     1 <1>   0.0800 
 42 H        5.5870    -4.7640     0.1880 H     1 <1>   0.0800 
 43 H        4.3760    -4.7190     1.4430 H     1 <1>   0.0800 
 44 H       -4.2610    -6.3500     2.3690 H     1 <1>   0.0800 
 45 H       -4.0590    -7.1240     0.8220 H     1 <1>   0.0800 
 46 H       -5.6410    -7.0250     1.5540 H     1 <1>   0.0800 
 47 H       -5.9870    -3.3180     1.0750 H     1 <1>   0.0800 
 48 H       -5.4030    -4.0970     2.5190 H     1 <1>   0.0800 
 49 H       -6.8070    -4.7250     1.7060 H     1 <1>   0.0800 
 50 H       -5.1450    -6.1210    -1.2470 H     1 <1>   0.0800 
 51 H       -5.9360    -4.5610    -1.1430 H     1 <1>   0.0800 
 52 H       -6.6520    -5.9570    -0.3920 H     1 <1>   0.0800 
@<TRIPOS>BOND
  1   1   2  2   
  2   2   3  am  
  3   2   4  1   
  4   3   5  1   
  5   3  24  1   
  6   4   6  1   
  7   4  25  1   
  8   4  26  1   
  9   5   7  1   
 10   5  27  1   
 11   5  28  1   
 12   6   8  1   
 13   7   9  1   
 14   7  29  1   
 15   7  30  1   
 16   8  10  ar  
 17   8  11  ar  
 18   9  12  1   
 19   9  13  1   
 20   9  31  1   
 21  10  14  ar  
 22  10  32  1   
 23  11  15  ar  
 24  11  33  1   
 25  12  16  1   
 26  12  34  1   
 27  12  35  1   
 28  13  17  1   
 29  13  36  1   
 30  13  37  1   
 31  14  18  ar  
 32  14  38  1   
 33  15  18  ar  
 34  15  39  1   
 35  16  19  1   
 36  16  40  1   
 37  16  41  1   
 38  17  19  1   
 39  17  42  1   
 40  17  43  1   
 41  18  20  1   
 42  20  21  1   
 43  20  22  1   
 44  20  23  1   
 45  21  44  1   
 46  21  45  1   
 47  21  46  1   
 48  22  47  1   
 49  22  48  1   
 50  22  49  1   
 51  23  50  1   
 52  23  51  1   
 53  23  52  1   
@<TRIPOS>SUBSTRUCTURE
  1 ****   6 GROUP 4 **** **** 0

# MOE 2024.06 (io_trps.svl 2023.06)
