@<TRIPOS>MOLECULE
NONAME
44 45 1 0 0 
SMALL
USER_CHARGES


@<TRIPOS>ATOM
  1 O        0.0450     0.5080     1.2160 O.2   1 <1>  -0.5700 
  2 C       -0.0930     1.5040     0.5460 C.2   1 <1>   0.5690 
  3 N       -1.2950     1.9200     0.0290 N.am  1 <1>  -0.5470 
  4 C        1.1790     2.3240     0.2680 C.3   1 <1>   0.4040 
  5 C       -2.5690     1.3300     0.0980 C.ar  1 <1>   0.1170 
  6 N        2.4490     1.5150     0.4050 N.4   1 <1>  -0.9590 
  7 C       -3.6790     2.1310    -0.1380 C.ar  1 <1>  -0.1500 
  8 C       -2.7790    -0.0160     0.3710 C.ar  1 <1>  -0.1500 
  9 C        3.6680     2.3610     0.5380 C.3   1 <1>   0.3430 
 10 C        2.5700     0.4890    -0.6730 C.3   1 <1>   0.3430 
 11 C       -4.9660     1.6190    -0.1040 C.ar  1 <1>  -0.1430 
 12 C       -4.0580    -0.5370     0.4090 C.ar  1 <1>  -0.1500 
 13 C        4.8770     1.4770     0.8410 C.3   1 <1>  -0.1600 
 14 C        3.7660    -0.4180    -0.3860 C.3   1 <1>  -0.1600 
 15 C       -5.1590     0.2700     0.1730 C.ar  1 <1>  -0.1430 
 16 C       -6.1440     2.5470    -0.3690 C.3   1 <1>  -0.0970 
 17 C        5.0640     0.3850    -0.2230 C.3   1 <1>  -0.0800 
 18 C       -6.5510    -0.3440     0.2250 C.3   1 <1>  -0.0970 
 19 C        6.2270    -0.5400     0.1520 C.3   1 <1>  -0.2400 
 20 H       -1.3150     2.8220    -0.4460 H     1 <1>   0.3700 
 21 H        1.1980     3.1350     0.9750 H     1 <1>   0.0800 
 22 H        1.1190     2.7410    -0.7220 H     1 <1>   0.0800 
 23 H        2.3280     0.9720     1.2780 H     1 <1>   0.4500 
 24 H       -3.5390     3.1740    -0.3500 H     1 <1>   0.1500 
 25 H       -1.9520    -0.6760     0.5540 H     1 <1>   0.1500 
 26 H        3.5400     3.0750     1.3360 H     1 <1>   0.0800 
 27 H        3.8400     2.9010    -0.3790 H     1 <1>   0.0800 
 28 H        2.7050     0.9710    -1.6280 H     1 <1>   0.0800 
 29 H        1.6740    -0.1110    -0.7150 H     1 <1>   0.0800 
 30 H       -4.1900    -1.5830     0.6250 H     1 <1>   0.1500 
 31 H        4.7560     1.0310     1.8130 H     1 <1>   0.0800 
 32 H        5.7580     2.0940     0.8780 H     1 <1>   0.0800 
 33 H        3.8750    -1.1150    -1.1990 H     1 <1>   0.0800 
 34 H        3.5670    -0.9920     0.5030 H     1 <1>   0.0800 
 35 H       -5.8130     3.5510    -0.5640 H     1 <1>   0.0800 
 36 H       -6.7960     2.5680     0.4860 H     1 <1>   0.0800 
 37 H       -6.6990     2.2030    -1.2240 H     1 <1>   0.0800 
 38 H        5.3010     0.8560    -1.1650 H     1 <1>   0.0800 
 39 H       -7.0420    -0.2280    -0.7240 H     1 <1>   0.0800 
 40 H       -7.1380     0.1370     0.9870 H     1 <1>   0.0800 
 41 H       -6.5020    -1.3940     0.4520 H     1 <1>   0.0800 
 42 H        6.0390    -1.0370     1.0880 H     1 <1>   0.0800 
 43 H        7.1400     0.0220     0.2420 H     1 <1>   0.0800 
 44 H        6.3710    -1.2890    -0.6080 H     1 <1>   0.0800 
@<TRIPOS>BOND
  1   1   2  2   
  2   2   3  am  
  3   2   4  1   
  4   3   5  1   
  5   3  20  1   
  6   4   6  1   
  7   4  21  1   
  8   4  22  1   
  9   5   7  ar  
 10   5   8  ar  
 11   6   9  1   
 12   6  10  1   
 13   6  23  1   
 14   7  11  ar  
 15   7  24  1   
 16   8  12  ar  
 17   8  25  1   
 18   9  13  1   
 19   9  26  1   
 20   9  27  1   
 21  10  14  1   
 22  10  28  1   
 23  10  29  1   
 24  11  15  ar  
 25  11  16  1   
 26  12  15  ar  
 27  12  30  1   
 28  13  17  1   
 29  13  31  1   
 30  13  32  1   
 31  14  17  1   
 32  14  33  1   
 33  14  34  1   
 34  15  18  1   
 35  16  35  1   
 36  16  36  1   
 37  16  37  1   
 38  17  19  1   
 39  17  38  1   
 40  18  39  1   
 41  18  40  1   
 42  18  41  1   
 43  19  42  1   
 44  19  43  1   
 45  19  44  1   
@<TRIPOS>SUBSTRUCTURE
  1 ****   2 GROUP 4 **** **** 0

# MOE 2024.06 (io_trps.svl 2023.06)
