@<TRIPOS>MOLECULE
Structure2185
34 35 1 0 0 
SMALL
USER_CHARGES


@<TRIPOS>ATOM
  1 O        1.0290     1.3200    -1.6230 O.2   1 <1>  -0.5700 
  2 C        0.7180     1.9440    -0.6380 C.2   1 <1>   0.6590 
  3 O        1.2110     1.6420     0.5610 O.3   1 <1>  -0.4300 
  4 C       -0.2690     3.1200    -0.7200 C.3   1 <1>   0.2510 
  5 C        2.0980     0.5600     0.7520 C.3   1 <1>   0.0400 
  6 N       -1.6260     2.8390    -0.1440 N.3   1 <1>  -0.8100 
  7 C        0.3610     4.3530    -0.0420 C.3   1 <1>   0.1200 
  8 C       -2.4550     4.0630    -0.1830 C.3   1 <1>   0.1100 
  9 C       -2.2870     1.7190    -0.8440 C.3   1 <1>   0.2540 
 10 O       -0.4890     5.4620    -0.1310 O.3   1 <1>  -0.5600 
 11 C       -1.7320     5.2510     0.4740 C.3   1 <1>   0.1200 
 12 C       -3.6200     1.3700    -0.1930 C.ar  1 <1>  -0.1440 
 13 C       -3.6720     1.0440     1.1530 C.ar  1 <1>  -0.1500 
 14 C       -4.7910     1.3710    -0.9370 C.ar  1 <1>  -0.1500 
 15 C       -4.8780     0.7210     1.7510 C.ar  1 <1>  -0.1500 
 16 C       -5.9980     1.0490    -0.3410 C.ar  1 <1>  -0.1500 
 17 C       -6.0420     0.7240     1.0040 C.ar  1 <1>  -0.1500 
 18 H       -0.3840     3.3540    -1.7640 H     1 <1>   0.0800 
 19 H        2.3540     0.5090     1.7950 H     1 <1>   0.0800 
 20 H        2.9820     0.7250     0.1600 H     1 <1>   0.0800 
 21 H        1.6100    -0.3480     0.4440 H     1 <1>   0.0800 
 22 H        1.2860     4.6110    -0.5270 H     1 <1>   0.0800 
 23 H        0.5580     4.1540     0.9970 H     1 <1>   0.0800 
 24 H       -2.6930     4.3190    -1.2020 H     1 <1>   0.0800 
 25 H       -3.3790     3.8940     0.3430 H     1 <1>   0.0800 
 26 H       -2.4350     1.9740    -1.8790 H     1 <1>   0.0800 
 27 H       -1.6620     0.8440    -0.8030 H     1 <1>   0.0800 
 28 H       -1.5820     5.0670     1.5240 H     1 <1>   0.0800 
 29 H       -2.3110     6.1500     0.3580 H     1 <1>   0.0800 
 30 H       -2.7670     1.0480     1.7360 H     1 <1>   0.1500 
 31 H       -4.7690     1.6210    -1.9830 H     1 <1>   0.1500 
 32 H       -4.9080     0.4710     2.7970 H     1 <1>   0.1500 
 33 H       -6.9030     1.0510    -0.9220 H     1 <1>   0.1500 
 34 H       -6.9800     0.4740     1.4680 H     1 <1>   0.1500 
@<TRIPOS>BOND
  1   1   2  2   
  2   2   3  1   
  3   2   4  1   
  4   3   5  1   
  5   4   6  1   
  6   4   7  1   
  7   4  18  1   
  8   5  19  1   
  9   5  20  1   
 10   5  21  1   
 11   6   8  1   
 12   6   9  1   
 13   7  10  1   
 14   7  22  1   
 15   7  23  1   
 16   8  11  1   
 17   8  24  1   
 18   8  25  1   
 19   9  12  1   
 20   9  26  1   
 21   9  27  1   
 22  10  11  1   
 23  11  28  1   
 24  11  29  1   
 25  12  13  ar  
 26  12  14  ar  
 27  13  15  ar  
 28  13  30  1   
 29  14  16  ar  
 30  14  31  1   
 31  15  17  ar  
 32  15  32  1   
 33  16  17  ar  
 34  16  33  1   
 35  17  34  1   
@<TRIPOS>SUBSTRUCTURE
  1 ****   6 GROUP 4 **** **** 0

# MOE 2024.06 (io_trps.svl 2023.06)
