@<TRIPOS>MOLECULE
NONAME
46 48 1 0 0 
SMALL
USER_CHARGES


@<TRIPOS>ATOM
  1 F       -0.3090    -0.3210    -1.8150 F     1 <1>  -0.1900 
  2 C        0.7840    -0.9770    -1.5120 C.ar  1 <1>   0.1900 
  3 C        0.7650    -1.9070    -0.4700 C.ar  1 <1>   0.1170 
  4 C        1.9240    -0.6800    -2.2380 C.ar  1 <1>  -0.1500 
  5 N       -0.3940    -2.2390     0.2680 N.am  1 <1>  -0.5470 
  6 C        1.9920    -2.4990    -0.1800 C.ar  1 <1>   0.1900 
  7 C        3.1190    -1.3110    -1.9230 C.ar  1 <1>  -0.1500 
  8 C       -1.5860    -2.6820    -0.2290 C.2   1 <1>   0.5690 
  9 F        2.0620    -3.3570     0.8080 F     1 <1>  -0.1900 
 10 C        3.1540    -2.2260    -0.8810 C.ar  1 <1>  -0.1500 
 11 O       -1.7570    -2.8950    -1.4040 O.2   1 <1>  -0.5700 
 12 C       -2.7210    -2.9490     0.7590 C.3   1 <1>  -0.0190 
 13 C       -2.9000    -4.4590     1.0010 C.3   1 <1>  -0.1600 
 14 C       -4.0490    -2.3280     0.2850 C.3   1 <1>  -0.1600 
 15 C       -4.0480    -4.7440     1.9720 C.3   1 <1>   0.1400 
 16 C       -5.1980    -2.6330     1.2500 C.3   1 <1>   0.1400 
 17 N       -5.2950    -4.1030     1.4720 N.am  1 <1>  -0.6600 
 18 C       -6.4430    -4.8350     1.2320 C.2   1 <1>   0.5440 
 19 O       -6.4710    -6.0150     1.5280 O.2   1 <1>  -0.5700 
 20 C       -7.6180    -4.2260     0.6390 C.ar  1 <1>   0.0860 
 21 C       -7.8120    -4.1740    -0.7460 C.ar  1 <1>  -0.1430 
 22 C       -8.5870    -3.6540     1.4610 C.ar  1 <1>  -0.1500 
 23 C       -8.9340    -3.5520    -1.2710 C.ar  1 <1>  -0.1500 
 24 C       -6.7960    -4.8080    -1.6880 C.3   1 <1>  -0.0970 
 25 C       -9.7060    -3.0360     0.9350 C.ar  1 <1>  -0.1500 
 26 C       -9.8780    -2.9820    -0.4360 C.ar  1 <1>  -0.1500 
 27 H        1.8750     0.0390    -3.0360 H     1 <1>   0.1500 
 28 H       -0.2630    -2.3200     1.2750 H     1 <1>   0.3700 
 29 H        4.0120    -1.0890    -2.4820 H     1 <1>   0.1500 
 30 H        4.0710    -2.7220    -0.6150 H     1 <1>   0.1500 
 31 H       -2.4640    -2.4890     1.6970 H     1 <1>   0.0800 
 32 H       -1.9910    -4.8770     1.3950 H     1 <1>   0.0800 
 33 H       -3.1070    -4.9530     0.0670 H     1 <1>   0.0800 
 34 H       -4.3030    -2.7100    -0.6880 H     1 <1>   0.0800 
 35 H       -3.9370    -1.2620     0.1920 H     1 <1>   0.0800 
 36 H       -3.8190    -4.3500     2.9470 H     1 <1>   0.0800 
 37 H       -4.1770    -5.8100     2.0670 H     1 <1>   0.0800 
 38 H       -6.1140    -2.2380     0.8470 H     1 <1>   0.0800 
 39 H       -5.0180    -2.1520     2.1960 H     1 <1>   0.0800 
 40 H       -8.4540    -3.7010     2.5280 H     1 <1>   0.1500 
 41 H       -9.0820    -3.5090    -2.3360 H     1 <1>   0.1500 
 42 H       -5.8370    -4.3360    -1.5740 H     1 <1>   0.0800 
 43 H       -7.1030    -4.7120    -2.7140 H     1 <1>   0.0800 
 44 H       -6.6920    -5.8550    -1.4610 H     1 <1>   0.0800 
 45 H      -10.4420    -2.6000     1.5880 H     1 <1>   0.1500 
 46 H      -10.7460    -2.5020    -0.8520 H     1 <1>   0.1500 
@<TRIPOS>BOND
  1   1   2  1   
  2   2   3  ar  
  3   2   4  ar  
  4   3   5  1   
  5   3   6  ar  
  6   4   7  ar  
  7   4  27  1   
  8   5   8  am  
  9   5  28  1   
 10   6   9  1   
 11   6  10  ar  
 12   7  10  ar  
 13   7  29  1   
 14   8  11  2   
 15   8  12  1   
 16  10  30  1   
 17  12  13  1   
 18  12  14  1   
 19  12  31  1   
 20  13  15  1   
 21  13  32  1   
 22  13  33  1   
 23  14  16  1   
 24  14  34  1   
 25  14  35  1   
 26  15  17  1   
 27  15  36  1   
 28  15  37  1   
 29  16  17  1   
 30  16  38  1   
 31  16  39  1   
 32  17  18  am  
 33  18  19  2   
 34  18  20  1   
 35  20  21  ar  
 36  20  22  ar  
 37  21  23  ar  
 38  21  24  1   
 39  22  25  ar  
 40  22  40  1   
 41  23  26  ar  
 42  23  41  1   
 43  24  42  1   
 44  24  43  1   
 45  24  44  1   
 46  25  26  ar  
 47  25  45  1   
 48  26  46  1   
@<TRIPOS>SUBSTRUCTURE
  1 ****  12 GROUP 4 **** **** 0

# MOE 2024.06 (io_trps.svl 2023.06)
