@<TRIPOS>MOLECULE
NONAME
56 58 1 0 0 
SMALL
USER_CHARGES


@<TRIPOS>ATOM
  1 S        0.4240     0.8140     1.1410 S.o2  1 <1>   1.3330 
  2 O        1.7960     1.0790     0.7780 O.2   1 <1>  -0.6500 
  3 O       -0.1740     1.4730     2.2790 O.2   1 <1>  -0.6500 
  4 N        0.2890    -0.8910     1.4030 N.am  1 <1>  -0.6930 
  5 C       -0.5870     1.0820    -0.3010 C.3   1 <1>  -0.1350 
  6 C        1.3430    -1.7280     1.0960 C.ar  1 <1>   0.1990 
  7 C       -0.7850    -1.3420     2.3090 C.3   1 <1>   0.3390 
  8 C        1.6280    -2.0460    -0.2250 C.ar  1 <1>  -0.1500 
  9 C        2.1710    -2.2330     2.0920 C.ar  1 <1>  -0.1500 
 10 C       -2.1300    -1.1850     1.6210 C.ar  1 <1>  -0.1430 
 11 C        2.7400    -2.7970    -0.5460 C.ar  1 <1>  -0.1500 
 12 C        3.2820    -2.9870     1.7690 C.ar  1 <1>  -0.1500 
 13 C       -2.4830    -2.0240     0.5760 C.ar  1 <1>  -0.1500 
 14 C       -3.0130    -0.1940     2.0220 C.ar  1 <1>  -0.1500 
 15 C        3.6160    -3.2550     0.4410 C.ar  1 <1>   0.0860 
 16 C       -3.7020    -1.8730    -0.0620 C.ar  1 <1>  -0.1500 
 17 C       -4.2320    -0.0440     1.3840 C.ar  1 <1>  -0.1500 
 18 C        4.8480    -3.9370     0.1050 C.2   1 <1>   0.5440 
 19 C       -4.5820    -0.8810     0.3370 C.ar  1 <1>  -0.1430 
 20 O        5.2460    -4.8700     0.7760 O.2   1 <1>  -0.5700 
 21 N        5.6560    -3.4950    -0.9230 N.am  1 <1>  -0.6600 
 22 C       -5.9200    -0.7170    -0.3600 C.3   1 <1>  -0.0970 
 23 C        5.8890    -2.0340    -1.1330 C.3   1 <1>   0.1400 
 24 C        6.7950    -4.3420    -1.3830 C.3   1 <1>   0.1400 
 25 C        7.1860    -1.6010    -0.4170 C.3   1 <1>   0.3430 
 26 C        8.0720    -3.9290    -0.6310 C.3   1 <1>   0.3430 
 27 N        8.3720    -2.4560    -0.7970 N.4   1 <1>  -0.9590 
 28 C        9.5770    -2.0710    -0.0020 C.3   1 <1>   0.2630 
 29 H       -0.5560     2.1160    -0.5810 H     1 <1>   0.0800 
 30 H       -1.6060     0.8150    -0.1060 H     1 <1>   0.0800 
 31 H       -0.2280     0.4930    -1.1200 H     1 <1>   0.0800 
 32 H       -0.7560    -0.7740     3.2230 H     1 <1>   0.0800 
 33 H       -0.6380    -2.3790     2.5590 H     1 <1>   0.0800 
 34 H        0.9740    -1.6900    -1.0000 H     1 <1>   0.1500 
 35 H        1.9500    -2.0130     3.1210 H     1 <1>   0.1500 
 36 H        2.9460    -3.0280    -1.5770 H     1 <1>   0.1500 
 37 H        3.9160    -3.3660     2.5530 H     1 <1>   0.1500 
 38 H       -1.8060    -2.7970     0.2530 H     1 <1>   0.1500 
 39 H       -2.7540     0.4710     2.8300 H     1 <1>   0.1500 
 40 H       -3.9640    -2.5330    -0.8700 H     1 <1>   0.1500 
 41 H       -4.9070     0.7290     1.7070 H     1 <1>   0.1500 
 42 H       -6.2380     0.3090    -0.3290 H     1 <1>   0.0800 
 43 H       -6.6600    -1.3250     0.1280 H     1 <1>   0.0800 
 44 H       -5.8470    -1.0180    -1.3900 H     1 <1>   0.0800 
 45 H        5.0690    -1.4550    -0.7450 H     1 <1>   0.0800 
 46 H        5.9620    -1.8290    -2.1870 H     1 <1>   0.0800 
 47 H        6.9300    -4.2270    -2.4440 H     1 <1>   0.0800 
 48 H        6.5850    -5.3820    -1.1920 H     1 <1>   0.0800 
 49 H        7.0200    -1.6730     0.6450 H     1 <1>   0.0800 
 50 H        7.3880    -0.5680    -0.6480 H     1 <1>   0.0800 
 51 H        8.9000    -4.5170    -0.9900 H     1 <1>   0.0800 
 52 H        7.9310    -4.1570     0.4140 H     1 <1>   0.0800 
 53 H        8.5670    -2.2920    -1.7950 H     1 <1>   0.4500 
 54 H        9.3990    -2.2360     1.0490 H     1 <1>   0.0800 
 55 H        9.8090    -1.0290    -0.1520 H     1 <1>   0.0800 
 56 H       10.4290    -2.6590    -0.3030 H     1 <1>   0.0800 
@<TRIPOS>BOND
  1   1   2  2   
  2   1   3  2   
  3   1   4  am  
  4   1   5  1   
  5   4   6  1   
  6   4   7  1   
  7   5  29  1   
  8   5  30  1   
  9   5  31  1   
 10   6   8  ar  
 11   6   9  ar  
 12   7  10  1   
 13   7  32  1   
 14   7  33  1   
 15   8  11  ar  
 16   8  34  1   
 17   9  12  ar  
 18   9  35  1   
 19  10  13  ar  
 20  10  14  ar  
 21  11  15  ar  
 22  11  36  1   
 23  12  15  ar  
 24  12  37  1   
 25  13  16  ar  
 26  13  38  1   
 27  14  17  ar  
 28  14  39  1   
 29  15  18  1   
 30  16  19  ar  
 31  16  40  1   
 32  17  19  ar  
 33  17  41  1   
 34  18  20  2   
 35  18  21  am  
 36  19  22  1   
 37  21  23  1   
 38  21  24  1   
 39  22  42  1   
 40  22  43  1   
 41  22  44  1   
 42  23  25  1   
 43  23  45  1   
 44  23  46  1   
 45  24  26  1   
 46  24  47  1   
 47  24  48  1   
 48  25  27  1   
 49  25  49  1   
 50  25  50  1   
 51  26  27  1   
 52  26  51  1   
 53  26  52  1   
 54  27  28  1   
 55  27  53  1   
 56  28  54  1   
 57  28  55  1   
 58  28  56  1   
@<TRIPOS>SUBSTRUCTURE
  1 ****   6 GROUP 4 **** **** 0

# MOE 2024.06 (io_trps.svl 2023.06)
