@<TRIPOS>MOLECULE
NONAME
32 32 1 0 0 
SMALL
USER_CHARGES


@<TRIPOS>ATOM
  1 O       -0.0930     0.3740     0.8600 O.2   1 <1>  -0.5700 
  2 C       -0.1370     1.3980     0.2240 C.2   1 <1>   0.6590 
  3 O       -1.2920     1.9340    -0.1470 O.3   1 <1>  -0.4300 
  4 C        1.0970     2.1680    -0.2120 C.3   1 <1>  -0.0990 
  5 C       -2.5230     1.3360     0.1930 C.3   1 <1>   0.1200 
  6 C        2.4390     1.5810     0.2640 C.3   1 <1>  -0.2660 
  7 C       -3.6780     2.1940    -0.3430 C.3   1 <1>  -0.0800 
  8 C        3.5850     2.4290    -0.2180 C.2   1 <1>   0.9060 
  9 C       -3.6510     3.6180     0.2450 C.3   1 <1>  -0.1600 
 10 C       -5.0250     1.5130    -0.0380 C.3   1 <1>  -0.1600 
 11 O        3.9840     3.3430     0.5060 O.co2 1 <1>  -0.9000 
 12 O        4.0550     2.1980    -1.3350 O.co2 1 <1>  -0.9000 
 13 C       -4.8360     4.4570    -0.2520 C.3   1 <1>  -0.1600 
 14 C       -6.2080     2.3520    -0.5400 C.3   1 <1>  -0.1600 
 15 C       -6.1720     3.7670     0.0500 C.3   1 <1>  -0.1600 
 16 H        1.0120     3.1740     0.1580 H     1 <1>   0.0800 
 17 H        1.1020     2.2150    -1.2850 H     1 <1>   0.0800 
 18 H       -2.5720     1.2540     1.2660 H     1 <1>   0.0800 
 19 H       -2.5450     0.3500    -0.2400 H     1 <1>   0.0800 
 20 H        2.5690     0.5870    -0.1200 H     1 <1>   0.0800 
 21 H        2.4720     1.5440     1.3360 H     1 <1>   0.0800 
 22 H       -3.5720     2.2580    -1.4130 H     1 <1>   0.0800 
 23 H       -2.7340     4.1090    -0.0330 H     1 <1>   0.0800 
 24 H       -3.6810     3.5640     1.3190 H     1 <1>   0.0800 
 25 H       -5.1230     1.3700     1.0250 H     1 <1>   0.0800 
 26 H       -5.0570     0.5440    -0.5060 H     1 <1>   0.0800 
 27 H       -4.7450     4.6070    -1.3140 H     1 <1>   0.0800 
 28 H       -4.8160     5.4250     0.2200 H     1 <1>   0.0800 
 29 H       -7.1320     1.8720    -0.2680 H     1 <1>   0.0800 
 30 H       -6.1710     2.4130    -1.6150 H     1 <1>   0.0800 
 31 H       -6.9800     4.3490    -0.3590 H     1 <1>   0.0800 
 32 H       -6.3120     3.7120     1.1160 H     1 <1>   0.0800 
@<TRIPOS>BOND
  1   1   2  2   
  2   2   3  1   
  3   2   4  1   
  4   3   5  1   
  5   4   6  1   
  6   4  16  1   
  7   4  17  1   
  8   5   7  1   
  9   5  18  1   
 10   5  19  1   
 11   6   8  1   
 12   6  20  1   
 13   6  21  1   
 14   7   9  1   
 15   7  10  1   
 16   7  22  1   
 17   8  11  ar  
 18   8  12  ar  
 19   9  13  1   
 20   9  23  1   
 21   9  24  1   
 22  10  14  1   
 23  10  25  1   
 24  10  26  1   
 25  13  15  1   
 26  13  27  1   
 27  13  28  1   
 28  14  15  1   
 29  14  29  1   
 30  14  30  1   
 31  15  31  1   
 32  15  32  1   
@<TRIPOS>SUBSTRUCTURE
  1 ****   3 GROUP 4 **** **** 0

# MOE 2024.06 (io_trps.svl 2023.06)
