@<TRIPOS>MOLECULE
NONAME
40 41 1 0 0 
SMALL
USER_CHARGES


@<TRIPOS>ATOM
  1 I       -1.4580     2.3670    -3.3460 I     1 <1>  -0.0810 
  2 C       -1.8840     1.9980    -1.2820 C.ar  1 <1>   0.0810 
  3 C       -0.8510     1.9450    -0.3500 C.ar  1 <1>   0.0830 
  4 C       -3.2110     1.8200    -0.9360 C.ar  1 <1>  -0.1500 
  5 O        0.4300     2.1300    -0.7710 O.3   1 <1>  -0.3630 
  6 C       -1.1900     1.7010     0.9790 C.ar  1 <1>  -0.1500 
  7 C       -3.5250     1.5790     0.3910 C.ar  1 <1>  -0.1500 
  8 C        1.5180     2.0880     0.1240 C.3   1 <1>   0.1200 
  9 C       -2.5170     1.5200     1.3410 C.ar  1 <1>  -0.1500 
 10 C        2.7910     2.3330    -0.6810 C.3   1 <1>   0.1200 
 11 O        3.8860     2.3020     0.1860 O.3   1 <1>  -0.5600 
 12 C        5.1090     2.5140    -0.4350 C.3   1 <1>   0.1200 
 13 C        6.1910     2.4360     0.6500 C.3   1 <1>   0.3430 
 14 N        7.5810     2.5930     0.1080 N.4   1 <1>  -0.9590 
 15 C        8.5930     2.2760     1.1770 C.3   1 <1>   0.3430 
 16 C        7.8340     3.9740    -0.4440 C.3   1 <1>   0.3430 
 17 C       10.0330     2.5370     0.6940 C.3   1 <1>   0.1200 
 18 C        9.3070     4.1600    -0.8550 C.3   1 <1>   0.1200 
 19 O       10.1510     3.8450     0.2130 O.3   1 <1>  -0.5600 
 20 H       -3.9840     1.8670    -1.6830 H     1 <1>   0.1500 
 21 H       -0.4420     1.6480     1.7470 H     1 <1>   0.1500 
 22 H       -4.5510     1.4370     0.6840 H     1 <1>   0.1500 
 23 H        1.5420     1.1150     0.5820 H     1 <1>   0.0800 
 24 H        1.3810     2.8600     0.8600 H     1 <1>   0.0800 
 25 H       -2.7680     1.3330     2.3710 H     1 <1>   0.1500 
 26 H        2.7450     3.3000    -1.1510 H     1 <1>   0.0800 
 27 H        2.9090     1.5600    -1.4210 H     1 <1>   0.0800 
 28 H        5.0880     3.4860    -0.8960 H     1 <1>   0.0800 
 29 H        5.2520     1.7440    -1.1730 H     1 <1>   0.0800 
 30 H        6.1040     1.4770     1.1350 H     1 <1>   0.0800 
 31 H        6.0000     3.2020     1.3840 H     1 <1>   0.0800 
 32 H        7.7210     1.9140    -0.6530 H     1 <1>   0.4500 
 33 H        8.5020     1.2450     1.4790 H     1 <1>   0.0800 
 34 H        8.4130     2.8910     2.0440 H     1 <1>   0.0800 
 35 H        7.5970     4.7130     0.3040 H     1 <1>   0.0800 
 36 H        7.2030     4.1540    -1.2990 H     1 <1>   0.0800 
 37 H       10.3150     1.8520    -0.0870 H     1 <1>   0.0800 
 38 H       10.7240     2.4270     1.5120 H     1 <1>   0.0800 
 39 H        9.4900     5.1870    -1.1220 H     1 <1>   0.0800 
 40 H        9.5620     3.5380    -1.6960 H     1 <1>   0.0800 
@<TRIPOS>BOND
  1   1   2  1   
  2   2   3  ar  
  3   2   4  ar  
  4   3   5  1   
  5   3   6  ar  
  6   4   7  ar  
  7   4  20  1   
  8   5   8  1   
  9   6   9  ar  
 10   6  21  1   
 11   7   9  ar  
 12   7  22  1   
 13   8  10  1   
 14   8  23  1   
 15   8  24  1   
 16   9  25  1   
 17  10  11  1   
 18  10  26  1   
 19  10  27  1   
 20  11  12  1   
 21  12  13  1   
 22  12  28  1   
 23  12  29  1   
 24  13  14  1   
 25  13  30  1   
 26  13  31  1   
 27  14  15  1   
 28  14  16  1   
 29  14  32  1   
 30  15  17  1   
 31  15  33  1   
 32  15  34  1   
 33  16  18  1   
 34  16  35  1   
 35  16  36  1   
 36  17  19  1   
 37  17  37  1   
 38  17  38  1   
 39  18  19  1   
 40  18  39  1   
 41  18  40  1   
@<TRIPOS>SUBSTRUCTURE
  1 ****  10 GROUP 4 **** **** 0

# MOE 2024.06 (io_trps.svl 2023.06)
