@<TRIPOS>MOLECULE
NONAME
32 31 1 0 0 
SMALL
USER_CHARGES


@<TRIPOS>ATOM
  1 O        4.7350     0.8470    -1.7320 O.2   1 <1>  -0.5700 
  2 C        4.0940     1.1990    -0.7800 C.2   1 <1>   0.6590 
  3 O        3.9370     2.4880    -0.5120 O.3   1 <1>  -0.4300 
  4 C        3.4640     0.1580     0.1280 C.3   1 <1>  -0.0990 
  5 C        3.2520     3.0430     0.5930 C.3   1 <1>   0.0400 
  6 C        3.7080    -1.2290    -0.4740 C.3   1 <1>   0.3430 
  7 N        3.2910    -2.3400     0.4450 N.4   1 <1>  -0.9590 
  8 C        3.7210    -3.6770    -0.0820 C.3   1 <1>   0.3430 
  9 C        1.8060    -2.3660     0.6520 C.3   1 <1>   0.2630 
 10 C        5.2410    -3.8590    -0.0690 C.3   1 <1>  -0.0990 
 11 C        5.5660    -5.2830    -0.4830 C.2   1 <1>   0.6590 
 12 O        4.6770    -6.0530    -0.7180 O.2   1 <1>  -0.5700 
 13 O        6.8330    -5.6660    -0.5780 O.3   1 <1>  -0.4300 
 14 C        7.9730    -4.8620    -0.3540 C.3   1 <1>   0.0400 
 15 H        2.4120     0.3560     0.1980 H     1 <1>   0.0800 
 16 H        3.9230     0.2300     1.0950 H     1 <1>   0.0800 
 17 H        3.3370     4.1140     0.5320 H     1 <1>   0.0800 
 18 H        3.7060     2.6980     1.5050 H     1 <1>   0.0800 
 19 H        2.2140     2.7630     0.5460 H     1 <1>   0.0800 
 20 H        4.7610    -1.3150    -0.6870 H     1 <1>   0.0800 
 21 H        3.1840    -1.3080    -1.4140 H     1 <1>   0.0800 
 22 H        3.7420    -2.2040     1.3620 H     1 <1>   0.4500 
 23 H        3.3540    -3.8140    -1.0880 H     1 <1>   0.0800 
 24 H        3.2850    -4.4560     0.5250 H     1 <1>   0.0800 
 25 H        1.2980    -2.4940    -0.2910 H     1 <1>   0.0800 
 26 H        1.4690    -1.4470     1.1030 H     1 <1>   0.0800 
 27 H        1.5320    -3.1820     1.3010 H     1 <1>   0.0800 
 28 H        5.6260    -3.6960     0.9190 H     1 <1>   0.0800 
 29 H        5.7070    -3.1900    -0.7670 H     1 <1>   0.0800 
 30 H        8.8460    -5.4740    -0.5060 H     1 <1>   0.0800 
 31 H        7.9620    -4.5000     0.6590 H     1 <1>   0.0800 
 32 H        7.9790    -4.0480    -1.0570 H     1 <1>   0.0800 
@<TRIPOS>BOND
  1   1   2  2   
  2   2   3  1   
  3   2   4  1   
  4   3   5  1   
  5   4   6  1   
  6   4  15  1   
  7   4  16  1   
  8   5  17  1   
  9   5  18  1   
 10   5  19  1   
 11   6   7  1   
 12   6  20  1   
 13   6  21  1   
 14   7   8  1   
 15   7   9  1   
 16   7  22  1   
 17   8  10  1   
 18   8  23  1   
 19   8  24  1   
 20   9  25  1   
 21   9  26  1   
 22   9  27  1   
 23  10  11  1   
 24  10  28  1   
 25  10  29  1   
 26  11  12  2   
 27  11  13  1   
 28  13  14  1   
 29  14  30  1   
 30  14  31  1   
 31  14  32  1   
@<TRIPOS>SUBSTRUCTURE
  1 ****   6 GROUP 4 **** **** 0

# MOE 2024.06 (io_trps.svl 2023.06)
