@<TRIPOS>MOLECULE
NONAME
31 31 1 0 0 
SMALL
USER_CHARGES


@<TRIPOS>ATOM
  1 BR      -0.6040    -0.0330    -1.1890 Br    1 <1>  -0.1110 
  2 C       -0.3660     1.7550    -0.5010 C.ar  1 <1>   0.1110 
  3 C       -1.4830     2.4980    -0.1290 C.ar  1 <1>   0.0830 
  4 C        0.9220     2.2420    -0.4000 C.ar  1 <1>  -0.1500 
  5 O       -2.7080     1.9240    -0.2700 O.3   1 <1>  -0.3630 
  6 C       -1.2850     3.7870     0.3650 C.ar  1 <1>  -0.1500 
  7 C        1.0870     3.5220     0.0930 C.ar  1 <1>   0.1770 
  8 C       -3.8930     2.5980     0.0700 C.3   1 <1>   0.1200 
  9 C        0.0030     4.2950     0.4740 C.ar  1 <1>  -0.1500 
 10 CL       2.6970     4.1800     0.2390 Cl    1 <1>  -0.1770 
 11 C       -5.0470     1.6370    -0.2310 C.3   1 <1>   0.3430 
 12 N       -6.3800     2.2410     0.0810 N.4   1 <1>  -0.9060 
 13 C       -7.5070     1.3490    -0.2260 C.3   1 <1>   0.4230 
 14 C       -8.7740     2.1930    -0.1990 C.3   1 <1>  -0.2400 
 15 C       -7.5740     0.2390     0.8190 C.3   1 <1>  -0.2400 
 16 H        1.7690     1.6490    -0.6930 H     1 <1>   0.1500 
 17 H       -2.1040     4.4100     0.6690 H     1 <1>   0.1500 
 18 H       -3.9570     3.4860    -0.5350 H     1 <1>   0.0800 
 19 H       -3.8520     2.8400     1.1170 H     1 <1>   0.0800 
 20 H        0.1730     5.2880     0.8540 H     1 <1>   0.1500 
 21 H       -4.9070     0.7430     0.3540 H     1 <1>   0.0800 
 22 H       -5.0080     1.3700    -1.2750 H     1 <1>   0.0800 
 23 H       -6.5070     3.1050    -0.4590 H     1 <1>   0.4500 
 24 H       -6.4390     2.4910     1.0750 H     1 <1>   0.4500 
 25 H       -7.3860     0.9200    -1.2100 H     1 <1>   0.0800 
 26 H       -8.9320     2.6360     0.7690 H     1 <1>   0.0800 
 27 H       -9.6240     1.5710    -0.4200 H     1 <1>   0.0800 
 28 H       -8.7360     2.9640    -0.9470 H     1 <1>   0.0800 
 29 H       -7.6740     0.6400     1.8120 H     1 <1>   0.0800 
 30 H       -6.7080    -0.3950     0.7720 H     1 <1>   0.0800 
 31 H       -8.4320    -0.3810     0.6270 H     1 <1>   0.0800 
@<TRIPOS>BOND
  1   1   2  1   
  2   2   3  ar  
  3   2   4  ar  
  4   3   5  1   
  5   3   6  ar  
  6   4   7  ar  
  7   4  16  1   
  8   5   8  1   
  9   6   9  ar  
 10   6  17  1   
 11   7   9  ar  
 12   7  10  1   
 13   8  11  1   
 14   8  18  1   
 15   8  19  1   
 16   9  20  1   
 17  11  12  1   
 18  11  21  1   
 19  11  22  1   
 20  12  13  1   
 21  12  23  1   
 22  12  24  1   
 23  13  14  1   
 24  13  15  1   
 25  13  25  1   
 26  14  26  1   
 27  14  27  1   
 28  14  28  1   
 29  15  29  1   
 30  15  30  1   
 31  15  31  1   
@<TRIPOS>SUBSTRUCTURE
  1 ****   5 GROUP 4 **** **** 0

# MOE 2024.06 (io_trps.svl 2023.06)
