@<TRIPOS>MOLECULE
NONAME
52 54 1 0 0 
SMALL
USER_CHARGES


@<TRIPOS>ATOM
  1 N        0.4970     0.7570    -1.0840 N.pl3 1 <1>  -0.8380 
  2 C       -0.7120     1.0110    -0.4370 C.ar  1 <1>   0.1000 
  3 C        1.7530     1.1980    -0.4080 C.3   1 <1>   0.2090 
  4 C        0.5770    -0.4670    -1.9320 C.3   1 <1>   0.2090 
  5 C       -1.5850     1.9860    -0.9180 C.ar  1 <1>  -0.1440 
  6 C       -1.0650     0.2900     0.7000 C.ar  1 <1>  -0.1500 
  7 C        2.4860     0.0200     0.2660 C.3   1 <1>   0.3430 
  8 C        1.3290    -1.6090    -1.2180 C.3   1 <1>   0.3430 
  9 C       -2.7820     2.2190    -0.2620 C.ar  1 <1>  -0.1500 
 10 C       -1.2390     2.8010    -2.1560 C.3   1 <1>  -0.0970 
 11 C       -2.2610     0.5230     1.3540 C.ar  1 <1>  -0.1440 
 12 N        2.6530    -1.1670    -0.6530 N.4   1 <1>  -0.9590 
 13 C       -3.1200     1.4930     0.8670 C.ar  1 <1>  -0.1500 
 14 C       -2.6480    -0.2620     2.5950 C.3   1 <1>  -0.0970 
 15 C        3.3890    -2.2780     0.0040 C.3   1 <1>   0.4860 
 16 C        4.7820    -1.7880     0.3470 C.ar  1 <1>  -0.1430 
 17 C        5.7730    -1.6470    -0.6220 C.ar  1 <1>  -0.1430 
 18 C        5.0610    -1.4610     1.6670 C.ar  1 <1>  -0.1500 
 19 C        7.0150    -1.1570    -0.2500 C.ar  1 <1>  -0.1500 
 20 C        5.5590    -2.0190    -2.0850 C.3   1 <1>  -0.0970 
 21 C        6.3060    -0.9770     2.0220 C.ar  1 <1>  -0.1500 
 22 C        7.2880    -0.8170     1.0630 C.ar  1 <1>  -0.1430 
 23 C        8.6580    -0.2870     1.4460 C.3   1 <1>  -0.0970 
 24 H        1.5160     1.9420     0.3340 H     1 <1>   0.0800 
 25 H        2.3980     1.6600    -1.1340 H     1 <1>   0.0800 
 26 H        1.0740    -0.2220    -2.8540 H     1 <1>   0.0800 
 27 H       -0.4200    -0.7950    -2.1780 H     1 <1>   0.0800 
 28 H       -0.3990    -0.4590     1.0740 H     1 <1>   0.1500 
 29 H        1.9200    -0.2730     1.1340 H     1 <1>   0.0800 
 30 H        3.4510     0.3630     0.6040 H     1 <1>   0.0800 
 31 H        1.4760    -2.4180    -1.9140 H     1 <1>   0.0800 
 32 H        0.7010    -1.9710    -0.4210 H     1 <1>   0.0800 
 33 H       -3.4630     2.9680    -0.6250 H     1 <1>   0.1500 
 34 H       -1.1300     2.1480    -3.0030 H     1 <1>   0.0800 
 35 H       -0.3130     3.3240    -2.0000 H     1 <1>   0.0800 
 36 H       -2.0060     3.5220    -2.3750 H     1 <1>   0.0800 
 37 H        3.2510    -0.8450    -1.4240 H     1 <1>   0.4500 
 38 H       -4.0540     1.6880     1.3630 H     1 <1>   0.1500 
 39 H       -1.8760    -0.9560     2.8720 H     1 <1>   0.0800 
 40 H       -3.5540    -0.8110     2.4100 H     1 <1>   0.0800 
 41 H       -2.8130     0.4120     3.4160 H     1 <1>   0.0800 
 42 H        3.4610    -3.1250    -0.6580 H     1 <1>   0.0800 
 43 H        2.8760    -2.5880     0.9000 H     1 <1>   0.0800 
 44 H        4.3180    -1.5790     2.4380 H     1 <1>   0.1500 
 45 H        7.7910    -1.0400    -0.9880 H     1 <1>   0.1500 
 46 H        5.0290    -2.9500    -2.1750 H     1 <1>   0.0800 
 47 H        6.5070    -2.1430    -2.5810 H     1 <1>   0.0800 
 48 H        5.0190    -1.2430    -2.5960 H     1 <1>   0.0800 
 49 H        6.5120    -0.7290     3.0500 H     1 <1>   0.1500 
 50 H        9.3280    -1.1080     1.6280 H     1 <1>   0.0800 
 51 H        8.5980     0.3140     2.3360 H     1 <1>   0.0800 
 52 H        9.0600     0.3210     0.6560 H     1 <1>   0.0800 
@<TRIPOS>BOND
  1   1   2  1   
  2   1   3  1   
  3   1   4  1   
  4   2   5  ar  
  5   2   6  ar  
  6   3   7  1   
  7   3  24  1   
  8   3  25  1   
  9   4   8  1   
 10   4  26  1   
 11   4  27  1   
 12   5   9  ar  
 13   5  10  1   
 14   6  11  ar  
 15   6  28  1   
 16   7  12  1   
 17   7  29  1   
 18   7  30  1   
 19   8  12  1   
 20   8  31  1   
 21   8  32  1   
 22   9  13  ar  
 23   9  33  1   
 24  10  34  1   
 25  10  35  1   
 26  10  36  1   
 27  11  13  ar  
 28  11  14  1   
 29  12  15  1   
 30  12  37  1   
 31  13  38  1   
 32  14  39  1   
 33  14  40  1   
 34  14  41  1   
 35  15  16  1   
 36  15  42  1   
 37  15  43  1   
 38  16  17  ar  
 39  16  18  ar  
 40  17  19  ar  
 41  17  20  1   
 42  18  21  ar  
 43  18  44  1   
 44  19  22  ar  
 45  19  45  1   
 46  20  46  1   
 47  20  47  1   
 48  20  48  1   
 49  21  22  ar  
 50  21  49  1   
 51  22  23  1   
 52  23  50  1   
 53  23  51  1   
 54  23  52  1   
@<TRIPOS>SUBSTRUCTURE
  1 ****   7 GROUP 4 **** **** 0

# MOE 2024.06 (io_trps.svl 2023.06)
