@<TRIPOS>MOLECULE
NONAME
40 41 1 0 0 
SMALL
USER_CHARGES


@<TRIPOS>ATOM
  1 O       -1.7920    -1.1970    -1.9110 O.2   1 <1>  -0.5700 
  2 C       -1.3650    -1.2850    -0.7880 C.2   1 <1>   0.5950 
  3 C       -0.6600    -2.4390    -0.2880 C.2   1 <1>  -0.0860 
  4 C       -1.6460    -0.1170     0.1320 C.3   1 <1>  -0.1790 
  5 C       -1.0160    -3.7910    -0.5670 C.2   1 <1>  -0.0860 
  6 C        0.4610    -2.4950     0.5090 C.2   1 <1>  -0.3320 
  7 C       -0.0940    -4.5670     0.0920 C.2   1 <1>  -0.3320 
  8 C       -2.1240    -4.2530    -1.3730 C.2   1 <1>   0.5950 
  9 N        0.8100    -3.7880     0.7360 N.pl3 1 <1>   0.0480 
 10 C        1.2690    -1.3260     1.0670 C.3   1 <1>  -0.0600 
 11 C       -0.0660    -6.0920     0.1260 C.3   1 <1>  -0.0600 
 12 O       -2.0510    -5.1920    -2.1280 O.2   1 <1>  -0.5700 
 13 C       -3.4890    -3.6130    -1.2390 C.3   1 <1>  -0.1790 
 14 C        1.9670    -4.2720     1.5380 C.3   1 <1>   0.0960 
 15 C        3.0470    -4.9020     0.6510 C.3   1 <1>   0.2000 
 16 O        4.1540    -5.2040     1.4340 O.3   1 <1>  -0.5600 
 17 C        3.6080    -4.0160    -0.4520 C.3   1 <1>  -0.1600 
 18 C        5.2980    -5.3150     0.6440 C.3   1 <1>   0.1200 
 19 C        4.9890    -4.6060    -0.6730 C.3   1 <1>  -0.1600 
 20 H       -2.6710     0.1830     0.0190 H     1 <1>   0.0800 
 21 H       -1.0130     0.7080    -0.1320 H     1 <1>   0.0800 
 22 H       -1.4780    -0.3930     1.1550 H     1 <1>   0.0800 
 23 H        0.9940    -0.4000     0.6000 H     1 <1>   0.0800 
 24 H        2.3180    -1.4680     0.8870 H     1 <1>   0.0800 
 25 H        1.1090    -1.2400     2.1270 H     1 <1>   0.0800 
 26 H       -1.0180    -6.4990    -0.1610 H     1 <1>   0.0800 
 27 H        0.1550    -6.4510     1.1150 H     1 <1>   0.0800 
 28 H        0.6720    -6.4630    -0.5620 H     1 <1>   0.0800 
 29 H       -3.5440    -3.0140    -0.3510 H     1 <1>   0.0800 
 30 H       -4.2370    -4.3820    -1.1850 H     1 <1>   0.0800 
 31 H       -3.6830    -3.0030    -2.1010 H     1 <1>   0.0800 
 32 H        1.6140    -5.0010     2.2410 H     1 <1>   0.0800 
 33 H        2.3920    -3.4540     2.0860 H     1 <1>   0.0800 
 34 H        2.6980    -5.8300     0.2360 H     1 <1>   0.0800 
 35 H        3.6940    -3.0040    -0.1040 H     1 <1>   0.0800 
 36 H        2.9940    -4.0390    -1.3360 H     1 <1>   0.0800 
 37 H        5.5070    -6.3600     0.4910 H     1 <1>   0.0800 
 38 H        6.1140    -4.8490     1.1690 H     1 <1>   0.0800 
 39 H        5.7200    -3.8500    -0.8980 H     1 <1>   0.0800 
 40 H        4.9710    -5.3270    -1.4720 H     1 <1>   0.0800 
@<TRIPOS>BOND
  1   1   2  2   
  2   2   3  1   
  3   2   4  1   
  4   3   5  1   
  5   3   6  2   
  6   4  20  1   
  7   4  21  1   
  8   4  22  1   
  9   5   7  2   
 10   5   8  1   
 11   6   9  1   
 12   6  10  1   
 13   7   9  1   
 14   7  11  1   
 15   8  12  2   
 16   8  13  1   
 17   9  14  1   
 18  10  23  1   
 19  10  24  1   
 20  10  25  1   
 21  11  26  1   
 22  11  27  1   
 23  11  28  1   
 24  13  29  1   
 25  13  30  1   
 26  13  31  1   
 27  14  15  1   
 28  14  32  1   
 29  14  33  1   
 30  15  16  1   
 31  15  17  1   
 32  15  34  1   
 33  16  18  1   
 34  17  19  1   
 35  17  35  1   
 36  17  36  1   
 37  18  19  1   
 38  18  37  1   
 39  18  38  1   
 40  19  39  1   
 41  19  40  1   
@<TRIPOS>SUBSTRUCTURE
  1 ****   9 GROUP 4 **** **** 0

# MOE 2024.06 (io_trps.svl 2023.06)
