@<TRIPOS>MOLECULE
NONAME
45 46 1 0 0 
SMALL
USER_CHARGES


@<TRIPOS>ATOM
  1 S        0.6110    -1.2720    -0.3220 S.o2  1 <1>   1.4470 
  2 O        1.7790    -1.2760     0.5310 O.2   1 <1>  -0.6500 
  3 O       -0.0350    -2.5330    -0.6000 O.2   1 <1>  -0.6500 
  4 N        1.1340    -0.8460    -1.8570 N.am  1 <1>  -0.9140 
  5 C       -0.5450     0.0710     0.1600 C.ar  1 <1>  -0.0090 
  6 C        2.3460    -1.5770    -2.2920 C.3   1 <1>   0.2570 
  7 C       -0.1230     1.4090     0.1630 C.ar  1 <1>  -0.1430 
  8 C       -1.8710    -0.1860     0.5460 C.ar  1 <1>  -0.1430 
  9 C        3.6780    -0.8370    -2.0800 C.2   1 <1>   0.5690 
 10 C       -0.9980     2.4320     0.4960 C.ar  1 <1>  -0.1500 
 11 C        1.3050     1.8280    -0.1820 C.3   1 <1>  -0.0960 
 12 C       -2.7280     0.8530     0.8750 C.ar  1 <1>  -0.1500 
 13 C       -2.4540    -1.5920     0.6420 C.3   1 <1>  -0.0960 
 14 O        4.3940    -0.6490    -3.0360 O.2   1 <1>  -0.5700 
 15 N        4.0460    -0.4280    -0.8410 N.am  1 <1>  -0.7300 
 16 C       -2.3040     2.1640     0.8470 C.ar  1 <1>  -0.1430 
 17 C        5.3180     0.2520    -0.5020 C.3   1 <1>   0.2840 
 18 C       -3.2530     3.2920     1.2080 C.3   1 <1>  -0.0970 
 19 C        6.2940    -0.7200     0.1460 C.ar  1 <1>   0.1670 
 20 N        6.4780    -0.6110     1.4560 N.ar  1 <1>  -0.6200 
 21 C        6.9350    -1.6560    -0.6520 C.ar  1 <1>  -0.1500 
 22 C        7.3310    -1.4740     1.9860 C.ar  1 <1>   0.1600 
 23 C        7.8220    -2.5450    -0.0850 C.ar  1 <1>  -0.1500 
 24 C        8.0180    -2.4420     1.2750 C.ar  1 <1>  -0.1500 
 25 H        0.3710    -1.1780    -2.4430 H     1 <1>   0.4200 
 26 H        2.2610    -1.7620    -3.3480 H     1 <1>   0.0800 
 27 H        2.4020    -2.5360    -1.8060 H     1 <1>   0.0800 
 28 H       -0.6630     3.4540     0.4860 H     1 <1>   0.1500 
 29 H        1.5040     1.6730    -1.2260 H     1 <1>   0.0800 
 30 H        2.0160     1.2760     0.4030 H     1 <1>   0.0800 
 31 H        1.4640     2.8700     0.0280 H     1 <1>   0.0800 
 32 H       -3.7440     0.6450     1.1620 H     1 <1>   0.1500 
 33 H       -1.8250    -2.2210     1.2470 H     1 <1>   0.0800 
 34 H       -2.5520    -2.0230    -0.3380 H     1 <1>   0.0800 
 35 H       -3.4290    -1.5820     1.0960 H     1 <1>   0.0800 
 36 H        3.4570    -0.6920    -0.0340 H     1 <1>   0.3700 
 37 H        5.1160     1.0650     0.1730 H     1 <1>   0.0800 
 38 H        5.7620     0.6610    -1.3930 H     1 <1>   0.0800 
 39 H       -3.0000     4.1850     0.6640 H     1 <1>   0.0800 
 40 H       -3.1890     3.4970     2.2610 H     1 <1>   0.0800 
 41 H       -4.2660     3.0250     0.9660 H     1 <1>   0.0800 
 42 H        6.7340    -1.6870    -1.7090 H     1 <1>   0.1500 
 43 H        7.4910    -1.4040     3.0480 H     1 <1>   0.1500 
 44 H        8.3350    -3.2840    -0.6770 H     1 <1>   0.1500 
 45 H        8.6960    -3.1050     1.7810 H     1 <1>   0.1500 
@<TRIPOS>BOND
  1   1   2  2   
  2   1   3  2   
  3   1   4  am  
  4   1   5  1   
  5   4   6  1   
  6   4  25  1   
  7   5   7  ar  
  8   5   8  ar  
  9   6   9  1   
 10   6  26  1   
 11   6  27  1   
 12   7  10  ar  
 13   7  11  1   
 14   8  12  ar  
 15   8  13  1   
 16   9  14  2   
 17   9  15  am  
 18  10  16  ar  
 19  10  28  1   
 20  11  29  1   
 21  11  30  1   
 22  11  31  1   
 23  12  16  ar  
 24  12  32  1   
 25  13  33  1   
 26  13  34  1   
 27  13  35  1   
 28  15  17  1   
 29  15  36  1   
 30  16  18  1   
 31  17  19  1   
 32  17  37  1   
 33  17  38  1   
 34  18  39  1   
 35  18  40  1   
 36  18  41  1   
 37  19  20  ar  
 38  19  21  ar  
 39  20  22  ar  
 40  21  23  ar  
 41  21  42  1   
 42  22  24  ar  
 43  22  43  1   
 44  23  24  ar  
 45  23  44  1   
 46  24  45  1   
@<TRIPOS>SUBSTRUCTURE
  1 ****   2 GROUP 4 **** **** 0

# MOE 2024.06 (io_trps.svl 2023.06)
