@<TRIPOS>MOLECULE
NONAME
44 46 1 0 0 
SMALL
USER_CHARGES


@<TRIPOS>ATOM
  1 CL       0.3800    -0.0340    -0.2840 Cl    1 <1>  -0.1770 
  2 C        1.8170    -0.9840     0.0130 C.ar  1 <1>   0.1770 
  3 C        2.1610    -1.9890    -0.8720 C.ar  1 <1>  -0.1500 
  4 C        2.5890    -0.7180     1.1280 C.ar  1 <1>  -0.1500 
  5 C        3.3000    -2.7390    -0.6340 C.ar  1 <1>  -0.1500 
  6 C        3.7250    -1.4730     1.3580 C.ar  1 <1>  -0.1500 
  7 C        4.0950    -2.4900     0.4830 C.ar  1 <1>   0.1000 
  8 N        5.2480    -3.2310     0.7350 N.pl3 1 <1>  -0.8380 
  9 C        5.2490    -4.7230     0.6570 C.3   1 <1>   0.2090 
 10 C        6.5740    -2.5450     0.7740 C.3   1 <1>   0.2090 
 11 C        6.2350    -5.2300    -0.4180 C.3   1 <1>   0.3430 
 12 C        7.5220    -3.1020    -0.3080 C.3   1 <1>   0.3430 
 13 N        7.6030    -4.6110    -0.2880 N.4   1 <1>  -0.9590 
 14 C        8.5540    -5.1250    -1.3100 C.3   1 <1>   0.4860 
 15 C        9.9340    -4.5940    -0.9800 C.ar  1 <1>  -0.1430 
 16 C       10.5990    -5.0430     0.1510 C.ar  1 <1>  -0.1500 
 17 C       10.5400    -3.6480    -1.7950 C.ar  1 <1>  -0.1500 
 18 C       11.8460    -4.5440     0.4840 C.ar  1 <1>   0.0830 
 19 C       11.7910    -3.1500    -1.4710 C.ar  1 <1>  -0.1500 
 20 O       12.4080    -5.0330     1.6150 O.3   1 <1>  -0.3630 
 21 C       12.4450    -3.5910    -0.3340 C.ar  1 <1>  -0.1500 
 22 C       13.7110    -4.6600     2.0070 C.3   1 <1>   0.0400 
 23 H        1.5420    -2.1740    -1.7310 H     1 <1>   0.1500 
 24 H        2.2980     0.0670     1.8030 H     1 <1>   0.1500 
 25 H        3.5710    -3.5140    -1.3240 H     1 <1>   0.1500 
 26 H        4.3270    -1.2820     2.2270 H     1 <1>   0.1500 
 27 H        4.2570    -5.0790     0.4380 H     1 <1>   0.0800 
 28 H        5.5270    -5.1210     1.6180 H     1 <1>   0.0800 
 29 H        7.0140    -2.6780     1.7470 H     1 <1>   0.0800 
 30 H        6.4410    -1.4880     0.6160 H     1 <1>   0.0800 
 31 H        5.8240    -4.9900    -1.3850 H     1 <1>   0.0800 
 32 H        6.3070    -6.3030    -0.3470 H     1 <1>   0.0800 
 33 H        8.5020    -2.6780    -0.1600 H     1 <1>   0.0800 
 34 H        7.1630    -2.7730    -1.2690 H     1 <1>   0.0800 
 35 H        7.9900    -4.8670     0.6290 H     1 <1>   0.4500 
 36 H        8.2590    -4.8020    -2.2950 H     1 <1>   0.0800 
 37 H        8.5760    -6.2030    -1.2930 H     1 <1>   0.0800 
 38 H       10.1720    -5.7880     0.7990 H     1 <1>   0.1500 
 39 H       10.0560    -3.2890    -2.6880 H     1 <1>   0.1500 
 40 H       12.2620    -2.4170    -2.1060 H     1 <1>   0.1500 
 41 H       13.4130    -3.1870    -0.1050 H     1 <1>   0.1500 
 42 H       13.9550    -5.1940     2.9090 H     1 <1>   0.0800 
 43 H       13.7320    -3.6010     2.1940 H     1 <1>   0.0800 
 44 H       14.4020    -4.9280     1.2270 H     1 <1>   0.0800 
@<TRIPOS>BOND
  1   1   2  1   
  2   2   3  ar  
  3   2   4  ar  
  4   3   5  ar  
  5   3  23  1   
  6   4   6  ar  
  7   4  24  1   
  8   5   7  ar  
  9   5  25  1   
 10   6   7  ar  
 11   6  26  1   
 12   7   8  1   
 13   8   9  1   
 14   8  10  1   
 15   9  11  1   
 16   9  27  1   
 17   9  28  1   
 18  10  12  1   
 19  10  29  1   
 20  10  30  1   
 21  11  13  1   
 22  11  31  1   
 23  11  32  1   
 24  12  13  1   
 25  12  33  1   
 26  12  34  1   
 27  13  14  1   
 28  13  35  1   
 29  14  15  1   
 30  14  36  1   
 31  14  37  1   
 32  15  16  ar  
 33  15  17  ar  
 34  16  18  ar  
 35  16  38  1   
 36  17  19  ar  
 37  17  39  1   
 38  18  20  1   
 39  18  21  ar  
 40  19  21  ar  
 41  19  40  1   
 42  20  22  1   
 43  21  41  1   
 44  22  42  1   
 45  22  43  1   
 46  22  44  1   
@<TRIPOS>SUBSTRUCTURE
  1 ****  12 GROUP 4 **** **** 0

# MOE 2024.06 (io_trps.svl 2023.06)
