@<TRIPOS>MOLECULE
NONAME
52 55 1 0 0 
SMALL
USER_CHARGES


@<TRIPOS>ATOM
  1 F        0.6650     0.5270    -0.4580 F     1 <1>  -0.3400 
  2 C        0.7620    -0.5590    -1.2160 C.3   1 <1>   1.1640 
  3 F       -0.4380    -1.1280    -1.1970 F     1 <1>  -0.3400 
  4 F        0.9500    -0.1310    -2.4580 F     1 <1>  -0.3400 
  5 C        1.8810    -1.5070    -0.7570 C.ar  1 <1>  -0.1440 
  6 C        3.0540    -1.0000    -0.2060 C.ar  1 <1>  -0.1500 
  7 C        1.7540    -2.8860    -0.8920 C.ar  1 <1>  -0.1500 
  8 C        4.0760    -1.8400     0.2070 C.ar  1 <1>  -0.1440 
  9 C        2.7700    -3.7310    -0.4830 C.ar  1 <1>  -0.1500 
 10 C        3.9280    -3.2100     0.0650 C.ar  1 <1>  -0.1500 
 11 C        5.3440    -1.2580     0.8150 C.3   1 <1>   0.2640 
 12 O        5.8680    -0.2840    -0.0600 O.3   1 <1>  -0.3630 
 13 C        6.9500     0.4590     0.2750 C.ar  1 <1>   0.0830 
 14 C        7.3350     1.4410    -0.6200 C.ar  1 <1>  -0.1500 
 15 C        7.6780     0.2910     1.4490 C.ar  1 <1>  -0.1500 
 16 C        8.4230     2.2490    -0.3510 C.ar  1 <1>  -0.1500 
 17 C        8.7660     1.1040     1.7090 C.ar  1 <1>  -0.1500 
 18 C        9.1700     2.1050     0.8210 C.ar  1 <1>   0.0540 
 19 C       10.3130     2.9600     1.0950 C.2   1 <1>   0.4620 
 20 N       11.0120     2.8910     2.2350 N.2   1 <1>  -0.2270 
 21 N       10.7750     3.8580     0.2860 N.2   1 <1>  -0.7070 
 22 N       11.9340     3.7620     2.1550 N.2   1 <1>  -0.4180 
 23 N       11.7880     4.3370     0.9770 N.pl3 1 <1>   0.5800 
 24 C       12.6460     5.4120     0.4770 C.3   1 <1>   0.1570 
 25 C       14.0490     4.8860     0.3000 C.2   1 <1>   0.5690 
 26 O       14.8960     5.3540     1.0230 O.2   1 <1>  -0.5700 
 27 N       14.3600     3.9350    -0.6430 N.am  1 <1>  -0.6600 
 28 C       13.4340     3.3470    -1.6600 C.3   1 <1>   0.1400 
 29 C       15.6640     3.2070    -0.6000 C.3   1 <1>   0.1400 
 30 C       13.2850     1.8360    -1.4170 C.3   1 <1>   0.1200 
 31 C       15.4160     1.6980    -0.4300 C.3   1 <1>   0.1200 
 32 O       14.5430     1.2220    -1.4180 O.3   1 <1>  -0.5600 
 33 H        3.1830     0.0650    -0.0990 H     1 <1>   0.1500 
 34 H        0.8620    -3.3150    -1.3190 H     1 <1>   0.1500 
 35 H        2.6600    -4.7960    -0.5930 H     1 <1>   0.1500 
 36 H        4.7110    -3.8800     0.3770 H     1 <1>   0.1500 
 37 H        6.0900    -2.0200     0.9550 H     1 <1>   0.0800 
 38 H        5.1170    -0.7850     1.7540 H     1 <1>   0.0800 
 39 H        6.7720     1.5690    -1.5280 H     1 <1>   0.1500 
 40 H        7.4160    -0.4610     2.1680 H     1 <1>   0.1500 
 41 H        8.7000     3.0080    -1.0620 H     1 <1>   0.1500 
 42 H        9.3140     0.9580     2.6240 H     1 <1>   0.1500 
 43 H       12.6450     6.2090     1.1950 H     1 <1>   0.0800 
 44 H       12.2620     5.7740    -0.4560 H     1 <1>   0.0800 
 45 H       13.8480     3.4990    -2.6420 H     1 <1>   0.0800 
 46 H       12.4700     3.8170    -1.6430 H     1 <1>   0.0800 
 47 H       16.2730     3.5590     0.2150 H     1 <1>   0.0800 
 48 H       16.2020     3.3810    -1.5150 H     1 <1>   0.0800 
 49 H       12.6990     1.3880    -2.2000 H     1 <1>   0.0800 
 50 H       12.8050     1.6460    -0.4720 H     1 <1>   0.0800 
 51 H       14.9870     1.4930     0.5360 H     1 <1>   0.0800 
 52 H       16.3410     1.1570    -0.5190 H     1 <1>   0.0800 
@<TRIPOS>BOND
  1   1   2  1   
  2   2   3  1   
  3   2   4  1   
  4   2   5  1   
  5   5   6  ar  
  6   5   7  ar  
  7   6   8  ar  
  8   6  33  1   
  9   7   9  ar  
 10   7  34  1   
 11   8  10  ar  
 12   8  11  1   
 13   9  10  ar  
 14   9  35  1   
 15  10  36  1   
 16  11  12  1   
 17  11  37  1   
 18  11  38  1   
 19  12  13  1   
 20  13  14  ar  
 21  13  15  ar  
 22  14  16  ar  
 23  14  39  1   
 24  15  17  ar  
 25  15  40  1   
 26  16  18  ar  
 27  16  41  1   
 28  17  18  ar  
 29  17  42  1   
 30  18  19  1   
 31  19  20  1   
 32  19  21  2   
 33  20  22  2   
 34  21  23  1   
 35  22  23  1   
 36  23  24  1   
 37  24  25  1   
 38  24  43  1   
 39  24  44  1   
 40  25  26  2   
 41  25  27  am  
 42  27  28  1   
 43  27  29  1   
 44  28  30  1   
 45  28  45  1   
 46  28  46  1   
 47  29  31  1   
 48  29  47  1   
 49  29  48  1   
 50  30  32  1   
 51  30  49  1   
 52  30  50  1   
 53  31  32  1   
 54  31  51  1   
 55  31  52  1   
@<TRIPOS>SUBSTRUCTURE
  1 ****  14 GROUP 4 **** **** 0

# MOE 2024.06 (io_trps.svl 2023.06)
