@<TRIPOS>MOLECULE
NONAME
28 28 1 0 0 
SMALL
USER_CHARGES


@<TRIPOS>ATOM
  1 CL      -0.0870     2.3470     3.7160 Cl    1 <1>  -0.1770 
  2 C        0.1210     2.4380     1.9820 C.ar  1 <1>   0.1770 
  3 C       -0.4450     1.4860     1.1500 C.ar  1 <1>   0.1770 
  4 C        0.8580     3.4800     1.4550 C.ar  1 <1>  -0.1500 
  5 CL      -1.3820     0.1620     1.8060 Cl    1 <1>  -0.1770 
  6 C       -0.2750     1.5710    -0.2200 C.ar  1 <1>  -0.1500 
  7 C        1.0280     3.5850     0.0780 C.ar  1 <1>   0.1170 
  8 C        0.4610     2.6190    -0.7490 C.ar  1 <1>  -0.1500 
  9 N        1.7640     4.6280    -0.4920 N.am  1 <1>  -0.5470 
 10 C        1.9730     5.9060    -0.0760 C.2   1 <1>   0.6900 
 11 O        2.9840     6.4650    -0.4340 O.2   1 <1>  -0.5700 
 12 N        1.0980     6.5900     0.6960 N.am  1 <1>  -0.7300 
 13 C       -0.3690     6.4230     0.7300 C.3   1 <1>   0.1400 
 14 C       -1.0330     7.7770     0.4930 C.3   1 <1>  -0.1600 
 15 C       -2.5540     7.6370     0.5220 C.3   1 <1>   0.1200 
 16 O       -3.1090     8.8720     0.2520 O.3   1 <1>  -0.6800 
 17 H        1.3010     4.2050     2.1140 H     1 <1>   0.1500 
 18 H       -0.7160     0.8260    -0.8600 H     1 <1>   0.1500 
 19 H        0.5940     2.6920    -1.8140 H     1 <1>   0.1500 
 20 H        2.4280     4.3730    -1.2210 H     1 <1>   0.3700 
 21 H        1.4340     7.5210     0.9480 H     1 <1>   0.3700 
 22 H       -0.6570     6.0310     1.6910 H     1 <1>   0.0800 
 23 H       -0.6770     5.7280    -0.0330 H     1 <1>   0.0800 
 24 H       -0.7340     8.1500    -0.4720 H     1 <1>   0.0800 
 25 H       -0.7230     8.4650     1.2590 H     1 <1>   0.0800 
 26 H       -2.9030     7.3100     1.4870 H     1 <1>   0.0800 
 27 H       -2.8950     6.9510    -0.2350 H     1 <1>   0.0800 
 28 H       -2.8360     9.5310     0.9190 H     1 <1>   0.4000 
@<TRIPOS>BOND
  1   1   2  1   
  2   2   3  ar  
  3   2   4  ar  
  4   3   5  1   
  5   3   6  ar  
  6   4   7  ar  
  7   4  17  1   
  8   6   8  ar  
  9   6  18  1   
 10   7   8  ar  
 11   7   9  1   
 12   8  19  1   
 13   9  10  am  
 14   9  20  1   
 15  10  11  2   
 16  10  12  am  
 17  12  13  1   
 18  12  21  1   
 19  13  14  1   
 20  13  22  1   
 21  13  23  1   
 22  14  15  1   
 23  14  24  1   
 24  14  25  1   
 25  15  16  1   
 26  15  26  1   
 27  15  27  1   
 28  16  28  1   
@<TRIPOS>SUBSTRUCTURE
  1 ****   7 GROUP 4 **** **** 0

# MOE 2024.06 (io_trps.svl 2023.06)
