@<TRIPOS>MOLECULE
NONAME
50 53 1 0 0 
SMALL
USER_CHARGES


@<TRIPOS>ATOM
  1 O        0.3820    -2.4560     0.8730 O.2   1 <1>  -0.5700 
  2 C       -0.1500    -1.6070     0.1970 C.2   1 <1>   0.5690 
  3 N        0.5550    -0.5910    -0.3950 N.am  1 <1>  -0.5470 
  4 C       -1.6830    -1.6690     0.0060 C.3   1 <1>   0.0610 
  5 C        1.9280    -0.2930    -0.4100 C.ar  1 <1>   0.1170 
  6 C       -2.0720    -3.0070    -0.6720 C.3   1 <1>  -0.1600 
  7 C       -2.2390    -0.5110    -0.8720 C.3   1 <1>  -0.1600 
  8 C       -2.3870    -1.5990     1.3840 C.3   1 <1>  -0.1600 
  9 C        2.9170    -1.2410    -0.1630 C.ar  1 <1>  -0.1500 
 10 C        2.3220     1.0080    -0.7020 C.ar  1 <1>  -0.1500 
 11 C       -3.5990    -3.1270    -0.8310 C.3   1 <1>  -0.0800 
 12 C       -3.7670    -0.6190    -1.0330 C.3   1 <1>  -0.0800 
 13 C       -3.9160    -1.7120     1.2350 C.3   1 <1>  -0.0800 
 14 C        4.2580    -0.9020    -0.2000 C.ar  1 <1>  -0.1500 
 15 C        3.6610     1.3530    -0.7420 C.ar  1 <1>  -0.1500 
 16 C       -4.1110    -1.9640    -1.6990 C.3   1 <1>  -0.1600 
 17 C       -4.2590    -3.0530     0.5580 C.3   1 <1>  -0.1600 
 18 C       -4.4270    -0.5560     0.3570 C.3   1 <1>  -0.1600 
 19 C        4.6380     0.4050    -0.4920 C.ar  1 <1>   0.0830 
 20 O        5.9290     0.8270    -0.5490 O.3   1 <1>  -0.3630 
 21 C        6.9920    -0.0570    -0.2750 C.3   1 <1>   0.1200 
 22 C        8.3030     0.7190    -0.4020 C.3   1 <1>  -0.1600 
 23 C        9.5130    -0.1780    -0.1180 C.3   1 <1>  -0.2400 
 24 H       -0.0240     0.0870    -0.8810 H     1 <1>   0.3700 
 25 H       -1.7120    -3.8300    -0.0780 H     1 <1>   0.0800 
 26 H       -1.5990    -3.0770    -1.6360 H     1 <1>   0.0800 
 27 H       -1.7870    -0.5390    -1.8480 H     1 <1>   0.0800 
 28 H       -2.0070     0.4380    -0.4200 H     1 <1>   0.0800 
 29 H       -2.1370    -0.6750     1.8740 H     1 <1>   0.0800 
 30 H       -2.0330    -2.4000     2.0120 H     1 <1>   0.0800 
 31 H        2.6430    -2.2560     0.0570 H     1 <1>   0.1500 
 32 H        1.5800     1.7600    -0.8970 H     1 <1>   0.1500 
 33 H       -3.8430    -4.0660    -1.2990 H     1 <1>   0.0800 
 34 H       -4.1300     0.1900    -1.6430 H     1 <1>   0.0800 
 35 H       -4.3810    -1.6660     2.2050 H     1 <1>   0.0800 
 36 H        4.9840    -1.6660    -0.0010 H     1 <1>   0.1500 
 37 H        3.9590     2.3610    -0.9670 H     1 <1>   0.1500 
 38 H       -5.1770    -2.0460    -1.8230 H     1 <1>   0.0800 
 39 H       -3.6650    -2.0140    -2.6770 H     1 <1>   0.0800 
 40 H       -3.9120    -3.8680     1.1700 H     1 <1>   0.0800 
 41 H       -5.3260    -3.1490     0.4600 H     1 <1>   0.0800 
 42 H       -4.2030     0.3850     0.8270 H     1 <1>   0.0800 
 43 H       -5.4970    -0.6230     0.2550 H     1 <1>   0.0800 
 44 H        6.9560    -0.8620    -0.9880 H     1 <1>   0.0800 
 45 H        6.8690    -0.4350     0.7250 H     1 <1>   0.0800 
 46 H        8.2970     1.5390     0.2960 H     1 <1>   0.0800 
 47 H        8.3830     1.1170    -1.3990 H     1 <1>   0.0800 
 48 H        9.4620    -0.5740     0.8810 H     1 <1>   0.0800 
 49 H       10.4220     0.3910    -0.2130 H     1 <1>   0.0800 
 50 H        9.5480    -0.9960    -0.8160 H     1 <1>   0.0800 
@<TRIPOS>BOND
  1   1   2  2   
  2   2   3  am  
  3   2   4  1   
  4   3   5  1   
  5   3  24  1   
  6   4   6  1   
  7   4   7  1   
  8   4   8  1   
  9   5   9  ar  
 10   5  10  ar  
 11   6  11  1   
 12   6  25  1   
 13   6  26  1   
 14   7  12  1   
 15   7  27  1   
 16   7  28  1   
 17   8  13  1   
 18   8  29  1   
 19   8  30  1   
 20   9  14  ar  
 21   9  31  1   
 22  10  15  ar  
 23  10  32  1   
 24  11  16  1   
 25  11  17  1   
 26  11  33  1   
 27  12  16  1   
 28  12  18  1   
 29  12  34  1   
 30  13  17  1   
 31  13  18  1   
 32  13  35  1   
 33  14  19  ar  
 34  14  36  1   
 35  15  19  ar  
 36  15  37  1   
 37  16  38  1   
 38  16  39  1   
 39  17  40  1   
 40  17  41  1   
 41  18  42  1   
 42  18  43  1   
 43  19  20  1   
 44  20  21  1   
 45  21  22  1   
 46  21  44  1   
 47  21  45  1   
 48  22  23  1   
 49  22  46  1   
 50  22  47  1   
 51  23  48  1   
 52  23  49  1   
 53  23  50  1   
@<TRIPOS>SUBSTRUCTURE
  1 ****   3 GROUP 4 **** **** 0

# MOE 2024.06 (io_trps.svl 2023.06)
