@<TRIPOS>MOLECULE
NONAME
47 48 1 0 0 
SMALL
USER_CHARGES


@<TRIPOS>ATOM
  1 O       -0.4160     0.8240    -1.1790 O.2   1 <1>  -0.5700 
  2 C        0.1240     1.6180    -0.4350 C.2   1 <1>   0.6340 
  3 O       -0.5950     2.1600     0.5540 O.3   1 <1>  -0.4300 
  4 C        1.5140     2.0110    -0.5620 C.ar  1 <1>   0.0860 
  5 C       -1.9520     1.8300     0.7460 C.3   1 <1>   0.1200 
  6 C        2.3250     1.4830    -1.5700 C.ar  1 <1>  -0.1500 
  7 C        2.1120     2.9290     0.3060 C.ar  1 <1>  -0.1500 
  8 C       -2.4650     2.6180     1.9470 C.3   1 <1>  -0.2400 
  9 C        3.6510     1.8470    -1.7040 C.ar  1 <1>  -0.1500 
 10 C        3.4380     3.2950     0.1730 C.ar  1 <1>  -0.1500 
 11 C        4.2350     2.7620    -0.8330 C.ar  1 <1>   0.1170 
 12 N        5.5680     3.1710    -0.9190 N.am  1 <1>  -0.5470 
 13 C        6.6210     2.7980    -1.7070 C.2   1 <1>   0.5690 
 14 O        6.5740     1.9390    -2.5530 O.2   1 <1>  -0.5700 
 15 C        7.9310     3.5510    -1.4690 C.3   1 <1>   0.1710 
 16 N        8.0560     4.1240    -0.0880 N.3   1 <1>  -0.8100 
 17 C        9.1730     5.0910    -0.0120 C.3   1 <1>   0.1100 
 18 C        8.2760     3.0700     0.9320 C.3   1 <1>   0.1100 
 19 C       10.5880     4.4610     0.1290 C.3   1 <1>   0.2000 
 20 C        9.6700     2.3860     0.8700 C.3   1 <1>   0.2000 
 21 O       10.5630     3.0640     0.0310 O.3   1 <1>  -0.5600 
 22 C       11.2940     4.8540     1.4310 C.3   1 <1>  -0.2400 
 23 C        9.5910     0.9500     0.3530 C.3   1 <1>  -0.2400 
 24 H       -2.0250     0.7700     0.9180 H     1 <1>   0.0800 
 25 H       -2.4960     2.0890    -0.1480 H     1 <1>   0.0800 
 26 H        1.9030     0.7720    -2.2600 H     1 <1>   0.1500 
 27 H        1.5270     3.3640     1.0980 H     1 <1>   0.1500 
 28 H       -1.9060     2.3560     2.8280 H     1 <1>   0.0800 
 29 H       -3.5010     2.3860     2.1170 H     1 <1>   0.0800 
 30 H       -2.3760     3.6740     1.7640 H     1 <1>   0.0800 
 31 H        4.2320     1.4140    -2.4980 H     1 <1>   0.1500 
 32 H        3.8620     4.0050     0.8600 H     1 <1>   0.1500 
 33 H        5.8740     3.8690    -0.2340 H     1 <1>   0.3700 
 34 H        7.9610     4.3520    -2.1850 H     1 <1>   0.0800 
 35 H        8.7560     2.8980    -1.6890 H     1 <1>   0.0800 
 36 H        9.0010     5.7340     0.8330 H     1 <1>   0.0800 
 37 H        9.1600     5.7310    -0.8780 H     1 <1>   0.0800 
 38 H        7.5020     2.3240     0.8710 H     1 <1>   0.0800 
 39 H        8.1790     3.5220     1.9050 H     1 <1>   0.0800 
 40 H       11.1930     4.8060    -0.6910 H     1 <1>   0.0800 
 41 H       10.0970     2.3660     1.8570 H     1 <1>   0.0800 
 42 H       10.7000     4.5940     2.2890 H     1 <1>   0.0800 
 43 H       11.4590     5.9150     1.4470 H     1 <1>   0.0800 
 44 H       12.2480     4.3620     1.4910 H     1 <1>   0.0800 
 45 H        9.1750     0.9230    -0.6370 H     1 <1>   0.0800 
 46 H        8.9710     0.3570     1.0010 H     1 <1>   0.0800 
 47 H       10.5750     0.5160     0.3340 H     1 <1>   0.0800 
@<TRIPOS>BOND
  1   1   2  2   
  2   2   3  1   
  3   2   4  1   
  4   3   5  1   
  5   4   6  ar  
  6   4   7  ar  
  7   5   8  1   
  8   5  24  1   
  9   5  25  1   
 10   6   9  ar  
 11   6  26  1   
 12   7  10  ar  
 13   7  27  1   
 14   8  28  1   
 15   8  29  1   
 16   8  30  1   
 17   9  11  ar  
 18   9  31  1   
 19  10  11  ar  
 20  10  32  1   
 21  11  12  1   
 22  12  13  am  
 23  12  33  1   
 24  13  14  2   
 25  13  15  1   
 26  15  16  1   
 27  15  34  1   
 28  15  35  1   
 29  16  17  1   
 30  16  18  1   
 31  17  19  1   
 32  17  36  1   
 33  17  37  1   
 34  18  20  1   
 35  18  38  1   
 36  18  39  1   
 37  19  21  1   
 38  19  22  1   
 39  19  40  1   
 40  20  21  1   
 41  20  23  1   
 42  20  41  1   
 43  22  42  1   
 44  22  43  1   
 45  22  44  1   
 46  23  45  1   
 47  23  46  1   
 48  23  47  1   
@<TRIPOS>SUBSTRUCTURE
  1 ****  12 GROUP 4 **** **** 0

# MOE 2024.06 (io_trps.svl 2023.06)
