@<TRIPOS>MOLECULE
NONAME
42 43 1 0 0 
SMALL
USER_CHARGES


@<TRIPOS>ATOM
  1 CL       1.0770    -0.0550     1.7810 Cl    1 <1>  -0.1770 
  2 C        2.1430    -1.0150     0.7720 C.ar  1 <1>   0.1770 
  3 C        1.7120    -2.2380     0.2690 C.ar  1 <1>   0.0820 
  4 C        3.4010    -0.5180     0.4930 C.ar  1 <1>  -0.1500 
  5 O        0.4540    -2.6650     0.5810 O.3   1 <1>  -0.3630 
  6 C        2.5870    -2.9640    -0.5320 C.ar  1 <1>  -0.1500 
  7 C        4.2860    -1.2380    -0.3030 C.ar  1 <1>   0.1170 
  8 C       -0.0400    -3.8910     0.0900 C.3   1 <1>   0.0400 
  9 C        3.8530    -2.4740    -0.8070 C.ar  1 <1>   0.0820 
 10 N        5.5660    -0.7250    -0.6150 N.am  1 <1>  -0.5470 
 11 O        4.6400    -3.2280    -1.6090 O.3   1 <1>  -0.3630 
 12 C        6.3860     0.0970     0.1100 C.2   1 <1>   0.5690 
 13 C        5.7310    -3.8890    -0.9970 C.3   1 <1>   0.0400 
 14 O        6.1170     0.4100     1.2490 O.2   1 <1>  -0.5700 
 15 C        7.6480     0.6800    -0.5690 C.3   1 <1>  -0.0190 
 16 C        8.8300    -0.3210    -0.7320 C.3   1 <1>  -0.1860 
 17 C        8.1150     2.0150     0.0880 C.3   1 <1>  -0.1600 
 18 C        8.3580    -1.7030    -1.1510 C.2   1 <1>   0.9060 
 19 C        9.7510    -0.2780     0.5030 C.3   1 <1>  -0.1600 
 20 C        9.6280     2.2430    -0.0250 C.3   1 <1>  -0.1600 
 21 O        8.6700    -2.7100    -0.5110 O.co2 1 <1>  -0.9000 
 22 O        7.6150    -1.7650    -2.1380 O.co2 1 <1>  -0.9000 
 23 C       10.4030     1.1090     0.6730 C.3   1 <1>  -0.1600 
 24 H        3.6870     0.4340     0.8970 H     1 <1>   0.1500 
 25 H        2.3170    -3.9100    -0.9570 H     1 <1>   0.1500 
 26 H       -1.0420    -4.0170     0.4590 H     1 <1>   0.0800 
 27 H        0.5850    -4.6890     0.4500 H     1 <1>   0.0800 
 28 H       -0.0480    -3.8600    -0.9850 H     1 <1>   0.0800 
 29 H        6.0580    -1.2120    -1.3950 H     1 <1>   0.3700 
 30 H        6.4680    -4.0980    -1.7520 H     1 <1>   0.0800 
 31 H        5.3810    -4.8020    -0.5540 H     1 <1>   0.0800 
 32 H        6.1700    -3.2590    -0.2440 H     1 <1>   0.0800 
 33 H        7.3410     0.9230    -1.5710 H     1 <1>   0.0800 
 34 H        9.4200     0.0060    -1.5680 H     1 <1>   0.0800 
 35 H        7.8840     2.0180     1.1380 H     1 <1>   0.0800 
 36 H        7.5810     2.8350    -0.3570 H     1 <1>   0.0800 
 37 H       10.5160    -1.0310     0.4150 H     1 <1>   0.0800 
 38 H        9.1630    -0.5180     1.3730 H     1 <1>   0.0800 
 39 H        9.8920     3.1870     0.4180 H     1 <1>   0.0800 
 40 H        9.9010     2.2820    -1.0660 H     1 <1>   0.0800 
 41 H       11.4020     1.0830     0.2760 H     1 <1>   0.0800 
 42 H       10.4780     1.3210     1.7260 H     1 <1>   0.0800 
@<TRIPOS>BOND
  1   1   2  1   
  2   2   3  ar  
  3   2   4  ar  
  4   3   5  1   
  5   3   6  ar  
  6   4   7  ar  
  7   4  24  1   
  8   5   8  1   
  9   6   9  ar  
 10   6  25  1   
 11   7   9  ar  
 12   7  10  1   
 13   8  26  1   
 14   8  27  1   
 15   8  28  1   
 16   9  11  1   
 17  10  12  am  
 18  10  29  1   
 19  11  13  1   
 20  12  14  2   
 21  12  15  1   
 22  13  30  1   
 23  13  31  1   
 24  13  32  1   
 25  15  16  1   
 26  15  17  1   
 27  15  33  1   
 28  16  18  1   
 29  16  19  1   
 30  16  34  1   
 31  17  20  1   
 32  17  35  1   
 33  17  36  1   
 34  18  21  ar  
 35  18  22  ar  
 36  19  23  1   
 37  19  37  1   
 38  19  38  1   
 39  20  23  1   
 40  20  39  1   
 41  20  40  1   
 42  23  41  1   
 43  23  42  1   
@<TRIPOS>SUBSTRUCTURE
  1 ****  10 GROUP 4 **** **** 0

# MOE 2024.06 (io_trps.svl 2023.06)
