@<TRIPOS>MOLECULE
NONAME
38 39 1 0 0 
SMALL
USER_CHARGES


@<TRIPOS>ATOM
  1 O        2.1000     0.4200    -1.9130 O.2   1 <1>  -0.5700 
  2 C        1.6100     0.0920    -0.8610 C.2   1 <1>   0.5690 
  3 N        0.4190     0.6060    -0.4860 N.am  1 <1>  -0.8000 
  4 C        2.3900    -0.9040     0.0200 C.3   1 <1>   0.4040 
  5 N        3.8610    -0.9660    -0.3210 N.4   1 <1>  -0.9590 
  6 C        4.5260    -2.1910     0.2020 C.3   1 <1>   0.3430 
  7 C        4.5670     0.2890     0.0720 C.3   1 <1>   0.3430 
  8 C        5.9620    -2.2590    -0.3200 C.3   1 <1>  -0.1600 
  9 C        6.0030     0.2540    -0.4460 C.3   1 <1>  -0.1600 
 10 C        6.7610    -0.9960     0.0390 C.3   1 <1>  -0.0800 
 11 C        8.1860    -1.0650    -0.5430 C.3   1 <1>  -0.0170 
 12 C        9.0110     0.1500    -0.1450 C.ar  1 <1>  -0.1430 
 13 C        9.2410     1.1730    -1.0540 C.ar  1 <1>  -0.1500 
 14 C        9.5360     0.2480     1.1340 C.ar  1 <1>  -0.1500 
 15 C        9.9790     2.2840    -0.6840 C.ar  1 <1>  -0.1500 
 16 C       10.2750     1.3580     1.5050 C.ar  1 <1>  -0.1500 
 17 C       10.4950     2.3780     0.5960 C.ar  1 <1>  -0.1500 
 18 H       -0.0560     1.2560    -1.1210 H     1 <1>   0.3700 
 19 H       -0.1020     0.3880     0.3660 H     1 <1>   0.3700 
 20 H        1.9500    -1.8750    -0.1260 H     1 <1>   0.0800 
 21 H        2.2650    -0.6300     1.0530 H     1 <1>   0.0800 
 22 H        3.8950    -0.9830    -1.3550 H     1 <1>   0.4500 
 23 H        3.9880    -3.0700    -0.1170 H     1 <1>   0.0800 
 24 H        4.5370    -2.1690     1.2800 H     1 <1>   0.0800 
 25 H        4.5750     0.3870     1.1460 H     1 <1>   0.0800 
 26 H        4.0610     1.1450    -0.3470 H     1 <1>   0.0800 
 27 H        5.9440    -2.3980    -1.3870 H     1 <1>   0.0800 
 28 H        6.4440    -3.1210     0.1090 H     1 <1>   0.0800 
 29 H        6.5040     1.1410    -0.0980 H     1 <1>   0.0800 
 30 H        5.9940     0.2930    -1.5210 H     1 <1>   0.0800 
 31 H        6.8470    -0.9420     1.1120 H     1 <1>   0.0800 
 32 H        8.1450    -1.1380    -1.6160 H     1 <1>   0.0800 
 33 H        8.6830    -1.9490    -0.1820 H     1 <1>   0.0800 
 34 H        8.8480     1.1120    -2.0530 H     1 <1>   0.1500 
 35 H        9.3760    -0.5390     1.8500 H     1 <1>   0.1500 
 36 H       10.1540     3.0740    -1.3930 H     1 <1>   0.1500 
 37 H       10.6800     1.4290     2.4990 H     1 <1>   0.1500 
 38 H       11.0700     3.2410     0.8830 H     1 <1>   0.1500 
@<TRIPOS>BOND
  1   1   2  2   
  2   2   3  am  
  3   2   4  1   
  4   3  18  1   
  5   3  19  1   
  6   4   5  1   
  7   4  20  1   
  8   4  21  1   
  9   5   6  1   
 10   5   7  1   
 11   5  22  1   
 12   6   8  1   
 13   6  23  1   
 14   6  24  1   
 15   7   9  1   
 16   7  25  1   
 17   7  26  1   
 18   8  10  1   
 19   8  27  1   
 20   8  28  1   
 21   9  10  1   
 22   9  29  1   
 23   9  30  1   
 24  10  11  1   
 25  10  31  1   
 26  11  12  1   
 27  11  32  1   
 28  11  33  1   
 29  12  13  ar  
 30  12  14  ar  
 31  13  15  ar  
 32  13  34  1   
 33  14  16  ar  
 34  14  35  1   
 35  15  17  ar  
 36  15  36  1   
 37  16  17  ar  
 38  16  37  1   
 39  17  38  1   
@<TRIPOS>SUBSTRUCTURE
  1 ****   9 GROUP 4 **** **** 0

# MOE 2024.06 (io_trps.svl 2023.06)
