@<TRIPOS>MOLECULE
NONAME
32 32 1 0 0 
SMALL
USER_CHARGES


@<TRIPOS>ATOM
  1 CL       0.6030     0.1580     0.0280 Cl    1 <1>  -0.1770 
  2 C        0.3130    -1.5660    -0.0620 C.ar  1 <1>   0.1770 
  3 C        1.3860    -2.4540    -0.0840 C.ar  1 <1>   0.0830 
  4 C       -0.9950    -2.0080    -0.1110 C.ar  1 <1>  -0.1500 
  5 O        2.6430    -1.9350    -0.0320 O.3   1 <1>  -0.3630 
  6 C        1.1270    -3.8230    -0.1560 C.ar  1 <1>  -0.1500 
  7 C       -1.2260    -3.3680    -0.1820 C.ar  1 <1>   0.1770 
  8 C        3.7920    -2.7430    -0.0480 C.3   1 <1>   0.1200 
  9 C       -0.1830    -4.2760    -0.2060 C.ar  1 <1>  -0.1500 
 10 CL      -2.8690    -3.9530    -0.2450 Cl    1 <1>  -0.1770 
 11 C        4.9920    -1.7970     0.0230 C.3   1 <1>  -0.1600 
 12 C        6.3080    -2.5650     0.0120 C.3   1 <1>   0.3430 
 13 N        7.4270    -1.5940     0.0830 N.4   1 <1>  -0.9060 
 14 C        8.7600    -2.2710     0.0770 C.3   1 <1>   0.3430 
 15 C        9.9150    -1.2650     0.1500 C.3   1 <1>   0.1200 
 16 O       11.0930    -1.9870     0.1390 O.3   1 <1>  -0.6800 
 17 H       -1.8130    -1.3110    -0.0940 H     1 <1>   0.1500 
 18 H        1.9190    -4.5480    -0.1760 H     1 <1>   0.1500 
 19 H        3.7920    -3.3120    -0.9630 H     1 <1>   0.0800 
 20 H        3.7550    -3.3980     0.8050 H     1 <1>   0.0800 
 21 H       -0.4000    -5.3290    -0.2620 H     1 <1>   0.1500 
 22 H        4.9140    -1.2220     0.9290 H     1 <1>   0.0800 
 23 H        4.9500    -1.1360    -0.8250 H     1 <1>   0.0800 
 24 H        6.3820    -3.1490    -0.8920 H     1 <1>   0.0800 
 25 H        6.3460    -3.2350     0.8570 H     1 <1>   0.0800 
 26 H        7.3280    -1.0280     0.9360 H     1 <1>   0.4500 
 27 H        7.3620    -0.9470    -0.7150 H     1 <1>   0.4500 
 28 H        8.8690    -2.8520    -0.8250 H     1 <1>   0.0800 
 29 H        8.8330    -2.9370     0.9220 H     1 <1>   0.0800 
 30 H        9.8830    -0.6960     1.0640 H     1 <1>   0.0800 
 31 H        9.9200    -0.6100    -0.7040 H     1 <1>   0.0800 
 32 H       11.8830    -1.4050     0.1840 H     1 <1>   0.4000 
@<TRIPOS>BOND
  1   1   2  1   
  2   2   3  ar  
  3   2   4  ar  
  4   3   5  1   
  5   3   6  ar  
  6   4   7  ar  
  7   4  17  1   
  8   5   8  1   
  9   6   9  ar  
 10   6  18  1   
 11   7   9  ar  
 12   7  10  1   
 13   8  11  1   
 14   8  19  1   
 15   8  20  1   
 16   9  21  1   
 17  11  12  1   
 18  11  22  1   
 19  11  23  1   
 20  12  13  1   
 21  12  24  1   
 22  12  25  1   
 23  13  14  1   
 24  13  26  1   
 25  13  27  1   
 26  14  15  1   
 27  14  28  1   
 28  14  29  1   
 29  15  16  1   
 30  15  30  1   
 31  15  31  1   
 32  16  32  1   
@<TRIPOS>SUBSTRUCTURE
  1 ****   8 GROUP 4 **** **** 0

# MOE 2024.06 (io_trps.svl 2023.06)
