@<TRIPOS>MOLECULE
NONAME
47 49 1 0 0 
SMALL
USER_CHARGES


@<TRIPOS>ATOM
  1 S       -0.1340     0.5740     1.1160 S.o2  1 <1>   1.4470 
  2 O       -0.7680     1.7820     1.6030 O.2   1 <1>  -0.6500 
  3 O        0.3360    -0.3760     2.1030 O.2   1 <1>  -0.6500 
  4 N        1.2250     1.0760     0.2300 N.am  1 <1>  -0.8490 
  5 C       -1.2390    -0.1500    -0.1350 C.ar  1 <1>  -0.0090 
  6 C        2.0440    -0.0590    -0.2060 C.3   1 <1>   0.1960 
  7 C        2.0280     2.0270     1.0050 C.3   1 <1>   0.1960 
  8 C       -1.2060    -1.5060    -0.4770 C.ar  1 <1>   0.0820 
  9 C       -2.1450     0.6770    -0.8000 C.ar  1 <1>  -0.1500 
 10 C        3.1860     0.4210    -1.1060 C.3   1 <1>  -0.1600 
 11 C        3.1750     2.5800     0.1560 C.3   1 <1>  -0.1600 
 12 O       -0.3070    -2.3040     0.1470 O.3   1 <1>  -0.3620 
 13 C       -2.0710    -2.0160    -1.4430 C.ar  1 <1>  -0.1500 
 14 C       -3.0090     0.1850    -1.7620 C.ar  1 <1>  -0.1500 
 15 C        4.0680     1.4540    -0.3900 C.3   1 <1>  -0.0800 
 16 C       -0.4310    -3.7100     0.1610 C.3   1 <1>   0.0400 
 17 C       -2.9550    -1.1590    -2.0630 C.ar  1 <1>   0.1900 
 18 C        5.1610     1.9880    -1.3340 C.3   1 <1>  -0.0170 
 19 F       -3.7650    -1.6360    -2.9680 F     1 <1>  -0.1900 
 20 C        6.0970     2.9600    -0.6300 C.ar  1 <1>  -0.1430 
 21 C        7.0730     2.4860     0.2320 C.ar  1 <1>  -0.1500 
 22 C        5.9830     4.3260    -0.8410 C.ar  1 <1>  -0.1500 
 23 C        7.9240     3.3660     0.8800 C.ar  1 <1>  -0.1500 
 24 C        6.8320     5.2070    -0.1940 C.ar  1 <1>  -0.1500 
 25 C        7.8030     4.7280     0.6670 C.ar  1 <1>  -0.1500 
 26 H        1.4410    -0.7490    -0.7680 H     1 <1>   0.0800 
 27 H        2.4430    -0.5790     0.6500 H     1 <1>   0.0800 
 28 H        2.4180     1.5430     1.8860 H     1 <1>   0.0800 
 29 H        1.4130     2.8530     1.3220 H     1 <1>   0.0800 
 30 H       -2.1750     1.7270    -0.5560 H     1 <1>   0.1500 
 31 H        2.7610     0.8500    -1.9970 H     1 <1>   0.0800 
 32 H        3.7800    -0.4260    -1.3980 H     1 <1>   0.0800 
 33 H        3.7590     3.2490     0.7640 H     1 <1>   0.0800 
 34 H        2.7590     3.1510    -0.6550 H     1 <1>   0.0800 
 35 H       -2.0730    -3.0500    -1.7300 H     1 <1>   0.1500 
 36 H       -3.7090     0.8270    -2.2680 H     1 <1>   0.1500 
 37 H        4.5470     0.9690     0.4440 H     1 <1>   0.0800 
 38 H       -1.4190    -3.9710     0.4990 H     1 <1>   0.0800 
 39 H        0.3010    -4.1010     0.8440 H     1 <1>   0.0800 
 40 H       -0.2470    -4.0900    -0.8270 H     1 <1>   0.0800 
 41 H        4.7040     2.4720    -2.1800 H     1 <1>   0.0800 
 42 H        5.7410     1.1650    -1.7120 H     1 <1>   0.0800 
 43 H        7.1750     1.4290     0.4040 H     1 <1>   0.1500 
 44 H        5.2300     4.7100    -1.5070 H     1 <1>   0.1500 
 45 H        8.6790     2.9910     1.5480 H     1 <1>   0.1500 
 46 H        6.7370     6.2660    -0.3620 H     1 <1>   0.1500 
 47 H        8.4630     5.4120     1.1690 H     1 <1>   0.1500 
@<TRIPOS>BOND
  1   1   2  2   
  2   1   3  2   
  3   1   4  am  
  4   1   5  1   
  5   4   6  1   
  6   4   7  1   
  7   5   8  ar  
  8   5   9  ar  
  9   6  10  1   
 10   6  26  1   
 11   6  27  1   
 12   7  11  1   
 13   7  28  1   
 14   7  29  1   
 15   8  12  1   
 16   8  13  ar  
 17   9  14  ar  
 18   9  30  1   
 19  10  15  1   
 20  10  31  1   
 21  10  32  1   
 22  11  15  1   
 23  11  33  1   
 24  11  34  1   
 25  12  16  1   
 26  13  17  ar  
 27  13  35  1   
 28  14  17  ar  
 29  14  36  1   
 30  15  18  1   
 31  15  37  1   
 32  16  38  1   
 33  16  39  1   
 34  16  40  1   
 35  17  19  1   
 36  18  20  1   
 37  18  41  1   
 38  18  42  1   
 39  20  21  ar  
 40  20  22  ar  
 41  21  23  ar  
 42  21  43  1   
 43  22  24  ar  
 44  22  44  1   
 45  23  25  ar  
 46  23  45  1   
 47  24  25  ar  
 48  24  46  1   
 49  25  47  1   
@<TRIPOS>SUBSTRUCTURE
  1 ****   4 GROUP 4 **** **** 0

# MOE 2024.06 (io_trps.svl 2023.06)
