@<TRIPOS>MOLECULE
NONAME
39 40 1 0 0 
SMALL
USER_CHARGES


@<TRIPOS>ATOM
  1 CL      -0.3640     0.9010    -1.5180 Cl    1 <1>  -0.1770 
  2 C       -2.0350     0.6550    -1.0910 C.ar  1 <1>   0.1770 
  3 C       -2.6900    -0.4800    -1.5280 C.ar  1 <1>  -0.1500 
  4 C       -2.6870     1.5960    -0.3190 C.ar  1 <1>  -0.1500 
  5 C       -4.0170    -0.6680    -1.1860 C.ar  1 <1>  -0.1500 
  6 C       -4.0150     1.3970     0.0170 C.ar  1 <1>  -0.1500 
  7 C       -4.7160     0.2630    -0.4100 C.ar  1 <1>   0.0860 
  8 C       -6.1140     0.0450    -0.0700 C.2   1 <1>   0.5440 
  9 O       -6.6190    -1.0570    -0.1630 O.2   1 <1>  -0.5700 
 10 N       -6.9060     1.0690     0.3550 N.am  1 <1>  -0.7300 
 11 C       -8.3570     0.9530     0.6780 C.3   1 <1>   0.2010 
 12 C       -9.0350     2.3160     0.8820 C.2   1 <1>   0.5690 
 13 O       -8.3270     3.3010     0.8730 O.2   1 <1>  -0.5700 
 14 N      -10.3970     2.4080     1.0570 N.am  1 <1>  -0.6600 
 15 C      -11.3190     1.2420     1.1020 C.3   1 <1>   0.1400 
 16 C      -11.0520     3.7410     1.1660 C.3   1 <1>   0.1400 
 17 C      -12.2040     1.1850    -0.1480 C.3   1 <1>  -0.1600 
 18 C      -11.4940     4.2060    -0.2250 C.3   1 <1>  -0.1600 
 19 C      -13.2850     2.2780    -0.1700 C.3   1 <1>  -0.1600 
 20 C      -12.8280     3.6310    -0.7390 C.3   1 <1>  -0.1600 
 21 H       -2.1640    -1.2040    -2.1250 H     1 <1>   0.1500 
 22 H       -2.1570     2.4720     0.0130 H     1 <1>   0.1500 
 23 H       -4.5310    -1.5530    -1.5230 H     1 <1>   0.1500 
 24 H       -4.5090     2.1330     0.6270 H     1 <1>   0.1500 
 25 H       -6.5820     2.0420     0.3530 H     1 <1>   0.3700 
 26 H       -8.4640     0.3730     1.5760 H     1 <1>   0.0800 
 27 H       -8.8480     0.4350    -0.1260 H     1 <1>   0.0800 
 28 H      -11.9340     1.3120     1.9830 H     1 <1>   0.0800 
 29 H      -10.7660     0.3240     1.1780 H     1 <1>   0.0800 
 30 H      -10.3470     4.4510     1.5650 H     1 <1>   0.0800 
 31 H      -11.8870     3.7000     1.8430 H     1 <1>   0.0800 
 32 H      -12.7020     0.2320    -0.1430 H     1 <1>   0.0800 
 33 H      -11.6000     1.2250    -1.0380 H     1 <1>   0.0800 
 34 H      -10.7090     3.9760    -0.9250 H     1 <1>   0.0800 
 35 H      -11.5810     5.2780    -0.2070 H     1 <1>   0.0800 
 36 H      -13.6770     2.4170     0.8230 H     1 <1>   0.0800 
 37 H      -14.1040     1.9320    -0.7790 H     1 <1>   0.0800 
 38 H      -12.7630     3.5510    -1.8110 H     1 <1>   0.0800 
 39 H      -13.6060     4.3460    -0.5320 H     1 <1>   0.0800 
@<TRIPOS>BOND
  1   1   2  1   
  2   2   3  ar  
  3   2   4  ar  
  4   3   5  ar  
  5   3  21  1   
  6   4   6  ar  
  7   4  22  1   
  8   5   7  ar  
  9   5  23  1   
 10   6   7  ar  
 11   6  24  1   
 12   7   8  1   
 13   8   9  2   
 14   8  10  am  
 15  10  11  1   
 16  10  25  1   
 17  11  12  1   
 18  11  26  1   
 19  11  27  1   
 20  12  13  2   
 21  12  14  am  
 22  14  15  1   
 23  14  16  1   
 24  15  17  1   
 25  15  28  1   
 26  15  29  1   
 27  16  18  1   
 28  16  30  1   
 29  16  31  1   
 30  17  19  1   
 31  17  32  1   
 32  17  33  1   
 33  18  20  1   
 34  18  34  1   
 35  18  35  1   
 36  19  20  1   
 37  19  36  1   
 38  19  37  1   
 39  20  38  1   
 40  20  39  1   
@<TRIPOS>SUBSTRUCTURE
  1 ****  10 GROUP 4 **** **** 0

# MOE 2024.06 (io_trps.svl 2023.06)
