@<TRIPOS>MOLECULE
NONAME
37 38 1 0 0 
SMALL
USER_CHARGES


@<TRIPOS>ATOM
  1 N       -0.2810     0.2900     0.4910 N.4   1 <1>  -0.9060 
  2 C       -1.4150     0.9450    -0.2220 C.3   1 <1>   0.3430 
  3 C       -0.1080    -1.1380     0.1150 C.3   1 <1>   0.3430 
  4 C       -2.7320     0.2070     0.0750 C.3   1 <1>  -0.0800 
  5 C       -1.3910    -1.9100     0.4310 C.3   1 <1>  -0.1600 
  6 C       -2.6170    -1.2910    -0.2570 C.3   1 <1>  -0.1600 
  7 C       -3.9000     0.8540    -0.6900 C.3   1 <1>  -0.0170 
  8 C       -3.8900     2.3610    -0.4910 C.ar  1 <1>  -0.1430 
  9 C       -3.4930     3.2040    -1.5180 C.ar  1 <1>  -0.1500 
 10 C       -4.2580     2.9060     0.7290 C.ar  1 <1>  -0.1500 
 11 C       -3.4450     4.5720    -1.3190 C.ar  1 <1>  -0.1500 
 12 C       -4.2100     4.2740     0.9260 C.ar  1 <1>  -0.1500 
 13 C       -3.8000     5.1160    -0.0950 C.ar  1 <1>  -0.1430 
 14 C       -3.7490     6.6190     0.1220 C.3   1 <1>  -0.0170 
 15 C       -2.3740     7.0420     0.6440 C.3   1 <1>  -0.2400 
 16 H       -0.4570     0.3510     1.5010 H     1 <1>   0.4500 
 17 H        0.5850     0.8110     0.3060 H     1 <1>   0.4500 
 18 H       -1.2340     0.9350    -1.2840 H     1 <1>   0.0800 
 19 H       -1.5020     1.9740     0.0930 H     1 <1>   0.0800 
 20 H        0.7180    -1.5690     0.6590 H     1 <1>   0.0800 
 21 H        0.1050    -1.2140    -0.9400 H     1 <1>   0.0800 
 22 H       -2.9380     0.3130     1.1260 H     1 <1>   0.0800 
 23 H       -1.5420    -1.9360     1.4960 H     1 <1>   0.0800 
 24 H       -1.2770    -2.9290     0.1000 H     1 <1>   0.0800 
 25 H       -2.5290    -1.4230    -1.3230 H     1 <1>   0.0800 
 26 H       -3.5090    -1.8060     0.0620 H     1 <1>   0.0800 
 27 H       -4.8360     0.4550    -0.3370 H     1 <1>   0.0800 
 28 H       -3.8300     0.6290    -1.7400 H     1 <1>   0.0800 
 29 H       -3.2200     2.8090    -2.4810 H     1 <1>   0.1500 
 30 H       -4.5870     2.2720     1.5340 H     1 <1>   0.1500 
 31 H       -3.1340     5.2170    -2.1220 H     1 <1>   0.1500 
 32 H       -4.4970     4.6860     1.8790 H     1 <1>   0.1500 
 33 H       -4.5080     6.9100     0.8280 H     1 <1>   0.0800 
 34 H       -3.9560     7.1270    -0.8040 H     1 <1>   0.0800 
 35 H       -2.1660     6.5550     1.5800 H     1 <1>   0.0800 
 36 H       -2.3480     8.1070     0.7940 H     1 <1>   0.0800 
 37 H       -1.6100     6.7740    -0.0640 H     1 <1>   0.0800 
@<TRIPOS>BOND
  1   1   2  1   
  2   1   3  1   
  3   1  16  1   
  4   1  17  1   
  5   2   4  1   
  6   2  18  1   
  7   2  19  1   
  8   3   5  1   
  9   3  20  1   
 10   3  21  1   
 11   4   6  1   
 12   4   7  1   
 13   4  22  1   
 14   5   6  1   
 15   5  23  1   
 16   5  24  1   
 17   6  25  1   
 18   6  26  1   
 19   7   8  1   
 20   7  27  1   
 21   7  28  1   
 22   8   9  ar  
 23   8  10  ar  
 24   9  11  ar  
 25   9  29  1   
 26  10  12  ar  
 27  10  30  1   
 28  11  13  ar  
 29  11  31  1   
 30  12  13  ar  
 31  12  32  1   
 32  13  14  1   
 33  14  15  1   
 34  14  33  1   
 35  14  34  1   
 36  15  35  1   
 37  15  36  1   
 38  15  37  1   
@<TRIPOS>SUBSTRUCTURE
  1 ****   8 GROUP 4 **** **** 0

# MOE 2024.06 (io_trps.svl 2023.06)
