@<TRIPOS>MOLECULE
NONAME
49 51 1 0 0 
SMALL
USER_CHARGES


@<TRIPOS>ATOM
  1 S        0.4490    -0.2290     0.4100 S.o2  1 <1>   1.5760 
  2 O        0.8180     0.1020     1.7680 O.2   1 <1>  -0.6500 
  3 O       -0.3370     0.6890    -0.3850 O.2   1 <1>  -0.6500 
  4 N        1.8580    -0.6060    -0.4350 N.am  1 <1>  -0.8490 
  5 N       -0.3150    -1.7330     0.3950 N.am  1 <1>  -0.8490 
  6 C        2.5910     0.6180    -0.7950 C.3   1 <1>   0.1960 
  7 C        2.7300    -1.5020     0.3430 C.3   1 <1>   0.1960 
  8 C       -1.4180    -1.7620     1.3550 C.3   1 <1>   0.1960 
  9 C       -0.7810    -2.0830    -0.9510 C.3   1 <1>   0.1960 
 10 C        3.8460     0.3000    -1.6250 C.3   1 <1>   0.1400 
 11 C        3.9970    -1.8900    -0.4390 C.3   1 <1>   0.1400 
 12 C       -2.0150    -3.1720     1.4330 C.3   1 <1>  -0.1600 
 13 C       -1.3440    -3.5080    -0.9590 C.3   1 <1>  -0.1600 
 14 N        4.7280    -0.6720    -0.9070 N.am  1 <1>  -0.6600 
 15 C       -2.4810    -3.6620     0.0570 C.3   1 <1>  -0.1600 
 16 C        5.9960    -0.3300    -0.4840 C.2   1 <1>   0.5440 
 17 O        6.3390     0.8350    -0.5440 O.2   1 <1>  -0.5700 
 18 C        6.9190    -1.3190     0.0430 C.ar  1 <1>   0.0860 
 19 C        7.5640    -1.1170     1.2610 C.ar  1 <1>  -0.1500 
 20 C        7.1960    -2.5000    -0.6440 C.ar  1 <1>  -0.1500 
 21 C        8.4330    -2.0600     1.7810 C.ar  1 <1>  -0.1500 
 22 C        8.0640    -3.4460    -0.1290 C.ar  1 <1>  -0.1500 
 23 C        8.6870    -3.2320     1.0890 C.ar  1 <1>  -0.1440 
 24 C        9.6400    -4.2670     1.6580 C.3   1 <1>  -0.0970 
 25 H        2.8810     1.1520     0.0950 H     1 <1>   0.0800 
 26 H        1.9520     1.2630    -1.3760 H     1 <1>   0.0800 
 27 H        2.1920    -2.4010     0.5940 H     1 <1>   0.0800 
 28 H        3.0220    -1.0270     1.2650 H     1 <1>   0.0800 
 29 H       -2.1760    -1.0530     1.0640 H     1 <1>   0.0800 
 30 H       -1.0560    -1.4860     2.3330 H     1 <1>   0.0800 
 31 H        0.0400    -2.0270    -1.6470 H     1 <1>   0.0800 
 32 H       -1.5400    -1.3880    -1.2720 H     1 <1>   0.0800 
 33 H        4.3740     1.2140    -1.8330 H     1 <1>   0.0800 
 34 H        3.5470    -0.1260    -2.5660 H     1 <1>   0.0800 
 35 H        3.7170    -2.4840    -1.2910 H     1 <1>   0.0800 
 36 H        4.6220    -2.4910     0.1970 H     1 <1>   0.0800 
 37 H       -2.8450    -3.1700     2.1180 H     1 <1>   0.0800 
 38 H       -1.2690    -3.8410     1.8240 H     1 <1>   0.0800 
 39 H       -0.5500    -4.1950    -0.7260 H     1 <1>   0.0800 
 40 H       -1.7060    -3.7430    -1.9450 H     1 <1>   0.0800 
 41 H       -3.3270    -3.0770    -0.2620 H     1 <1>   0.0800 
 42 H       -2.7880    -4.6920     0.1160 H     1 <1>   0.0800 
 43 H        7.3770    -0.2050     1.8000 H     1 <1>   0.1500 
 44 H        6.7250    -2.6720    -1.5960 H     1 <1>   0.1500 
 45 H        8.9130    -1.8750     2.7270 H     1 <1>   0.1500 
 46 H        8.2570    -4.3500    -0.6810 H     1 <1>   0.1500 
 47 H       10.3990    -3.7930     2.2550 H     1 <1>   0.0800 
 48 H       10.1250    -4.8100     0.8660 H     1 <1>   0.0800 
 49 H        9.0980    -4.9620     2.2740 H     1 <1>   0.0800 
@<TRIPOS>BOND
  1   1   2  2   
  2   1   3  2   
  3   1   4  am  
  4   1   5  am  
  5   4   6  1   
  6   4   7  1   
  7   5   8  1   
  8   5   9  1   
  9   6  10  1   
 10   6  25  1   
 11   6  26  1   
 12   7  11  1   
 13   7  27  1   
 14   7  28  1   
 15   8  12  1   
 16   8  29  1   
 17   8  30  1   
 18   9  13  1   
 19   9  31  1   
 20   9  32  1   
 21  10  14  1   
 22  10  33  1   
 23  10  34  1   
 24  11  14  1   
 25  11  35  1   
 26  11  36  1   
 27  12  15  1   
 28  12  37  1   
 29  12  38  1   
 30  13  15  1   
 31  13  39  1   
 32  13  40  1   
 33  14  16  am  
 34  15  41  1   
 35  15  42  1   
 36  16  17  2   
 37  16  18  1   
 38  18  19  ar  
 39  18  20  ar  
 40  19  21  ar  
 41  19  43  1   
 42  20  22  ar  
 43  20  44  1   
 44  21  23  ar  
 45  21  45  1   
 46  22  23  ar  
 47  22  46  1   
 48  23  24  1   
 49  24  47  1   
 50  24  48  1   
 51  24  49  1   
@<TRIPOS>SUBSTRUCTURE
  1 ****   7 GROUP 4 **** **** 0

# MOE 2024.06 (io_trps.svl 2023.06)
