@<TRIPOS>MOLECULE
NONAME
36 36 1 0 0 
SMALL
USER_CHARGES


@<TRIPOS>ATOM
  1 S        0.1050    -0.2100    -0.6170 S.o2  1 <1>   1.3330 
  2 O        0.9310     0.5550    -1.5180 O.2   1 <1>  -0.6500 
  3 O       -0.4690     0.4180     0.5470 O.2   1 <1>  -0.6500 
  4 N        1.0680    -1.5540    -0.0750 N.am  1 <1>  -0.6930 
  5 C       -1.2050    -0.9020    -1.6080 C.3   1 <1>  -0.1350 
  6 C        2.4310    -1.3830     0.1800 C.ar  1 <1>   0.1990 
  7 C        0.4140    -2.7640     0.5220 C.3   1 <1>   0.3370 
  8 C        3.3520    -2.3540    -0.2020 C.ar  1 <1>  -0.1500 
  9 C        2.9070    -0.2550     0.8370 C.ar  1 <1>  -0.1500 
 10 C       -0.2150    -3.6820    -0.5530 C.2   1 <1>   0.5690 
 11 C       -0.5370    -2.3820     1.6670 C.3   1 <1>  -0.2400 
 12 C        4.7060    -2.2140     0.0580 C.ar  1 <1>  -0.1440 
 13 C        4.2540    -0.1040     1.0990 C.ar  1 <1>  -0.1500 
 14 O       -1.2480    -4.2670    -0.3460 O.2   1 <1>  -0.5700 
 15 N        0.3880    -3.8250    -1.7550 N.am  1 <1>  -0.8000 
 16 C        5.1640    -1.0770     0.7150 C.ar  1 <1>  -0.1430 
 17 C        5.6650    -3.3110    -0.3860 C.3   1 <1>  -0.0970 
 18 C        6.6400    -0.8700     1.0210 C.3   1 <1>  -0.0970 
 19 H       -1.8090    -0.1100    -2.0060 H     1 <1>   0.0800 
 20 H       -1.8360    -1.5400    -1.0230 H     1 <1>   0.0800 
 21 H       -0.8000    -1.4590    -2.4290 H     1 <1>   0.0800 
 22 H        1.1880    -3.3570     0.9780 H     1 <1>   0.0800 
 23 H        3.0030    -3.2300    -0.7110 H     1 <1>   0.1500 
 24 H        2.2210     0.5120     1.1490 H     1 <1>   0.1500 
 25 H       -1.4310    -1.9180     1.2960 H     1 <1>   0.0800 
 26 H       -0.0440    -1.7180     2.3550 H     1 <1>   0.0800 
 27 H       -0.8280    -3.2690     2.2010 H     1 <1>   0.0800 
 28 H        4.5900     0.7840     1.6060 H     1 <1>   0.1500 
 29 H       -0.0160    -4.4440    -2.4600 H     1 <1>   0.3700 
 30 H        1.2210    -3.2940    -2.0230 H     1 <1>   0.3700 
 31 H        5.1410    -4.1140    -0.8700 H     1 <1>   0.0800 
 32 H        6.1850    -3.7120     0.4660 H     1 <1>   0.0800 
 33 H        6.3840    -2.9120    -1.0790 H     1 <1>   0.0800 
 34 H        7.2080    -0.8610     0.1090 H     1 <1>   0.0800 
 35 H        7.0010    -1.6620     1.6520 H     1 <1>   0.0800 
 36 H        6.8020     0.0640     1.5270 H     1 <1>   0.0800 
@<TRIPOS>BOND
  1   1   2  2   
  2   1   3  2   
  3   1   4  am  
  4   1   5  1   
  5   4   6  1   
  6   4   7  1   
  7   5  19  1   
  8   5  20  1   
  9   5  21  1   
 10   6   8  ar  
 11   6   9  ar  
 12   7  10  1   
 13   7  11  1   
 14   7  22  1   
 15   8  12  ar  
 16   8  23  1   
 17   9  13  ar  
 18   9  24  1   
 19  10  14  2   
 20  10  15  am  
 21  11  25  1   
 22  11  26  1   
 23  11  27  1   
 24  12  16  ar  
 25  12  17  1   
 26  13  16  ar  
 27  13  28  1   
 28  15  29  1   
 29  15  30  1   
 30  16  18  1   
 31  17  31  1   
 32  17  32  1   
 33  17  33  1   
 34  18  34  1   
 35  18  35  1   
 36  18  36  1   
@<TRIPOS>SUBSTRUCTURE
  1 ****   6 GROUP 4 **** **** 0

# MOE 2024.06 (io_trps.svl 2023.06)
