@<TRIPOS>MOLECULE
NONAME
44 47 1 0 0 
SMALL
USER_CHARGES


@<TRIPOS>ATOM
  1 S        0.1850     0.0380    -0.3950 S.3   1 <1>  -0.0800 
  2 C        0.9050     1.5540     0.1610 C.ar  1 <1>   0.2970 
  3 C       -1.3900     0.8070    -0.5560 C.2   1 <1>  -0.1400 
  4 N        2.1720     1.6550     0.4930 N.ar  1 <1>  -0.5670 
  5 C       -0.0330     2.5620     0.1890 C.ar  1 <1>   0.0000 
  6 C       -1.3410     2.0970    -0.2080 C.2   1 <1>  -0.1810 
  7 C       -2.6110     0.0390    -1.0160 C.3   1 <1>   0.3000 
  8 C        2.4730     2.8790     0.8780 C.ar  1 <1>   0.7220 
  9 C        0.4580     3.8070     0.5970 C.ar  1 <1>   0.4100 
 10 C       -2.6210     2.9100    -0.2550 C.3   1 <1>   0.0210 
 11 O       -3.6700     0.9420    -1.2380 O.3   1 <1>  -0.5600 
 12 S        4.1720     3.1390     1.3720 S.3   1 <1>  -0.3320 
 13 N        1.7170     3.9620     0.9570 N.ar  1 <1>  -0.6200 
 14 N       -0.3310     4.9340     0.6150 N.pl3 1 <1>  -0.8380 
 15 C       -3.8700     1.9870    -0.3180 C.3   1 <1>   0.2800 
 16 C        4.9910     1.4930     1.1700 C.3   1 <1>  -0.0100 
 17 C       -0.2300     5.8850     1.7660 C.3   1 <1>   0.2090 
 18 C       -0.5740     5.6290    -0.6840 C.3   1 <1>   0.2090 
 19 C       -5.0780     2.7660    -0.8400 C.3   1 <1>  -0.2400 
 20 C       -4.2170     1.3870     1.0540 C.3   1 <1>  -0.2400 
 21 C        0.6900     7.0760     1.4370 C.3   1 <1>   0.1200 
 22 C        0.3800     6.8250    -0.8630 C.3   1 <1>   0.1200 
 23 O        0.3070     7.6890     0.2360 O.3   1 <1>  -0.5600 
 24 H       -2.9160    -0.6780    -0.2750 H     1 <1>   0.0800 
 25 H       -2.4140    -0.4680    -1.9430 H     1 <1>   0.0800 
 26 H       -2.5950     3.5420    -1.1230 H     1 <1>   0.0800 
 27 H       -2.6890     3.5410     0.6120 H     1 <1>   0.0800 
 28 H        6.0210     1.6010     1.4580 H     1 <1>   0.0800 
 29 H        4.9070     1.2070     0.1360 H     1 <1>   0.0800 
 30 H        4.4820     0.7910     1.8060 H     1 <1>   0.0800 
 31 H        0.1500     5.3690     2.6310 H     1 <1>   0.0800 
 32 H       -1.2120     6.2530     2.0070 H     1 <1>   0.0800 
 33 H       -1.5900     5.9810    -0.7140 H     1 <1>   0.0800 
 34 H       -0.4340     4.9400    -1.4990 H     1 <1>   0.0800 
 35 H       -4.8780     3.1430    -1.8270 H     1 <1>   0.0800 
 36 H       -5.2970     3.5950    -0.1930 H     1 <1>   0.0800 
 37 H       -5.9410     2.1270    -0.8820 H     1 <1>   0.0800 
 38 H       -3.3690     0.8940     1.4920 H     1 <1>   0.0800 
 39 H       -5.0280     0.6870     0.9600 H     1 <1>   0.0800 
 40 H       -4.5210     2.1670     1.7280 H     1 <1>   0.0800 
 41 H        1.7100     6.7450     1.3470 H     1 <1>   0.0800 
 42 H        0.6340     7.8140     2.2170 H     1 <1>   0.0800 
 43 H        0.1140     7.3850    -1.7410 H     1 <1>   0.0800 
 44 H        1.3950     6.4800    -0.9650 H     1 <1>   0.0800 
@<TRIPOS>BOND
  1   1   2  1   
  2   1   3  1   
  3   2   4  ar  
  4   2   5  ar  
  5   3   6  2   
  6   3   7  1   
  7   4   8  ar  
  8   5   6  1   
  9   5   9  ar  
 10   6  10  1   
 11   7  11  1   
 12   7  24  1   
 13   7  25  1   
 14   8  12  1   
 15   8  13  ar  
 16   9  13  ar  
 17   9  14  1   
 18  10  15  1   
 19  10  26  1   
 20  10  27  1   
 21  11  15  1   
 22  12  16  1   
 23  14  17  1   
 24  14  18  1   
 25  15  19  1   
 26  15  20  1   
 27  16  28  1   
 28  16  29  1   
 29  16  30  1   
 30  17  21  1   
 31  17  31  1   
 32  17  32  1   
 33  18  22  1   
 34  18  33  1   
 35  18  34  1   
 36  19  35  1   
 37  19  36  1   
 38  19  37  1   
 39  20  38  1   
 40  20  39  1   
 41  20  40  1   
 42  21  23  1   
 43  21  41  1   
 44  21  42  1   
 45  22  23  1   
 46  22  43  1   
 47  22  44  1   
@<TRIPOS>SUBSTRUCTURE
  1 ****   5 GROUP 4 **** **** 0

# MOE 2024.06 (io_trps.svl 2023.06)
