@<TRIPOS>MOLECULE
NONAME
54 56 1 0 0 
SMALL
USER_CHARGES


@<TRIPOS>ATOM
  1 S       -0.6650    -0.3040    -0.8950 S.o2  1 <1>   1.4470 
  2 O        0.1290     0.8200    -0.4470 O.2   1 <1>  -0.6500 
  3 O       -0.6600    -0.6660    -2.2960 O.2   1 <1>  -0.6500 
  4 N       -0.1100    -1.6600    -0.0430 N.am  1 <1>  -0.8490 
  5 C       -2.3780    -0.1370    -0.3260 C.ar  1 <1>  -0.0090 
  6 C        1.1560    -2.1600    -0.6010 C.3   1 <1>   0.1960 
  7 C        0.0650    -1.3960     1.3950 C.3   1 <1>   0.1960 
  8 C       -3.3420    -1.0710    -0.6840 C.ar  1 <1>  -0.1500 
  9 C       -2.7710     0.9120     0.4970 C.ar  1 <1>  -0.1500 
 10 C        1.6660    -3.3840     0.1810 C.3   1 <1>   0.1200 
 11 C        0.5910    -2.6450     2.1260 C.3   1 <1>   0.1200 
 12 C       -4.6470    -0.9620    -0.2380 C.ar  1 <1>  -0.1500 
 13 C       -4.0740     1.0240     0.9470 C.ar  1 <1>  -0.1500 
 14 O        1.7850    -3.0870     1.5440 O.3   1 <1>  -0.5600 
 15 C       -5.0350     0.0860     0.5860 C.ar  1 <1>   0.1170 
 16 N       -6.3690     0.1460     1.0050 N.am  1 <1>  -0.5470 
 17 C       -7.0600     0.9740     1.8440 C.2   1 <1>   0.5690 
 18 O       -6.5770     1.9020     2.4470 O.2   1 <1>  -0.5700 
 19 C       -8.5490     0.6650     2.0100 C.3   1 <1>   0.1710 
 20 N       -9.1050    -0.1660     0.9010 N.3   1 <1>  -0.8100 
 21 C      -10.3670    -0.8280     1.2720 C.3   1 <1>   0.1100 
 22 C       -9.2810     0.6120    -0.3550 C.3   1 <1>   0.1100 
 23 C      -10.8650    -1.7680     0.1430 C.3   1 <1>   0.2000 
 24 C      -10.3870     0.0590    -1.2920 C.3   1 <1>   0.2000 
 25 O      -10.5210    -1.3210    -1.1420 O.3   1 <1>  -0.5600 
 26 C      -12.3800    -1.9680     0.1760 C.3   1 <1>  -0.2400 
 27 C      -10.0870     0.3250    -2.7650 C.3   1 <1>  -0.2400 
 28 H        1.9050    -1.3840    -0.5720 H     1 <1>   0.0800 
 29 H        1.0120    -2.4420    -1.6310 H     1 <1>   0.0800 
 30 H       -0.8770    -1.1090     1.8290 H     1 <1>   0.0800 
 31 H        0.7640    -0.5890     1.5460 H     1 <1>   0.0800 
 32 H       -3.0630    -1.8930    -1.3210 H     1 <1>   0.1500 
 33 H       -2.0480     1.6560     0.7910 H     1 <1>   0.1500 
 34 H        2.6360    -3.6780    -0.1770 H     1 <1>   0.0800 
 35 H        0.9880    -4.2120     0.0670 H     1 <1>   0.0800 
 36 H       -0.1310    -3.4420     2.0800 H     1 <1>   0.0800 
 37 H        0.7930    -2.4170     3.1570 H     1 <1>   0.0800 
 38 H       -5.3710    -1.7000    -0.5340 H     1 <1>   0.1500 
 39 H       -4.3380     1.8510     1.5800 H     1 <1>   0.1500 
 40 H       -7.0070    -0.5400     0.5850 H     1 <1>   0.3700 
 41 H       -9.0950     1.5890     2.0940 H     1 <1>   0.0800 
 42 H       -8.6550     0.1350     2.9400 H     1 <1>   0.0800 
 43 H      -11.1160    -0.0820     1.4770 H     1 <1>   0.0800 
 44 H      -10.2300    -1.4080     2.1680 H     1 <1>   0.0800 
 45 H       -8.3450     0.6210    -0.8860 H     1 <1>   0.0800 
 46 H       -9.5260     1.6360    -0.1290 H     1 <1>   0.0800 
 47 H      -10.3870    -2.7240     0.2630 H     1 <1>   0.0800 
 48 H      -11.3320     0.5090    -1.0390 H     1 <1>   0.0800 
 49 H      -12.8910    -1.0320     0.0400 H     1 <1>   0.0800 
 50 H      -12.6740    -2.3870     1.1210 H     1 <1>   0.0800 
 51 H      -12.6720    -2.6490    -0.6030 H     1 <1>   0.0800 
 52 H       -9.1710    -0.1600    -3.0500 H     1 <1>   0.0800 
 53 H       -9.9920     1.3810    -2.9390 H     1 <1>   0.0800 
 54 H      -10.8910    -0.0510    -3.3720 H     1 <1>   0.0800 
@<TRIPOS>BOND
  1   1   2  2   
  2   1   3  2   
  3   1   4  am  
  4   1   5  1   
  5   4   6  1   
  6   4   7  1   
  7   5   8  ar  
  8   5   9  ar  
  9   6  10  1   
 10   6  28  1   
 11   6  29  1   
 12   7  11  1   
 13   7  30  1   
 14   7  31  1   
 15   8  12  ar  
 16   8  32  1   
 17   9  13  ar  
 18   9  33  1   
 19  10  14  1   
 20  10  34  1   
 21  10  35  1   
 22  11  14  1   
 23  11  36  1   
 24  11  37  1   
 25  12  15  ar  
 26  12  38  1   
 27  13  15  ar  
 28  13  39  1   
 29  15  16  1   
 30  16  17  am  
 31  16  40  1   
 32  17  18  2   
 33  17  19  1   
 34  19  20  1   
 35  19  41  1   
 36  19  42  1   
 37  20  21  1   
 38  20  22  1   
 39  21  23  1   
 40  21  43  1   
 41  21  44  1   
 42  22  24  1   
 43  22  45  1   
 44  22  46  1   
 45  23  25  1   
 46  23  26  1   
 47  23  47  1   
 48  24  25  1   
 49  24  27  1   
 50  24  48  1   
 51  26  49  1   
 52  26  50  1   
 53  26  51  1   
 54  27  52  1   
 55  27  53  1   
 56  27  54  1   
@<TRIPOS>SUBSTRUCTURE
  1 ****  12 GROUP 4 **** **** 0

# MOE 2024.06 (io_trps.svl 2023.06)
