@<TRIPOS>MOLECULE
NONAME
45 46 1 0 0 
SMALL
USER_CHARGES


@<TRIPOS>ATOM
  1 CL       2.6230     2.9110     2.2210 Cl    1 <1>  -0.1770 
  2 C        1.2740     3.2560     1.1690 C.ar  1 <1>   0.1770 
  3 C        0.0350     3.5180     1.7220 C.ar  1 <1>  -0.1500 
  4 C        1.4680     3.2590    -0.1980 C.ar  1 <1>  -0.1500 
  5 C       -1.0590     3.7950     0.9070 C.ar  1 <1>  -0.0090 
  6 C        0.3930     3.5320    -1.0230 C.ar  1 <1>  -0.1500 
  7 S       -2.6840     4.1420     1.6290 S.o2  1 <1>   1.4470 
  8 C       -0.8540     3.8020    -0.4720 C.ar  1 <1>   0.0830 
  9 O       -3.1500     5.4360     1.1770 O.2   1 <1>  -0.6500 
 10 O       -2.6250     3.8940     3.0550 O.2   1 <1>  -0.6500 
 11 N       -3.7160     2.9580     0.9900 N.am  1 <1>  -0.8490 
 12 O       -1.8800     4.0500    -1.3080 O.3   1 <1>  -0.3630 
 13 C       -5.1280     3.2990     1.2150 C.3   1 <1>   0.1960 
 14 C       -3.4170     1.6190     1.5040 C.3   1 <1>   0.1960 
 15 C       -1.9400     5.3420    -1.8710 C.3   1 <1>   0.0400 
 16 C       -6.0390     2.3250     0.4580 C.3   1 <1>  -0.0190 
 17 C       -4.2530     0.5730     0.7600 C.3   1 <1>  -0.1600 
 18 C       -7.4960     2.6960     0.6860 C.2   1 <1>   0.5690 
 19 C       -5.7540     0.8710     0.8770 C.3   1 <1>  -0.1600 
 20 O       -7.9020     2.8470     1.8130 O.2   1 <1>  -0.5700 
 21 N       -8.3080     2.8460    -0.3880 N.am  1 <1>  -0.7300 
 22 C       -9.7340     3.1810    -0.3160 C.3   1 <1>   0.2780 
 23 C      -10.4200     2.4480    -1.4480 C.2   1 <1>  -0.2880 
 24 C      -11.0090     3.0250    -2.5010 C.2   1 <1>  -0.3000 
 25 H       -0.0730     3.5070     2.7930 H     1 <1>   0.1500 
 26 H        2.4410     3.0480    -0.6050 H     1 <1>   0.1500 
 27 H        0.5130     3.5340    -2.0920 H     1 <1>   0.1500 
 28 H       -5.3240     4.2970     0.8580 H     1 <1>   0.0800 
 29 H       -5.3480     3.2750     2.2710 H     1 <1>   0.0800 
 30 H       -3.6290     1.5740     2.5610 H     1 <1>   0.0800 
 31 H       -2.3730     1.3980     1.3590 H     1 <1>   0.0800 
 32 H       -2.8390     5.4090    -2.4580 H     1 <1>   0.0800 
 33 H       -1.0790     5.4960    -2.4950 H     1 <1>   0.0800 
 34 H       -1.9670     6.0690    -1.0790 H     1 <1>   0.0800 
 35 H       -5.8230     2.4320    -0.5890 H     1 <1>   0.0800 
 36 H       -4.0450    -0.4020     1.1630 H     1 <1>   0.0800 
 37 H       -3.9600     0.5710    -0.2760 H     1 <1>   0.0800 
 38 H       -6.3150     0.1920     0.2600 H     1 <1>   0.0800 
 39 H       -6.0650     0.7290     1.8990 H     1 <1>   0.0800 
 40 H       -7.9550     2.7180    -1.3360 H     1 <1>   0.3700 
 41 H       -9.8560     4.2450    -0.4250 H     1 <1>   0.0800 
 42 H      -10.1460     2.8800     0.6330 H     1 <1>   0.0800 
 43 H      -10.3870     1.3800    -1.3160 H     1 <1>   0.1500 
 44 H      -11.4920     2.4780    -3.2930 H     1 <1>   0.1500 
 45 H      -11.0590     4.0890    -2.6620 H     1 <1>   0.1500 
@<TRIPOS>BOND
  1   1   2  1   
  2   2   3  ar  
  3   2   4  ar  
  4   3   5  ar  
  5   3  25  1   
  6   4   6  ar  
  7   4  26  1   
  8   5   7  1   
  9   5   8  ar  
 10   6   8  ar  
 11   6  27  1   
 12   7   9  2   
 13   7  10  2   
 14   7  11  am  
 15   8  12  1   
 16  11  13  1   
 17  11  14  1   
 18  12  15  1   
 19  13  16  1   
 20  13  28  1   
 21  13  29  1   
 22  14  17  1   
 23  14  30  1   
 24  14  31  1   
 25  15  32  1   
 26  15  33  1   
 27  15  34  1   
 28  16  18  1   
 29  16  19  1   
 30  16  35  1   
 31  17  19  1   
 32  17  36  1   
 33  17  37  1   
 34  18  20  2   
 35  18  21  am  
 36  19  38  1   
 37  19  39  1   
 38  21  22  1   
 39  21  40  1   
 40  22  23  1   
 41  22  41  1   
 42  22  42  1   
 43  23  24  2   
 44  23  43  1   
 45  24  44  1   
 46  24  45  1   
@<TRIPOS>SUBSTRUCTURE
  1 ****  11 GROUP 4 **** **** 0

# MOE 2024.06 (io_trps.svl 2023.06)
