@<TRIPOS>MOLECULE
NONAME
29 30 1 0 0 
SMALL
USER_CHARGES


@<TRIPOS>ATOM
  1 O       -0.0700     0.2520    -0.5240 O.3   1 <1>  -0.2800 
  2 C       -1.1950     0.8390    -0.1590 C.2   1 <1>  -0.0400 
  3 C        0.6490     0.0530     0.5620 C.2   1 <1>  -0.0100 
  4 C       -1.2110     1.0270     1.1810 C.2   1 <1>  -0.1500 
  5 C       -2.2110     1.1830    -1.2360 C.3   1 <1>   0.3890 
  6 C        0.0010     0.5100     1.6540 C.2   1 <1>  -0.1500 
  7 N       -3.4840     1.6290    -0.6270 N.pl3 1 <1>  -0.8690 
  8 C       -3.7960     2.9070    -0.3430 C.ar  1 <1>   0.7200 
  9 N       -3.1630     3.8620    -0.9680 N.ar  1 <1>  -0.6200 
 10 N       -4.7210     3.0510     0.5610 N.ar  1 <1>  -0.6200 
 11 C       -3.5420     5.0610    -0.6060 C.ar  1 <1>   0.7030 
 12 C       -5.0040     4.3030     0.8210 C.ar  1 <1>   0.7030 
 13 O       -2.9520     6.1190    -1.1810 O.3   1 <1>  -0.3620 
 14 N       -4.4540     5.3550     0.2800 N.ar  1 <1>  -0.6200 
 15 O       -5.9510     4.5680     1.7340 O.3   1 <1>  -0.3630 
 16 C       -1.9320     5.9840    -2.1520 C.3   1 <1>   0.0400 
 17 C       -6.6640     3.5490     2.4070 C.3   1 <1>   0.0400 
 18 H        1.6110    -0.4200     0.4690 H     1 <1>   0.1500 
 19 H       -1.9750     1.4810     1.7870 H     1 <1>   0.1500 
 20 H       -2.3990     0.3080    -1.8340 H     1 <1>   0.0800 
 21 H       -1.8060     1.9430    -1.8800 H     1 <1>   0.0800 
 22 H        0.3170     0.4970     2.6820 H     1 <1>   0.1500 
 23 H       -3.9220     0.9490    -0.0100 H     1 <1>   0.4000 
 24 H       -1.6230     6.9680    -2.4550 H     1 <1>   0.0800 
 25 H       -2.3230     5.4430    -2.9950 H     1 <1>   0.0800 
 26 H       -1.1040     5.4540    -1.7150 H     1 <1>   0.0800 
 27 H       -7.3660     4.0150     3.0750 H     1 <1>   0.0800 
 28 H       -5.9690     2.9450     2.9630 H     1 <1>   0.0800 
 29 H       -7.1870     2.9520     1.6800 H     1 <1>   0.0800 
@<TRIPOS>BOND
  1   1   2  1   
  2   1   3  1   
  3   2   4  2   
  4   2   5  1   
  5   3   6  2   
  6   3  18  1   
  7   4   6  1   
  8   4  19  1   
  9   5   7  1   
 10   5  20  1   
 11   5  21  1   
 12   6  22  1   
 13   7   8  1   
 14   7  23  1   
 15   8   9  ar  
 16   8  10  ar  
 17   9  11  ar  
 18  10  12  ar  
 19  11  13  1   
 20  11  14  ar  
 21  12  14  ar  
 22  12  15  1   
 23  13  16  1   
 24  15  17  1   
 25  16  24  1   
 26  16  25  1   
 27  16  26  1   
 28  17  27  1   
 29  17  28  1   
 30  17  29  1   
@<TRIPOS>SUBSTRUCTURE
  1 ****   8 GROUP 4 **** **** 0

# MOE 2024.06 (io_trps.svl 2023.06)
