@<TRIPOS>MOLECULE
NONAME
54 56 1 0 0 
SMALL
USER_CHARGES


@<TRIPOS>ATOM
  1 S        0.4190    -0.0990     0.2370 S.o2  1 <1>   1.4470 
  2 O        0.3210     0.2260     1.6440 O.2   1 <1>  -0.6500 
  3 O       -0.7080     0.1670    -0.6310 O.2   1 <1>  -0.6500 
  4 N        1.7320     0.7820    -0.3760 N.am  1 <1>  -0.8490 
  5 C        0.9460    -1.8220     0.0220 C.ar  1 <1>  -0.0090 
  6 C        2.9290     0.6450     0.4690 C.3   1 <1>   0.1960 
  7 C        1.3840     2.1960    -0.5450 C.3   1 <1>   0.1960 
  8 C        1.2070    -2.3330    -1.2440 C.ar  1 <1>  -0.1500 
  9 C        1.1190    -2.6700     1.1120 C.ar  1 <1>  -0.1500 
 10 C        4.1340     1.3010    -0.2130 C.3   1 <1>  -0.0190 
 11 C        2.5290     2.9460    -1.2390 C.3   1 <1>  -0.1600 
 12 C        1.6280    -3.6400    -1.4170 C.ar  1 <1>  -0.1500 
 13 C        1.5390    -3.9790     0.9500 C.ar  1 <1>  -0.1500 
 14 C        5.3750     1.1000     0.6410 C.2   1 <1>   0.5690 
 15 C        3.8540     2.7900    -0.4800 C.3   1 <1>  -0.1600 
 16 C        1.7990    -4.4720    -0.3250 C.ar  1 <1>   0.0830 
 17 O        5.3430     1.3940     1.8110 O.2   1 <1>  -0.5700 
 18 N        6.4830     0.5810     0.0580 N.am  1 <1>  -0.7300 
 19 O        2.2150    -5.7360    -0.5780 O.3   1 <1>  -0.3630 
 20 C        7.7530     0.2970     0.7440 C.3   1 <1>   0.2200 
 21 C        2.3800    -6.6780     0.4570 C.3   1 <1>   0.1200 
 22 C        8.8880     0.9320    -0.0490 C.3   1 <1>  -0.1600 
 23 C        8.0420    -1.1950     0.6340 C.3   1 <1>  -0.1600 
 24 C        2.8290    -7.9950    -0.1700 C.3   1 <1>  -0.2400 
 25 C        9.1950    -0.0400    -1.1950 C.3   1 <1>  -0.1600 
 26 C        8.6270    -1.4000    -0.7670 C.3   1 <1>  -0.1600 
 27 H        3.1490    -0.3970     0.6290 H     1 <1>   0.0800 
 28 H        2.7580     1.1010     1.4320 H     1 <1>   0.0800 
 29 H        1.1790     2.6400     0.4160 H     1 <1>   0.0800 
 30 H        0.4970     2.2840    -1.1510 H     1 <1>   0.0800 
 31 H        1.0780    -1.6960    -2.1030 H     1 <1>   0.1500 
 32 H        0.9210    -2.2980     2.1040 H     1 <1>   0.1500 
 33 H        4.2860     0.8020    -1.1520 H     1 <1>   0.0800 
 34 H        2.2760     3.9890    -1.3140 H     1 <1>   0.0800 
 35 H        2.6330     2.5620    -2.2390 H     1 <1>   0.0800 
 36 H        1.8260    -4.0230    -2.4030 H     1 <1>   0.1500 
 37 H        1.6580    -4.5940     1.8210 H     1 <1>   0.1500 
 38 H        4.6600     3.2220    -1.0480 H     1 <1>   0.0800 
 39 H        3.7910     3.3140     0.4600 H     1 <1>   0.0800 
 40 H        6.4860     0.3370    -0.9310 H     1 <1>   0.3700 
 41 H        7.7230     0.6370     1.7670 H     1 <1>   0.0800 
 42 H        1.4360    -6.8000     0.9610 H     1 <1>   0.0800 
 43 H        3.1250    -6.3080     1.1400 H     1 <1>   0.0800 
 44 H        9.7500     0.9990     0.5910 H     1 <1>   0.0800 
 45 H        8.6410     1.9210    -0.3930 H     1 <1>   0.0800 
 46 H        7.1660    -1.7940     0.8140 H     1 <1>   0.0800 
 47 H        8.7880    -1.4500     1.3660 H     1 <1>   0.0800 
 48 H        2.0850    -8.3480    -0.8620 H     1 <1>   0.0800 
 49 H        2.9630    -8.7370     0.5960 H     1 <1>   0.0800 
 50 H        3.7630    -7.8600    -0.6850 H     1 <1>   0.0800 
 51 H       10.2550    -0.0960    -1.3720 H     1 <1>   0.0800 
 52 H        8.7110     0.2890    -2.0990 H     1 <1>   0.0800 
 53 H        7.8490    -1.7000    -1.4480 H     1 <1>   0.0800 
 54 H        9.3900    -2.1610    -0.7580 H     1 <1>   0.0800 
@<TRIPOS>BOND
  1   1   2  2   
  2   1   3  2   
  3   1   4  am  
  4   1   5  1   
  5   4   6  1   
  6   4   7  1   
  7   5   8  ar  
  8   5   9  ar  
  9   6  10  1   
 10   6  27  1   
 11   6  28  1   
 12   7  11  1   
 13   7  29  1   
 14   7  30  1   
 15   8  12  ar  
 16   8  31  1   
 17   9  13  ar  
 18   9  32  1   
 19  10  14  1   
 20  10  15  1   
 21  10  33  1   
 22  11  15  1   
 23  11  34  1   
 24  11  35  1   
 25  12  16  ar  
 26  12  36  1   
 27  13  16  ar  
 28  13  37  1   
 29  14  17  2   
 30  14  18  am  
 31  15  38  1   
 32  15  39  1   
 33  16  19  1   
 34  18  20  1   
 35  18  40  1   
 36  19  21  1   
 37  20  22  1   
 38  20  23  1   
 39  20  41  1   
 40  21  24  1   
 41  21  42  1   
 42  21  43  1   
 43  22  25  1   
 44  22  44  1   
 45  22  45  1   
 46  23  26  1   
 47  23  46  1   
 48  23  47  1   
 49  24  48  1   
 50  24  49  1   
 51  24  50  1   
 52  25  26  1   
 53  25  51  1   
 54  25  52  1   
 55  26  53  1   
 56  26  54  1   
@<TRIPOS>SUBSTRUCTURE
  1 ****   6 GROUP 4 **** **** 0

# MOE 2024.06 (io_trps.svl 2023.06)
