@<TRIPOS>MOLECULE
NONAME
49 51 1 0 0 
SMALL
USER_CHARGES


@<TRIPOS>ATOM
  1 O       -0.1750    -1.6550    -3.3970 O.2   1 <1>  -0.5700 
  2 C       -0.1850    -2.3060    -2.3690 C.2   1 <1>   0.5440 
  3 N        1.0030    -2.8350    -1.9050 N.am  1 <1>  -0.6600 
  4 C       -1.4300    -2.4960    -1.6560 C.ar  1 <1>   0.0860 
  5 C        2.3090    -2.2260    -2.2610 C.3   1 <1>   0.1400 
  6 C        1.1020    -4.1490    -1.2150 C.3   1 <1>   0.1400 
  7 C       -1.5430    -2.1730    -0.2930 C.ar  1 <1>   0.1170 
  8 C       -2.5510    -2.9940    -2.3200 C.ar  1 <1>  -0.1500 
  9 C        3.1280    -2.0280    -0.9840 C.3   1 <1>  -0.1600 
 10 C        1.9580    -4.0260     0.0520 C.3   1 <1>  -0.1600 
 11 N       -0.4330    -1.6450     0.3820 N.am  1 <1>  -0.5470 
 12 C       -2.7470    -2.4130     0.3650 C.ar  1 <1>  -0.1500 
 13 C       -3.7440    -3.2050    -1.6600 C.ar  1 <1>  -0.1500 
 14 C        3.3160    -3.3470    -0.2080 C.3   1 <1>  -0.0800 
 15 C       -0.2470    -0.7830     1.4150 C.2   1 <1>   0.5690 
 16 C       -3.8400    -2.9200    -0.3090 C.ar  1 <1>  -0.1500 
 17 C        4.0540    -3.1190     1.1240 C.3   1 <1>  -0.0170 
 18 O        0.8640    -0.6030     1.8400 O.2   1 <1>  -0.5700 
 19 C       -1.3920    -0.0150     2.0290 C.3   1 <1>  -0.1790 
 20 C        5.4390    -2.5210     0.9230 C.ar  1 <1>  -0.1440 
 21 C        5.6630    -1.1750     1.1700 C.ar  1 <1>  -0.1500 
 22 C        6.4900    -3.3160     0.4920 C.ar  1 <1>  -0.1500 
 23 C        6.9220    -0.6290     0.9850 C.ar  1 <1>  -0.1500 
 24 C        7.7490    -2.7720     0.3060 C.ar  1 <1>  -0.1500 
 25 C        7.9660    -1.4270     0.5530 C.ar  1 <1>  -0.1500 
 26 H        2.1610    -1.2750    -2.7450 H     1 <1>   0.0800 
 27 H        2.8300    -2.8750    -2.9440 H     1 <1>   0.0800 
 28 H        1.5600    -4.8540    -1.8890 H     1 <1>   0.0800 
 29 H        0.1230    -4.5210    -0.9620 H     1 <1>   0.0800 
 30 H       -2.4730    -3.2130    -3.3720 H     1 <1>   0.1500 
 31 H        2.6400    -1.2980    -0.3630 H     1 <1>   0.0800 
 32 H        4.0880    -1.6280    -1.2580 H     1 <1>   0.0800 
 33 H        2.1240    -5.0120     0.4500 H     1 <1>   0.0800 
 34 H        1.4140    -3.4770     0.7980 H     1 <1>   0.0800 
 35 H        0.4660    -1.8970    -0.0510 H     1 <1>   0.3700 
 36 H       -2.8350    -2.2120     1.4160 H     1 <1>   0.1500 
 37 H       -4.5970    -3.5920    -2.1910 H     1 <1>   0.1500 
 38 H        3.9110    -4.0080    -0.8160 H     1 <1>   0.0800 
 39 H       -4.7670    -3.0940     0.2110 H     1 <1>   0.1500 
 40 H        4.1570    -4.0550     1.6440 H     1 <1>   0.0800 
 41 H        3.4690    -2.4680     1.7520 H     1 <1>   0.0800 
 42 H       -1.8430    -0.5980     2.8090 H     1 <1>   0.0800 
 43 H       -2.1240     0.2280     1.2820 H     1 <1>   0.0800 
 44 H       -1.0200     0.8990     2.4530 H     1 <1>   0.0800 
 45 H        4.8560    -0.5460     1.5060 H     1 <1>   0.1500 
 46 H        6.3310    -4.3620     0.2990 H     1 <1>   0.1500 
 47 H        7.0860     0.4160     1.1780 H     1 <1>   0.1500 
 48 H        8.5600    -3.3940    -0.0290 H     1 <1>   0.1500 
 49 H        8.9440    -1.0040     0.4090 H     1 <1>   0.1500 
@<TRIPOS>BOND
  1   1   2  2   
  2   2   3  am  
  3   2   4  1   
  4   3   5  1   
  5   3   6  1   
  6   4   7  ar  
  7   4   8  ar  
  8   5   9  1   
  9   5  26  1   
 10   5  27  1   
 11   6  10  1   
 12   6  28  1   
 13   6  29  1   
 14   7  11  1   
 15   7  12  ar  
 16   8  13  ar  
 17   8  30  1   
 18   9  14  1   
 19   9  31  1   
 20   9  32  1   
 21  10  14  1   
 22  10  33  1   
 23  10  34  1   
 24  11  15  am  
 25  11  35  1   
 26  12  16  ar  
 27  12  36  1   
 28  13  16  ar  
 29  13  37  1   
 30  14  17  1   
 31  14  38  1   
 32  15  18  2   
 33  15  19  1   
 34  16  39  1   
 35  17  20  1   
 36  17  40  1   
 37  17  41  1   
 38  19  42  1   
 39  19  43  1   
 40  19  44  1   
 41  20  21  ar  
 42  20  22  ar  
 43  21  23  ar  
 44  21  45  1   
 45  22  24  ar  
 46  22  46  1   
 47  23  25  ar  
 48  23  47  1   
 49  24  25  ar  
 50  24  48  1   
 51  25  49  1   
@<TRIPOS>SUBSTRUCTURE
  1 ****   9 GROUP 4 **** **** 0

# MOE 2024.06 (io_trps.svl 2023.06)
