@<TRIPOS>MOLECULE
NONAME
36 36 1 0 0 
SMALL
USER_CHARGES


@<TRIPOS>ATOM
  1 S        0.5670     0.4890    -0.7510 S.3   1 <1>  -0.3320 
  2 C       -1.0320     1.1850    -0.3240 C.ar  1 <1>   0.4120 
  3 C        1.8570     1.2330     0.3610 C.3   1 <1>   0.1310 
  4 N       -1.9960     0.2940    -0.4870 N.ar  1 <1>  -0.6200 
  5 C       -1.2250     2.4930     0.1350 C.ar  1 <1>   0.0860 
  6 C        2.9150     0.2040     0.7040 C.2   1 <1>   0.6590 
  7 C       -3.2210     0.6660    -0.1720 C.ar  1 <1>   0.1660 
  8 C       -0.1810     3.4770     0.2800 C.2   1 <1>   0.5440 
  9 C       -2.5270     2.8530     0.4450 C.ar  1 <1>  -0.1500 
 10 O        3.0420    -0.2140     1.8270 O.2   1 <1>  -0.5700 
 11 O        3.7020    -0.1900    -0.2900 O.3   1 <1>  -0.4300 
 12 C       -3.5640     1.9460     0.2840 C.ar  1 <1>   0.0860 
 13 C       -4.2570    -0.4370    -0.3190 C.3   1 <1>  -0.0960 
 14 O        0.5350     3.7970    -0.6400 O.2   1 <1>  -0.5700 
 15 N        0.0340     4.1040     1.4590 N.am  1 <1>  -0.8000 
 16 C        4.7060    -1.1570    -0.0940 C.3   1 <1>   0.1200 
 17 C       -4.9060     2.3720     0.5980 C.2   1 <1>   0.4230 
 18 C        5.4110    -1.3820    -1.4280 C.3   1 <1>  -0.2400 
 19 O       -5.1790     2.9120     1.6350 O.2   1 <1>  -0.5700 
 20 C       -6.0220     2.2100    -0.4150 C.3   1 <1>  -0.1790 
 21 H        1.3700     1.5580     1.2600 H     1 <1>   0.0800 
 22 H        2.2980     2.0620    -0.1590 H     1 <1>   0.0800 
 23 H       -2.7450     3.8460     0.8020 H     1 <1>   0.1500 
 24 H       -3.7850    -1.3990    -0.2180 H     1 <1>   0.0800 
 25 H       -4.7110    -0.3870    -1.2910 H     1 <1>   0.0800 
 26 H       -5.0140    -0.3650     0.4400 H     1 <1>   0.0800 
 27 H        0.7370     4.8440     1.5040 H     1 <1>   0.3700 
 28 H       -0.5260     3.9580     2.3010 H     1 <1>   0.3700 
 29 H        4.2410    -2.0630     0.2560 H     1 <1>   0.0800 
 30 H        5.3920    -0.7910     0.6510 H     1 <1>   0.0800 
 31 H        4.7080    -1.7330    -2.1620 H     1 <1>   0.0800 
 32 H        6.1830    -2.1200    -1.3110 H     1 <1>   0.0800 
 33 H        5.8600    -0.4660    -1.7690 H     1 <1>   0.0800 
 34 H       -5.6270     1.9960    -1.3910 H     1 <1>   0.0800 
 35 H       -6.5880     3.1220    -0.4660 H     1 <1>   0.0800 
 36 H       -6.6790     1.4180    -0.1090 H     1 <1>   0.0800 
@<TRIPOS>BOND
  1   1   2  1   
  2   1   3  1   
  3   2   4  ar  
  4   2   5  ar  
  5   3   6  1   
  6   3  21  1   
  7   3  22  1   
  8   4   7  ar  
  9   5   8  1   
 10   5   9  ar  
 11   6  10  2   
 12   6  11  1   
 13   7  12  ar  
 14   7  13  1   
 15   8  14  2   
 16   8  15  am  
 17   9  12  ar  
 18   9  23  1   
 19  11  16  1   
 20  12  17  1   
 21  13  24  1   
 22  13  25  1   
 23  13  26  1   
 24  15  27  1   
 25  15  28  1   
 26  16  18  1   
 27  16  29  1   
 28  16  30  1   
 29  17  19  2   
 30  17  20  1   
 31  18  31  1   
 32  18  32  1   
 33  18  33  1   
 34  20  34  1   
 35  20  35  1   
 36  20  36  1   
@<TRIPOS>SUBSTRUCTURE
  1 ****   2 GROUP 4 **** **** 0

# MOE 2024.06 (io_trps.svl 2023.06)
