@<TRIPOS>MOLECULE
NONAME
38 39 1 0 0 
SMALL
USER_CHARGES


@<TRIPOS>ATOM
  1 O        0.7500     0.0330     0.9610 O.3   1 <1>  -0.5600 
  2 C        0.3620    -1.3080     0.8380 C.3   1 <1>   0.1200 
  3 C        1.2950     0.5830    -0.2080 C.3   1 <1>   0.1200 
  4 C        1.5510    -2.2010     0.4110 C.3   1 <1>   0.3430 
  5 C        2.5290    -0.2190    -0.6850 C.3   1 <1>   0.3430 
  6 N        2.8030    -1.3960     0.2130 N.4   1 <1>  -0.9590 
  7 C        3.9600    -2.2340    -0.2060 C.3   1 <1>   0.3430 
  8 C        5.2630    -1.4460    -0.0850 C.3   1 <1>  -0.1600 
  9 C        6.4970    -2.3290    -0.3290 C.3   1 <1>   0.0630 
 10 C        7.7590    -1.5190    -0.0450 C.ar  1 <1>  -0.1440 
 11 C        6.5320    -2.9150    -1.7480 C.3   1 <1>  -0.2400 
 12 C        8.1380    -0.4590    -0.8590 C.ar  1 <1>  -0.1500 
 13 C        8.5460    -1.8330     1.0540 C.ar  1 <1>  -0.1500 
 14 C        9.2790     0.2720    -0.5790 C.ar  1 <1>  -0.1500 
 15 C        9.6880    -1.1030     1.3360 C.ar  1 <1>  -0.1500 
 16 C       10.0550    -0.0490     0.5200 C.ar  1 <1>  -0.1500 
 17 H       -0.4400    -1.3710     0.1220 H     1 <1>   0.0800 
 18 H       -0.0180    -1.6280     1.7930 H     1 <1>   0.0800 
 19 H        1.5760     1.5990     0.0080 H     1 <1>   0.0800 
 20 H        0.5330     0.6000    -0.9690 H     1 <1>   0.0800 
 21 H        1.2920    -2.7100    -0.5030 H     1 <1>   0.0800 
 22 H        1.7120    -2.9520     1.1660 H     1 <1>   0.0800 
 23 H        3.3820     0.4380    -0.7040 H     1 <1>   0.0800 
 24 H        2.3580    -0.5570    -1.6940 H     1 <1>   0.0800 
 25 H        3.0000    -0.9810     1.1380 H     1 <1>   0.4500 
 26 H        3.8260    -2.5700    -1.2210 H     1 <1>   0.0800 
 27 H        4.0210    -3.1020     0.4310 H     1 <1>   0.0800 
 28 H        5.3410    -1.0350     0.9070 H     1 <1>   0.0800 
 29 H        5.2750    -0.6360    -0.7910 H     1 <1>   0.0800 
 30 H        6.4690    -3.1550     0.3620 H     1 <1>   0.0800 
 31 H        6.4650    -2.1410    -2.4920 H     1 <1>   0.0800 
 32 H        5.7330    -3.6160    -1.9020 H     1 <1>   0.0800 
 33 H        7.4620    -3.4370    -1.8960 H     1 <1>   0.0800 
 34 H        7.5530    -0.1920    -1.7200 H     1 <1>   0.1500 
 35 H        8.2820    -2.6500     1.7020 H     1 <1>   0.1500 
 36 H        9.5670     1.0900    -1.2170 H     1 <1>   0.1500 
 37 H       10.2920    -1.3560     2.1900 H     1 <1>   0.1500 
 38 H       10.9420     0.5180     0.7380 H     1 <1>   0.1500 
@<TRIPOS>BOND
  1   1   2  1   
  2   1   3  1   
  3   2   4  1   
  4   2  17  1   
  5   2  18  1   
  6   3   5  1   
  7   3  19  1   
  8   3  20  1   
  9   4   6  1   
 10   4  21  1   
 11   4  22  1   
 12   5   6  1   
 13   5  23  1   
 14   5  24  1   
 15   6   7  1   
 16   6  25  1   
 17   7   8  1   
 18   7  26  1   
 19   7  27  1   
 20   8   9  1   
 21   8  28  1   
 22   8  29  1   
 23   9  10  1   
 24   9  11  1   
 25   9  30  1   
 26  10  12  ar  
 27  10  13  ar  
 28  11  31  1   
 29  11  32  1   
 30  11  33  1   
 31  12  14  ar  
 32  12  34  1   
 33  13  15  ar  
 34  13  35  1   
 35  14  16  ar  
 36  14  36  1   
 37  15  16  ar  
 38  15  37  1   
 39  16  38  1   
@<TRIPOS>SUBSTRUCTURE
  1 ****   8 GROUP 4 **** **** 0

# MOE 2024.06 (io_trps.svl 2023.06)
