@<TRIPOS>MOLECULE
NONAME
49 51 1 0 0 
SMALL
USER_CHARGES


@<TRIPOS>ATOM
  1 CL      -0.5890    -1.2230    -3.0370 Cl    1 <1>  -0.1770 
  2 C       -1.9640    -1.5320    -2.0130 C.ar  1 <1>   0.1770 
  3 C       -2.3670    -2.8340    -1.7870 C.ar  1 <1>  -0.1500 
  4 C       -2.6360    -0.4710    -1.4370 C.ar  1 <1>  -0.1500 
  5 C       -3.4620    -3.0720    -0.9750 C.ar  1 <1>  -0.1500 
  6 C       -3.7290    -0.7210    -0.6260 C.ar  1 <1>  -0.1500 
  7 C       -4.1740    -2.0250    -0.3830 C.ar  1 <1>   0.0860 
  8 C       -5.3240    -2.3000     0.4560 C.2   1 <1>   0.3980 
  9 O       -5.3140    -3.2750     1.1800 O.2   1 <1>  -0.5700 
 10 C       -6.4830    -1.4320     0.4450 C.ar  1 <1>   0.0860 
 11 C       -7.2180    -1.2120     1.6110 C.ar  1 <1>  -0.1500 
 12 C       -6.9240    -0.7890    -0.7150 C.ar  1 <1>  -0.1500 
 13 C       -8.3260    -0.3860     1.6320 C.ar  1 <1>  -0.1500 
 14 C       -8.0290     0.0400    -0.7050 C.ar  1 <1>  -0.1500 
 15 C       -8.7410     0.2500     0.4660 C.ar  1 <1>   0.0830 
 16 O       -9.8150     1.0680     0.3950 O.3   1 <1>  -0.3630 
 17 C      -10.6170     1.3380     1.5240 C.3   1 <1>   0.1200 
 18 C      -11.7790     2.2270     1.0740 C.3   1 <1>   0.2000 
 19 O      -12.7070     2.3510     2.1150 O.3   1 <1>  -0.6800 
 20 C      -12.4850     1.6260    -0.1630 C.3   1 <1>   0.3430 
 21 N      -13.8980     2.1090    -0.2630 N.4   1 <1>  -0.9590 
 22 C      -14.7820     1.1540    -1.0120 C.3   1 <1>   0.3430 
 23 C      -13.9990     3.4990    -0.8210 C.3   1 <1>   0.3430 
 24 C      -16.2120     1.7090    -1.1570 C.3   1 <1>   0.1200 
 25 C      -15.4680     3.9370    -0.9730 C.3   1 <1>   0.1200 
 26 O      -16.1830     2.9910    -1.7160 O.3   1 <1>  -0.5600 
 27 H       -1.8260    -3.6470    -2.2390 H     1 <1>   0.1500 
 28 H       -2.3000     0.5340    -1.6210 H     1 <1>   0.1500 
 29 H       -3.7780    -4.0850    -0.7890 H     1 <1>   0.1500 
 30 H       -4.2410     0.1090    -0.1700 H     1 <1>   0.1500 
 31 H       -6.9070    -1.7070     2.5160 H     1 <1>   0.1500 
 32 H       -6.3970    -0.9450    -1.6410 H     1 <1>   0.1500 
 33 H       -8.8460    -0.2560     2.5630 H     1 <1>   0.1500 
 34 H       -8.3470     0.5270    -1.6090 H     1 <1>   0.1500 
 35 H      -10.0090     1.8380     2.2580 H     1 <1>   0.0800 
 36 H      -10.9830     0.4010     1.9060 H     1 <1>   0.0800 
 37 H      -11.4090     3.2110     0.8440 H     1 <1>   0.0800 
 38 H      -12.2900     2.7320     2.9180 H     1 <1>   0.4000 
 39 H      -12.4820     0.5540    -0.0530 H     1 <1>   0.0800 
 40 H      -11.9300     1.8600    -1.0570 H     1 <1>   0.0800 
 41 H      -14.2110     2.1540     0.7240 H     1 <1>   0.4500 
 42 H      -14.8170     0.2060    -0.5010 H     1 <1>   0.0800 
 43 H      -14.3830     0.9860    -1.9990 H     1 <1>   0.0800 
 44 H      -13.5320     3.5380    -1.7920 H     1 <1>   0.0800 
 45 H      -13.4860     4.1930    -0.1760 H     1 <1>   0.0800 
 46 H      -16.7090     1.7570    -0.2030 H     1 <1>   0.0800 
 47 H      -16.7900     1.0800    -1.8120 H     1 <1>   0.0800 
 48 H      -15.5240     4.8750    -1.4990 H     1 <1>   0.0800 
 49 H      -15.9410     4.0540    -0.0130 H     1 <1>   0.0800 
@<TRIPOS>BOND
  1   1   2  1   
  2   2   3  ar  
  3   2   4  ar  
  4   3   5  ar  
  5   3  27  1   
  6   4   6  ar  
  7   4  28  1   
  8   5   7  ar  
  9   5  29  1   
 10   6   7  ar  
 11   6  30  1   
 12   7   8  1   
 13   8   9  2   
 14   8  10  1   
 15  10  11  ar  
 16  10  12  ar  
 17  11  13  ar  
 18  11  31  1   
 19  12  14  ar  
 20  12  32  1   
 21  13  15  ar  
 22  13  33  1   
 23  14  15  ar  
 24  14  34  1   
 25  15  16  1   
 26  16  17  1   
 27  17  18  1   
 28  17  35  1   
 29  17  36  1   
 30  18  19  1   
 31  18  20  1   
 32  18  37  1   
 33  19  38  1   
 34  20  21  1   
 35  20  39  1   
 36  20  40  1   
 37  21  22  1   
 38  21  23  1   
 39  21  41  1   
 40  22  24  1   
 41  22  42  1   
 42  22  43  1   
 43  23  25  1   
 44  23  44  1   
 45  23  45  1   
 46  24  26  1   
 47  24  46  1   
 48  24  47  1   
 49  25  26  1   
 50  25  48  1   
 51  25  49  1   
@<TRIPOS>SUBSTRUCTURE
  1 ****  14 GROUP 4 **** **** 0

# MOE 2024.06 (io_trps.svl 2023.06)
