@<TRIPOS>MOLECULE
NONAME
45 46 1 0 0 
SMALL
USER_CHARGES


@<TRIPOS>ATOM
  1 O       -0.2180    -0.7610    -1.7320 O.2   1 <1>  -0.5700 
  2 C        0.3820    -1.4560    -0.9280 C.2   1 <1>   0.5440 
  3 N        1.5710    -0.9840    -0.4040 N.am  1 <1>  -0.6600 
  4 C       -0.2050    -2.7140    -0.5140 C.ar  1 <1>   0.0860 
  5 C        2.1820     0.2360    -1.0120 C.3   1 <1>   0.1400 
  6 C        2.0490    -1.4080     0.9450 C.3   1 <1>   0.1400 
  7 C       -1.4960    -2.7500     0.0380 C.ar  1 <1>   0.1170 
  8 C        0.4980    -3.9120    -0.6500 C.ar  1 <1>  -0.1500 
  9 C        3.6290     0.5320    -0.5950 C.3   1 <1>  -0.1600 
 10 C        3.3020    -2.2860     0.8400 C.3   1 <1>  -0.1600 
 11 N       -2.2380    -1.5620     0.1050 N.am  1 <1>  -0.5470 
 12 C       -2.0140    -3.9660     0.4740 C.ar  1 <1>  -0.1500 
 13 C       -0.0310    -5.1110    -0.2160 C.ar  1 <1>  -0.1500 
 14 C        4.5820    -0.6680    -0.7000 C.3   1 <1>  -0.1600 
 15 C        4.6030    -1.5160     0.5780 C.3   1 <1>  -0.1600 
 16 C       -3.3060    -1.1780     0.8650 C.2   1 <1>   0.5690 
 17 C       -1.2910    -5.1360     0.3550 C.ar  1 <1>  -0.1500 
 18 O       -3.8020    -1.8650     1.7220 O.2   1 <1>  -0.5700 
 19 C       -3.8750     0.2060     0.6170 C.3   1 <1>  -0.0990 
 20 C       -4.5520     0.3230    -0.7590 C.3   1 <1>  -0.1600 
 21 C       -5.1350     1.7230    -0.9750 C.3   1 <1>  -0.2400 
 22 H        1.5650     1.0850    -0.7710 H     1 <1>   0.0800 
 23 H        2.1580     0.1190    -2.0830 H     1 <1>   0.0800 
 24 H        1.2750    -1.9670     1.4420 H     1 <1>   0.0800 
 25 H        2.2480    -0.5430     1.5520 H     1 <1>   0.0800 
 26 H        1.4700    -3.8940    -1.1080 H     1 <1>   0.1500 
 27 H        3.6480     0.9450     0.3980 H     1 <1>   0.0800 
 28 H        3.9900     1.3050    -1.2510 H     1 <1>   0.0800 
 29 H        3.1640    -3.0270     0.0760 H     1 <1>   0.0800 
 30 H        3.4150    -2.8110     1.7720 H     1 <1>   0.0800 
 31 H       -1.8960    -0.8460    -0.5490 H     1 <1>   0.3700 
 32 H       -2.9980    -4.0050     0.9050 H     1 <1>   0.1500 
 33 H        0.5300    -6.0240    -0.3220 H     1 <1>   0.1500 
 34 H        5.5780    -0.2940    -0.8610 H     1 <1>   0.0800 
 35 H        4.3250    -1.2770    -1.5500 H     1 <1>   0.0800 
 36 H        5.4060    -2.2280     0.5010 H     1 <1>   0.0800 
 37 H        4.8210    -0.8840     1.4220 H     1 <1>   0.0800 
 38 H       -1.7090    -6.0660     0.7000 H     1 <1>   0.1500 
 39 H       -3.0800     0.9240     0.6980 H     1 <1>   0.0800 
 40 H       -4.5930     0.4210     1.3880 H     1 <1>   0.0800 
 41 H       -5.3410    -0.4060    -0.8300 H     1 <1>   0.0800 
 42 H       -3.8380     0.1150    -1.5390 H     1 <1>   0.0800 
 43 H       -5.8730     1.9440    -0.2230 H     1 <1>   0.0800 
 44 H       -5.6060     1.7800    -1.9410 H     1 <1>   0.0800 
 45 H       -4.3590     2.4670    -0.9290 H     1 <1>   0.0800 
@<TRIPOS>BOND
  1   1   2  2   
  2   2   3  am  
  3   2   4  1   
  4   3   5  1   
  5   3   6  1   
  6   4   7  ar  
  7   4   8  ar  
  8   5   9  1   
  9   5  22  1   
 10   5  23  1   
 11   6  10  1   
 12   6  24  1   
 13   6  25  1   
 14   7  11  1   
 15   7  12  ar  
 16   8  13  ar  
 17   8  26  1   
 18   9  14  1   
 19   9  27  1   
 20   9  28  1   
 21  10  15  1   
 22  10  29  1   
 23  10  30  1   
 24  11  16  am  
 25  11  31  1   
 26  12  17  ar  
 27  12  32  1   
 28  13  17  ar  
 29  13  33  1   
 30  14  15  1   
 31  14  34  1   
 32  14  35  1   
 33  15  36  1   
 34  15  37  1   
 35  16  18  2   
 36  16  19  1   
 37  17  38  1   
 38  19  20  1   
 39  19  39  1   
 40  19  40  1   
 41  20  21  1   
 42  20  41  1   
 43  20  42  1   
 44  21  43  1   
 45  21  44  1   
 46  21  45  1   
@<TRIPOS>SUBSTRUCTURE
  1 ****   2 GROUP 4 **** **** 0

# MOE 2024.06 (io_trps.svl 2023.06)
