@<TRIPOS>MOLECULE
NONAME
45 48 1 0 0 
SMALL
USER_CHARGES


@<TRIPOS>ATOM
  1 S       -0.4180     0.1040     0.3480 S.3   1 <1>  -0.0800 
  2 C       -1.8800     0.2630    -0.6090 C.2   1 <1>   0.1660 
  3 C       -0.4590     1.8150     0.7430 C.2   1 <1>  -0.1400 
  4 N       -2.4500    -0.7970    -1.2380 N.2   1 <1>  -0.5760 
  5 C       -2.3330     1.5460    -0.6130 C.2   1 <1>  -0.0860 
  6 C       -1.5030     2.4290     0.1640 C.2   1 <1>  -0.1810 
  7 C        0.5980     2.4250     1.6380 C.3   1 <1>   0.0200 
  8 C       -3.5250    -0.5300    -1.8930 C.2   1 <1>   0.4500 
  9 C       -3.5240     1.7930    -1.3550 C.2   1 <1>   0.7160 
 10 C       -1.7550     3.9170     0.3460 C.3   1 <1>   0.0210 
 11 C        0.1270     3.8200     2.0890 C.3   1 <1>  -0.1600 
 12 N       -4.0930     0.7170    -2.0030 N.am  1 <1>  -0.4200 
 13 O       -4.0530     2.8950    -1.4320 O.2   1 <1>  -0.5700 
 14 C       -0.5120     4.6190     0.9330 C.3   1 <1>  -0.1600 
 15 C       -5.3710     0.8880    -2.7530 C.3   1 <1>   0.2010 
 16 C       -6.5830     0.8300    -1.8320 C.2   1 <1>   0.5690 
 17 O       -7.3780    -0.0670    -1.9780 O.2   1 <1>  -0.5700 
 18 N       -6.7350     1.7750    -0.8700 N.am  1 <1>  -0.7300 
 19 C       -7.8290     1.8420     0.1250 C.3   1 <1>   0.1400 
 20 C       -8.1940     3.3050     0.4180 C.3   1 <1>   0.2000 
 21 O       -7.0520     4.0300     0.7470 O.3   1 <1>  -0.5600 
 22 C       -9.1170     3.4950     1.6120 C.3   1 <1>  -0.1600 
 23 C       -7.3880     5.1610     1.4860 C.3   1 <1>   0.1200 
 24 C       -8.7740     4.9010     2.0760 C.3   1 <1>  -0.1600 
 25 H        1.5170     2.5030     1.0850 H     1 <1>   0.0800 
 26 H        0.7630     1.7980     2.4960 H     1 <1>   0.0800 
 27 H       -4.0310    -1.3330    -2.4020 H     1 <1>   0.0600 
 28 H       -2.5950     4.0450     1.0070 H     1 <1>   0.0800 
 29 H       -2.0010     4.3690    -0.5990 H     1 <1>   0.0800 
 30 H        0.9610     4.3650     2.4960 H     1 <1>   0.0800 
 31 H       -0.6040     3.7030     2.8710 H     1 <1>   0.0800 
 32 H       -0.7880     5.6000     1.2760 H     1 <1>   0.0800 
 33 H        0.2180     4.7370     0.1510 H     1 <1>   0.0800 
 34 H       -5.4630     0.1130    -3.4930 H     1 <1>   0.0800 
 35 H       -5.3700     1.8330    -3.2660 H     1 <1>   0.0800 
 36 H       -6.0360     2.5290    -0.7610 H     1 <1>   0.3700 
 37 H       -7.5030     1.3660     1.0330 H     1 <1>   0.0800 
 38 H       -8.6930     1.3160    -0.2420 H     1 <1>   0.0800 
 39 H       -8.6250     3.7600    -0.4580 H     1 <1>   0.0800 
 40 H       -8.8720     2.7840     2.3820 H     1 <1>   0.0800 
 41 H      -10.1530     3.3880     1.3420 H     1 <1>   0.0800 
 42 H       -7.3950     6.0090     0.8220 H     1 <1>   0.0800 
 43 H       -6.6430     5.2980     2.2500 H     1 <1>   0.0800 
 44 H       -8.7650     4.9790     3.1490 H     1 <1>   0.0800 
 45 H       -9.4710     5.6170     1.6780 H     1 <1>   0.0800 
@<TRIPOS>BOND
  1   1   2  1   
  2   1   3  1   
  3   2   4  1   
  4   2   5  2   
  5   3   6  2   
  6   3   7  1   
  7   4   8  2   
  8   5   6  1   
  9   5   9  1   
 10   6  10  1   
 11   7  11  1   
 12   7  25  1   
 13   7  26  1   
 14   8  12  1   
 15   8  27  1   
 16   9  12  am  
 17   9  13  2   
 18  10  14  1   
 19  10  28  1   
 20  10  29  1   
 21  11  14  1   
 22  11  30  1   
 23  11  31  1   
 24  12  15  1   
 25  14  32  1   
 26  14  33  1   
 27  15  16  1   
 28  15  34  1   
 29  15  35  1   
 30  16  17  2   
 31  16  18  am  
 32  18  19  1   
 33  18  36  1   
 34  19  20  1   
 35  19  37  1   
 36  19  38  1   
 37  20  21  1   
 38  20  22  1   
 39  20  39  1   
 40  21  23  1   
 41  22  24  1   
 42  22  40  1   
 43  22  41  1   
 44  23  24  1   
 45  23  42  1   
 46  23  43  1   
 47  24  44  1   
 48  24  45  1   
@<TRIPOS>SUBSTRUCTURE
  1 ****   9 GROUP 4 **** **** 0

# MOE 2024.06 (io_trps.svl 2023.06)
