@<TRIPOS>MOLECULE
NONAME
42 44 1 0 0 
SMALL
USER_CHARGES


@<TRIPOS>ATOM
  1 S        0.0050    -0.4170    -0.5520 S.3   1 <1>  -0.3220 
  2 C       -1.7420    -0.1930    -0.3610 C.cat 1 <1>   0.8920 
  3 C        0.8390     1.2060    -0.9170 C.3   1 <1>   0.2140 
  4 N       -2.3810     0.9650    -0.3690 N.pl3 1 <1>  -0.7000 
  5 N       -2.5710    -1.2060    -0.1740 N.pl3 1 <1>  -0.7640 
  6 C        0.1200     2.3810    -0.2720 C.ar  1 <1>  -0.1430 
  7 C       -3.6950     0.6950    -0.1630 C.2   1 <1>   0.4260 
  8 C       -3.8480    -0.6470    -0.0410 C.2   1 <1>   0.2770 
  9 C       -2.2580    -2.6520    -0.0740 C.3   1 <1>   0.3540 
 10 C        0.0280     2.5150     1.1060 C.ar  1 <1>   0.1900 
 11 C       -0.4740     3.3570    -1.0620 C.ar  1 <1>  -0.1500 
 12 N       -4.7360     1.5980    -0.0720 N.am  1 <1>  -0.4360 
 13 C       -5.1650    -1.1680     0.1870 C.2   1 <1>   0.7030 
 14 C       -2.1290    -3.0300     1.3970 C.3   1 <1>  -0.2400 
 15 F        0.5760     1.6130     1.8750 F     1 <1>  -0.1900 
 16 C       -0.6440     3.5610     1.7080 C.ar  1 <1>  -0.1500 
 17 C       -1.1510     4.4150    -0.4750 C.ar  1 <1>  -0.1500 
 18 C       -6.0100     1.1040     0.1690 C.2   1 <1>   0.6900 
 19 C       -4.4850     3.0650    -0.1950 C.3   1 <1>   0.0600 
 20 O       -5.3650    -2.3670     0.2710 O.2   1 <1>  -0.5700 
 21 N       -6.2150    -0.2660     0.3050 N.am  1 <1>  -0.4200 
 22 C       -1.2400     4.5180     0.9040 C.ar  1 <1>  -0.1500 
 23 O       -6.9480     1.8680     0.2600 O.2   1 <1>  -0.5700 
 24 C       -7.6050    -0.7650     0.5550 C.3   1 <1>   0.0600 
 25 H        0.8730     1.3030    -1.9870 H     1 <1>   0.0800 
 26 H        1.8440     1.1250    -0.5410 H     1 <1>   0.0800 
 27 H       -1.9370     1.8830    -0.4420 H     1 <1>   0.4500 
 28 H       -1.3380    -2.8730    -0.5890 H     1 <1>   0.0800 
 29 H       -3.0430    -3.2310    -0.5350 H     1 <1>   0.0800 
 30 H       -0.4070     3.3110    -2.1380 H     1 <1>   0.1500 
 31 H       -1.3420    -2.4660     1.8660 H     1 <1>   0.0800 
 32 H       -1.8890    -4.0750     1.4790 H     1 <1>   0.0800 
 33 H       -3.0560    -2.8590     1.9150 H     1 <1>   0.0800 
 34 H       -0.6900     3.6290     2.7810 H     1 <1>   0.1500 
 35 H       -1.6010     5.1750    -1.0950 H     1 <1>   0.1500 
 36 H       -3.8620     3.2640    -1.0490 H     1 <1>   0.0800 
 37 H       -4.0000     3.4260     0.6950 H     1 <1>   0.0800 
 38 H       -5.4080     3.6060    -0.3240 H     1 <1>   0.0800 
 39 H       -1.7610     5.3490     1.3530 H     1 <1>   0.1500 
 40 H       -7.5930    -1.7490     0.9890 H     1 <1>   0.0800 
 41 H       -8.1480    -0.7980    -0.3740 H     1 <1>   0.0800 
 42 H       -8.1200    -0.1060     1.2330 H     1 <1>   0.0800 
@<TRIPOS>BOND
  1   1   2  1   
  2   1   3  1   
  3   2   4  ar  
  4   2   5  ar  
  5   3   6  1   
  6   3  25  1   
  7   3  26  1   
  8   4   7  1   
  9   4  27  1   
 10   5   8  1   
 11   5   9  1   
 12   6  10  ar  
 13   6  11  ar  
 14   7   8  2   
 15   7  12  1   
 16   8  13  1   
 17   9  14  1   
 18   9  28  1   
 19   9  29  1   
 20  10  15  1   
 21  10  16  ar  
 22  11  17  ar  
 23  11  30  1   
 24  12  18  am  
 25  12  19  1   
 26  13  20  2   
 27  13  21  am  
 28  14  31  1   
 29  14  32  1   
 30  14  33  1   
 31  16  22  ar  
 32  16  34  1   
 33  17  22  ar  
 34  17  35  1   
 35  18  21  am  
 36  18  23  2   
 37  19  36  1   
 38  19  37  1   
 39  19  38  1   
 40  21  24  1   
 41  22  39  1   
 42  24  40  1   
 43  24  41  1   
 44  24  42  1   
@<TRIPOS>SUBSTRUCTURE
  1 ****   4 GROUP 4 **** **** 0

# MOE 2024.06 (io_trps.svl 2023.06)
