@<TRIPOS>MOLECULE
NONAME
41 41 1 0 0 
SMALL
USER_CHARGES


@<TRIPOS>ATOM
  1 O        0.7730     0.4000     0.3390 O.3   1 <1>  -0.3630 
  2 C       -0.4260     1.0380     0.2970 C.ar  1 <1>   0.0830 
  3 C        1.9580     1.0620    -0.0220 C.3   1 <1>   0.1200 
  4 C       -0.5880     2.3650    -0.0930 C.ar  1 <1>  -0.1500 
  5 C       -1.5370     0.2970     0.6710 C.ar  1 <1>  -0.1500 
  6 C        3.1000     0.0590     0.1360 C.3   1 <1>  -0.1600 
  7 C       -1.8510     2.9300    -0.1050 C.ar  1 <1>  -0.1500 
  8 C       -2.8000     0.8630     0.6590 C.ar  1 <1>  -0.1500 
  9 C        4.4340     0.6950    -0.2470 C.3   1 <1>   0.3430 
 10 C       -2.9610     2.1900     0.2680 C.ar  1 <1>   0.0830 
 11 N        5.5520    -0.2660    -0.0090 N.4   1 <1>  -0.9590 
 12 O       -4.1610     2.8260     0.2250 O.3   1 <1>  -0.3620 
 13 C        6.8610     0.4390     0.0970 C.3   1 <1>   0.3430 
 14 C        5.5940    -1.3250    -1.0560 C.3   1 <1>   0.3430 
 15 C       -5.3500     2.1600     0.5860 C.3   1 <1>   0.0400 
 16 C        6.9670     1.1160     1.4580 C.3   1 <1>  -0.2400 
 17 C        6.3520    -2.5370    -0.5250 C.3   1 <1>  -0.2400 
 18 H        2.0850     1.9070     0.6350 H     1 <1>   0.0800 
 19 H        1.8620     1.3890    -1.0430 H     1 <1>   0.0800 
 20 H        0.2430     2.9730    -0.3890 H     1 <1>   0.1500 
 21 H       -1.4060    -0.7260     0.9720 H     1 <1>   0.1500 
 22 H        2.8900    -0.7870    -0.4940 H     1 <1>   0.0800 
 23 H        3.1320    -0.2580     1.1640 H     1 <1>   0.0800 
 24 H       -1.9870     3.9530    -0.4050 H     1 <1>   0.1500 
 25 H       -3.6370     0.2610     0.9540 H     1 <1>   0.1500 
 26 H        4.5760     1.5770     0.3560 H     1 <1>   0.0800 
 27 H        4.4190     0.9970    -1.2820 H     1 <1>   0.0800 
 28 H        5.3810    -0.7320     0.8930 H     1 <1>   0.4500 
 29 H        6.9600     1.1660    -0.6930 H     1 <1>   0.0800 
 30 H        7.6690    -0.2690     0.0030 H     1 <1>   0.0800 
 31 H        6.0660    -0.9500    -1.9500 H     1 <1>   0.0800 
 32 H        4.5930    -1.6340    -1.3100 H     1 <1>   0.0800 
 33 H       -6.1660     2.8510     0.4770 H     1 <1>   0.0800 
 34 H       -5.2750     1.8420     1.6110 H     1 <1>   0.0800 
 35 H       -5.4920     1.3200    -0.0700 H     1 <1>   0.0800 
 36 H        6.2340     1.8920     1.5770 H     1 <1>   0.0800 
 37 H        7.9380     1.5710     1.5470 H     1 <1>   0.0800 
 38 H        6.8680     0.3970     2.2520 H     1 <1>   0.0800 
 39 H        7.3830    -2.3070    -0.3270 H     1 <1>   0.0800 
 40 H        6.3290    -3.3160    -1.2670 H     1 <1>   0.0800 
 41 H        5.8870    -2.9180     0.3660 H     1 <1>   0.0800 
@<TRIPOS>BOND
  1   1   2  1   
  2   1   3  1   
  3   2   4  ar  
  4   2   5  ar  
  5   3   6  1   
  6   3  18  1   
  7   3  19  1   
  8   4   7  ar  
  9   4  20  1   
 10   5   8  ar  
 11   5  21  1   
 12   6   9  1   
 13   6  22  1   
 14   6  23  1   
 15   7  10  ar  
 16   7  24  1   
 17   8  10  ar  
 18   8  25  1   
 19   9  11  1   
 20   9  26  1   
 21   9  27  1   
 22  10  12  1   
 23  11  13  1   
 24  11  14  1   
 25  11  28  1   
 26  12  15  1   
 27  13  16  1   
 28  13  29  1   
 29  13  30  1   
 30  14  17  1   
 31  14  31  1   
 32  14  32  1   
 33  15  33  1   
 34  15  34  1   
 35  15  35  1   
 36  16  36  1   
 37  16  37  1   
 38  16  38  1   
 39  17  39  1   
 40  17  40  1   
 41  17  41  1   
@<TRIPOS>SUBSTRUCTURE
  1 ****   1 GROUP 4 **** **** 0

# MOE 2024.06 (io_trps.svl 2023.06)
