@<TRIPOS>MOLECULE
NONAME
41 42 1 0 0 
SMALL
USER_CHARGES


@<TRIPOS>ATOM
  1 CL      -0.5150     0.3860    -1.7560 Cl    1 <1>  -0.1770 
  2 C        0.1000     1.5450    -0.6060 C.ar  1 <1>   0.1770 
  3 C        1.0760     2.4400    -1.0040 C.ar  1 <1>  -0.1500 
  4 C       -0.3990     1.5500     0.6830 C.ar  1 <1>  -0.1500 
  5 C        1.5680     3.3650    -0.0950 C.ar  1 <1>  -0.1440 
  6 C        0.0930     2.4720     1.5910 C.ar  1 <1>  -0.1500 
  7 C        1.0710     3.3730     1.2020 C.ar  1 <1>  -0.1500 
  8 C        2.6440     4.3580    -0.5080 C.3   1 <1>  -0.0160 
  9 C        4.0180     3.8970    -0.0270 C.3   1 <1>   0.2090 
 10 N        5.0580     4.8610    -0.4710 N.pl3 1 <1>  -0.8690 
 11 C        6.3970     4.6740    -0.6440 C.2   1 <1>  -0.0500 
 12 C        7.2470     3.6050    -0.4060 C.2   1 <1>   0.0290 
 13 C        8.6000     3.7000    -0.8770 C.2   1 <1>   0.4950 
 14 C        6.9050     2.4000     0.2930 C.2   1 <1>   0.4950 
 15 O        9.1000     4.7330    -1.2570 O.2   1 <1>  -0.5700 
 16 C        9.5050     2.4800    -0.9860 C.3   1 <1>  -0.0990 
 17 O        6.0580     2.2990     1.1480 O.2   1 <1>  -0.5700 
 18 C        7.6830     1.1260     0.0140 C.3   1 <1>  -0.0990 
 19 C        9.1940     1.3780     0.0350 C.3   1 <1>   0.0000 
 20 C        9.9400     0.0910    -0.3480 C.3   1 <1>  -0.2400 
 21 C        9.6540     1.8070     1.4410 C.3   1 <1>  -0.2400 
 22 H        1.4400     2.4040    -2.0140 H     1 <1>   0.1500 
 23 H       -1.1570     0.8430     0.9670 H     1 <1>   0.1500 
 24 H       -0.2830     2.4880     2.6000 H     1 <1>   0.1500 
 25 H        1.4470     4.0840     1.9180 H     1 <1>   0.1500 
 26 H        2.4190     5.3190    -0.0830 H     1 <1>   0.0800 
 27 H        2.6570     4.4530    -1.5790 H     1 <1>   0.0800 
 28 H        4.2280     2.9220    -0.4330 H     1 <1>   0.0800 
 29 H        4.0260     3.8320     1.0480 H     1 <1>   0.0800 
 30 H        4.6610     5.7880    -0.6740 H     1 <1>   0.4000 
 31 H        6.8730     5.5460    -1.0670 H     1 <1>   0.1500 
 32 H        9.3970     2.0950    -1.9840 H     1 <1>   0.0800 
 33 H       10.5290     2.7940    -0.8770 H     1 <1>   0.0800 
 34 H        7.4280     0.3850     0.7510 H     1 <1>   0.0800 
 35 H        7.3770     0.7480    -0.9450 H     1 <1>   0.0800 
 36 H       11.0030     0.2580    -0.3600 H     1 <1>   0.0800 
 37 H        9.6420    -0.2520    -1.3230 H     1 <1>   0.0800 
 38 H        9.7310    -0.6920     0.3610 H     1 <1>   0.0800 
 39 H        9.1870     2.7250     1.7540 H     1 <1>   0.0800 
 40 H       10.7190     1.9550     1.4610 H     1 <1>   0.0800 
 41 H        9.4090     1.0480     2.1640 H     1 <1>   0.0800 
@<TRIPOS>BOND
  1   1   2  1   
  2   2   3  ar  
  3   2   4  ar  
  4   3   5  ar  
  5   3  22  1   
  6   4   6  ar  
  7   4  23  1   
  8   5   7  ar  
  9   5   8  1   
 10   6   7  ar  
 11   6  24  1   
 12   7  25  1   
 13   8   9  1   
 14   8  26  1   
 15   8  27  1   
 16   9  10  1   
 17   9  28  1   
 18   9  29  1   
 19  10  11  1   
 20  10  30  1   
 21  11  12  2   
 22  11  31  1   
 23  12  13  1   
 24  12  14  1   
 25  13  15  2   
 26  13  16  1   
 27  14  17  2   
 28  14  18  1   
 29  16  19  1   
 30  16  32  1   
 31  16  33  1   
 32  18  19  1   
 33  18  34  1   
 34  18  35  1   
 35  19  20  1   
 36  19  21  1   
 37  20  36  1   
 38  20  37  1   
 39  20  38  1   
 40  21  39  1   
 41  21  40  1   
 42  21  41  1   
@<TRIPOS>SUBSTRUCTURE
  1 ****   9 GROUP 4 **** **** 0

# MOE 2024.06 (io_trps.svl 2023.06)
