@<TRIPOS>MOLECULE
NONAME
53 56 1 0 0 
SMALL
USER_CHARGES


@<TRIPOS>ATOM
  1 S       -0.3240    -0.6660    -1.2100 S.3   1 <1>  -0.0800 
  2 C        0.9670     0.2040    -0.3750 C.2   1 <1>   0.1040 
  3 C       -1.4880     0.5360    -0.7110 C.2   1 <1>  -0.1400 
  4 N        2.2170    -0.3840    -0.4620 N.am  1 <1>  -0.4940 
  5 C        0.4830     1.3330     0.2400 C.2   1 <1>  -0.0860 
  6 C       -0.9300     1.4840     0.0200 C.2   1 <1>  -0.1810 
  7 C       -2.9600     0.6390    -0.9480 C.3   1 <1>   0.0200 
  8 C        3.4790     0.1410    -0.3160 C.2   1 <1>   0.5440 
  9 C        1.2280     2.2610     1.0390 C.2   1 <1>   0.7160 
 10 C       -1.9690     2.4790     0.4710 C.3   1 <1>   0.0210 
 11 C       -3.2720     1.9660    -0.2100 C.3   1 <1>  -0.1600 
 12 O        3.6580     1.3410    -0.4120 O.2   1 <1>  -0.5700 
 13 C        4.5960    -0.7500    -0.0950 C.ar  1 <1>   0.0860 
 14 O        1.7790     1.8840     2.0600 O.2   1 <1>  -0.5700 
 15 N        1.3760     3.5860     0.6620 N.am  1 <1>  -0.6600 
 16 C        5.4550    -0.5540     0.9840 C.ar  1 <1>  -0.1500 
 17 C        4.8520    -1.8260    -0.9450 C.ar  1 <1>  -0.1500 
 18 C        2.3710     4.4350     1.3720 C.3   1 <1>   0.1400 
 19 C        1.1950     4.0110    -0.7570 C.3   1 <1>   0.1400 
 20 C        6.5310    -1.3930     1.2160 C.ar  1 <1>  -0.1430 
 21 C        5.9230    -2.6710    -0.7200 C.ar  1 <1>  -0.1500 
 22 C        3.7340     4.2770     0.6760 C.3   1 <1>   0.3430 
 23 C        2.5390     3.9380    -1.5110 C.3   1 <1>   0.3430 
 24 C        6.7610    -2.4550     0.3590 C.ar  1 <1>  -0.1500 
 25 C        7.4520    -1.1660     2.4010 C.3   1 <1>  -0.0970 
 26 N        3.6780     4.6320    -0.7940 N.4   1 <1>  -0.9590 
 27 C        4.9660     4.2380    -1.4360 C.3   1 <1>   0.2630 
 28 H        2.1950    -1.3940    -0.6050 H     1 <1>   0.3700 
 29 H       -3.4720    -0.1950    -0.5020 H     1 <1>   0.0800 
 30 H       -3.1800     0.7010    -1.9990 H     1 <1>   0.0800 
 31 H       -1.7240     3.4740     0.1450 H     1 <1>   0.0800 
 32 H       -2.0590     2.4580     1.5430 H     1 <1>   0.0800 
 33 H       -4.0390     1.8100     0.5280 H     1 <1>   0.0800 
 34 H       -3.6220     2.6970    -0.9170 H     1 <1>   0.0800 
 35 H        5.2640     0.2700     1.6490 H     1 <1>   0.1500 
 36 H        4.2150    -2.0010    -1.7940 H     1 <1>   0.1500 
 37 H        2.4550     4.1390     2.4050 H     1 <1>   0.0800 
 38 H        2.0570     5.4640     1.3540 H     1 <1>   0.0800 
 39 H        0.8170     5.0190    -0.7810 H     1 <1>   0.0800 
 40 H        0.4760     3.3870    -1.2580 H     1 <1>   0.0800 
 41 H        6.1090    -3.4970    -1.3850 H     1 <1>   0.1500 
 42 H        4.0440     3.2510     0.7900 H     1 <1>   0.0800 
 43 H        4.4610     4.8960     1.1750 H     1 <1>   0.0800 
 44 H        2.4140     4.3650    -2.4920 H     1 <1>   0.0800 
 45 H        2.7800     2.8990    -1.6490 H     1 <1>   0.0800 
 46 H        7.5930    -3.1180     0.5290 H     1 <1>   0.1500 
 47 H        7.2990    -0.1910     2.8270 H     1 <1>   0.0800 
 48 H        8.4790    -1.2440     2.0920 H     1 <1>   0.0800 
 49 H        7.2610    -1.9060     3.1580 H     1 <1>   0.0800 
 50 H        3.5440     5.6470    -0.8750 H     1 <1>   0.4500 
 51 H        5.1090     3.1710    -1.3490 H     1 <1>   0.0800 
 52 H        5.7930     4.7360    -0.9570 H     1 <1>   0.0800 
 53 H        4.9620     4.5010    -2.4810 H     1 <1>   0.0800 
@<TRIPOS>BOND
  1   1   2  1   
  2   1   3  1   
  3   2   4  1   
  4   2   5  2   
  5   3   6  2   
  6   3   7  1   
  7   4   8  am  
  8   4  28  1   
  9   5   6  1   
 10   5   9  1   
 11   6  10  1   
 12   7  11  1   
 13   7  29  1   
 14   7  30  1   
 15   8  12  2   
 16   8  13  1   
 17   9  14  2   
 18   9  15  am  
 19  10  11  1   
 20  10  31  1   
 21  10  32  1   
 22  11  33  1   
 23  11  34  1   
 24  13  16  ar  
 25  13  17  ar  
 26  15  18  1   
 27  15  19  1   
 28  16  20  ar  
 29  16  35  1   
 30  17  21  ar  
 31  17  36  1   
 32  18  22  1   
 33  18  37  1   
 34  18  38  1   
 35  19  23  1   
 36  19  39  1   
 37  19  40  1   
 38  20  24  ar  
 39  20  25  1   
 40  21  24  ar  
 41  21  41  1   
 42  22  26  1   
 43  22  42  1   
 44  22  43  1   
 45  23  26  1   
 46  23  44  1   
 47  23  45  1   
 48  24  46  1   
 49  25  47  1   
 50  25  48  1   
 51  25  49  1   
 52  26  27  1   
 53  26  50  1   
 54  27  51  1   
 55  27  52  1   
 56  27  53  1   
@<TRIPOS>SUBSTRUCTURE
  1 ****  12 GROUP 4 **** **** 0

# MOE 2024.06 (io_trps.svl 2023.06)
