@<TRIPOS>MOLECULE
NONAME
46 47 1 0 0 
SMALL
USER_CHARGES


@<TRIPOS>ATOM
  1 O        0.6310     2.8790    -1.6600 O.2   1 <1>  -0.5700 
  2 C        0.8400     2.1440    -0.7140 C.2   1 <1>   0.5440 
  3 N       -0.2060     1.6610     0.0220 N.am  1 <1>  -0.4930 
  4 C        2.2000     1.7860    -0.3510 C.ar  1 <1>   0.0860 
  5 C       -1.5800     1.8060    -0.1330 C.2   1 <1>   0.3520 
  6 C        2.5050     0.5730     0.2660 C.ar  1 <1>  -0.1500 
  7 C        3.2610     2.6530    -0.6070 C.ar  1 <1>  -0.1500 
  8 N       -2.3640     1.2770     0.7500 N.2   1 <1>  -0.7070 
  9 C       -2.2840     2.4590    -1.1400 C.2   1 <1>  -0.1500 
 10 C        3.8000     0.2430     0.6260 C.ar  1 <1>   0.0830 
 11 C        4.5630     2.3410    -0.2580 C.ar  1 <1>   0.0830 
 12 N       -3.6140     1.5740     0.3250 N.pl3 1 <1>   0.3140 
 13 C       -3.5850     2.2980    -0.8200 C.2   1 <1>  -0.3320 
 14 O        3.9690    -0.9610     1.2270 O.3   1 <1>  -0.3630 
 15 C        4.8380     1.1300     0.3660 C.ar  1 <1>  -0.1500 
 16 O        5.5090     3.2670    -0.5560 O.3   1 <1>  -0.3630 
 17 C       -4.7860     1.1720     1.1110 C.3   1 <1>   0.1570 
 18 C       -4.7990     2.8190    -1.5730 C.3   1 <1>  -0.0600 
 19 C        5.2430    -1.4170     1.6260 C.3   1 <1>   0.0400 
 20 C        6.8760     3.0440    -0.2880 C.3   1 <1>   0.0400 
 21 C       -5.5940     0.1590     0.3450 C.2   1 <1>   0.6590 
 22 O       -6.6570     0.4470    -0.1450 O.2   1 <1>  -0.5700 
 23 O       -5.0900    -1.0650     0.2610 O.3   1 <1>  -0.4300 
 24 C       -5.7520    -2.0920    -0.4390 C.3   1 <1>   0.1200 
 25 C       -4.9010    -3.3540    -0.3420 C.3   1 <1>  -0.2400 
 26 H        0.0100     1.1280     0.8570 H     1 <1>   0.3700 
 27 H        1.7300    -0.1440     0.4670 H     1 <1>   0.1500 
 28 H        3.0660     3.5940    -1.0920 H     1 <1>   0.1500 
 29 H       -1.8460     2.9720    -1.9770 H     1 <1>   0.1500 
 30 H        5.8410     0.8830     0.6430 H     1 <1>   0.1500 
 31 H       -5.3840     2.0390     1.3110 H     1 <1>   0.0800 
 32 H       -4.4570     0.7430     2.0370 H     1 <1>   0.0800 
 33 H       -4.4840     3.4390    -2.3940 H     1 <1>   0.0800 
 34 H       -5.4240     3.4060    -0.9250 H     1 <1>   0.0800 
 35 H       -5.3740     2.0020    -1.9710 H     1 <1>   0.0800 
 36 H        5.1260    -2.3900     2.0670 H     1 <1>   0.0800 
 37 H        5.6470    -0.7330     2.3520 H     1 <1>   0.0800 
 38 H        5.8780    -1.4830     0.7600 H     1 <1>   0.0800 
 39 H        7.4260     3.9040    -0.6260 H     1 <1>   0.0800 
 40 H        7.2000     2.1700    -0.8240 H     1 <1>   0.0800 
 41 H        7.0090     2.9210     0.7730 H     1 <1>   0.0800 
 42 H       -5.8690    -1.7840    -1.4650 H     1 <1>   0.0800 
 43 H       -6.7210    -2.2430     0.0070 H     1 <1>   0.0800 
 44 H       -3.9330    -3.1820    -0.7800 H     1 <1>   0.0800 
 45 H       -5.3790    -4.1570    -0.8720 H     1 <1>   0.0800 
 46 H       -4.7830    -3.6440     0.6870 H     1 <1>   0.0800 
@<TRIPOS>BOND
  1   1   2  2   
  2   2   3  am  
  3   2   4  1   
  4   3   5  1   
  5   3  26  1   
  6   4   6  ar  
  7   4   7  ar  
  8   5   8  2   
  9   5   9  1   
 10   6  10  ar  
 11   6  27  1   
 12   7  11  ar  
 13   7  28  1   
 14   8  12  1   
 15   9  13  2   
 16   9  29  1   
 17  10  14  1   
 18  10  15  ar  
 19  11  15  ar  
 20  11  16  1   
 21  12  13  1   
 22  12  17  1   
 23  13  18  1   
 24  14  19  1   
 25  15  30  1   
 26  16  20  1   
 27  17  21  1   
 28  17  31  1   
 29  17  32  1   
 30  18  33  1   
 31  18  34  1   
 32  18  35  1   
 33  19  36  1   
 34  19  37  1   
 35  19  38  1   
 36  20  39  1   
 37  20  40  1   
 38  20  41  1   
 39  21  22  2   
 40  21  23  1   
 41  23  24  1   
 42  24  25  1   
 43  24  42  1   
 44  24  43  1   
 45  25  44  1   
 46  25  45  1   
 47  25  46  1   
@<TRIPOS>SUBSTRUCTURE
  1 ****   3 GROUP 4 **** **** 0

# MOE 2024.06 (io_trps.svl 2023.06)
