@<TRIPOS>MOLECULE
NONAME
36 37 1 0 0 
SMALL
USER_CHARGES


@<TRIPOS>ATOM
  1 CL       0.2080     0.0570    -0.5080 Cl    1 <1>  -0.1770 
  2 C        0.9880    -1.4500    -0.0850 C.ar  1 <1>   0.1770 
  3 C        0.2720    -2.4750     0.5110 C.ar  1 <1>   0.1770 
  4 C        2.3350    -1.6000    -0.3580 C.ar  1 <1>  -0.1500 
  5 CL      -1.4330    -2.2950     0.8610 Cl    1 <1>  -0.1770 
  6 C        0.9030    -3.6610     0.8370 C.ar  1 <1>  -0.1500 
  7 C        2.9870    -2.7850    -0.0340 C.ar  1 <1>   0.1170 
  8 C        2.2520    -3.8100     0.5620 C.ar  1 <1>  -0.1500 
  9 N        4.3530    -2.9040    -0.3350 N.am  1 <1>  -0.5470 
 10 C        5.3220    -3.6870     0.2330 C.2   1 <1>   0.5690 
 11 O        5.1120    -4.4200     1.1670 O.2   1 <1>  -0.5700 
 12 C        6.7340    -3.5930    -0.3510 C.3   1 <1>  -0.0190 
 13 C        7.5120    -4.9210    -0.2380 C.3   1 <1>  -0.1600 
 14 C        7.5320    -2.4590     0.3190 C.3   1 <1>  -0.1600 
 15 C        8.9310    -4.7960    -0.7970 C.3   1 <1>   0.1400 
 16 C        8.9540    -2.3580    -0.2420 C.3   1 <1>   0.1400 
 17 N        9.6350    -3.6750    -0.1140 N.am  1 <1>  -0.6600 
 18 C       10.7960    -3.7960     0.6070 C.2   1 <1>   0.5690 
 19 O       11.3420    -2.8470     1.1150 O.2   1 <1>  -0.5700 
 20 C       11.4510    -5.1450     0.7950 C.3   1 <1>  -0.1790 
 21 H        2.8670    -0.7880    -0.8180 H     1 <1>   0.1500 
 22 H        0.3440    -4.4560     1.3000 H     1 <1>   0.1500 
 23 H        2.7340    -4.7390     0.8140 H     1 <1>   0.1500 
 24 H        4.6870    -2.2650    -1.0540 H     1 <1>   0.3700 
 25 H        6.6400    -3.3650    -1.3980 H     1 <1>   0.0800 
 26 H        6.9860    -5.6950    -0.7680 H     1 <1>   0.0800 
 27 H        7.5760    -5.2210     0.7950 H     1 <1>   0.0800 
 28 H        7.5930    -2.6380     1.3790 H     1 <1>   0.0800 
 29 H        7.0300    -1.5190     0.1760 H     1 <1>   0.0800 
 30 H        8.8920    -4.5900    -1.8530 H     1 <1>   0.0800 
 31 H        9.4500    -5.7270    -0.6630 H     1 <1>   0.0800 
 32 H        9.4940    -1.5940     0.2920 H     1 <1>   0.0800 
 33 H        8.9260    -2.0770    -1.2810 H     1 <1>   0.0800 
 34 H       11.7440    -5.5450    -0.1560 H     1 <1>   0.0800 
 35 H       10.7700    -5.8150     1.2840 H     1 <1>   0.0800 
 36 H       12.3270    -5.0390     1.4090 H     1 <1>   0.0800 
@<TRIPOS>BOND
  1   1   2  1   
  2   2   3  ar  
  3   2   4  ar  
  4   3   5  1   
  5   3   6  ar  
  6   4   7  ar  
  7   4  21  1   
  8   6   8  ar  
  9   6  22  1   
 10   7   8  ar  
 11   7   9  1   
 12   8  23  1   
 13   9  10  am  
 14   9  24  1   
 15  10  11  2   
 16  10  12  1   
 17  12  13  1   
 18  12  14  1   
 19  12  25  1   
 20  13  15  1   
 21  13  26  1   
 22  13  27  1   
 23  14  16  1   
 24  14  28  1   
 25  14  29  1   
 26  15  17  1   
 27  15  30  1   
 28  15  31  1   
 29  16  17  1   
 30  16  32  1   
 31  16  33  1   
 32  17  18  am  
 33  18  19  2   
 34  18  20  1   
 35  20  34  1   
 36  20  35  1   
 37  20  36  1   
@<TRIPOS>SUBSTRUCTURE
  1 ****  10 GROUP 4 **** **** 0

# MOE 2024.06 (io_trps.svl 2023.06)
