@<TRIPOS>MOLECULE
NONAME
32 33 1 0 0 
SMALL
USER_CHARGES


@<TRIPOS>ATOM
  1 O       -0.1960     0.3300     0.1760 O.3   1 <1>  -0.0190 
  2 N       -1.4130    -0.0870     0.3340 N.2   1 <1>  -0.4100 
  3 C       -0.3350     1.5620    -0.2360 C.2   1 <1>   0.2980 
  4 C       -2.2050     0.8770     0.0200 C.2   1 <1>   0.4620 
  5 N       -1.5280     1.9680    -0.3560 N.2   1 <1>  -0.5650 
  6 C        0.9050     2.3740    -0.5270 C.3   1 <1>  -0.0600 
  7 C       -3.6580     0.8270     0.0580 C.ar  1 <1>   0.0540 
  8 C       -4.3370    -0.3230     0.4550 C.ar  1 <1>  -0.1500 
  9 C       -4.4430     1.9220    -0.3000 C.ar  1 <1>  -0.1500 
 10 C       -5.7180    -0.3800     0.4930 C.ar  1 <1>  -0.1500 
 11 C       -5.8240     1.8680    -0.2620 C.ar  1 <1>  -0.1500 
 12 C       -6.4950     0.7170     0.1350 C.ar  1 <1>  -0.1430 
 13 C       -8.0390     0.7050     0.1600 C.3   1 <1>   0.1430 
 14 C       -8.5450     1.7870     1.1260 C.3   1 <1>  -0.2400 
 15 C       -8.5780     0.9870    -1.2500 C.3   1 <1>  -0.2400 
 16 C       -8.6260    -0.6400     0.6210 C.3   1 <1>  -0.2400 
 17 H        1.4790     1.8960    -1.2990 H     1 <1>   0.0800 
 18 H        1.5020     2.4550     0.3620 H     1 <1>   0.0800 
 19 H        0.6290     3.3600    -0.8550 H     1 <1>   0.0800 
 20 H       -3.7720    -1.1930     0.7400 H     1 <1>   0.1500 
 21 H       -3.9650     2.8330    -0.6130 H     1 <1>   0.1500 
 22 H       -6.1660    -1.3030     0.8100 H     1 <1>   0.1500 
 23 H       -6.3760     2.7450    -0.5500 H     1 <1>   0.1500 
 24 H       -8.1440     1.6180     2.1100 H     1 <1>   0.0800 
 25 H       -9.6180     1.7720     1.1870 H     1 <1>   0.0800 
 26 H       -8.2440     2.7670     0.8040 H     1 <1>   0.0800 
 27 H       -8.2770     1.9590    -1.5930 H     1 <1>   0.0800 
 28 H       -9.6530     0.9470    -1.2610 H     1 <1>   0.0800 
 29 H       -8.2010     0.2540    -1.9400 H     1 <1>   0.0800 
 30 H       -8.2990    -0.8720     1.6190 H     1 <1>   0.0800 
 31 H       -8.3230    -1.4310    -0.0410 H     1 <1>   0.0800 
 32 H       -9.7010    -0.6030     0.6240 H     1 <1>   0.0800 
@<TRIPOS>BOND
  1   1   2  1   
  2   1   3  1   
  3   2   4  2   
  4   3   5  2   
  5   3   6  1   
  6   4   5  1   
  7   4   7  1   
  8   6  17  1   
  9   6  18  1   
 10   6  19  1   
 11   7   8  ar  
 12   7   9  ar  
 13   8  10  ar  
 14   8  20  1   
 15   9  11  ar  
 16   9  21  1   
 17  10  12  ar  
 18  10  22  1   
 19  11  12  ar  
 20  11  23  1   
 21  12  13  1   
 22  13  14  1   
 23  13  15  1   
 24  13  16  1   
 25  14  24  1   
 26  14  25  1   
 27  14  26  1   
 28  15  27  1   
 29  15  28  1   
 30  15  29  1   
 31  16  30  1   
 32  16  31  1   
 33  16  32  1   
@<TRIPOS>SUBSTRUCTURE
  1 ****   7 GROUP 4 **** **** 0

# MOE 2024.06 (io_trps.svl 2023.06)
