@<TRIPOS>MOLECULE
NONAME
47 48 1 0 0 
SMALL
USER_CHARGES


@<TRIPOS>ATOM
  1 O       -0.6460     0.1170     0.2160 O.2   1 <1>  -0.5700 
  2 C       -0.9930     1.2710     0.1050 C.2   1 <1>   0.7060 
  3 O       -2.2940     1.5310     0.1990 O.3   1 <1>  -0.4300 
  4 C       -0.0870     2.3670    -0.1350 C.2   1 <1>  -0.1240 
  5 C       -2.7300     2.8330     0.5470 C.3   1 <1>   0.3440 
  6 C       -0.5470     3.6190    -0.3570 C.2   1 <1>  -0.0610 
  7 C        1.4020     2.0200    -0.1400 C.3   1 <1>  -0.1020 
  8 C       -4.2610     2.8540     0.5480 C.ar  1 <1>  -0.1440 
  9 C       -2.0540     3.9130    -0.3580 C.3   1 <1>   0.1380 
 10 O        0.2540     4.6690    -0.6230 O.3   1 <1>  -0.2270 
 11 C       -4.9390     3.5770     1.5210 C.ar  1 <1>  -0.1500 
 12 C       -4.9970     2.1580    -0.4020 C.ar  1 <1>  -0.1500 
 13 C       -2.3620     5.3200     0.1970 C.3   1 <1>  -0.2400 
 14 C       -2.5420     3.8540    -1.8170 C.3   1 <1>  -0.2400 
 15 C        0.8770     5.3730     0.3290 C.2   1 <1>   0.6590 
 16 C       -6.3230     3.6150     1.5360 C.ar  1 <1>  -0.1500 
 17 C       -6.3810     2.1940    -0.3890 C.ar  1 <1>  -0.1500 
 18 O        0.7460     5.1080     1.4990 O.2   1 <1>  -0.5700 
 19 C        1.7610     6.5390    -0.1740 C.3   1 <1>   0.0610 
 20 C       -7.0450     2.9250     0.5790 C.ar  1 <1>  -0.1500 
 21 C        2.4320     7.2890     0.9960 C.3   1 <1>  -0.2400 
 22 C        0.9100     7.5530    -0.9630 C.3   1 <1>  -0.2400 
 23 C        2.8740     6.0050    -1.0970 C.3   1 <1>  -0.2400 
 24 H       -2.3950     2.9910     1.5580 H     1 <1>   0.0800 
 25 H        1.5950     1.2480    -0.8650 H     1 <1>   0.0800 
 26 H        1.6910     1.6560     0.8300 H     1 <1>   0.0800 
 27 H        2.0160     2.8670    -0.3810 H     1 <1>   0.0800 
 28 H       -4.3940     4.1160     2.2760 H     1 <1>   0.1500 
 29 H       -4.4940     1.5790    -1.1570 H     1 <1>   0.1500 
 30 H       -3.4210     5.5060     0.1960 H     1 <1>   0.0800 
 31 H       -1.9990     5.4160     1.2050 H     1 <1>   0.0800 
 32 H       -1.9010     6.0800    -0.4070 H     1 <1>   0.0800 
 33 H       -1.9980     4.5580    -2.4210 H     1 <1>   0.0800 
 34 H       -2.3910     2.8710    -2.2260 H     1 <1>   0.0800 
 35 H       -3.5890     4.0940    -1.8820 H     1 <1>   0.0800 
 36 H       -6.8380     4.1790     2.2930 H     1 <1>   0.1500 
 37 H       -6.9390     1.6510    -1.1320 H     1 <1>   0.1500 
 38 H       -8.1200     2.9530     0.5900 H     1 <1>   0.1500 
 39 H        1.6870     7.6950     1.6570 H     1 <1>   0.0800 
 40 H        3.0450     8.0960     0.6360 H     1 <1>   0.0800 
 41 H        3.0520     6.6180     1.5650 H     1 <1>   0.0800 
 42 H        0.4580     7.0850    -1.8200 H     1 <1>   0.0800 
 43 H        1.5160     8.3730    -1.3070 H     1 <1>   0.0800 
 44 H        0.1270     7.9470    -0.3390 H     1 <1>   0.0800 
 45 H        2.4530     5.5120    -1.9560 H     1 <1>   0.0800 
 46 H        3.4890     5.2980    -0.5680 H     1 <1>   0.0800 
 47 H        3.5010     6.8080    -1.4420 H     1 <1>   0.0800 
@<TRIPOS>BOND
  1   1   2  2   
  2   2   3  1   
  3   2   4  1   
  4   3   5  1   
  5   4   6  2   
  6   4   7  1   
  7   5   8  1   
  8   5   9  1   
  9   5  24  1   
 10   6   9  1   
 11   6  10  1   
 12   7  25  1   
 13   7  26  1   
 14   7  27  1   
 15   8  11  ar  
 16   8  12  ar  
 17   9  13  1   
 18   9  14  1   
 19  10  15  1   
 20  11  16  ar  
 21  11  28  1   
 22  12  17  ar  
 23  12  29  1   
 24  13  30  1   
 25  13  31  1   
 26  13  32  1   
 27  14  33  1   
 28  14  34  1   
 29  14  35  1   
 30  15  18  2   
 31  15  19  1   
 32  16  20  ar  
 33  16  36  1   
 34  17  20  ar  
 35  17  37  1   
 36  19  21  1   
 37  19  22  1   
 38  19  23  1   
 39  20  38  1   
 40  21  39  1   
 41  21  40  1   
 42  21  41  1   
 43  22  42  1   
 44  22  43  1   
 45  22  44  1   
 46  23  45  1   
 47  23  46  1   
 48  23  47  1   
@<TRIPOS>SUBSTRUCTURE
  1 ****   9 GROUP 4 **** **** 0

# MOE 2024.06 (io_trps.svl 2023.06)
