@<TRIPOS>MOLECULE
NONAME
47 47 1 0 0 
SMALL
USER_CHARGES


@<TRIPOS>ATOM
  1 CL      -0.8110     0.6820     1.4070 Cl    1 <1>  -0.1770 
  2 C        0.3090     1.7920     0.6520 C.ar  1 <1>   0.1770 
  3 C       -0.1630     2.7030    -0.2820 C.ar  1 <1>  -0.1440 
  4 C        1.6420     1.7440     1.0110 C.ar  1 <1>  -0.1500 
  5 C        0.7330     3.5960    -0.8530 C.ar  1 <1>  -0.1500 
  6 C       -1.6240     2.7150    -0.6690 C.3   1 <1>   0.4870 
  7 C        2.5350     2.6240     0.4270 C.ar  1 <1>   0.0830 
  8 C        2.0710     3.5750    -0.4920 C.ar  1 <1>   0.0830 
  9 N       -2.3810     3.3040     0.4600 N.4   1 <1>  -0.9060 
 10 O        3.8370     2.5160     0.7870 O.3   1 <1>  -0.3620 
 11 O        2.8750     4.4970    -1.0710 O.3   1 <1>  -0.3620 
 12 C       -3.8320     3.3950     0.3210 C.3   1 <1>   0.5030 
 13 C        4.7730     2.1420    -0.2040 C.3   1 <1>   0.2000 
 14 C        3.4870     5.4460    -0.2260 C.3   1 <1>   0.1200 
 15 C       -4.3460     4.0230     1.6120 C.3   1 <1>  -0.2400 
 16 C       -4.1820     4.2880    -0.8690 C.3   1 <1>  -0.2400 
 17 C       -4.4210     1.9950     0.1520 C.3   1 <1>  -0.2400 
 18 C        4.6790     0.6320    -0.4240 C.3   1 <1>  -0.2400 
 19 C        6.1560     2.5460     0.3020 C.3   1 <1>  -0.2400 
 20 C        4.3330     6.3730    -1.0930 C.3   1 <1>  -0.2400 
 21 H        1.9910     1.0270     1.7320 H     1 <1>   0.1500 
 22 H        0.4190     4.3220    -1.5830 H     1 <1>   0.1500 
 23 H       -1.9550     1.7070    -0.8600 H     1 <1>   0.0800 
 24 H       -1.7610     3.3020    -1.5630 H     1 <1>   0.0800 
 25 H       -2.0080     4.2370     0.6530 H     1 <1>   0.4500 
 26 H       -2.1800     2.7340     1.2890 H     1 <1>   0.4500 
 27 H        4.5520     2.6680    -1.1170 H     1 <1>   0.0800 
 28 H        4.1030     4.9380     0.4940 H     1 <1>   0.0800 
 29 H        2.7150     5.9950     0.2840 H     1 <1>   0.0800 
 30 H       -4.1050     3.4120     2.4640 H     1 <1>   0.0800 
 31 H       -5.4170     4.1170     1.5720 H     1 <1>   0.0800 
 32 H       -3.9380     5.0080     1.7560 H     1 <1>   0.0800 
 33 H       -3.7280     5.2590    -0.7730 H     1 <1>   0.0800 
 34 H       -5.2480     4.4300    -0.9110 H     1 <1>   0.0800 
 35 H       -3.8840     3.8450    -1.8020 H     1 <1>   0.0800 
 36 H       -5.4960     2.0540     0.1530 H     1 <1>   0.0800 
 37 H       -4.1300     1.5480    -0.7810 H     1 <1>   0.0800 
 38 H       -4.1290     1.3510     0.9630 H     1 <1>   0.0800 
 39 H        4.8530     0.1070     0.4980 H     1 <1>   0.0800 
 40 H        5.4170     0.3210    -1.1400 H     1 <1>   0.0800 
 41 H        3.7100     0.3700    -0.8090 H     1 <1>   0.0800 
 42 H        6.3770     2.0460     1.2280 H     1 <1>   0.0800 
 43 H        6.1960     3.6090     0.4510 H     1 <1>   0.0800 
 44 H        6.9030     2.2770    -0.4220 H     1 <1>   0.0800 
 45 H        5.0930     5.8090    -1.6020 H     1 <1>   0.0800 
 46 H        4.8100     7.1120    -0.4760 H     1 <1>   0.0800 
 47 H        3.7130     6.8750    -1.8140 H     1 <1>   0.0800 
@<TRIPOS>BOND
  1   1   2  1   
  2   2   3  ar  
  3   2   4  ar  
  4   3   5  ar  
  5   3   6  1   
  6   4   7  ar  
  7   4  21  1   
  8   5   8  ar  
  9   5  22  1   
 10   6   9  1   
 11   6  23  1   
 12   6  24  1   
 13   7   8  ar  
 14   7  10  1   
 15   8  11  1   
 16   9  12  1   
 17   9  25  1   
 18   9  26  1   
 19  10  13  1   
 20  11  14  1   
 21  12  15  1   
 22  12  16  1   
 23  12  17  1   
 24  13  18  1   
 25  13  19  1   
 26  13  27  1   
 27  14  20  1   
 28  14  28  1   
 29  14  29  1   
 30  15  30  1   
 31  15  31  1   
 32  15  32  1   
 33  16  33  1   
 34  16  34  1   
 35  16  35  1   
 36  17  36  1   
 37  17  37  1   
 38  17  38  1   
 39  18  39  1   
 40  18  40  1   
 41  18  41  1   
 42  19  42  1   
 43  19  43  1   
 44  19  44  1   
 45  20  45  1   
 46  20  46  1   
 47  20  47  1   
@<TRIPOS>SUBSTRUCTURE
  1 ****   3 GROUP 4 **** **** 0

# MOE 2024.06 (io_trps.svl 2023.06)
