@<TRIPOS>MOLECULE
NONAME
36 37 1 0 0 
SMALL
USER_CHARGES


@<TRIPOS>ATOM
  1 CL       0.0660     0.3120     0.6510 Cl    1 <1>  -0.1770 
  2 C        1.7800     0.1400     0.3620 C.ar  1 <1>   0.1770 
  3 C        2.4200    -1.0250     0.7390 C.ar  1 <1>  -0.1500 
  4 C        2.4740     1.1720    -0.2420 C.ar  1 <1>  -0.1500 
  5 C        3.7780    -1.1570     0.5060 C.ar  1 <1>  -0.1500 
  6 C        3.8320     1.0310    -0.4680 C.ar  1 <1>  -0.1500 
  7 C        4.5040    -0.1310    -0.0970 C.ar  1 <1>   0.1170 
  8 N        5.8790    -0.2230    -0.3620 N.am  1 <1>  -0.5470 
  9 C        6.8520    -1.0020     0.2060 C.2   1 <1>   0.5690 
 10 O        6.6440    -1.7610     1.1200 O.2   1 <1>  -0.5700 
 11 C        8.2710    -0.8700    -0.3490 C.3   1 <1>  -0.0190 
 12 C        9.0190    -2.2190    -0.3780 C.3   1 <1>  -0.1600 
 13 C        9.0830     0.1620     0.4550 C.3   1 <1>  -0.1600 
 14 C       10.4480    -2.0630    -0.9050 C.3   1 <1>   0.1400 
 15 C       10.5140     0.2960    -0.0750 C.3   1 <1>   0.1400 
 16 N       11.1670    -1.0420    -0.0930 N.am  1 <1>  -0.6600 
 17 C       12.3190    -1.2700     0.6170 C.2   1 <1>   0.5690 
 18 O       12.8810    -0.3960     1.2330 O.2   1 <1>  -0.5700 
 19 C       12.9430    -2.6460     0.6580 C.3   1 <1>  -0.1790 
 20 H        1.8610    -1.8160     1.2060 H     1 <1>   0.1500 
 21 H        1.9530     2.0680    -0.5250 H     1 <1>   0.1500 
 22 H        4.2690    -2.0680     0.7970 H     1 <1>   0.1500 
 23 H        4.3710     1.8350    -0.9350 H     1 <1>   0.1500 
 24 H        6.2140     0.4330    -1.0640 H     1 <1>   0.3700 
 25 H        8.1980    -0.5210    -1.3630 H     1 <1>   0.0800 
 26 H        8.4840    -2.9160    -0.9980 H     1 <1>   0.0800 
 27 H        9.0630    -2.6350     0.6140 H     1 <1>   0.0800 
 28 H        9.1260    -0.1380     1.4890 H     1 <1>   0.0800 
 29 H        8.6020     1.1220     0.4150 H     1 <1>   0.0800 
 30 H       10.4260    -1.7370    -1.9310 H     1 <1>   0.0800 
 31 H       10.9460    -3.0140    -0.8730 H     1 <1>   0.0800 
 32 H       11.0630     0.9800     0.5500 H     1 <1>   0.0800 
 33 H       10.5060     0.6950    -1.0740 H     1 <1>   0.0800 
 34 H       13.2380    -2.9420    -0.3300 H     1 <1>   0.0800 
 35 H       12.2420    -3.3510     1.0620 H     1 <1>   0.0800 
 36 H       13.8140    -2.6290     1.2870 H     1 <1>   0.0800 
@<TRIPOS>BOND
  1   1   2  1   
  2   2   3  ar  
  3   2   4  ar  
  4   3   5  ar  
  5   3  20  1   
  6   4   6  ar  
  7   4  21  1   
  8   5   7  ar  
  9   5  22  1   
 10   6   7  ar  
 11   6  23  1   
 12   7   8  1   
 13   8   9  am  
 14   8  24  1   
 15   9  10  2   
 16   9  11  1   
 17  11  12  1   
 18  11  13  1   
 19  11  25  1   
 20  12  14  1   
 21  12  26  1   
 22  12  27  1   
 23  13  15  1   
 24  13  28  1   
 25  13  29  1   
 26  14  16  1   
 27  14  30  1   
 28  14  31  1   
 29  15  16  1   
 30  15  32  1   
 31  15  33  1   
 32  16  17  am  
 33  17  18  2   
 34  17  19  1   
 35  19  34  1   
 36  19  35  1   
 37  19  36  1   
@<TRIPOS>SUBSTRUCTURE
  1 ****   9 GROUP 4 **** **** 0

# MOE 2024.06 (io_trps.svl 2023.06)
