@<TRIPOS>MOLECULE
NONAME
46 46 1 0 0 
SMALL
USER_CHARGES


@<TRIPOS>ATOM
  1 O        1.4060    -1.6050    -2.4580 O.co2 1 <1>  -0.9000 
  2 C        2.0170    -2.2920    -1.6340 C.2   1 <1>   0.9060 
  3 O        2.9520    -3.0260    -1.9840 O.co2 1 <1>  -0.9000 
  4 C        1.6280    -2.1350    -0.1640 C.3   1 <1>  -0.1860 
  5 C        2.6140    -2.6750     0.9040 C.3   1 <1>  -0.0190 
  6 C        0.2280    -2.7280     0.0900 C.3   1 <1>  -0.0220 
  7 C        4.0000    -2.0280     0.9290 C.2   1 <1>   0.5690 
  8 C        2.7180    -4.2060     0.8580 C.3   1 <1>  -0.0220 
  9 C        0.2310    -4.2120     0.4650 C.2   1 <1>  -0.2760 
 10 O        4.4140    -1.6160     1.9890 O.2   1 <1>  -0.5700 
 11 N        4.7230    -1.9780    -0.2170 N.am  1 <1>  -0.7300 
 12 C        1.3490    -4.8810     0.7930 C.2   1 <1>  -0.2760 
 13 C       -1.1800    -4.7840     0.4000 C.3   1 <1>  -0.1020 
 14 C        6.0980    -1.5310    -0.5270 C.3   1 <1>   0.2200 
 15 C        1.4610    -6.3660     1.1200 C.3   1 <1>  -0.1020 
 16 C        7.1100    -2.7210    -0.4650 C.3   1 <1>   0.0000 
 17 C        6.4670    -0.2930     0.3030 C.3   1 <1>  -0.2400 
 18 C        7.2060    -3.3480     0.9390 C.3   1 <1>  -0.2400 
 19 C        6.6760    -3.8220    -1.4530 C.3   1 <1>  -0.2400 
 20 C        8.5200    -2.2600    -0.8810 C.3   1 <1>  -0.2400 
 21 H        1.5530    -1.0740    -0.0190 H     1 <1>   0.0800 
 22 H        2.1710    -2.4390     1.8550 H     1 <1>   0.0800 
 23 H       -0.3730    -2.5760    -0.7910 H     1 <1>   0.0800 
 24 H       -0.2370    -2.1820     0.8910 H     1 <1>   0.0800 
 25 H        3.2410    -4.5280     1.7410 H     1 <1>   0.0800 
 26 H        3.2990    -4.5130     0.0060 H     1 <1>   0.0800 
 27 H        4.2480    -2.4070    -1.0400 H     1 <1>   0.3700 
 28 H       -1.5270    -4.7660    -0.6180 H     1 <1>   0.0800 
 29 H       -1.8430    -4.1870     0.9990 H     1 <1>   0.0800 
 30 H       -1.2390    -5.7920     0.7570 H     1 <1>   0.0800 
 31 H        6.0700    -1.2000    -1.5520 H     1 <1>   0.0800 
 32 H        1.7700    -6.4920     2.1410 H     1 <1>   0.0800 
 33 H        2.1970    -6.8180     0.4780 H     1 <1>   0.0800 
 34 H        0.5420    -6.8940     0.9760 H     1 <1>   0.0800 
 35 H        6.6260    -0.5480     1.3330 H     1 <1>   0.0800 
 36 H        5.6730     0.4290     0.2430 H     1 <1>   0.0800 
 37 H        7.3600     0.1620    -0.0790 H     1 <1>   0.0800 
 38 H        6.2480    -3.7250     1.2490 H     1 <1>   0.0800 
 39 H        7.5290    -2.6230     1.6630 H     1 <1>   0.0800 
 40 H        7.9040    -4.1650     0.9430 H     1 <1>   0.0800 
 41 H        7.3870    -4.6280    -1.4700 H     1 <1>   0.0800 
 42 H        5.7190    -4.2300    -1.1760 H     1 <1>   0.0800 
 43 H        6.5850    -3.4230    -2.4480 H     1 <1>   0.0800 
 44 H        8.9210    -1.5630    -0.1680 H     1 <1>   0.0800 
 45 H        8.4900    -1.7870    -1.8470 H     1 <1>   0.0800 
 46 H        9.1910    -3.0990    -0.9350 H     1 <1>   0.0800 
@<TRIPOS>BOND
  1   1   2  ar  
  2   2   3  ar  
  3   2   4  1   
  4   4   5  1   
  5   4   6  1   
  6   4  21  1   
  7   5   7  1   
  8   5   8  1   
  9   5  22  1   
 10   6   9  1   
 11   6  23  1   
 12   6  24  1   
 13   7  10  2   
 14   7  11  am  
 15   8  12  1   
 16   8  25  1   
 17   8  26  1   
 18   9  12  2   
 19   9  13  1   
 20  11  14  1   
 21  11  27  1   
 22  12  15  1   
 23  13  28  1   
 24  13  29  1   
 25  13  30  1   
 26  14  16  1   
 27  14  17  1   
 28  14  31  1   
 29  15  32  1   
 30  15  33  1   
 31  15  34  1   
 32  16  18  1   
 33  16  19  1   
 34  16  20  1   
 35  17  35  1   
 36  17  36  1   
 37  17  37  1   
 38  18  38  1   
 39  18  39  1   
 40  18  40  1   
 41  19  41  1   
 42  19  42  1   
 43  19  43  1   
 44  20  44  1   
 45  20  45  1   
 46  20  46  1   
@<TRIPOS>SUBSTRUCTURE
  1 ****   5 GROUP 4 **** **** 0

# MOE 2024.06 (io_trps.svl 2023.06)
