@<TRIPOS>MOLECULE
NONAME
26 25 1 0 0 
SMALL
USER_CHARGES


@<TRIPOS>ATOM
  1 F        0.2080    -0.2310     1.3530 F     1 <1>  -0.3400 
  2 C        0.1820    -1.3390     0.6060 C.3   1 <1>   0.7850 
  3 F        0.3380    -2.3230     1.5030 F     1 <1>  -0.3400 
  4 C       -1.2240    -1.4730    -0.0520 C.cat 1 <1>   0.6040 
  5 C        1.3290    -1.3430    -0.4310 C.3   1 <1>   0.6800 
  6 N       -1.6850    -0.6960    -1.0130 N.pl3 1 <1>  -0.8240 
  7 N       -2.1070    -2.4100     0.3300 N.pl3 1 <1>  -0.7540 
  8 F        1.1570    -2.3810    -1.2560 F     1 <1>  -0.3400 
  9 F        1.1970    -0.2820    -1.2350 F     1 <1>  -0.3400 
 10 C        2.7580    -1.3870     0.1660 C.3   1 <1>   0.6800 
 11 O       -2.8660    -0.8170    -1.5580 O.3   1 <1>  -0.4800 
 12 F        2.8790    -0.4770     1.1400 F     1 <1>  -0.3400 
 13 F        2.9420    -2.5480     0.8040 F     1 <1>  -0.3400 
 14 C        3.9040    -1.1930    -0.8540 C.3   1 <1>   0.7850 
 15 F        3.8650     0.0260    -1.4000 F     1 <1>  -0.3400 
 16 F        3.7580    -2.0120    -1.9050 F     1 <1>  -0.3400 
 17 C        5.3120    -1.4220    -0.2270 C.cat 1 <1>   0.6040 
 18 N        5.7650    -0.8150     0.8530 N.pl3 1 <1>  -0.8240 
 19 N        6.2050    -2.2710    -0.7610 N.pl3 1 <1>  -0.7540 
 20 O        6.9470    -1.0130     1.3710 O.3   1 <1>  -0.4800 
 21 H       -1.1400     0.0830    -1.4150 H     1 <1>   0.4500 
 22 H       -2.9850    -2.3230    -0.2050 H     1 <1>   0.4500 
 23 H       -2.0410    -3.0890     1.0850 H     1 <1>   0.4500 
 24 H        5.2120    -0.1210     1.3810 H     1 <1>   0.4500 
 25 H        7.0820    -2.2670    -0.2180 H     1 <1>   0.4500 
 26 H        6.1450    -2.8120    -1.6210 H     1 <1>   0.4500 
@<TRIPOS>BOND
  1   1   2  1   
  2   2   3  1   
  3   2   4  1   
  4   2   5  1   
  5   4   6  ar  
  6   4   7  ar  
  7   5   8  1   
  8   5   9  1   
  9   5  10  1   
 10   6  11  1   
 11   6  21  1   
 12   7  22  1   
 13   7  23  1   
 14  10  12  1   
 15  10  13  1   
 16  10  14  1   
 17  14  15  1   
 18  14  16  1   
 19  14  17  1   
 20  17  18  ar  
 21  17  19  ar  
 22  18  20  1   
 23  18  24  1   
 24  19  25  1   
 25  19  26  1   
@<TRIPOS>SUBSTRUCTURE
  1 ****  10 GROUP 4 **** **** 0

# MOE 2024.06 (io_trps.svl 2023.06)
