@<TRIPOS>MOLECULE
NONAME
41 42 1 0 0 
SMALL
USER_CHARGES


@<TRIPOS>ATOM
  1 O        0.7680    -0.3540    -0.7160 O.2   1 <1>  -0.5700 
  2 C        0.4300    -1.2540    -0.0100 C.2   1 <1>   0.4480 
  3 C        1.3920    -1.8970     0.9590 C.3   1 <1>  -0.0380 
  4 C       -0.9800    -1.8160    -0.0290 C.3   1 <1>  -0.0990 
  5 C        1.3720    -3.4000     0.7390 C.2   1 <1>   0.3280 
  6 C       -0.9870    -3.3510    -0.1970 C.3   1 <1>   0.0000 
  7 N        2.3720    -4.1390     0.4970 N.2   1 <1>  -0.5120 
  8 C       -0.0250    -3.9960     0.8260 C.3   1 <1>  -0.0990 
  9 C       -0.5570    -3.7220    -1.6280 C.3   1 <1>  -0.2400 
 10 C       -2.4090    -3.8830     0.0330 C.3   1 <1>  -0.2400 
 11 N        3.6670    -3.6510     0.3580 N.am  1 <1>  -0.3680 
 12 C        4.8300    -4.3790     0.1820 C.2   1 <1>   0.5440 
 13 O        4.8350    -5.5870     0.3220 O.2   1 <1>  -0.5700 
 14 C        6.0500    -3.6690    -0.1470 C.ar  1 <1>   0.0860 
 15 C        7.2670    -4.0350     0.4220 C.ar  1 <1>  -0.1500 
 16 C        6.0540    -2.5930    -1.0380 C.ar  1 <1>  -0.1500 
 17 C        8.4380    -3.3540     0.1420 C.ar  1 <1>   0.0820 
 18 C        7.2170    -1.9030    -1.3270 C.ar  1 <1>  -0.1500 
 19 O        9.5620    -3.7900     0.7620 O.3   1 <1>  -0.3620 
 20 C        8.4110    -2.2770    -0.7380 C.ar  1 <1>  -0.1500 
 21 C       10.8180    -3.1970     0.5150 C.3   1 <1>   0.0400 
 22 H        1.0790    -1.6800     1.9630 H     1 <1>   0.0800 
 23 H        2.3670    -1.4760     0.8150 H     1 <1>   0.0800 
 24 H       -1.5330    -1.3520    -0.8270 H     1 <1>   0.0800 
 25 H       -1.4560    -1.5470     0.8960 H     1 <1>   0.0800 
 26 H       -0.3970    -3.8520     1.8240 H     1 <1>   0.0800 
 27 H        0.0310    -5.0570     0.6540 H     1 <1>   0.0800 
 28 H        0.4320    -3.3630    -1.8520 H     1 <1>   0.0800 
 29 H       -1.2340    -3.2990    -2.3500 H     1 <1>   0.0800 
 30 H       -0.5560    -4.7910    -1.7560 H     1 <1>   0.0800 
 31 H       -2.7510    -3.6500     1.0260 H     1 <1>   0.0800 
 32 H       -2.4360    -4.9520    -0.0900 H     1 <1>   0.0800 
 33 H       -3.0950    -3.4470    -0.6710 H     1 <1>   0.0800 
 34 H        3.7970    -2.6380     0.3560 H     1 <1>   0.3700 
 35 H        7.3000    -4.8710     1.0990 H     1 <1>   0.1500 
 36 H        5.1380    -2.2960    -1.5200 H     1 <1>   0.1500 
 37 H        7.1960    -1.0750    -2.0160 H     1 <1>   0.1500 
 38 H        9.3010    -1.7260    -0.9770 H     1 <1>   0.1500 
 39 H       11.5540    -3.7190     1.0990 H     1 <1>   0.0800 
 40 H       10.7810    -2.1640     0.8120 H     1 <1>   0.0800 
 41 H       11.0490    -3.2910    -0.5320 H     1 <1>   0.0800 
@<TRIPOS>BOND
  1   1   2  2   
  2   2   3  1   
  3   2   4  1   
  4   3   5  1   
  5   3  22  1   
  6   3  23  1   
  7   4   6  1   
  8   4  24  1   
  9   4  25  1   
 10   5   7  2   
 11   5   8  1   
 12   6   8  1   
 13   6   9  1   
 14   6  10  1   
 15   7  11  1   
 16   8  26  1   
 17   8  27  1   
 18   9  28  1   
 19   9  29  1   
 20   9  30  1   
 21  10  31  1   
 22  10  32  1   
 23  10  33  1   
 24  11  12  am  
 25  11  34  1   
 26  12  13  2   
 27  12  14  1   
 28  14  15  ar  
 29  14  16  ar  
 30  15  17  ar  
 31  15  35  1   
 32  16  18  ar  
 33  16  36  1   
 34  17  19  1   
 35  17  20  ar  
 36  18  20  ar  
 37  18  37  1   
 38  19  21  1   
 39  20  38  1   
 40  21  39  1   
 41  21  40  1   
 42  21  41  1   
@<TRIPOS>SUBSTRUCTURE
  1 ****  11 GROUP 4 **** **** 0

# MOE 2024.06 (io_trps.svl 2023.06)
