@<TRIPOS>MOLECULE
NONAME
47 49 1 0 0 
SMALL
USER_CHARGES


@<TRIPOS>ATOM
  1 S        0.1630    -0.5380     1.4480 S.o2  1 <1>   1.4470 
  2 O       -0.2920     0.5700     2.2630 O.2   1 <1>  -0.6500 
  3 O        0.4260    -1.7940     2.1180 O.2   1 <1>  -0.6500 
  4 N       -1.1240    -0.8280     0.3830 N.am  1 <1>  -0.8490 
  5 C        1.5680    -0.1100     0.3410 C.ar  1 <1>  -0.0090 
  6 C       -2.2680    -1.4320     1.0840 C.3   1 <1>   0.1960 
  7 C       -1.5550     0.3960    -0.3140 C.3   1 <1>   0.1960 
  8 C        1.9610    -0.9850    -0.6850 C.ar  1 <1>  -0.1440 
  9 C        2.2890     1.0880     0.4700 C.ar  1 <1>  -0.1440 
 10 C       -3.4210    -1.7800     0.1230 C.3   1 <1>   0.1400 
 11 C       -2.6490     0.0920    -1.3490 C.3   1 <1>   0.1400 
 12 C        2.9940    -0.6550    -1.5490 C.ar  1 <1>  -0.1500 
 13 C        1.2970    -2.3410    -0.9180 C.3   1 <1>  -0.0960 
 14 C        3.3190     1.3980    -0.4060 C.ar  1 <1>  -0.1500 
 15 C        2.0120     2.1160     1.5620 C.3   1 <1>  -0.0960 
 16 N       -3.8120    -0.6060    -0.7180 N.am  1 <1>  -0.6600 
 17 C        3.6770     0.5350    -1.4190 C.ar  1 <1>  -0.1440 
 18 C       -5.1010    -0.1130    -0.8150 C.2   1 <1>   0.7150 
 19 C        4.8040     0.8860    -2.3730 C.3   1 <1>  -0.0970 
 20 O       -5.2390     1.0580    -1.1250 O.2   1 <1>  -0.5700 
 21 C       -6.2870    -0.9110    -0.5640 C.2   1 <1>   0.0550 
 22 O       -6.2770    -2.2440    -0.5820 O.3   1 <1>  -0.2800 
 23 C       -7.5610    -0.5020    -0.3070 C.2   1 <1>  -0.1500 
 24 C       -7.4920    -2.6840    -0.3420 C.2   1 <1>  -0.0100 
 25 C       -8.3390    -1.6500    -0.1600 C.2   1 <1>  -0.1500 
 26 H       -2.6300    -0.7560     1.8410 H     1 <1>   0.0800 
 27 H       -1.9530    -2.3370     1.5760 H     1 <1>   0.0800 
 28 H       -0.7160     0.8390    -0.8230 H     1 <1>   0.0800 
 29 H       -1.9330     1.1180     0.3930 H     1 <1>   0.0800 
 30 H       -4.2520    -2.1170     0.7150 H     1 <1>   0.0800 
 31 H       -3.1170    -2.5870    -0.5190 H     1 <1>   0.0800 
 32 H       -2.2380    -0.5380    -2.1180 H     1 <1>   0.0800 
 33 H       -2.9600     1.0120    -1.8140 H     1 <1>   0.0800 
 34 H        3.2770    -1.3320    -2.3360 H     1 <1>   0.1500 
 35 H        0.3140    -2.2120    -1.3300 H     1 <1>   0.0800 
 36 H        1.2270    -2.8990    -0.0020 H     1 <1>   0.0800 
 37 H        1.8660    -2.9370    -1.6080 H     1 <1>   0.0800 
 38 H        3.8570     2.3240    -0.3010 H     1 <1>   0.1500 
 39 H        1.0530     2.5780     1.4060 H     1 <1>   0.0800 
 40 H        2.7540     2.8940     1.5690 H     1 <1>   0.0800 
 41 H        2.0280     1.6490     2.5310 H     1 <1>   0.0800 
 42 H        5.3090    -0.0050    -2.7030 H     1 <1>   0.0800 
 43 H        5.5240     1.5210    -1.8890 H     1 <1>   0.0800 
 44 H        4.4080     1.3990    -3.2310 H     1 <1>   0.0800 
 45 H       -7.9150     0.5120    -0.2360 H     1 <1>   0.1500 
 46 H       -7.6710    -3.7450    -0.3190 H     1 <1>   0.1500 
 47 H       -9.3940    -1.6740     0.0500 H     1 <1>   0.1500 
@<TRIPOS>BOND
  1   1   2  2   
  2   1   3  2   
  3   1   4  am  
  4   1   5  1   
  5   4   6  1   
  6   4   7  1   
  7   5   8  ar  
  8   5   9  ar  
  9   6  10  1   
 10   6  26  1   
 11   6  27  1   
 12   7  11  1   
 13   7  28  1   
 14   7  29  1   
 15   8  12  ar  
 16   8  13  1   
 17   9  14  ar  
 18   9  15  1   
 19  10  16  1   
 20  10  30  1   
 21  10  31  1   
 22  11  16  1   
 23  11  32  1   
 24  11  33  1   
 25  12  17  ar  
 26  12  34  1   
 27  13  35  1   
 28  13  36  1   
 29  13  37  1   
 30  14  17  ar  
 31  14  38  1   
 32  15  39  1   
 33  15  40  1   
 34  15  41  1   
 35  16  18  am  
 36  17  19  1   
 37  18  20  2   
 38  18  21  1   
 39  19  42  1   
 40  19  43  1   
 41  19  44  1   
 42  21  22  1   
 43  21  23  2   
 44  22  24  1   
 45  23  25  1   
 46  23  45  1   
 47  24  25  2   
 48  24  46  1   
 49  25  47  1   
@<TRIPOS>SUBSTRUCTURE
  1 ****   4 GROUP 4 **** **** 0

# MOE 2024.06 (io_trps.svl 2023.06)
