@<TRIPOS>MOLECULE
NONAME
47 49 1 0 0 
SMALL
USER_CHARGES


@<TRIPOS>ATOM
  1 CL       2.9330     2.7840    -4.4020 Cl    1 <1>  -0.1770 
  2 C        3.5700     2.7030    -2.7800 C.ar  1 <1>   0.1770 
  3 C        4.8510     2.2310    -2.5760 C.ar  1 <1>  -0.1500 
  4 C        2.7850     3.1120    -1.7200 C.ar  1 <1>  -0.1500 
  5 C        5.3520     2.1730    -1.2860 C.ar  1 <1>  -0.1500 
  6 C        3.2980     3.0470    -0.4350 C.ar  1 <1>  -0.1500 
  7 C        4.5880     2.5790    -0.1950 C.ar  1 <1>  -0.0090 
  8 S        5.2680     2.5070     1.4870 S.o2  1 <1>   1.4470 
  9 O        5.7500     1.1670     1.7400 O.2   1 <1>  -0.6500 
 10 O        4.3540     3.1240     2.4240 O.2   1 <1>  -0.6500 
 11 N        6.6240     3.5210     1.3950 N.am  1 <1>  -0.8490 
 12 C        7.5250     3.3040     2.5300 C.3   1 <1>   0.1960 
 13 C        6.2430     4.9340     1.2950 C.3   1 <1>   0.1960 
 14 C        8.8200     4.0940     2.3260 C.3   1 <1>  -0.1600 
 15 C        7.4820     5.7870     1.0250 C.3   1 <1>  -0.1600 
 16 C        8.5390     5.5930     2.1260 C.3   1 <1>  -0.0190 
 17 C        9.8130     6.3770     1.8300 C.2   1 <1>   0.5690 
 18 O       10.1570     7.2440     2.5950 O.2   1 <1>  -0.5700 
 19 N       10.5190     6.0750     0.7130 N.am  1 <1>  -0.7300 
 20 C       11.7540     6.7380     0.2700 C.3   1 <1>   0.2200 
 21 C       11.5330     7.2880    -1.1330 C.3   1 <1>  -0.1600 
 22 C       12.8280     5.6770     0.0650 C.3   1 <1>  -0.1600 
 23 C       11.7160     6.0970    -2.0810 C.3   1 <1>  -0.1600 
 24 C       12.5490     5.0630    -1.3120 C.3   1 <1>  -0.1600 
 25 H        5.4450     1.9150    -3.4160 H     1 <1>   0.1500 
 26 H        1.7880     3.4730    -1.9010 H     1 <1>   0.1500 
 27 H        6.3510     1.8050    -1.1170 H     1 <1>   0.1500 
 28 H        2.6870     3.3640     0.3950 H     1 <1>   0.1500 
 29 H        7.7730     2.2570     2.6080 H     1 <1>   0.0800 
 30 H        7.0420     3.6030     3.4470 H     1 <1>   0.0800 
 31 H        5.7670     5.2550     2.2090 H     1 <1>   0.0800 
 32 H        5.5440     5.0690     0.4870 H     1 <1>   0.0800 
 33 H        9.3330     3.6900     1.4720 H     1 <1>   0.0800 
 34 H        9.4570     3.9600     3.1830 H     1 <1>   0.0800 
 35 H        7.1990     6.8240     0.9800 H     1 <1>   0.0800 
 36 H        7.8830     5.5140     0.0650 H     1 <1>   0.0800 
 37 H        8.1340     5.9790     3.0460 H     1 <1>   0.0800 
 38 H       10.1990     5.3330     0.0930 H     1 <1>   0.3700 
 39 H       12.0540     7.5010     0.9710 H     1 <1>   0.0800 
 40 H       12.2980     8.0160    -1.3360 H     1 <1>   0.0800 
 41 H       10.5730     7.7620    -1.2370 H     1 <1>   0.0800 
 42 H       12.8350     4.9470     0.8550 H     1 <1>   0.0800 
 43 H       13.7860     6.1660     0.0420 H     1 <1>   0.0800 
 44 H       12.2080     6.4030    -2.9890 H     1 <1>   0.0800 
 45 H       10.7570     5.6770    -2.3320 H     1 <1>   0.0800 
 46 H       11.9860     4.1520    -1.2010 H     1 <1>   0.0800 
 47 H       13.4700     4.8400    -1.8250 H     1 <1>   0.0800 
@<TRIPOS>BOND
  1   1   2  1   
  2   2   3  ar  
  3   2   4  ar  
  4   3   5  ar  
  5   3  25  1   
  6   4   6  ar  
  7   4  26  1   
  8   5   7  ar  
  9   5  27  1   
 10   6   7  ar  
 11   6  28  1   
 12   7   8  1   
 13   8   9  2   
 14   8  10  2   
 15   8  11  am  
 16  11  12  1   
 17  11  13  1   
 18  12  14  1   
 19  12  29  1   
 20  12  30  1   
 21  13  15  1   
 22  13  31  1   
 23  13  32  1   
 24  14  16  1   
 25  14  33  1   
 26  14  34  1   
 27  15  16  1   
 28  15  35  1   
 29  15  36  1   
 30  16  17  1   
 31  16  37  1   
 32  17  18  2   
 33  17  19  am  
 34  19  20  1   
 35  19  38  1   
 36  20  21  1   
 37  20  22  1   
 38  20  39  1   
 39  21  23  1   
 40  21  40  1   
 41  21  41  1   
 42  22  24  1   
 43  22  42  1   
 44  22  43  1   
 45  23  24  1   
 46  23  44  1   
 47  23  45  1   
 48  24  46  1   
 49  24  47  1   
@<TRIPOS>SUBSTRUCTURE
  1 ****  11 GROUP 4 **** **** 0

# MOE 2024.06 (io_trps.svl 2023.06)
