@<TRIPOS>MOLECULE
NONAME
30 30 1 0 0 
SMALL
USER_CHARGES


@<TRIPOS>ATOM
  1 F       -0.0050    -0.4440     1.2560 F     1 <1>  -0.3400 
  2 C        0.7220    -1.1920     0.4170 C.3   1 <1>   0.6800 
  3 F        1.8370    -1.3990     1.1260 F     1 <1>  -0.3400 
  4 C       -0.0290    -2.5760     0.1900 C.3   1 <1>   0.4240 
  5 C        1.1260    -0.3740    -0.8470 C.3   1 <1>   0.6000 
  6 O        0.0760    -3.3470     1.3540 O.3   1 <1>  -0.6800 
  7 C       -1.5620    -2.5020    -0.0700 C.ar  1 <1>  -0.1440 
  8 C        0.5970    -3.4390    -0.9280 C.3   1 <1>  -0.0990 
  9 F        1.3260     0.9160    -0.5710 F     1 <1>  -0.3400 
 10 F        0.1720    -0.3620    -1.7750 F     1 <1>  -0.3400 
 11 C       -2.3060    -3.6830    -0.0230 C.ar  1 <1>  -0.1500 
 12 C       -2.2620    -1.3280    -0.3490 C.ar  1 <1>  -0.1500 
 13 C        2.0900    -3.6370    -0.7890 C.2   1 <1>   0.4480 
 14 C       -3.6690    -3.6970    -0.2540 C.ar  1 <1>  -0.1500 
 15 C       -3.6260    -1.3370    -0.5820 C.ar  1 <1>  -0.1500 
 16 O        2.8380    -2.8860    -1.3320 O.2   1 <1>  -0.5700 
 17 C        2.6010    -4.8070     0.0240 C.3   1 <1>  -0.1790 
 18 C       -4.3340    -2.5210    -0.5370 C.ar  1 <1>  -0.1500 
 19 H        2.0160    -0.7420    -1.3180 H     1 <1>   0.0800 
 20 H       -0.4300    -2.9030     2.0660 H     1 <1>   0.4000 
 21 H        0.4080    -2.9730    -1.8780 H     1 <1>   0.0800 
 22 H        0.1270    -4.4030    -0.9660 H     1 <1>   0.0800 
 23 H       -1.8280    -4.6210     0.2040 H     1 <1>   0.1500 
 24 H       -1.7840    -0.3670    -0.3920 H     1 <1>   0.1500 
 25 H       -4.2140    -4.6250    -0.2120 H     1 <1>   0.1500 
 26 H       -4.1390    -0.4160    -0.7980 H     1 <1>   0.1500 
 27 H        2.1670    -5.7230    -0.3300 H     1 <1>   0.0800 
 28 H        2.3550    -4.6730     1.0610 H     1 <1>   0.0800 
 29 H        3.6700    -4.8710    -0.0680 H     1 <1>   0.0800 
 30 H       -5.3950    -2.5270    -0.7190 H     1 <1>   0.1500 
@<TRIPOS>BOND
  1   1   2  1   
  2   2   3  1   
  3   2   4  1   
  4   2   5  1   
  5   4   6  1   
  6   4   7  1   
  7   4   8  1   
  8   5   9  1   
  9   5  10  1   
 10   5  19  1   
 11   6  20  1   
 12   7  11  ar  
 13   7  12  ar  
 14   8  13  1   
 15   8  21  1   
 16   8  22  1   
 17  11  14  ar  
 18  11  23  1   
 19  12  15  ar  
 20  12  24  1   
 21  13  16  2   
 22  13  17  1   
 23  14  18  ar  
 24  14  25  1   
 25  15  18  ar  
 26  15  26  1   
 27  17  27  1   
 28  17  28  1   
 29  17  29  1   
 30  18  30  1   
@<TRIPOS>SUBSTRUCTURE
  1 ****   4 GROUP 4 **** **** 0

# MOE 2024.06 (io_trps.svl 2023.06)
