@<TRIPOS>MOLECULE
NONAME
44 46 1 0 0 
SMALL
USER_CHARGES


@<TRIPOS>ATOM
  1 CL      -1.9870     2.9550    -2.6360 Cl    1 <1>  -0.1770 
  2 C       -1.0180     3.1720    -1.1970 C.ar  1 <1>   0.1770 
  3 C       -1.4270     2.6030     0.0000 C.ar  1 <1>  -0.1440 
  4 C        0.1390     3.9220    -1.2830 C.ar  1 <1>  -0.1500 
  5 C       -0.6460     2.7970     1.1310 C.ar  1 <1>  -0.1500 
  6 C       -2.7020     1.7870     0.0670 C.3   1 <1>   0.4870 
  7 C        0.9080     4.1120    -0.1490 C.ar  1 <1>  -0.1500 
  8 C        0.5140     3.5500     1.0540 C.ar  1 <1>  -0.1500 
  9 N       -3.8700     2.6840    -0.1300 N.4   1 <1>  -0.9590 
 10 C       -3.9660     3.7510     0.9340 C.3   1 <1>   0.3430 
 11 C       -5.1620     1.9160    -0.2430 C.3   1 <1>   0.3430 
 12 C       -5.1720     4.6860     0.7180 C.3   1 <1>   0.2090 
 13 C       -6.3750     2.8410    -0.4680 C.3   1 <1>   0.2090 
 14 N       -6.4370     3.9060     0.5770 N.pl3 1 <1>  -0.8380 
 15 C       -7.5980     4.6910     0.5320 C.ar  1 <1>   0.1000 
 16 C       -7.9120     5.5710    -0.5220 C.ar  1 <1>   0.0830 
 17 C       -8.4800     4.5840     1.5970 C.ar  1 <1>  -0.1500 
 18 O       -7.0340     5.6700    -1.5700 O.3   1 <1>  -0.3630 
 19 C       -9.0920     6.3080    -0.4720 C.ar  1 <1>  -0.1500 
 20 C       -9.6490     5.3200     1.6380 C.ar  1 <1>  -0.1500 
 21 C       -7.2810     6.5460    -2.6500 C.3   1 <1>   0.0400 
 22 C       -9.9560     6.1820     0.6030 C.ar  1 <1>  -0.1500 
 23 H        0.4360     4.3520    -2.2250 H     1 <1>   0.1500 
 24 H       -0.9230     2.3660     2.0800 H     1 <1>   0.1500 
 25 H       -2.7720     1.2920     1.0220 H     1 <1>   0.0800 
 26 H       -2.6800     1.0350    -0.7060 H     1 <1>   0.0800 
 27 H        1.8130     4.6950    -0.2010 H     1 <1>   0.1500 
 28 H        1.1210     3.6980     1.9330 H     1 <1>   0.1500 
 29 H       -3.7210     3.1700    -1.0270 H     1 <1>   0.4500 
 30 H       -3.0660     4.3430     0.9450 H     1 <1>   0.0800 
 31 H       -4.0720     3.2900     1.9010 H     1 <1>   0.0800 
 32 H       -5.3330     1.3600     0.6630 H     1 <1>   0.0800 
 33 H       -5.1040     1.2150    -1.0600 H     1 <1>   0.0800 
 34 H       -5.0090     5.2870    -0.1600 H     1 <1>   0.0800 
 35 H       -5.2630     5.3530     1.5590 H     1 <1>   0.0800 
 36 H       -7.2810     2.2600    -0.4300 H     1 <1>   0.0800 
 37 H       -6.3120     3.2870    -1.4450 H     1 <1>   0.0800 
 38 H       -8.2420     3.9140     2.4030 H     1 <1>   0.1500 
 39 H       -9.3660     6.9870    -1.2560 H     1 <1>   0.1500 
 40 H      -10.3200     5.2220     2.4750 H     1 <1>   0.1500 
 41 H       -6.4640     6.4640    -3.3440 H     1 <1>   0.0800 
 42 H       -7.3420     7.5540    -2.2770 H     1 <1>   0.0800 
 43 H       -8.1980     6.2580    -3.1330 H     1 <1>   0.0800 
 44 H      -10.8660     6.7560     0.6330 H     1 <1>   0.1500 
@<TRIPOS>BOND
  1   1   2  1   
  2   2   3  ar  
  3   2   4  ar  
  4   3   5  ar  
  5   3   6  1   
  6   4   7  ar  
  7   4  23  1   
  8   5   8  ar  
  9   5  24  1   
 10   6   9  1   
 11   6  25  1   
 12   6  26  1   
 13   7   8  ar  
 14   7  27  1   
 15   8  28  1   
 16   9  10  1   
 17   9  11  1   
 18   9  29  1   
 19  10  12  1   
 20  10  30  1   
 21  10  31  1   
 22  11  13  1   
 23  11  32  1   
 24  11  33  1   
 25  12  14  1   
 26  12  34  1   
 27  12  35  1   
 28  13  14  1   
 29  13  36  1   
 30  13  37  1   
 31  14  15  1   
 32  15  16  ar  
 33  15  17  ar  
 34  16  18  1   
 35  16  19  ar  
 36  17  20  ar  
 37  17  38  1   
 38  18  21  1   
 39  19  22  ar  
 40  19  39  1   
 41  20  22  ar  
 42  20  40  1   
 43  21  41  1   
 44  21  42  1   
 45  21  43  1   
 46  22  44  1   
@<TRIPOS>SUBSTRUCTURE
  1 ****  12 GROUP 4 **** **** 0

# MOE 2024.06 (io_trps.svl 2023.06)
