@<TRIPOS>MOLECULE
NONAME
46 47 1 0 0 
SMALL
USER_CHARGES


@<TRIPOS>ATOM
  1 O       -0.4350     1.2270     0.1380 O.2   1 <1>  -0.5700 
  2 C        0.3920     2.0960     0.3420 C.2   1 <1>   0.5440 
  3 N       -0.0310     3.2390     0.9630 N.am  1 <1>  -0.7300 
  4 C        1.7720     1.9410    -0.0920 C.ar  1 <1>   0.0860 
  5 C       -1.2990     3.4100     1.7070 C.3   1 <1>   0.1400 
  6 C        2.8100     2.6840     0.4730 C.ar  1 <1>  -0.1500 
  7 C        2.1130     1.0360    -1.0980 C.ar  1 <1>  -0.1500 
  8 C       -2.3340     4.1190     0.8290 C.3   1 <1>  -0.1600 
  9 C        4.1200     2.5500     0.0490 C.ar  1 <1>   0.0830 
 10 C        3.4190     0.8890    -1.5300 C.ar  1 <1>  -0.1500 
 11 C       -2.7150     3.3560    -0.4450 C.3   1 <1>   0.3430 
 12 O        5.0380     3.3320     0.6670 O.3   1 <1>  -0.3620 
 13 C        4.4270     1.6450    -0.9620 C.ar  1 <1>  -0.1500 
 14 N       -3.7910     2.3560    -0.1890 N.4   1 <1>  -0.9590 
 15 C        6.4060     3.2600     0.3370 C.3   1 <1>   0.1200 
 16 C       -3.2680     1.0090     0.2270 C.3   1 <1>   0.3430 
 17 C       -4.6990     2.1840    -1.3720 C.3   1 <1>   0.3430 
 18 C        7.1560     4.2520     1.2210 C.3   1 <1>  -0.2400 
 19 C       -4.4160     0.0020     0.4650 C.3   1 <1>   0.1200 
 20 C       -5.7720     1.0980    -1.1170 C.3   1 <1>   0.1200 
 21 O       -5.6670     0.5730     0.1780 O.3   1 <1>  -0.5600 
 22 H        0.6500     3.9950     1.0830 H     1 <1>   0.3700 
 23 H       -1.1050     4.0030     2.5860 H     1 <1>   0.0800 
 24 H       -1.6610     2.4530     2.0390 H     1 <1>   0.0800 
 25 H        2.6150     3.3800     1.2660 H     1 <1>   0.1500 
 26 H        1.3410     0.4370    -1.5490 H     1 <1>   0.1500 
 27 H       -1.9130     5.0650     0.5370 H     1 <1>   0.0800 
 28 H       -3.2150     4.3360     1.4050 H     1 <1>   0.0800 
 29 H        3.6520     0.1830    -2.3100 H     1 <1>   0.1500 
 30 H       -1.8460     2.8780    -0.8700 H     1 <1>   0.0800 
 31 H       -3.0750     4.0760    -1.1620 H     1 <1>   0.0800 
 32 H        5.4330     1.5150    -1.3150 H     1 <1>   0.1500 
 33 H       -4.3980     2.6680     0.5810 H     1 <1>   0.4500 
 34 H        6.5200     3.5150    -0.7020 H     1 <1>   0.0800 
 35 H        6.7480     2.2560     0.5170 H     1 <1>   0.0800 
 36 H       -2.6830     1.0900     1.1260 H     1 <1>   0.0800 
 37 H       -2.6140     0.6190    -0.5360 H     1 <1>   0.0800 
 38 H       -4.1230     1.9070    -2.2390 H     1 <1>   0.0800 
 39 H       -5.1920     3.1160    -1.5950 H     1 <1>   0.0800 
 40 H        6.7950     5.2500     1.0460 H     1 <1>   0.0800 
 41 H        8.2060     4.2210     0.9930 H     1 <1>   0.0800 
 42 H        7.0220     3.9980     2.2570 H     1 <1>   0.0800 
 43 H       -4.4260    -0.3100     1.4950 H     1 <1>   0.0800 
 44 H       -4.2860    -0.8730    -0.1490 H     1 <1>   0.0800 
 45 H       -5.6720     0.2920    -1.8240 H     1 <1>   0.0800 
 46 H       -6.7570     1.5170    -1.2230 H     1 <1>   0.0800 
@<TRIPOS>BOND
  1   1   2  2   
  2   2   3  am  
  3   2   4  1   
  4   3   5  1   
  5   3  22  1   
  6   4   6  ar  
  7   4   7  ar  
  8   5   8  1   
  9   5  23  1   
 10   5  24  1   
 11   6   9  ar  
 12   6  25  1   
 13   7  10  ar  
 14   7  26  1   
 15   8  11  1   
 16   8  27  1   
 17   8  28  1   
 18   9  12  1   
 19   9  13  ar  
 20  10  13  ar  
 21  10  29  1   
 22  11  14  1   
 23  11  30  1   
 24  11  31  1   
 25  12  15  1   
 26  13  32  1   
 27  14  16  1   
 28  14  17  1   
 29  14  33  1   
 30  15  18  1   
 31  15  34  1   
 32  15  35  1   
 33  16  19  1   
 34  16  36  1   
 35  16  37  1   
 36  17  20  1   
 37  17  38  1   
 38  17  39  1   
 39  18  40  1   
 40  18  41  1   
 41  18  42  1   
 42  19  21  1   
 43  19  43  1   
 44  19  44  1   
 45  20  21  1   
 46  20  45  1   
 47  20  46  1   
@<TRIPOS>SUBSTRUCTURE
  1 ****   2 GROUP 4 **** **** 0

# MOE 2024.06 (io_trps.svl 2023.06)
