@<TRIPOS>MOLECULE
NONAME
57 60 1 0 0 
SMALL
USER_CHARGES


@<TRIPOS>ATOM
  1 O        1.6120    -2.1320     0.5190 O.3   1 <1>  -0.3630 
  2 C        2.8800    -1.8720     0.8510 C.ar  1 <1>   0.0830 
  3 C        1.2960    -3.4040     1.0830 C.3   1 <1>   0.4000 
  4 C        3.3950    -2.9020     1.5830 C.ar  1 <1>   0.0830 
  5 C        3.6330    -0.7590     0.5380 C.ar  1 <1>  -0.1500 
  6 O        2.4740    -3.8560     1.7470 O.3   1 <1>  -0.3630 
  7 C        4.6950    -2.8760     2.0450 C.ar  1 <1>  -0.1500 
  8 C        4.9510    -0.7120     0.9840 C.ar  1 <1>  -0.1440 
  9 C        5.4710    -1.7660     1.7360 C.ar  1 <1>  -0.1500 
 10 C        5.8330     0.4790     0.6430 C.3   1 <1>   0.2540 
 11 N        6.9030     0.0590    -0.2820 N.3   1 <1>  -0.8100 
 12 C        6.3730    -0.4370    -1.5790 C.3   1 <1>   0.1100 
 13 C        7.9080     1.1250    -0.4970 C.3   1 <1>   0.1100 
 14 C        7.4980    -0.9130    -2.5290 C.3   1 <1>   0.3430 
 15 C        9.0570     0.6620    -1.4280 C.3   1 <1>   0.3430 
 16 N        8.8400    -0.7520    -1.8860 N.4   1 <1>  -0.9590 
 17 C        9.9690    -1.3320    -2.6540 C.3   1 <1>   0.4860 
 18 C       11.2220    -1.2490    -1.8050 C.ar  1 <1>  -0.1430 
 19 C       11.3150    -1.9760    -0.6300 C.ar  1 <1>  -0.1500 
 20 C       12.2810    -0.4390    -2.1820 C.ar  1 <1>  -0.1500 
 21 C       12.4340    -1.8970     0.1810 C.ar  1 <1>   0.0830 
 22 C       13.4070    -0.3460    -1.3840 C.ar  1 <1>  -0.1500 
 23 O       12.3630    -2.6710     1.3000 O.3   1 <1>  -0.3630 
 24 C       13.5010    -1.0600    -0.1910 C.ar  1 <1>   0.0830 
 25 C       13.5130    -3.1280     1.9740 C.3   1 <1>   0.1200 
 26 O       14.5930    -0.9450     0.6180 O.3   1 <1>  -0.3630 
 27 C       13.1000    -4.2770     2.8890 C.3   1 <1>  -0.2400 
 28 C       15.6890    -0.1120     0.3040 C.3   1 <1>   0.0400 
 29 H        1.0360    -4.0930     0.2990 H     1 <1>   0.0800 
 30 H        0.4990    -3.2940     1.7970 H     1 <1>   0.0800 
 31 H        3.1940     0.0340    -0.0380 H     1 <1>   0.1500 
 32 H        5.0820    -3.6950     2.6240 H     1 <1>   0.1500 
 33 H        6.4900    -1.7230     2.0790 H     1 <1>   0.1500 
 34 H        6.2690     0.8540     1.5540 H     1 <1>   0.0800 
 35 H        5.2460     1.2660     0.2010 H     1 <1>   0.0800 
 36 H        5.8000     0.3360    -2.0620 H     1 <1>   0.0800 
 37 H        5.7090    -1.2680    -1.4070 H     1 <1>   0.0800 
 38 H        8.3290     1.4150     0.4510 H     1 <1>   0.0800 
 39 H        7.4360     1.9950    -0.9220 H     1 <1>   0.0800 
 40 H        7.4530    -0.3460    -3.4440 H     1 <1>   0.0800 
 41 H        7.3280    -1.9490    -2.7740 H     1 <1>   0.0800 
 42 H        9.9870     0.7330    -0.8870 H     1 <1>   0.0800 
 43 H        9.1190     1.3230    -2.2760 H     1 <1>   0.0800 
 44 H        8.7530    -1.2650    -0.9950 H     1 <1>   0.4500 
 45 H       10.1110    -0.7910    -3.5750 H     1 <1>   0.0800 
 46 H        9.7660    -2.3640    -2.8890 H     1 <1>   0.0800 
 47 H       10.5190    -2.6270    -0.3140 H     1 <1>   0.1500 
 48 H       12.2450     0.1290    -3.0970 H     1 <1>   0.1500 
 49 H       14.2040     0.2940    -1.7120 H     1 <1>   0.1500 
 50 H       13.9160    -2.3130     2.5490 H     1 <1>   0.0800 
 51 H       14.2310    -3.4590     1.2440 H     1 <1>   0.0800 
 52 H       12.3750    -3.9360     3.6060 H     1 <1>   0.0800 
 53 H       13.9600    -4.6450     3.4180 H     1 <1>   0.0800 
 54 H       12.6830    -5.0800     2.3080 H     1 <1>   0.0800 
 55 H       16.4100    -0.1970     1.0970 H     1 <1>   0.0800 
 56 H       15.3470     0.9050     0.2320 H     1 <1>   0.0800 
 57 H       16.1260    -0.4420    -0.6220 H     1 <1>   0.0800 
@<TRIPOS>BOND
  1   1   2  1   
  2   1   3  1   
  3   2   4  ar  
  4   2   5  ar  
  5   3   6  1   
  6   3  29  1   
  7   3  30  1   
  8   4   6  1   
  9   4   7  ar  
 10   5   8  ar  
 11   5  31  1   
 12   7   9  ar  
 13   7  32  1   
 14   8   9  ar  
 15   8  10  1   
 16   9  33  1   
 17  10  11  1   
 18  10  34  1   
 19  10  35  1   
 20  11  12  1   
 21  11  13  1   
 22  12  14  1   
 23  12  36  1   
 24  12  37  1   
 25  13  15  1   
 26  13  38  1   
 27  13  39  1   
 28  14  16  1   
 29  14  40  1   
 30  14  41  1   
 31  15  16  1   
 32  15  42  1   
 33  15  43  1   
 34  16  17  1   
 35  16  44  1   
 36  17  18  1   
 37  17  45  1   
 38  17  46  1   
 39  18  19  ar  
 40  18  20  ar  
 41  19  21  ar  
 42  19  47  1   
 43  20  22  ar  
 44  20  48  1   
 45  21  23  1   
 46  21  24  ar  
 47  22  24  ar  
 48  22  49  1   
 49  23  25  1   
 50  24  26  1   
 51  25  27  1   
 52  25  50  1   
 53  25  51  1   
 54  26  28  1   
 55  27  52  1   
 56  27  53  1   
 57  27  54  1   
 58  28  55  1   
 59  28  56  1   
 60  28  57  1   
@<TRIPOS>SUBSTRUCTURE
  1 ****  16 GROUP 4 **** **** 0

# MOE 2024.06 (io_trps.svl 2023.06)
