@<TRIPOS>MOLECULE
NONAME
36 37 1 0 0 
SMALL
USER_CHARGES


@<TRIPOS>ATOM
  1 CL       1.0590     0.4490    -1.2290 Cl    1 <1>  -0.1770 
  2 C        0.7770    -1.1810    -0.6540 C.ar  1 <1>   0.1770 
  3 C        1.8420    -1.9540    -0.2060 C.ar  1 <1>   0.0820 
  4 C       -0.5140    -1.6700    -0.6600 C.ar  1 <1>  -0.1500 
  5 O        3.0860    -1.4030    -0.2330 O.3   1 <1>  -0.3630 
  6 C        1.5860    -3.2480     0.2450 C.ar  1 <1>  -0.1500 
  7 C       -0.7550    -2.9570    -0.2110 C.ar  1 <1>  -0.1500 
  8 C        4.2350    -2.1360     0.1040 C.3   1 <1>   0.1200 
  9 C        0.2910    -3.7460     0.2430 C.ar  1 <1>  -0.1440 
 10 C        5.4280    -1.1960    -0.0880 C.3   1 <1>   0.3430 
 11 C        0.0050    -5.1560     0.7330 C.3   1 <1>  -0.0960 
 12 N        6.7420    -1.8550     0.2060 N.4   1 <1>  -0.9590 
 13 C        7.8630    -0.8590     0.2980 C.3   1 <1>   0.3430 
 14 C        7.1110    -2.9540    -0.7560 C.3   1 <1>   0.3430 
 15 C        9.2050    -1.5530     0.6310 C.3   1 <1>   0.1200 
 16 C        8.5140    -3.5280    -0.4480 C.3   1 <1>   0.1200 
 17 O        9.0530    -2.9460     0.7070 O.3   1 <1>  -0.5600 
 18 H       -1.3190    -1.0500    -1.0130 H     1 <1>   0.1500 
 19 H        2.3750    -3.8800     0.6020 H     1 <1>   0.1500 
 20 H       -1.7610    -3.3410    -0.2160 H     1 <1>   0.1500 
 21 H        4.2900    -2.9840    -0.5540 H     1 <1>   0.0800 
 22 H        4.1470    -2.4440     1.1310 H     1 <1>   0.0800 
 23 H        5.2970    -0.3530     0.5710 H     1 <1>   0.0800 
 24 H        5.4250    -0.8340    -1.1030 H     1 <1>   0.0800 
 25 H        0.8040    -5.5170     1.3540 H     1 <1>   0.0800 
 26 H       -0.1080    -5.8180    -0.1070 H     1 <1>   0.0800 
 27 H       -0.9030    -5.1710     1.3090 H     1 <1>   0.0800 
 28 H        6.7180    -2.3020     1.1370 H     1 <1>   0.4500 
 29 H        7.6480    -0.1280     1.0610 H     1 <1>   0.0800 
 30 H        7.9650    -0.3320    -0.6360 H     1 <1>   0.0800 
 31 H        7.1030    -2.5790    -1.7660 H     1 <1>   0.0800 
 32 H        6.3900    -3.7520    -0.7000 H     1 <1>   0.0800 
 33 H        9.5730    -1.2120     1.5840 H     1 <1>   0.0800 
 34 H        9.9480    -1.3260    -0.1150 H     1 <1>   0.0800 
 35 H        9.1880    -3.3540    -1.2700 H     1 <1>   0.0800 
 36 H        8.4540    -4.5910    -0.2840 H     1 <1>   0.0800 
@<TRIPOS>BOND
  1   1   2  1   
  2   2   3  ar  
  3   2   4  ar  
  4   3   5  1   
  5   3   6  ar  
  6   4   7  ar  
  7   4  18  1   
  8   5   8  1   
  9   6   9  ar  
 10   6  19  1   
 11   7   9  ar  
 12   7  20  1   
 13   8  10  1   
 14   8  21  1   
 15   8  22  1   
 16   9  11  1   
 17  10  12  1   
 18  10  23  1   
 19  10  24  1   
 20  11  25  1   
 21  11  26  1   
 22  11  27  1   
 23  12  13  1   
 24  12  14  1   
 25  12  28  1   
 26  13  15  1   
 27  13  29  1   
 28  13  30  1   
 29  14  16  1   
 30  14  31  1   
 31  14  32  1   
 32  15  17  1   
 33  15  33  1   
 34  15  34  1   
 35  16  17  1   
 36  16  35  1   
 37  16  36  1   
@<TRIPOS>SUBSTRUCTURE
  1 ****   8 GROUP 4 **** **** 0

# MOE 2024.06 (io_trps.svl 2023.06)
