@<TRIPOS>MOLECULE
NONAME
42 44 1 0 0 
SMALL
USER_CHARGES


@<TRIPOS>ATOM
  1 S       -0.1000     0.7330    -0.3430 S.3   1 <1>  -0.0800 
  2 C        1.0420    -0.4630     0.1950 C.2   1 <1>   0.4420 
  3 C       -1.3510    -0.3300     0.1930 C.2   1 <1>   0.2930 
  4 N        0.4630    -1.4920     0.6960 N.2   1 <1>  -0.3380 
  5 N        2.4030    -0.2940     0.0750 N.am  1 <1>  -0.4940 
  6 N       -0.9020    -1.4100     0.6940 N.2   1 <1>  -0.3380 
  7 C       -2.7870     0.1320     0.0130 C.3   1 <1>  -0.0150 
  8 C        3.2060     0.7230    -0.3800 C.2   1 <1>   0.5440 
  9 C       -3.8980    -0.8550    -0.1820 C.3   1 <1>  -0.2000 
 10 C       -3.4570     0.0120    -1.3220 C.3   1 <1>  -0.2000 
 11 O        2.6770     1.7510    -0.7570 O.2   1 <1>  -0.5700 
 12 C        4.6580     0.5890    -0.4220 C.ar  1 <1>   0.0860 
 13 C        5.3820    -0.4950     0.1190 C.ar  1 <1>   0.0830 
 14 C        5.4100     1.5980    -1.0390 C.ar  1 <1>  -0.1500 
 15 O        4.7030    -1.4980     0.7330 O.3   1 <1>  -0.3630 
 16 C        6.7710    -0.5350     0.0270 C.ar  1 <1>  -0.1500 
 17 C        6.7860     1.5540    -1.1280 C.ar  1 <1>  -0.1500 
 18 C        5.3230    -2.6190     1.3210 C.3   1 <1>   0.1200 
 19 C        7.4790     0.4770    -0.5900 C.ar  1 <1>   0.0830 
 20 C        4.2230    -3.5040     1.9000 C.3   1 <1>  -0.2400 
 21 O        8.8240     0.3490    -0.6290 O.3   1 <1>  -0.3630 
 22 C        9.6480     1.3230    -1.2290 C.3   1 <1>   0.1200 
 23 C       11.0960     0.8640    -1.0930 C.3   1 <1>  -0.2400 
 24 H        2.9350    -1.0930     0.4260 H     1 <1>   0.3700 
 25 H       -3.0050     1.0050     0.6020 H     1 <1>   0.1000 
 26 H       -4.8470    -0.6610     0.2860 H     1 <1>   0.1000 
 27 H       -3.6540    -1.9040    -0.2010 H     1 <1>   0.1000 
 28 H       -2.9150    -0.4420    -2.1340 H     1 <1>   0.1000 
 29 H       -4.0990     0.8110    -1.6500 H     1 <1>   0.1000 
 30 H        4.8980     2.4450    -1.4650 H     1 <1>   0.1500 
 31 H        7.3430    -1.3480     0.4300 H     1 <1>   0.1500 
 32 H        7.3000     2.3620    -1.6150 H     1 <1>   0.1500 
 33 H        5.9860    -2.2770     2.0980 H     1 <1>   0.0800 
 34 H        5.8750    -3.1460     0.5620 H     1 <1>   0.0800 
 35 H        3.6650    -2.9660     2.6460 H     1 <1>   0.0800 
 36 H        4.6590    -4.3720     2.3610 H     1 <1>   0.0800 
 37 H        3.5570    -3.8310     1.1200 H     1 <1>   0.0800 
 38 H        9.4960     2.2590    -0.7200 H     1 <1>   0.0800 
 39 H        9.3720     1.4110    -2.2660 H     1 <1>   0.0800 
 40 H       11.3560     0.7630    -0.0540 H     1 <1>   0.0800 
 41 H       11.7520     1.5880    -1.5420 H     1 <1>   0.0800 
 42 H       11.2330    -0.0790    -1.5910 H     1 <1>   0.0800 
@<TRIPOS>BOND
  1   1   2  1   
  2   1   3  1   
  3   2   4  2   
  4   2   5  1   
  5   3   6  2   
  6   3   7  1   
  7   4   6  1   
  8   5   8  am  
  9   5  24  1   
 10   7   9  1   
 11   7  10  1   
 12   7  25  1   
 13   8  11  2   
 14   8  12  1   
 15   9  10  1   
 16   9  26  1   
 17   9  27  1   
 18  10  28  1   
 19  10  29  1   
 20  12  13  ar  
 21  12  14  ar  
 22  13  15  1   
 23  13  16  ar  
 24  14  17  ar  
 25  14  30  1   
 26  15  18  1   
 27  16  19  ar  
 28  16  31  1   
 29  17  19  ar  
 30  17  32  1   
 31  18  20  1   
 32  18  33  1   
 33  18  34  1   
 34  19  21  1   
 35  20  35  1   
 36  20  36  1   
 37  20  37  1   
 38  21  22  1   
 39  22  23  1   
 40  22  38  1   
 41  22  39  1   
 42  23  40  1   
 43  23  41  1   
 44  23  42  1   
@<TRIPOS>SUBSTRUCTURE
  1 ****   8 GROUP 4 **** **** 0

# MOE 2024.06 (io_trps.svl 2023.06)
