@<TRIPOS>MOLECULE
NONAME
45 47 1 0 0 
SMALL
USER_CHARGES


@<TRIPOS>ATOM
  1 CL      -0.8780     2.3860    -2.4150 Cl    1 <1>  -0.1770 
  2 C       -2.1120     2.1910    -1.1920 C.ar  1 <1>   0.1770 
  3 C       -1.8060     2.4380     0.1380 C.ar  1 <1>  -0.1440 
  4 C       -3.3780     1.8020    -1.5840 C.ar  1 <1>  -0.1500 
  5 C       -2.8030     2.2820     1.0910 C.ar  1 <1>  -0.1500 
  6 C       -0.4080     2.8660     0.5380 C.3   1 <1>   0.4870 
  7 C       -4.3660     1.6540    -0.6260 C.ar  1 <1>  -0.1500 
  8 C       -4.0770     1.8930     0.7070 C.ar  1 <1>  -0.1500 
  9 N       -0.1430     4.2400     0.0280 N.4   1 <1>  -0.9590 
 10 C        1.2810     4.6270     0.2130 C.3   1 <1>   0.3430 
 11 C       -1.0880     5.2480     0.5890 C.3   1 <1>   0.3430 
 12 C        1.5430     5.9540    -0.4950 C.3   1 <1>  -0.1600 
 13 C       -0.8750     6.5850    -0.1140 C.3   1 <1>  -0.1600 
 14 C        0.5870     7.0670    -0.0240 C.3   1 <1>  -0.0190 
 15 C        0.7920     8.3340    -0.8600 C.2   1 <1>   0.5690 
 16 O        0.5190     8.2660    -2.0350 O.2   1 <1>  -0.5700 
 17 N        1.2690     9.4900    -0.3040 N.am  1 <1>  -0.6600 
 18 C        1.4310    10.7210    -1.1110 C.3   1 <1>   0.1400 
 19 C        1.6880     9.7250     1.0970 C.3   1 <1>   0.1400 
 20 C        1.7100    11.8230    -0.0970 C.3   1 <1>  -0.1600 
 21 C        2.3450    11.1010     1.0860 C.3   1 <1>  -0.1600 
 22 H       -3.5900     1.6170    -2.6230 H     1 <1>   0.1500 
 23 H       -2.6070     2.4550     2.1370 H     1 <1>   0.1500 
 24 H        0.3030     2.1740     0.1150 H     1 <1>   0.0800 
 25 H       -0.3100     2.8420     1.6100 H     1 <1>   0.0800 
 26 H       -5.3590     1.3500    -0.9170 H     1 <1>   0.1500 
 27 H       -4.8500     1.7710     1.4480 H     1 <1>   0.1500 
 28 H       -0.3200     4.2020    -0.9890 H     1 <1>   0.4500 
 29 H        1.9280     3.8700    -0.2010 H     1 <1>   0.0800 
 30 H        1.5010     4.7270     1.2640 H     1 <1>   0.0800 
 31 H       -0.9190     5.3620     1.6470 H     1 <1>   0.0800 
 32 H       -2.1070     4.9280     0.4380 H     1 <1>   0.0800 
 33 H        1.4420     5.8100    -1.5580 H     1 <1>   0.0800 
 34 H        2.5590     6.2580    -0.3120 H     1 <1>   0.0800 
 35 H       -1.5200     7.3250     0.3280 H     1 <1>   0.0800 
 36 H       -1.1690     6.4870    -1.1460 H     1 <1>   0.0800 
 37 H        0.7990     7.2780     1.0070 H     1 <1>   0.0800 
 38 H        0.5440    10.9250    -1.6880 H     1 <1>   0.0800 
 39 H        2.2690    10.5970    -1.7760 H     1 <1>   0.0800 
 40 H        2.3810     8.9710     1.4300 H     1 <1>   0.0800 
 41 H        0.8170     9.7370     1.7300 H     1 <1>   0.0800 
 42 H        0.7760    12.2680     0.2010 H     1 <1>   0.0800 
 43 H        2.3480    12.5880    -0.5040 H     1 <1>   0.0800 
 44 H        3.4020    10.9840     0.9160 H     1 <1>   0.0800 
 45 H        2.1970    11.6250     2.0140 H     1 <1>   0.0800 
@<TRIPOS>BOND
  1   1   2  1   
  2   2   3  ar  
  3   2   4  ar  
  4   3   5  ar  
  5   3   6  1   
  6   4   7  ar  
  7   4  22  1   
  8   5   8  ar  
  9   5  23  1   
 10   6   9  1   
 11   6  24  1   
 12   6  25  1   
 13   7   8  ar  
 14   7  26  1   
 15   8  27  1   
 16   9  10  1   
 17   9  11  1   
 18   9  28  1   
 19  10  12  1   
 20  10  29  1   
 21  10  30  1   
 22  11  13  1   
 23  11  31  1   
 24  11  32  1   
 25  12  14  1   
 26  12  33  1   
 27  12  34  1   
 28  13  14  1   
 29  13  35  1   
 30  13  36  1   
 31  14  15  1   
 32  14  37  1   
 33  15  16  2   
 34  15  17  am  
 35  17  18  1   
 36  17  19  1   
 37  18  20  1   
 38  18  38  1   
 39  18  39  1   
 40  19  21  1   
 41  19  40  1   
 42  19  41  1   
 43  20  21  1   
 44  20  42  1   
 45  20  43  1   
 46  21  44  1   
 47  21  45  1   
@<TRIPOS>SUBSTRUCTURE
  1 ****  13 GROUP 4 **** **** 0

# MOE 2024.06 (io_trps.svl 2023.06)
