@<TRIPOS>MOLECULE
NONAME
44 46 1 0 0 
SMALL
USER_CHARGES


@<TRIPOS>ATOM
  1 S       -0.2540     0.0160    -0.7460 S.3   1 <1>  -0.0800 
  2 C       -1.8910     0.5140    -0.3750 C.ar  1 <1>   0.0400 
  3 C        0.3540     1.3370     0.2480 C.2   1 <1>   0.1980 
  4 C       -1.8220     1.6180     0.4540 C.ar  1 <1>   0.2270 
  5 C       -3.0770    -0.0520    -0.7990 C.ar  1 <1>  -0.1500 
  6 N       -0.5430     2.0560     0.7870 N.2   1 <1>  -0.5650 
  7 C        1.8540     1.4770     0.3560 C.3   1 <1>  -0.0600 
  8 C       -3.0140     2.1860     0.8780 C.ar  1 <1>  -0.1500 
  9 C       -4.2710     0.5190    -0.3720 C.ar  1 <1>   0.1170 
 10 C       -4.2190     1.6380     0.4690 C.ar  1 <1>  -0.1500 
 11 N       -5.4770    -0.0620    -0.7820 N.am  1 <1>  -0.5470 
 12 C       -6.7390     0.4480    -0.8790 C.2   1 <1>   0.6900 
 13 O       -6.9540     1.6400    -0.7670 O.2   1 <1>  -0.5700 
 14 N       -7.7700    -0.4170    -1.1280 N.am  1 <1>  -0.6600 
 15 C       -7.8600    -1.7620    -0.4800 C.3   1 <1>   0.1400 
 16 C       -9.0930     0.1010    -1.5920 C.3   1 <1>   0.1400 
 17 C       -8.8630    -1.7290     0.6850 C.3   1 <1>   0.1400 
 18 C      -10.1020     0.1380    -0.4340 C.3   1 <1>   0.1400 
 19 N      -10.1830    -1.1970     0.2350 N.am  1 <1>  -0.6600 
 20 C      -11.2530    -2.0360     0.0640 C.2   1 <1>   0.7800 
 21 O      -11.1410    -3.2440     0.0690 O.2   1 <1>  -0.5700 
 22 O      -12.4620    -1.5230    -0.1350 O.3   1 <1>  -0.4300 
 23 C      -13.0440    -0.7160     0.8620 C.3   1 <1>   0.1200 
 24 C      -14.3580    -0.1680     0.3160 C.3   1 <1>  -0.2400 
 25 H       -3.0640    -0.9090    -1.4450 H     1 <1>   0.1500 
 26 H        2.2730     0.5850     0.7830 H     1 <1>   0.0800 
 27 H        2.0950     2.3140     0.9850 H     1 <1>   0.0800 
 28 H        2.2760     1.6380    -0.6180 H     1 <1>   0.0800 
 29 H       -2.9820     3.0460     1.5220 H     1 <1>   0.1500 
 30 H       -5.1350     2.0870     0.8090 H     1 <1>   0.1500 
 31 H       -5.4060    -0.9820    -1.2030 H     1 <1>   0.3700 
 32 H       -6.9020    -2.0740    -0.1050 H     1 <1>   0.0800 
 33 H       -8.1860    -2.4870    -1.2060 H     1 <1>   0.0800 
 34 H       -9.4690    -0.5390    -2.3710 H     1 <1>   0.0800 
 35 H       -8.9830     1.0890    -2.0060 H     1 <1>   0.0800 
 36 H       -8.4770    -1.0980     1.4680 H     1 <1>   0.0800 
 37 H       -8.9770    -2.7200     1.0890 H     1 <1>   0.0800 
 38 H      -11.0620     0.4290    -0.8200 H     1 <1>   0.0800 
 39 H       -9.7900     0.8790     0.2830 H     1 <1>   0.0800 
 40 H      -12.3710     0.0840     1.1150 H     1 <1>   0.0800 
 41 H      -13.2160    -1.3300     1.7300 H     1 <1>   0.0800 
 42 H      -14.1760     0.4310    -0.5580 H     1 <1>   0.0800 
 43 H      -14.8350     0.4440     1.0590 H     1 <1>   0.0800 
 44 H      -15.0190    -0.9790     0.0640 H     1 <1>   0.0800 
@<TRIPOS>BOND
  1   1   2  1   
  2   1   3  1   
  3   2   4  ar  
  4   2   5  ar  
  5   3   6  2   
  6   3   7  1   
  7   4   6  1   
  8   4   8  ar  
  9   5   9  ar  
 10   5  25  1   
 11   7  26  1   
 12   7  27  1   
 13   7  28  1   
 14   8  10  ar  
 15   8  29  1   
 16   9  10  ar  
 17   9  11  1   
 18  10  30  1   
 19  11  12  am  
 20  11  31  1   
 21  12  13  2   
 22  12  14  am  
 23  14  15  1   
 24  14  16  1   
 25  15  17  1   
 26  15  32  1   
 27  15  33  1   
 28  16  18  1   
 29  16  34  1   
 30  16  35  1   
 31  17  19  1   
 32  17  36  1   
 33  17  37  1   
 34  18  19  1   
 35  18  38  1   
 36  18  39  1   
 37  19  20  am  
 38  20  21  2   
 39  20  22  1   
 40  22  23  1   
 41  23  24  1   
 42  23  40  1   
 43  23  41  1   
 44  24  42  1   
 45  24  43  1   
 46  24  44  1   
@<TRIPOS>SUBSTRUCTURE
  1 ****  12 GROUP 4 **** **** 0

# MOE 2024.06 (io_trps.svl 2023.06)
