@<TRIPOS>MOLECULE
NONAME
40 43 1 0 0 
SMALL
USER_CHARGES


@<TRIPOS>ATOM
  1 S       -0.4770     0.0080     0.7320 S.3   1 <1>  -0.0800 
  2 C        0.9930     0.9910     0.6640 C.2   1 <1>  -0.0450 
  3 C        0.4290    -1.4600     1.0270 C.2   1 <1>  -0.1100 
  4 C        0.8970     2.4090     0.4270 C.2   1 <1>   0.7150 
  5 C        2.0630     0.1780     0.8620 C.2   1 <1>  -0.1500 
  6 C        1.7480    -1.1970     1.0660 C.2   1 <1>  -0.1500 
  7 O        1.9060     3.0850     0.3810 O.2   1 <1>  -0.5700 
  8 N       -0.3330     2.9830     0.2570 N.am  1 <1>  -0.7300 
  9 C       -0.7310     4.3870     0.0080 C.3   1 <1>   0.3000 
 10 C       -2.2700     4.3210    -0.0640 C.3   1 <1>  -0.1600 
 11 C       -0.2790     5.2430     1.2120 C.3   1 <1>  -0.1600 
 12 C       -0.1150     4.8490    -1.3340 C.3   1 <1>  -0.1600 
 13 C       -3.0830     5.5660    -0.4680 C.3   1 <1>  -0.1600 
 14 C       -0.2680     6.7540     0.9410 C.3   1 <1>  -0.0800 
 15 C       -0.0520     6.3760    -1.5240 C.3   1 <1>  -0.0800 
 16 C       -2.3720     6.9240    -0.5570 C.3   1 <1>  -0.0800 
 17 C       -1.6790     7.3370     0.7560 C.3   1 <1>  -0.1600 
 18 C        0.5900     7.0340    -0.2980 C.3   1 <1>  -0.1600 
 19 C       -1.4300     7.0030    -1.7710 C.3   1 <1>  -0.1600 
 20 H       -0.1240    -2.3750     1.1410 H     1 <1>   0.1500 
 21 H        3.0830     0.5230     0.8700 H     1 <1>   0.1500 
 22 H        2.5240    -1.9250     1.2330 H     1 <1>   0.1500 
 23 H       -1.1260     2.3490     0.3150 H     1 <1>   0.3700 
 24 H       -2.6300     4.0060     0.9000 H     1 <1>   0.0800 
 25 H       -2.5390     3.5450    -0.7590 H     1 <1>   0.0800 
 26 H       -0.8960     5.0350     2.0670 H     1 <1>   0.0800 
 27 H        0.7260     4.9760     1.4780 H     1 <1>   0.0800 
 28 H       -0.6500     4.4050    -2.1530 H     1 <1>   0.0800 
 29 H        0.8980     4.5010    -1.3930 H     1 <1>   0.0800 
 30 H       -3.8970     5.6660     0.2300 H     1 <1>   0.0800 
 31 H       -3.5400     5.3720    -1.4230 H     1 <1>   0.0800 
 32 H        0.1860     7.2380     1.7890 H     1 <1>   0.0800 
 33 H        0.5640     6.5790    -2.3840 H     1 <1>   0.0800 
 34 H       -3.1540     7.6440    -0.7320 H     1 <1>   0.0800 
 35 H       -1.5870     8.4090     0.7530 H     1 <1>   0.0800 
 36 H       -2.2980     7.0790     1.5980 H     1 <1>   0.0800 
 37 H        1.5830     6.6430    -0.1520 H     1 <1>   0.0800 
 38 H        0.6750     8.0960    -0.4520 H     1 <1>   0.0800 
 39 H       -1.2810     8.0420    -2.0090 H     1 <1>   0.0800 
 40 H       -1.8900     6.5500    -2.6320 H     1 <1>   0.0800 
@<TRIPOS>BOND
  1   1   2  1   
  2   1   3  1   
  3   2   4  1   
  4   2   5  2   
  5   3   6  2   
  6   3  20  1   
  7   4   7  2   
  8   4   8  am  
  9   5   6  1   
 10   5  21  1   
 11   6  22  1   
 12   8   9  1   
 13   8  23  1   
 14   9  10  1   
 15   9  11  1   
 16   9  12  1   
 17  10  13  1   
 18  10  24  1   
 19  10  25  1   
 20  11  14  1   
 21  11  26  1   
 22  11  27  1   
 23  12  15  1   
 24  12  28  1   
 25  12  29  1   
 26  13  16  1   
 27  13  30  1   
 28  13  31  1   
 29  14  17  1   
 30  14  18  1   
 31  14  32  1   
 32  15  18  1   
 33  15  19  1   
 34  15  33  1   
 35  16  17  1   
 36  16  19  1   
 37  16  34  1   
 38  17  35  1   
 39  17  36  1   
 40  18  37  1   
 41  18  38  1   
 42  19  39  1   
 43  19  40  1   
@<TRIPOS>SUBSTRUCTURE
  1 ****   9 GROUP 4 **** **** 0

# MOE 2024.06 (io_trps.svl 2023.06)
