@<TRIPOS>MOLECULE
NONAME
36 36 1 0 0 
SMALL
USER_CHARGES


@<TRIPOS>ATOM
  1 O        1.3700    -3.8570    -0.0920 O.2   1 <1>  -0.5700 
  2 C        1.4930    -2.6490     0.0240 C.2   1 <1>   0.6900 
  3 N        2.5110    -2.0080    -0.6270 N.am  1 <1>  -0.6600 
  4 N        0.6180    -1.9470     0.8200 N.am  1 <1>  -0.6600 
  5 C        2.2260    -0.8050    -1.4480 C.3   1 <1>   0.2200 
  6 C        3.8280    -2.6920    -0.7540 C.3   1 <1>   0.2840 
  7 C        1.0560    -0.7690     1.6170 C.3   1 <1>   0.0600 
  8 C       -0.6830    -2.5370     1.2270 C.3   1 <1>   0.0600 
  9 C        2.1150    -1.1920    -2.9230 C.3   1 <1>  -0.2400 
 10 C        3.2810     0.2790    -1.2300 C.3   1 <1>  -0.2400 
 11 C        4.7310    -2.3110     0.4140 C.ar  1 <1>  -0.1440 
 12 C        4.4050    -2.7110     1.7020 C.ar  1 <1>  -0.1500 
 13 C        5.8860    -1.5700     0.2100 C.ar  1 <1>  -0.1500 
 14 C        5.2160    -2.3710     2.7710 C.ar  1 <1>  -0.1500 
 15 C        6.6980    -1.2280     1.2770 C.ar  1 <1>  -0.1500 
 16 C        6.3630    -1.6280     2.5590 C.ar  1 <1>  -0.1500 
 17 H        1.2720    -0.4040    -1.1470 H     1 <1>   0.0800 
 18 H        4.2960    -2.4290    -1.6840 H     1 <1>   0.0800 
 19 H        3.6910    -3.7600    -0.7540 H     1 <1>   0.0800 
 20 H        2.1240    -0.6480     1.5540 H     1 <1>   0.0800 
 21 H        0.7940    -0.9090     2.6510 H     1 <1>   0.0800 
 22 H        0.5770     0.1190     1.2450 H     1 <1>   0.0800 
 23 H       -1.4390    -1.7720     1.2600 H     1 <1>   0.0800 
 24 H       -0.5870    -2.9900     2.1980 H     1 <1>   0.0800 
 25 H       -0.9860    -3.2920     0.5210 H     1 <1>   0.0800 
 26 H        3.0570    -1.5300    -3.3130 H     1 <1>   0.0800 
 27 H        1.7980    -0.3420    -3.4980 H     1 <1>   0.0800 
 28 H        1.3820    -1.9710    -3.0400 H     1 <1>   0.0800 
 29 H        4.2270    -0.0120    -1.6450 H     1 <1>   0.0800 
 30 H        3.3990     0.4750    -0.1800 H     1 <1>   0.0800 
 31 H        2.9700     1.1880    -1.7120 H     1 <1>   0.0800 
 32 H        3.5130    -3.2910     1.8720 H     1 <1>   0.1500 
 33 H        6.1590    -1.2540    -0.7810 H     1 <1>   0.1500 
 34 H        4.9520    -2.6860     3.7650 H     1 <1>   0.1500 
 35 H        7.5910    -0.6510     1.1110 H     1 <1>   0.1500 
 36 H        6.9940    -1.3630     3.3890 H     1 <1>   0.1500 
@<TRIPOS>BOND
  1   1   2  2   
  2   2   3  am  
  3   2   4  am  
  4   3   5  1   
  5   3   6  1   
  6   4   7  1   
  7   4   8  1   
  8   5   9  1   
  9   5  10  1   
 10   5  17  1   
 11   6  11  1   
 12   6  18  1   
 13   6  19  1   
 14   7  20  1   
 15   7  21  1   
 16   7  22  1   
 17   8  23  1   
 18   8  24  1   
 19   8  25  1   
 20   9  26  1   
 21   9  27  1   
 22   9  28  1   
 23  10  29  1   
 24  10  30  1   
 25  10  31  1   
 26  11  12  ar  
 27  11  13  ar  
 28  12  14  ar  
 29  12  32  1   
 30  13  15  ar  
 31  13  33  1   
 32  14  16  ar  
 33  14  34  1   
 34  15  16  ar  
 35  15  35  1   
 36  16  36  1   
@<TRIPOS>SUBSTRUCTURE
  1 ****   3 GROUP 4 **** **** 0

# MOE 2024.06 (io_trps.svl 2023.06)
