@<TRIPOS>MOLECULE
NONAME
50 53 1 0 0 
SMALL
USER_CHARGES


@<TRIPOS>ATOM
  1 O       -0.0720     0.6220    -0.8270 O.2   1 <1>  -0.5700 
  2 C       -0.3280    -0.5120    -0.4950 C.2   1 <1>   0.5690 
  3 N        0.6440    -1.4260    -0.1820 N.am  1 <1>  -0.5470 
  4 C       -1.8000    -0.9740    -0.3990 C.3   1 <1>   0.0610 
  5 C        2.0460    -1.3380    -0.1780 C.ar  1 <1>   0.1170 
  6 C       -2.0520    -2.1820    -1.3390 C.3   1 <1>  -0.1600 
  7 C       -2.7860     0.1550    -0.8040 C.3   1 <1>  -0.1600 
  8 C       -2.1380    -1.4010     1.0530 C.3   1 <1>  -0.1600 
  9 C        2.7660    -2.2580     0.5750 C.ar  1 <1>  -0.1500 
 10 C        2.7530    -0.3850    -0.9040 C.ar  1 <1>  -0.1500 
 11 C       -3.5110    -2.6670    -1.2360 C.3   1 <1>  -0.0800 
 12 C       -4.2480    -0.3160    -0.7030 C.3   1 <1>  -0.0800 
 13 C       -3.5970    -1.8830     1.1620 C.3   1 <1>  -0.0800 
 14 C        4.1480    -2.2250     0.6050 C.ar  1 <1>  -0.1500 
 15 C        4.1360    -0.3460    -0.8770 C.ar  1 <1>  -0.1500 
 16 C       -4.4550    -1.5200    -1.6380 C.3   1 <1>  -0.1600 
 17 C       -3.8060    -3.0820     0.2170 C.3   1 <1>  -0.1600 
 18 C       -4.5410    -0.7410     0.7470 C.3   1 <1>  -0.1600 
 19 C        4.8460    -1.2710    -0.1170 C.ar  1 <1>   0.0830 
 20 O        6.2030    -1.3170    -0.0260 O.3   1 <1>  -0.3630 
 21 C        7.0440    -0.3570    -0.6260 C.3   1 <1>   0.2000 
 22 C        8.4350    -0.9800    -0.7190 C.3   1 <1>  -0.2400 
 23 C        7.0630     0.9020     0.2450 C.3   1 <1>  -0.2400 
 24 H        0.2810    -2.3200     0.1370 H     1 <1>   0.3700 
 25 H       -1.3970    -2.9970    -1.0890 H     1 <1>   0.0800 
 26 H       -1.8390    -1.8960    -2.3550 H     1 <1>   0.0800 
 27 H       -2.5800     0.4720    -1.8120 H     1 <1>   0.0800 
 28 H       -2.6400     1.0100    -0.1650 H     1 <1>   0.0800 
 29 H       -1.9860    -0.5660     1.7160 H     1 <1>   0.0800 
 30 H       -1.4850    -2.1920     1.3750 H     1 <1>   0.0800 
 31 H        2.2470    -3.0060     1.1460 H     1 <1>   0.1500 
 32 H        2.2250     0.3350    -1.5020 H     1 <1>   0.1500 
 33 H       -3.6630    -3.5070    -1.8930 H     1 <1>   0.0800 
 34 H       -4.9090     0.4850    -0.9890 H     1 <1>   0.0800 
 35 H       -3.8100    -2.1780     2.1760 H     1 <1>   0.0800 
 36 H        4.6990    -2.9390     1.1910 H     1 <1>   0.1500 
 37 H        4.6350     0.4090    -1.4510 H     1 <1>   0.1500 
 38 H       -5.4770    -1.8530    -1.5820 H     1 <1>   0.0800 
 39 H       -4.2630    -1.2280    -2.6560 H     1 <1>   0.0800 
 40 H       -3.1610    -3.8930     0.5050 H     1 <1>   0.0800 
 41 H       -4.8210    -3.4310     0.2950 H     1 <1>   0.0800 
 42 H       -5.5640    -1.0640     0.8320 H     1 <1>   0.0800 
 43 H       -4.4090     0.1000     1.4060 H     1 <1>   0.0800 
 44 H        6.6860    -0.1490    -1.6190 H     1 <1>   0.0800 
 45 H        8.8000    -1.2290     0.2610 H     1 <1>   0.0800 
 46 H        9.1180    -0.2890    -1.1770 H     1 <1>   0.0800 
 47 H        8.3960    -1.8700    -1.3210 H     1 <1>   0.0800 
 48 H        7.4090     0.6630     1.2350 H     1 <1>   0.0800 
 49 H        6.0820     1.3330     0.3110 H     1 <1>   0.0800 
 50 H        7.7250     1.6330    -0.1830 H     1 <1>   0.0800 
@<TRIPOS>BOND
  1   1   2  2   
  2   2   3  am  
  3   2   4  1   
  4   3   5  1   
  5   3  24  1   
  6   4   6  1   
  7   4   7  1   
  8   4   8  1   
  9   5   9  ar  
 10   5  10  ar  
 11   6  11  1   
 12   6  25  1   
 13   6  26  1   
 14   7  12  1   
 15   7  27  1   
 16   7  28  1   
 17   8  13  1   
 18   8  29  1   
 19   8  30  1   
 20   9  14  ar  
 21   9  31  1   
 22  10  15  ar  
 23  10  32  1   
 24  11  16  1   
 25  11  17  1   
 26  11  33  1   
 27  12  16  1   
 28  12  18  1   
 29  12  34  1   
 30  13  17  1   
 31  13  18  1   
 32  13  35  1   
 33  14  19  ar  
 34  14  36  1   
 35  15  19  ar  
 36  15  37  1   
 37  16  38  1   
 38  16  39  1   
 39  17  40  1   
 40  17  41  1   
 41  18  42  1   
 42  18  43  1   
 43  19  20  1   
 44  20  21  1   
 45  21  22  1   
 46  21  23  1   
 47  21  44  1   
 48  22  45  1   
 49  22  46  1   
 50  22  47  1   
 51  23  48  1   
 52  23  49  1   
 53  23  50  1   
@<TRIPOS>SUBSTRUCTURE
  1 ****   3 GROUP 4 **** **** 0

# MOE 2024.06 (io_trps.svl 2023.06)
