@<TRIPOS>MOLECULE
NONAME
38 38 1 0 0 
SMALL
USER_CHARGES


@<TRIPOS>ATOM
  1 CL      -0.3390    -0.2010     0.7410 Cl    1 <1>  -0.1770 
  2 C        0.5810    -1.6330     0.3290 C.ar  1 <1>   0.1770 
  3 C       -0.0690    -2.8390     0.0950 C.ar  1 <1>   0.0820 
  4 C        1.9570    -1.5250     0.2450 C.ar  1 <1>  -0.1500 
  5 O       -1.4250    -2.8700     0.1950 O.3   1 <1>  -0.3630 
  6 C        0.7000    -3.9550    -0.2280 C.ar  1 <1>  -0.1500 
  7 C        2.7160    -2.6380    -0.0790 C.ar  1 <1>  -0.1430 
  8 C       -2.1600    -4.0530    -0.0280 C.3   1 <1>   0.1200 
  9 C        2.0800    -3.8480    -0.3130 C.ar  1 <1>  -0.1500 
 10 C        4.2280    -2.5380    -0.1740 C.3   1 <1>  -0.0960 
 11 C       -3.6380    -3.7260     0.1660 C.3   1 <1>   0.1200 
 12 O       -4.3900    -4.8840    -0.0540 O.3   1 <1>  -0.5600 
 13 C       -5.7590    -4.7080     0.0950 C.3   1 <1>   0.1200 
 14 C       -6.4270    -6.0650    -0.1630 C.3   1 <1>   0.3430 
 15 N       -7.9190    -6.0320     0.0200 N.4   1 <1>  -0.9590 
 16 C       -8.4650    -7.4240    -0.0080 C.3   1 <1>   0.2630 
 17 C       -8.5980    -5.1910    -1.0170 C.3   1 <1>   0.2630 
 18 H        2.4210    -0.5740     0.4350 H     1 <1>   0.1500 
 19 H        0.2500    -4.9100    -0.4180 H     1 <1>   0.1500 
 20 H       -1.8400    -4.7900     0.6870 H     1 <1>   0.0800 
 21 H       -1.9750    -4.3820    -1.0340 H     1 <1>   0.0800 
 22 H        2.6620    -4.7190    -0.5630 H     1 <1>   0.1500 
 23 H        4.5280    -1.5270    -0.3860 H     1 <1>   0.0800 
 24 H        4.5970    -3.1720    -0.9590 H     1 <1>   0.0800 
 25 H        4.6720    -2.8420     0.7570 H     1 <1>   0.0800 
 26 H       -3.9410    -2.9740    -0.5420 H     1 <1>   0.0800 
 27 H       -3.8080    -3.3850     1.1730 H     1 <1>   0.0800 
 28 H       -6.0830    -3.9720    -0.6200 H     1 <1>   0.0800 
 29 H       -5.9510    -4.3730     1.1000 H     1 <1>   0.0800 
 30 H       -6.0000    -6.7780     0.5230 H     1 <1>   0.0800 
 31 H       -6.1910    -6.3810    -1.1660 H     1 <1>   0.0800 
 32 H       -8.1180    -5.6350     0.9510 H     1 <1>   0.4500 
 33 H       -8.2730    -7.8840    -0.9640 H     1 <1>   0.0800 
 34 H       -9.5300    -7.4130     0.1610 H     1 <1>   0.0800 
 35 H       -8.0040    -8.0240     0.7610 H     1 <1>   0.0800 
 36 H       -8.3940    -5.5740    -2.0040 H     1 <1>   0.0800 
 37 H       -8.2520    -4.1710    -0.9650 H     1 <1>   0.0800 
 38 H       -9.6650    -5.1950    -0.8620 H     1 <1>   0.0800 
@<TRIPOS>BOND
  1   1   2  1   
  2   2   3  ar  
  3   2   4  ar  
  4   3   5  1   
  5   3   6  ar  
  6   4   7  ar  
  7   4  18  1   
  8   5   8  1   
  9   6   9  ar  
 10   6  19  1   
 11   7   9  ar  
 12   7  10  1   
 13   8  11  1   
 14   8  20  1   
 15   8  21  1   
 16   9  22  1   
 17  10  23  1   
 18  10  24  1   
 19  10  25  1   
 20  11  12  1   
 21  11  26  1   
 22  11  27  1   
 23  12  13  1   
 24  13  14  1   
 25  13  28  1   
 26  13  29  1   
 27  14  15  1   
 28  14  30  1   
 29  14  31  1   
 30  15  16  1   
 31  15  17  1   
 32  15  32  1   
 33  16  33  1   
 34  16  34  1   
 35  16  35  1   
 36  17  36  1   
 37  17  37  1   
 38  17  38  1   
@<TRIPOS>SUBSTRUCTURE
  1 ****   8 GROUP 4 **** **** 0

# MOE 2024.06 (io_trps.svl 2023.06)
