@<TRIPOS>MOLECULE
NONAME
41 41 1 0 0 
SMALL
USER_CHARGES


@<TRIPOS>ATOM
  1 CL       0.0550     0.1380     0.4540 Cl    1 <1>  -0.1770 
  2 C        1.5990     0.9510     0.3110 C.ar  1 <1>   0.1770 
  3 C        1.6550     2.3210     0.0790 C.ar  1 <1>  -0.1440 
  4 C        2.7420     0.1830     0.4360 C.ar  1 <1>  -0.1500 
  5 C        2.9120     2.9050    -0.0240 C.ar  1 <1>  -0.1500 
  6 C        0.3490     3.1110    -0.0490 C.3   1 <1>  -0.0160 
  7 C        3.9850     0.7810     0.3300 C.ar  1 <1>  -0.1500 
  8 C        4.0710     2.1510     0.0990 C.ar  1 <1>   0.0830 
  9 C        0.5090     4.6140    -0.3040 C.3   1 <1>  -0.2400 
 10 O        5.2460     2.8200    -0.0190 O.3   1 <1>  -0.3620 
 11 C        6.4840     2.1520     0.0880 C.3   1 <1>   0.1200 
 12 C        7.5950     3.1830    -0.0900 C.3   1 <1>   0.1200 
 13 O        8.8290     2.5360     0.0160 O.3   1 <1>  -0.5600 
 14 C        9.9270     3.3740    -0.1300 C.3   1 <1>   0.1200 
 15 C       11.1850     2.5060    -0.0020 C.3   1 <1>   0.3430 
 16 N       12.4590     3.2820    -0.1960 N.4   1 <1>  -0.9590 
 17 C       13.6160     2.3400    -0.3000 C.3   1 <1>   0.2630 
 18 C       12.6950     4.2690     0.9060 C.3   1 <1>   0.2630 
 19 H        2.6540    -0.8730     0.6140 H     1 <1>   0.1500 
 20 H        3.0260     3.9580    -0.2020 H     1 <1>   0.1500 
 21 H       -0.2190     2.9790     0.8560 H     1 <1>   0.0800 
 22 H       -0.2260     2.6900    -0.8550 H     1 <1>   0.0800 
 23 H        4.8610     0.1690     0.4300 H     1 <1>   0.1500 
 24 H        1.0450     5.0780     0.5060 H     1 <1>   0.0800 
 25 H       -0.4590     5.0760    -0.3780 H     1 <1>   0.0800 
 26 H        1.0380     4.7850    -1.2250 H     1 <1>   0.0800 
 27 H        6.5340     1.4070    -0.6860 H     1 <1>   0.0800 
 28 H        6.5420     1.7020     1.0630 H     1 <1>   0.0800 
 29 H        7.5260     3.9320     0.6800 H     1 <1>   0.0800 
 30 H        7.5210     3.6350    -1.0650 H     1 <1>   0.0800 
 31 H        9.8870     4.1190     0.6460 H     1 <1>   0.0800 
 32 H        9.8760     3.8330    -1.1020 H     1 <1>   0.0800 
 33 H       11.1260     1.7280    -0.7460 H     1 <1>   0.0800 
 34 H       11.1880     2.0420     0.9710 H     1 <1>   0.0800 
 35 H       12.3890     3.7940    -1.0900 H     1 <1>   0.4500 
 36 H       13.7250     1.7750     0.6120 H     1 <1>   0.0800 
 37 H       14.5290     2.8850    -0.4780 H     1 <1>   0.0800 
 38 H       13.4670     1.6500    -1.1160 H     1 <1>   0.0800 
 39 H       12.7560     3.7620     1.8560 H     1 <1>   0.0800 
 40 H       11.8930     4.9870     0.9500 H     1 <1>   0.0800 
 41 H       13.6180     4.8000     0.7410 H     1 <1>   0.0800 
@<TRIPOS>BOND
  1   1   2  1   
  2   2   3  ar  
  3   2   4  ar  
  4   3   5  ar  
  5   3   6  1   
  6   4   7  ar  
  7   4  19  1   
  8   5   8  ar  
  9   5  20  1   
 10   6   9  1   
 11   6  21  1   
 12   6  22  1   
 13   7   8  ar  
 14   7  23  1   
 15   8  10  1   
 16   9  24  1   
 17   9  25  1   
 18   9  26  1   
 19  10  11  1   
 20  11  12  1   
 21  11  27  1   
 22  11  28  1   
 23  12  13  1   
 24  12  29  1   
 25  12  30  1   
 26  13  14  1   
 27  14  15  1   
 28  14  31  1   
 29  14  32  1   
 30  15  16  1   
 31  15  33  1   
 32  15  34  1   
 33  16  17  1   
 34  16  18  1   
 35  16  35  1   
 36  17  36  1   
 37  17  37  1   
 38  17  38  1   
 39  18  39  1   
 40  18  40  1   
 41  18  41  1   
@<TRIPOS>SUBSTRUCTURE
  1 ****  11 GROUP 4 **** **** 0

# MOE 2024.06 (io_trps.svl 2023.06)
