@<TRIPOS>MOLECULE
NONAME
61 64 1 0 0 
SMALL
USER_CHARGES


@<TRIPOS>ATOM
  1 O       -1.3040    -0.5750     0.9590 O.3   1 <1>  -0.3630 
  2 C       -0.8190    -1.7000     0.3650 C.ar  1 <1>   0.0830 
  3 C       -0.5470     0.1440     1.9070 C.3   1 <1>   0.0400 
  4 C       -1.5600    -2.2570    -0.6740 C.ar  1 <1>  -0.1440 
  5 C        0.3760    -2.3010     0.7550 C.ar  1 <1>  -0.1500 
  6 C       -1.0890    -3.3920    -1.3170 C.ar  1 <1>  -0.1500 
  7 C       -2.8800    -1.6370    -1.1210 C.3   1 <1>   0.2540 
  8 C        0.8310    -3.4400     0.1150 C.ar  1 <1>  -0.1500 
  9 C        0.0960    -3.9920    -0.9280 C.ar  1 <1>   0.0830 
 10 N       -4.0090    -2.0130    -0.2260 N.3   1 <1>  -0.8100 
 11 O        0.4640    -5.1070    -1.6100 O.3   1 <1>  -0.3630 
 12 C       -5.3370    -1.4440    -0.6180 C.3   1 <1>   0.1900 
 13 C       -4.0690    -3.4840    -0.0310 C.3   1 <1>   0.1100 
 14 C        1.6850    -5.7570    -1.3350 C.3   1 <1>   0.0400 
 15 C       -5.2910     0.0990    -0.8160 C.3   1 <1>  -0.0800 
 16 C       -6.4260    -1.8170     0.4420 C.3   1 <1>   0.4230 
 17 C       -5.2800    -3.9650     0.7930 C.3   1 <1>   0.3430 
 18 C       -4.7770     0.8620     0.4260 C.3   1 <1>  -0.1600 
 19 C       -6.6470     0.6830    -1.2640 C.3   1 <1>  -0.1600 
 20 N       -6.0010    -2.8290     1.4490 N.4   1 <1>  -0.9590 
 21 C       -7.7280    -2.3990    -0.1040 C.3   1 <1>  -0.1600 
 22 C       -4.6660     2.3670     0.1470 C.3   1 <1>  -0.1600 
 23 C       -6.5310     2.1860    -1.5550 C.3   1 <1>  -0.1600 
 24 C       -7.2350    -3.2630     2.1390 C.3   1 <1>   0.3430 
 25 C       -8.3310    -3.1730     1.0760 C.3   1 <1>  -0.1600 
 26 C       -6.0030     2.9460    -0.3330 C.3   1 <1>  -0.1600 
 27 H       -0.3910    -0.4750     2.7720 H     1 <1>   0.0800 
 28 H       -1.1030     1.0220     2.1820 H     1 <1>   0.0800 
 29 H        0.3900     0.4300     1.4610 H     1 <1>   0.0800 
 30 H        0.9660    -1.8970     1.5560 H     1 <1>   0.1500 
 31 H       -1.6370    -3.8300    -2.1300 H     1 <1>   0.1500 
 32 H       -3.0990    -1.9420    -2.1300 H     1 <1>   0.0800 
 33 H       -2.7460    -0.5710    -1.1230 H     1 <1>   0.0800 
 34 H        1.7550    -3.8800     0.4400 H     1 <1>   0.1500 
 35 H       -5.6180    -1.8790    -1.5620 H     1 <1>   0.0800 
 36 H       -3.1820    -3.8060     0.4890 H     1 <1>   0.0800 
 37 H       -4.0770    -3.9820    -0.9850 H     1 <1>   0.0800 
 38 H        1.7780    -6.5920    -2.0070 H     1 <1>   0.0800 
 39 H        1.6750    -6.1060    -0.3180 H     1 <1>   0.0800 
 40 H        2.4940    -5.0660    -1.4990 H     1 <1>   0.0800 
 41 H       -4.6170     0.3010    -1.6290 H     1 <1>   0.0800 
 42 H       -6.6810    -0.9180     0.9760 H     1 <1>   0.0800 
 43 H       -4.9400    -4.6680     1.5360 H     1 <1>   0.0800 
 44 H       -5.9540    -4.4880     0.1350 H     1 <1>   0.0800 
 45 H       -3.8060     0.4960     0.7130 H     1 <1>   0.0800 
 46 H       -5.4370     0.7160     1.2620 H     1 <1>   0.0800 
 47 H       -7.3920     0.5550    -0.4990 H     1 <1>   0.0800 
 48 H       -6.9870     0.1830    -2.1550 H     1 <1>   0.0800 
 49 H       -5.3150    -2.3620     2.0590 H     1 <1>   0.4500 
 50 H       -7.5220    -3.0690    -0.9210 H     1 <1>   0.0800 
 51 H       -8.3890    -1.6260    -0.4540 H     1 <1>   0.0800 
 52 H       -3.9150     2.5340    -0.6060 H     1 <1>   0.0800 
 53 H       -4.3520     2.8780     1.0400 H     1 <1>   0.0800 
 54 H       -7.4950     2.5780    -1.8320 H     1 <1>   0.0800 
 55 H       -5.8650     2.3420    -2.3870 H     1 <1>   0.0800 
 56 H       -7.4580    -2.5820     2.9450 H     1 <1>   0.0800 
 57 H       -7.1400    -4.2620     2.5350 H     1 <1>   0.0800 
 58 H       -8.6430    -4.1570     0.7710 H     1 <1>   0.0800 
 59 H       -9.1850    -2.6590     1.4840 H     1 <1>   0.0800 
 60 H       -5.8740     3.9850    -0.5840 H     1 <1>   0.0800 
 61 H       -6.7240     2.8890     0.4650 H     1 <1>   0.0800 
@<TRIPOS>BOND
  1   1   2  1   
  2   1   3  1   
  3   2   4  ar  
  4   2   5  ar  
  5   3  27  1   
  6   3  28  1   
  7   3  29  1   
  8   4   6  ar  
  9   4   7  1   
 10   5   8  ar  
 11   5  30  1   
 12   6   9  ar  
 13   6  31  1   
 14   7  10  1   
 15   7  32  1   
 16   7  33  1   
 17   8   9  ar  
 18   8  34  1   
 19   9  11  1   
 20  10  12  1   
 21  10  13  1   
 22  11  14  1   
 23  12  15  1   
 24  12  16  1   
 25  12  35  1   
 26  13  17  1   
 27  13  36  1   
 28  13  37  1   
 29  14  38  1   
 30  14  39  1   
 31  14  40  1   
 32  15  18  1   
 33  15  19  1   
 34  15  41  1   
 35  16  20  1   
 36  16  21  1   
 37  16  42  1   
 38  17  20  1   
 39  17  43  1   
 40  17  44  1   
 41  18  22  1   
 42  18  45  1   
 43  18  46  1   
 44  19  23  1   
 45  19  47  1   
 46  19  48  1   
 47  20  24  1   
 48  20  49  1   
 49  21  25  1   
 50  21  50  1   
 51  21  51  1   
 52  22  26  1   
 53  22  52  1   
 54  22  53  1   
 55  23  26  1   
 56  23  54  1   
 57  23  55  1   
 58  24  25  1   
 59  24  56  1   
 60  24  57  1   
 61  25  58  1   
 62  25  59  1   
 63  26  60  1   
 64  26  61  1   
@<TRIPOS>SUBSTRUCTURE
  1 ****  10 GROUP 4 **** **** 0

# MOE 2024.06 (io_trps.svl 2023.06)
