@<TRIPOS>MOLECULE
NONAME
38 38 1 0 0 
SMALL
USER_CHARGES


@<TRIPOS>ATOM
  1 BR      -0.4520    -1.6080    -0.7880 Br    1 <1>  -0.1110 
  2 C        1.3870    -1.7340    -0.2430 C.ar  1 <1>   0.1110 
  3 C        2.1510    -2.7870    -0.7070 C.ar  1 <1>  -0.1500 
  4 C        1.9030    -0.7700     0.5990 C.ar  1 <1>  -0.1500 
  5 C        3.4750    -2.8680    -0.3090 C.ar  1 <1>  -0.1500 
  6 C        3.2290    -0.8700     0.9840 C.ar  1 <1>  -0.1500 
  7 C        4.0380    -1.9130     0.5380 C.ar  1 <1>  -0.0090 
  8 S        5.7700    -2.0340     1.0690 S.o2  1 <1>   1.4470 
  9 O        6.2950    -0.7090     1.3050 O.2   1 <1>  -0.6500 
 10 O        5.8980    -3.0500     2.0870 O.2   1 <1>  -0.6500 
 11 N        6.5650    -2.5510    -0.3150 N.am  1 <1>  -0.9140 
 12 C        7.8470    -3.2060    -0.0780 C.3   1 <1>   0.2760 
 13 C        8.9560    -2.4030    -0.8190 C.3   1 <1>  -0.0800 
 14 C        7.7570    -4.7030    -0.5030 C.3   1 <1>  -0.0800 
 15 C       10.3560    -3.0150    -0.6250 C.3   1 <1>  -0.2400 
 16 C        9.0220    -0.9310    -0.3640 C.3   1 <1>  -0.2400 
 17 C        7.4160    -4.9130    -1.9900 C.3   1 <1>  -0.2400 
 18 C        6.7610    -5.5000     0.3560 C.3   1 <1>  -0.2400 
 19 H        1.7200    -3.5240    -1.3610 H     1 <1>   0.1500 
 20 H        1.2810     0.0370     0.9440 H     1 <1>   0.1500 
 21 H        4.0830    -3.6840    -0.6620 H     1 <1>   0.1500 
 22 H        3.6460    -0.1250     1.6430 H     1 <1>   0.1500 
 23 H        6.8000    -1.6770    -0.7760 H     1 <1>   0.4200 
 24 H        8.0880    -3.1780     0.9730 H     1 <1>   0.0800 
 25 H        8.7440    -2.4090    -1.8740 H     1 <1>   0.0800 
 26 H        8.7150    -5.1550    -0.3220 H     1 <1>   0.0800 
 27 H       10.5840    -3.1150     0.4220 H     1 <1>   0.0800 
 28 H       11.1060    -2.3900    -1.0770 H     1 <1>   0.0800 
 29 H       10.4260    -3.9800    -1.0910 H     1 <1>   0.0800 
 30 H        9.1510    -0.8710     0.7030 H     1 <1>   0.0800 
 31 H        8.1300    -0.3930    -0.6300 H     1 <1>   0.0800 
 32 H        9.8480    -0.4270    -0.8340 H     1 <1>   0.0800 
 33 H        6.4670    -4.4670    -2.2290 H     1 <1>   0.0800 
 34 H        7.3630    -5.9630    -2.2150 H     1 <1>   0.0800 
 35 H        8.1690    -4.4810    -2.6230 H     1 <1>   0.0800 
 36 H        5.7560    -5.1530     0.2030 H     1 <1>   0.0800 
 37 H        7.0020    -5.3960     1.4000 H     1 <1>   0.0800 
 38 H        6.8010    -6.5450     0.1060 H     1 <1>   0.0800 
@<TRIPOS>BOND
  1   1   2  1   
  2   2   3  ar  
  3   2   4  ar  
  4   3   5  ar  
  5   3  19  1   
  6   4   6  ar  
  7   4  20  1   
  8   5   7  ar  
  9   5  21  1   
 10   6   7  ar  
 11   6  22  1   
 12   7   8  1   
 13   8   9  2   
 14   8  10  2   
 15   8  11  am  
 16  11  12  1   
 17  11  23  1   
 18  12  13  1   
 19  12  14  1   
 20  12  24  1   
 21  13  15  1   
 22  13  16  1   
 23  13  25  1   
 24  14  17  1   
 25  14  18  1   
 26  14  26  1   
 27  15  27  1   
 28  15  28  1   
 29  15  29  1   
 30  16  30  1   
 31  16  31  1   
 32  16  32  1   
 33  17  33  1   
 34  17  34  1   
 35  17  35  1   
 36  18  36  1   
 37  18  37  1   
 38  18  38  1   
@<TRIPOS>SUBSTRUCTURE
  1 ****  11 GROUP 4 **** **** 0

# MOE 2024.06 (io_trps.svl 2023.06)
