@<TRIPOS>MOLECULE
NONAME
38 39 1 0 0 
SMALL
USER_CHARGES


@<TRIPOS>ATOM
  1 S       -0.0960     0.0000     0.3230 S.3   1 <1>  -0.3320 
  2 C       -1.6350    -0.8360    -0.0910 C.ar  1 <1>   0.1020 
  3 C        0.5620    -0.8050     1.8500 C.3   1 <1>  -0.0100 
  4 C       -2.1610    -1.8510     0.6910 C.ar  1 <1>  -0.1500 
  5 C       -2.2830    -0.4210    -1.2390 C.ar  1 <1>  -0.1500 
  6 C       -3.3530    -2.4480     0.3180 C.ar  1 <1>  -0.1500 
  7 C       -3.4740    -1.0210    -1.6110 C.ar  1 <1>  -0.1500 
  8 C       -4.0180    -2.0320    -0.8300 C.ar  1 <1>  -0.1430 
  9 C       -5.3340    -2.6740    -1.2280 C.3   1 <1>   0.4860 
 10 N       -6.4030    -2.1880    -0.3120 N.4   1 <1>  -0.9590 
 11 C       -7.6340    -3.0120    -0.4600 C.3   1 <1>   0.3430 
 12 C       -6.6170    -0.7200    -0.4800 C.3   1 <1>   0.3430 
 13 C       -8.4060    -3.0340     0.8590 C.3   1 <1>  -0.1600 
 14 C       -7.5370    -0.1370     0.5930 C.3   1 <1>  -0.1600 
 15 C       -9.3920    -1.8700     1.0560 C.3   1 <1>  -0.1600 
 16 C       -9.0100    -0.5310     0.4110 C.3   1 <1>  -0.1600 
 17 H        1.4920    -0.3230     2.0940 H     1 <1>   0.0800 
 18 H        0.7180    -1.8470     1.6360 H     1 <1>   0.0800 
 19 H       -0.1570    -0.6650     2.6370 H     1 <1>   0.0800 
 20 H       -1.6580    -2.1800     1.5800 H     1 <1>   0.1500 
 21 H       -1.8500     0.3650    -1.8340 H     1 <1>   0.1500 
 22 H       -3.7470    -3.2410     0.9310 H     1 <1>   0.1500 
 23 H       -3.9600    -0.6880    -2.5120 H     1 <1>   0.1500 
 24 H       -5.2380    -3.7450    -1.1510 H     1 <1>   0.0800 
 25 H       -5.5740    -2.4250    -2.2490 H     1 <1>   0.0800 
 26 H       -6.0450    -2.3200     0.6410 H     1 <1>   0.4500 
 27 H       -7.3540    -4.0270    -0.6980 H     1 <1>   0.0800 
 28 H       -8.2550    -2.6390    -1.2580 H     1 <1>   0.0800 
 29 H       -7.0300    -0.5170    -1.4550 H     1 <1>   0.0800 
 30 H       -5.6670    -0.2130    -0.4130 H     1 <1>   0.0800 
 31 H       -7.7170    -3.0730     1.6840 H     1 <1>   0.0800 
 32 H       -8.9770    -3.9460     0.8950 H     1 <1>   0.0800 
 33 H       -7.4780     0.9340     0.5020 H     1 <1>   0.0800 
 34 H       -7.1850    -0.3820     1.5800 H     1 <1>   0.0800 
 35 H       -9.5270    -1.7210     2.1150 H     1 <1>   0.0800 
 36 H      -10.3540    -2.1580     0.6650 H     1 <1>   0.0800 
 37 H       -9.2560    -0.5460    -0.6380 H     1 <1>   0.0800 
 38 H       -9.6270     0.2310     0.8580 H     1 <1>   0.0800 
@<TRIPOS>BOND
  1   1   2  1   
  2   1   3  1   
  3   2   4  ar  
  4   2   5  ar  
  5   3  17  1   
  6   3  18  1   
  7   3  19  1   
  8   4   6  ar  
  9   4  20  1   
 10   5   7  ar  
 11   5  21  1   
 12   6   8  ar  
 13   6  22  1   
 14   7   8  ar  
 15   7  23  1   
 16   8   9  1   
 17   9  10  1   
 18   9  24  1   
 19   9  25  1   
 20  10  11  1   
 21  10  12  1   
 22  10  26  1   
 23  11  13  1   
 24  11  27  1   
 25  11  28  1   
 26  12  14  1   
 27  12  29  1   
 28  12  30  1   
 29  13  15  1   
 30  13  31  1   
 31  13  32  1   
 32  14  16  1   
 33  14  33  1   
 34  14  34  1   
 35  15  16  1   
 36  15  35  1   
 37  15  36  1   
 38  16  37  1   
 39  16  38  1   
@<TRIPOS>SUBSTRUCTURE
  1 ****   8 GROUP 4 **** **** 0

# MOE 2024.06 (io_trps.svl 2023.06)
