@<TRIPOS>MOLECULE
NONAME
41 44 1 0 0 
SMALL
USER_CHARGES


@<TRIPOS>ATOM
  1 S        0.7940     1.0600     1.7670 S.3   1 <1>  -0.0800 
  2 C        0.0540     0.3570     0.3250 C.2   1 <1>   0.4420 
  3 C        0.3540     2.6570     1.2090 C.ar  1 <1>   0.0400 
  4 N       -0.4480     1.2220    -0.4770 N.2   1 <1>  -0.5650 
  5 N        0.1220    -1.0110     0.2260 N.am  1 <1>  -0.4940 
  6 C       -0.2970     2.5130     0.0000 C.ar  1 <1>   0.2270 
  7 C        0.5840     3.8760     1.8140 C.ar  1 <1>  -0.1500 
  8 C       -0.5020    -1.8720    -0.6290 C.2   1 <1>   0.5690 
  9 C       -0.7450     3.6610    -0.6390 C.ar  1 <1>  -0.1500 
 10 C        0.1340     5.0170     1.1680 C.ar  1 <1>   0.0820 
 11 O       -1.3640    -1.5160    -1.3970 O.2   1 <1>  -0.5700 
 12 C       -0.0890    -3.3510    -0.7000 C.3   1 <1>  -0.0190 
 13 C       -0.5310     4.9030    -0.0610 C.ar  1 <1>  -0.1500 
 14 O        0.3750     6.2010     1.7840 O.3   1 <1>  -0.3620 
 15 C        0.4370    -4.1900     0.6690 C.3   1 <1>  -0.1860 
 16 C        1.0510    -3.5530    -1.8620 C.3   1 <1>  -0.0800 
 17 C       -0.0400     7.4230     1.2160 C.3   1 <1>   0.0400 
 18 C        0.3160    -3.4320     1.9820 C.2   1 <1>   0.9060 
 19 C        1.9480    -4.7550     0.3540 C.3   1 <1>  -0.0800 
 20 C        1.4880    -4.1710    -0.7610 C.3   1 <1>  -0.1600 
 21 C        2.5430    -4.1430    -2.1740 C.3   1 <1>  -0.1600 
 22 O       -0.6140    -3.6970     2.7420 O.co2 1 <1>  -0.9000 
 23 O        1.1240    -2.5260     2.2200 O.co2 1 <1>  -0.9000 
 24 C        3.0510    -4.9880    -0.8260 C.3   1 <1>  -0.1600 
 25 H        0.6480    -1.4640     0.9950 H     1 <1>   0.3700 
 26 H        1.0960     3.9400     2.7570 H     1 <1>   0.1500 
 27 H       -1.2550     3.5590    -1.5800 H     1 <1>   0.1500 
 28 H       -0.9860    -3.8580    -1.0210 H     1 <1>   0.0800 
 29 H       -0.8890     5.7740    -0.5770 H     1 <1>   0.1500 
 30 H       -0.2100    -5.0440     0.7960 H     1 <1>   0.0800 
 31 H        0.4720    -4.0670    -2.6160 H     1 <1>   0.0800 
 32 H        0.2570     8.2170     1.8780 H     1 <1>   0.0800 
 33 H       -1.1110     7.4150     1.1130 H     1 <1>   0.0800 
 34 H        0.4390     7.5450     0.2610 H     1 <1>   0.0800 
 35 H        2.5450    -4.2160     1.0790 H     1 <1>   0.0800 
 36 H        1.9820    -3.1620    -0.4100 H     1 <1>   0.0800 
 37 H        0.9800    -5.1730    -1.1070 H     1 <1>   0.0800 
 38 H        3.2220    -3.3290    -2.3790 H     1 <1>   0.0800 
 39 H        2.5330    -4.7850    -3.0410 H     1 <1>   0.0800 
 40 H        3.1340    -6.0400    -1.0520 H     1 <1>   0.0800 
 41 H        4.0250    -4.6450    -0.5120 H     1 <1>   0.0800 
@<TRIPOS>BOND
  1   1   2  1   
  2   1   3  1   
  3   2   4  2   
  4   2   5  1   
  5   3   6  ar  
  6   3   7  ar  
  7   4   6  1   
  8   5   8  am  
  9   5  25  1   
 10   6   9  ar  
 11   7  10  ar  
 12   7  26  1   
 13   8  11  2   
 14   8  12  1   
 15   9  13  ar  
 16   9  27  1   
 17  10  13  ar  
 18  10  14  1   
 19  12  15  1   
 20  12  16  1   
 21  12  28  1   
 22  13  29  1   
 23  14  17  1   
 24  15  18  1   
 25  15  19  1   
 26  15  30  1   
 27  16  20  1   
 28  16  21  1   
 29  16  31  1   
 30  17  32  1   
 31  17  33  1   
 32  17  34  1   
 33  18  22  ar  
 34  18  23  ar  
 35  19  20  1   
 36  19  24  1   
 37  19  35  1   
 38  20  36  1   
 39  20  37  1   
 40  21  24  1   
 41  21  38  1   
 42  21  39  1   
 43  24  40  1   
 44  24  41  1   
@<TRIPOS>SUBSTRUCTURE
  1 ****   2 GROUP 4 **** **** 0

# MOE 2024.06 (io_trps.svl 2023.06)
