@<TRIPOS>MOLECULE
NONAME
41 42 1 0 0 
SMALL
USER_CHARGES


@<TRIPOS>ATOM
  1 O       -0.0910    -0.5950    -1.3650 O.3   1 <1>  -0.0190 
  2 N        0.5170    -1.4510    -0.5810 N.2   1 <1>  -0.4100 
  3 C       -1.3740    -0.8220    -1.4200 C.2   1 <1>  -0.0100 
  4 C       -0.4010    -2.2290    -0.1390 C.2   1 <1>   0.3720 
  5 C       -1.6670    -1.8820    -0.6430 C.2   1 <1>  -0.0540 
  6 N       -0.1200    -3.2470     0.7510 N.pl3 1 <1>  -0.8830 
  7 C       -2.9400    -2.5160    -0.3820 C.ar  1 <1>   0.0540 
  8 C       -3.0540    -3.9020    -0.3510 C.ar  1 <1>  -0.1500 
  9 C       -4.0820    -1.7510    -0.1660 C.ar  1 <1>  -0.1500 
 10 C       -4.2710    -4.5230    -0.0960 C.ar  1 <1>   0.0830 
 11 C       -5.3120    -2.3470     0.0890 C.ar  1 <1>   0.0830 
 12 O       -4.4120    -5.8800    -0.0620 O.3   1 <1>  -0.3630 
 13 C       -5.4020    -3.7380     0.1290 C.ar  1 <1>   0.0830 
 14 O       -6.4500    -1.6240     0.2970 O.3   1 <1>  -0.3630 
 15 C       -3.3040    -6.7410    -0.1680 C.3   1 <1>   0.1200 
 16 O       -6.5930    -4.3290     0.4110 O.3   1 <1>  -0.3630 
 17 C       -6.4120    -0.2400     0.5460 C.3   1 <1>   0.1200 
 18 C       -3.8070    -8.1730    -0.0220 C.3   1 <1>  -0.2400 
 19 C       -7.3760    -4.6580    -0.7080 C.3   1 <1>   0.1200 
 20 C       -7.8280     0.2140     0.8890 C.3   1 <1>  -0.2400 
 21 C       -8.6670    -5.2980    -0.2100 C.3   1 <1>  -0.2400 
 22 H       -1.9980    -0.1950    -2.0300 H     1 <1>   0.1500 
 23 H       -0.7790    -3.2640     1.5320 H     1 <1>   0.4000 
 24 H        0.8360    -3.1390     1.0990 H     1 <1>   0.4000 
 25 H       -2.1690    -4.4790    -0.5360 H     1 <1>   0.1500 
 26 H       -3.9870    -0.6840    -0.2000 H     1 <1>   0.1500 
 27 H       -2.6070    -6.5010     0.6170 H     1 <1>   0.0800 
 28 H       -2.8480    -6.5950    -1.1320 H     1 <1>   0.0800 
 29 H       -6.0590     0.2580    -0.3400 H     1 <1>   0.0800 
 30 H       -5.7450    -0.0590     1.3710 H     1 <1>   0.0800 
 31 H       -4.2780    -8.3010     0.9370 H     1 <1>   0.0800 
 32 H       -2.9830    -8.8590    -0.0960 H     1 <1>   0.0800 
 33 H       -4.5140    -8.3970    -0.8010 H     1 <1>   0.0800 
 34 H       -6.8180    -5.3430    -1.3230 H     1 <1>   0.0800 
 35 H       -7.5800    -3.7540    -1.2560 H     1 <1>   0.0800 
 36 H       -8.4900     0.0140     0.0650 H     1 <1>   0.0800 
 37 H       -7.8360     1.2690     1.0890 H     1 <1>   0.0800 
 38 H       -8.1780    -0.3060     1.7630 H     1 <1>   0.0800 
 39 H       -8.4420    -6.1890     0.3490 H     1 <1>   0.0800 
 40 H       -9.2890    -5.5620    -1.0450 H     1 <1>   0.0800 
 41 H       -9.2030    -4.6060     0.4150 H     1 <1>   0.0800 
@<TRIPOS>BOND
  1   1   2  1   
  2   1   3  1   
  3   2   4  2   
  4   3   5  2   
  5   3  22  1   
  6   4   5  1   
  7   4   6  1   
  8   5   7  1   
  9   6  23  1   
 10   6  24  1   
 11   7   8  ar  
 12   7   9  ar  
 13   8  10  ar  
 14   8  25  1   
 15   9  11  ar  
 16   9  26  1   
 17  10  12  1   
 18  10  13  ar  
 19  11  13  ar  
 20  11  14  1   
 21  12  15  1   
 22  13  16  1   
 23  14  17  1   
 24  15  18  1   
 25  15  27  1   
 26  15  28  1   
 27  16  19  1   
 28  17  20  1   
 29  17  29  1   
 30  17  30  1   
 31  18  31  1   
 32  18  32  1   
 33  18  33  1   
 34  19  21  1   
 35  19  34  1   
 36  19  35  1   
 37  20  36  1   
 38  20  37  1   
 39  20  38  1   
 40  21  39  1   
 41  21  40  1   
 42  21  41  1   
@<TRIPOS>SUBSTRUCTURE
  1 ****   8 GROUP 4 **** **** 0

# MOE 2024.06 (io_trps.svl 2023.06)
