@<TRIPOS>MOLECULE
NONAME
42 44 1 0 0 
SMALL
USER_CHARGES


@<TRIPOS>ATOM
  1 O       -1.2050    -1.5350     0.1430 O.2   1 <1>  -0.5700 
  2 C       -1.9600    -0.6730    -0.2080 C.2   1 <1>   0.6590 
  3 O       -3.2660    -0.7340    -0.0500 O.3   1 <1>  -0.4300 
  4 C       -1.5420     0.6210    -0.8460 C.3   1 <1>  -0.0990 
  5 C       -3.9160     0.3960    -0.5790 C.3   1 <1>   0.3440 
  6 C       -2.8160     1.4510    -0.6950 C.3   1 <1>  -0.0190 
  7 C       -5.0590     0.8580     0.3180 C.ar  1 <1>  -0.1440 
  8 C       -3.0900     2.3960    -1.8510 C.2   1 <1>   0.5690 
  9 C       -6.1510     1.4960    -0.2540 C.ar  1 <1>  -0.1500 
 10 C       -5.0270     0.6780     1.6950 C.ar  1 <1>  -0.1500 
 11 O       -3.2720     1.9250    -2.9440 O.2   1 <1>  -0.5700 
 12 N       -3.1500     3.7380    -1.6920 N.am  1 <1>  -0.7300 
 13 C       -7.1910     1.9530     0.5360 C.ar  1 <1>  -0.1500 
 14 C       -6.0670     1.1360     2.4860 C.ar  1 <1>  -0.1500 
 15 C       -2.9550     4.5660    -0.4900 C.3   1 <1>   0.2200 
 16 C       -7.1490     1.7750     1.9070 C.ar  1 <1>  -0.1500 
 17 C       -4.2910     4.7130     0.2460 C.3   1 <1>  -0.1600 
 18 C       -2.4080     5.9310    -0.9220 C.3   1 <1>  -0.1600 
 19 C       -4.1640     5.6620     1.4470 C.3   1 <1>  -0.1600 
 20 C       -2.2730     6.8810     0.2770 C.3   1 <1>  -0.1600 
 21 C       -3.6080     7.0270     1.0200 C.3   1 <1>  -0.1600 
 22 H       -1.3010     0.4380    -1.8770 H     1 <1>   0.0800 
 23 H       -0.7050     1.0570    -0.3340 H     1 <1>   0.0800 
 24 H       -4.2900     0.1110    -1.5490 H     1 <1>   0.0800 
 25 H       -2.7740     1.9860     0.2340 H     1 <1>   0.0800 
 26 H       -6.1950     1.6450    -1.3210 H     1 <1>   0.1500 
 27 H       -4.1940     0.1790     2.1600 H     1 <1>   0.1500 
 28 H       -3.3860     4.2640    -2.5360 H     1 <1>   0.3700 
 29 H       -8.0330     2.4480     0.0830 H     1 <1>   0.1500 
 30 H       -6.0350     0.9910     3.5520 H     1 <1>   0.1500 
 31 H       -2.2350     4.1030     0.1630 H     1 <1>   0.0800 
 32 H       -7.9580     2.1290     2.5220 H     1 <1>   0.1500 
 33 H       -4.6210     3.7530     0.5980 H     1 <1>   0.0800 
 34 H       -5.0340     5.1000    -0.4290 H     1 <1>   0.0800 
 35 H       -3.0750     6.3750    -1.6410 H     1 <1>   0.0800 
 36 H       -1.4440     5.8030    -1.3830 H     1 <1>   0.0800 
 37 H       -3.5100     5.2240     2.1810 H     1 <1>   0.0800 
 38 H       -5.1300     5.7930     1.9050 H     1 <1>   0.0800 
 39 H       -1.9430     7.8470    -0.0630 H     1 <1>   0.0800 
 40 H       -1.5290     6.4990     0.9550 H     1 <1>   0.0800 
 41 H       -3.4710     7.6480     1.8890 H     1 <1>   0.0800 
 42 H       -4.3210     7.5160     0.3780 H     1 <1>   0.0800 
@<TRIPOS>BOND
  1   1   2  2   
  2   2   3  1   
  3   2   4  1   
  4   3   5  1   
  5   4   6  1   
  6   4  22  1   
  7   4  23  1   
  8   5   6  1   
  9   5   7  1   
 10   5  24  1   
 11   6   8  1   
 12   6  25  1   
 13   7   9  ar  
 14   7  10  ar  
 15   8  11  2   
 16   8  12  am  
 17   9  13  ar  
 18   9  26  1   
 19  10  14  ar  
 20  10  27  1   
 21  12  15  1   
 22  12  28  1   
 23  13  16  ar  
 24  13  29  1   
 25  14  16  ar  
 26  14  30  1   
 27  15  17  1   
 28  15  18  1   
 29  15  31  1   
 30  16  32  1   
 31  17  19  1   
 32  17  33  1   
 33  17  34  1   
 34  18  20  1   
 35  18  35  1   
 36  18  36  1   
 37  19  21  1   
 38  19  37  1   
 39  19  38  1   
 40  20  21  1   
 41  20  39  1   
 42  20  40  1   
 43  21  41  1   
 44  21  42  1   
@<TRIPOS>SUBSTRUCTURE
  1 ****   6 GROUP 4 **** **** 0

# MOE 2024.06 (io_trps.svl 2023.06)
