@<TRIPOS>MOLECULE
NONAME
38 40 1 0 0 
SMALL
USER_CHARGES


@<TRIPOS>ATOM
  1 CL       0.5980    -0.7700    -0.8960 Cl    1 <1>  -0.1770 
  2 C       -0.0800    -2.3810    -0.9210 C.ar  1 <1>   0.1770 
  3 C       -1.3060    -2.6300    -0.3100 C.ar  1 <1>   0.0830 
  4 C        0.6240    -3.3820    -1.5540 C.ar  1 <1>  -0.1500 
  5 O       -1.9640    -1.6200     0.3030 O.3   1 <1>  -0.1590 
  6 C       -1.8530    -3.9210    -0.3310 C.ar  1 <1>   0.0860 
  7 C        0.0820    -4.6550    -1.5710 C.ar  1 <1>   0.1770 
  8 C       -3.1340    -1.8180     0.9150 C.2   1 <1>  -0.0730 
  9 C       -3.1280    -4.1470     0.3010 C.2   1 <1>   0.4690 
 10 C       -1.1310    -4.9310    -0.9750 C.ar  1 <1>  -0.1500 
 11 CL       0.9580    -5.9370    -2.3660 Cl    1 <1>  -0.1770 
 12 C       -3.7380    -3.0250     0.9440 C.2   1 <1>  -0.1240 
 13 O       -3.6710    -5.2370     0.2690 O.2   1 <1>  -0.5700 
 14 C       -5.0630    -3.2310     1.6640 C.3   1 <1>   0.2480 
 15 N       -6.2080    -2.8510     0.8090 N.3   1 <1>  -0.8100 
 16 C       -7.4540    -2.8200     1.6010 C.3   1 <1>   0.1100 
 17 C       -6.3410    -3.7540    -0.3600 C.3   1 <1>   0.1100 
 18 C       -8.6730    -2.4330     0.7370 C.3   1 <1>   0.3430 
 19 C       -7.5530    -3.3880    -1.2390 C.3   1 <1>   0.3430 
 20 N       -8.8280    -3.3500    -0.4440 N.4   1 <1>  -0.9590 
 21 C       -9.9860    -2.9490    -1.2970 C.3   1 <1>   0.2630 
 22 H        1.5700    -3.1840    -2.0240 H     1 <1>   0.1500 
 23 H       -3.5360    -0.9300     1.3730 H     1 <1>   0.1500 
 24 H       -1.5240    -5.9330    -1.0060 H     1 <1>   0.1500 
 25 H       -5.0630    -2.6060     2.5410 H     1 <1>   0.0800 
 26 H       -5.1610    -4.2520     1.9950 H     1 <1>   0.0800 
 27 H       -7.3520    -2.0940     2.3910 H     1 <1>   0.0800 
 28 H       -7.6280    -3.7810     2.0560 H     1 <1>   0.0800 
 29 H       -6.4250    -4.7770    -0.0320 H     1 <1>   0.0800 
 30 H       -5.4610    -3.6800    -0.9740 H     1 <1>   0.0800 
 31 H       -8.5380    -1.4200     0.3960 H     1 <1>   0.0800 
 32 H       -9.5620    -2.4640     1.3460 H     1 <1>   0.0800 
 33 H       -7.6380    -4.1060    -2.0380 H     1 <1>   0.0800 
 34 H       -7.3700    -2.4210    -1.6780 H     1 <1>   0.0800 
 35 H       -8.9860    -4.3000    -0.0790 H     1 <1>   0.4500 
 36 H       -9.8350    -1.9570    -1.6900 H     1 <1>   0.0800 
 37 H      -10.8970    -2.9570    -0.7200 H     1 <1>   0.0800 
 38 H      -10.0970    -3.6340    -2.1220 H     1 <1>   0.0800 
@<TRIPOS>BOND
  1   1   2  1   
  2   2   3  ar  
  3   2   4  ar  
  4   3   5  1   
  5   3   6  ar  
  6   4   7  ar  
  7   4  22  1   
  8   5   8  1   
  9   6   9  1   
 10   6  10  ar  
 11   7  10  ar  
 12   7  11  1   
 13   8  12  2   
 14   8  23  1   
 15   9  12  1   
 16   9  13  2   
 17  10  24  1   
 18  12  14  1   
 19  14  15  1   
 20  14  25  1   
 21  14  26  1   
 22  15  16  1   
 23  15  17  1   
 24  16  18  1   
 25  16  27  1   
 26  16  28  1   
 27  17  19  1   
 28  17  29  1   
 29  17  30  1   
 30  18  20  1   
 31  18  31  1   
 32  18  32  1   
 33  19  20  1   
 34  19  33  1   
 35  19  34  1   
 36  20  21  1   
 37  20  35  1   
 38  21  36  1   
 39  21  37  1   
 40  21  38  1   
@<TRIPOS>SUBSTRUCTURE
  1 ****   9 GROUP 4 **** **** 0

# MOE 2024.06 (io_trps.svl 2023.06)
