@<TRIPOS>MOLECULE
NONAME
47 50 1 0 0 
SMALL
USER_CHARGES


@<TRIPOS>ATOM
  1 F        0.3690     0.5660     0.5020 F     1 <1>  -0.1900 
  2 C        1.5160     1.1870     0.3980 C.ar  1 <1>   0.1900 
  3 C        2.4550     0.7060    -0.4950 C.ar  1 <1>  -0.1500 
  4 C        1.7460     2.3000     1.1840 C.ar  1 <1>  -0.1500 
  5 C        3.6670     1.3680    -0.6010 C.ar  1 <1>  -0.1500 
  6 C        2.9620     2.9510     1.0670 C.ar  1 <1>  -0.1500 
  7 C        3.9300     2.4940     0.1780 C.ar  1 <1>   0.1000 
  8 N        5.1410     3.1700     0.0850 N.pl3 1 <1>  -0.8380 
  9 C        5.3850     3.9220    -1.1790 C.3   1 <1>   0.2090 
 10 C        6.3350     2.4670     0.6370 C.3   1 <1>   0.2090 
 11 C        6.5850     4.8800    -1.0210 C.3   1 <1>   0.3430 
 12 C        7.5260     3.4390     0.7750 C.3   1 <1>   0.3430 
 13 N        7.8280     4.1830    -0.5120 N.4   1 <1>  -0.9590 
 14 C        8.9880     5.1270    -0.4220 C.3   1 <1>   0.4230 
 15 C       10.3140     4.3630    -0.3250 C.3   1 <1>  -0.0170 
 16 C        8.8570     6.1070     0.7520 C.3   1 <1>  -0.1600 
 17 C       11.4880     5.3120    -0.1430 C.ar  1 <1>  -0.1430 
 18 C        9.9370     7.1890     0.6380 C.3   1 <1>  -0.0170 
 19 C       11.3110     6.6140     0.3140 C.ar  1 <1>  -0.1430 
 20 C       12.7640     4.8520    -0.4310 C.ar  1 <1>  -0.1500 
 21 C       12.4150     7.4360     0.4730 C.ar  1 <1>  -0.1500 
 22 C       13.8600     5.6800    -0.2700 C.ar  1 <1>  -0.1500 
 23 C       13.6860     6.9730     0.1830 C.ar  1 <1>  -0.1500 
 24 H        2.2350    -0.1630    -1.0880 H     1 <1>   0.1500 
 25 H        0.9900     2.6440     1.8670 H     1 <1>   0.1500 
 26 H        4.4080     1.0080    -1.2890 H     1 <1>   0.1500 
 27 H        3.1690     3.8190     1.6650 H     1 <1>   0.1500 
 28 H        4.5040     4.4910    -1.4260 H     1 <1>   0.0800 
 29 H        5.5690     3.2310    -1.9840 H     1 <1>   0.0800 
 30 H        6.6030     1.6460    -0.0050 H     1 <1>   0.0800 
 31 H        6.0900     2.0630     1.6050 H     1 <1>   0.0800 
 32 H        6.2970     5.6550    -0.3300 H     1 <1>   0.0800 
 33 H        6.7880     5.3460    -1.9720 H     1 <1>   0.0800 
 34 H        8.3910     2.8850     1.0960 H     1 <1>   0.0800 
 35 H        7.2820     4.1470     1.5500 H     1 <1>   0.0800 
 36 H        8.0680     3.4740    -1.2150 H     1 <1>   0.4500 
 37 H        9.0250     5.7100    -1.3290 H     1 <1>   0.0800 
 38 H       10.4630     3.7930    -1.2240 H     1 <1>   0.0800 
 39 H       10.3070     3.6940     0.5150 H     1 <1>   0.0800 
 40 H        8.9990     5.5910     1.6850 H     1 <1>   0.0800 
 41 H        7.8960     6.5860     0.7610 H     1 <1>   0.0800 
 42 H        9.9860     7.7400     1.5610 H     1 <1>   0.0800 
 43 H        9.6720     7.8830    -0.1410 H     1 <1>   0.0800 
 44 H       12.9210     3.8470    -0.7810 H     1 <1>   0.1500 
 45 H       12.2960     8.4470     0.8230 H     1 <1>   0.1500 
 46 H       14.8490     5.3180    -0.4950 H     1 <1>   0.1500 
 47 H       14.5380     7.6190     0.3100 H     1 <1>   0.1500 
@<TRIPOS>BOND
  1   1   2  1   
  2   2   3  ar  
  3   2   4  ar  
  4   3   5  ar  
  5   3  24  1   
  6   4   6  ar  
  7   4  25  1   
  8   5   7  ar  
  9   5  26  1   
 10   6   7  ar  
 11   6  27  1   
 12   7   8  1   
 13   8   9  1   
 14   8  10  1   
 15   9  11  1   
 16   9  28  1   
 17   9  29  1   
 18  10  12  1   
 19  10  30  1   
 20  10  31  1   
 21  11  13  1   
 22  11  32  1   
 23  11  33  1   
 24  12  13  1   
 25  12  34  1   
 26  12  35  1   
 27  13  14  1   
 28  13  36  1   
 29  14  15  1   
 30  14  16  1   
 31  14  37  1   
 32  15  17  1   
 33  15  38  1   
 34  15  39  1   
 35  16  18  1   
 36  16  40  1   
 37  16  41  1   
 38  17  19  ar  
 39  17  20  ar  
 40  18  19  1   
 41  18  42  1   
 42  18  43  1   
 43  19  21  ar  
 44  20  22  ar  
 45  20  44  1   
 46  21  23  ar  
 47  21  45  1   
 48  22  23  ar  
 49  22  46  1   
 50  23  47  1   
@<TRIPOS>SUBSTRUCTURE
  1 ****  13 GROUP 4 **** **** 0

# MOE 2024.06 (io_trps.svl 2023.06)
