@<TRIPOS>MOLECULE
NONAME
23 24 1 0 0 
SMALL
USER_CHARGES


@<TRIPOS>ATOM
  1 CL       0.2030    -0.0410    -0.5410 Cl    1 <1>  -0.1770 
  2 C       -1.2680    -0.9480    -0.2730 C.ar  1 <1>   0.1770 
  3 C       -1.2470    -2.2360     0.2800 C.ar  1 <1>   0.0860 
  4 C       -2.4450    -0.3160    -0.6290 C.ar  1 <1>  -0.1500 
  5 C       -0.0380    -2.9440     0.6610 C.2   1 <1>   0.5440 
  6 C       -2.4880    -2.8550     0.4680 C.ar  1 <1>  -0.1500 
  7 C       -3.6430    -0.9700    -0.4310 C.ar  1 <1>   0.1770 
  8 O       -0.0620    -3.7000     1.6130 O.2   1 <1>  -0.5700 
  9 N        1.1260    -2.8170    -0.0460 N.am  1 <1>  -0.5790 
 10 C       -3.6750    -2.2370     0.1180 C.ar  1 <1>  -0.1500 
 11 CL      -5.1330    -0.1870    -0.8760 Cl    1 <1>  -0.1770 
 12 C        2.3980    -3.4920     0.2470 C.3   1 <1>   0.0490 
 13 C        3.6560    -2.7040     0.0940 C.3   1 <1>  -0.2000 
 14 C        3.3160    -3.7800    -0.8930 C.3   1 <1>  -0.2000 
 15 H       -2.4320     0.6720    -1.0520 H     1 <1>   0.1500 
 16 H       -2.5150    -3.8430     0.9010 H     1 <1>   0.1500 
 17 H        1.1830    -2.1080    -0.7800 H     1 <1>   0.3700 
 18 H       -4.6210    -2.7290     0.2700 H     1 <1>   0.1500 
 19 H        2.3300    -4.2070     1.0520 H     1 <1>   0.1000 
 20 H        4.4600    -2.8820     0.7860 H     1 <1>   0.1000 
 21 H        3.5890    -1.6730    -0.2060 H     1 <1>   0.1000 
 22 H        3.0140    -3.5030    -1.8880 H     1 <1>   0.1000 
 23 H        3.8920    -4.6880    -0.8730 H     1 <1>   0.1000 
@<TRIPOS>BOND
  1   1   2  1   
  2   2   3  ar  
  3   2   4  ar  
  4   3   5  1   
  5   3   6  ar  
  6   4   7  ar  
  7   4  15  1   
  8   5   8  2   
  9   5   9  am  
 10   6  10  ar  
 11   6  16  1   
 12   7  10  ar  
 13   7  11  1   
 14   9  12  1   
 15   9  17  1   
 16  10  18  1   
 17  12  13  1   
 18  12  14  1   
 19  12  19  1   
 20  13  14  1   
 21  13  20  1   
 22  13  21  1   
 23  14  22  1   
 24  14  23  1   
@<TRIPOS>SUBSTRUCTURE
  1 ****   3 GROUP 4 **** **** 0

# MOE 2024.06 (io_trps.svl 2023.06)
