@<TRIPOS>MOLECULE
NONAME
40 41 1 0 0 
SMALL
USER_CHARGES


@<TRIPOS>ATOM
  1 N        0.0360     0.0110     0.6080 N.4   1 <1>  -0.9590 
  2 C        1.2060     0.9370     0.7020 C.3   1 <1>   0.4230 
  3 C       -0.0370    -0.8240    -0.6380 C.3   1 <1>   0.3430 
  4 C       -1.2610     0.7260     0.8410 C.3   1 <1>   0.3430 
  5 C        1.3110     1.8860    -0.4990 C.3   1 <1>  -0.1600 
  6 C        2.5040     0.1440     0.8650 C.3   1 <1>  -0.1600 
  7 C       -1.1370    -1.8760    -0.4910 C.3   1 <1>  -0.1600 
  8 C       -2.3880    -0.2930     1.0190 C.3   1 <1>  -0.1600 
  9 C        2.5160     2.8150    -0.3460 C.3   1 <1>   0.3430 
 10 C        3.7000     1.0890     1.0060 C.3   1 <1>   0.3430 
 11 C       -2.4970    -1.2370    -0.1840 C.3   1 <1>  -0.1600 
 12 N        3.7640     2.0150    -0.1660 N.4   1 <1>  -0.9590 
 13 C        4.9380     2.9330    -0.0690 C.3   1 <1>   0.3430 
 14 C        6.2230     2.1570    -0.3320 C.3   1 <1>  -0.2400 
 15 H        0.1070    -0.6630     1.3830 H     1 <1>   0.4500 
 16 H        1.0810     1.5400     1.5890 H     1 <1>   0.0800 
 17 H        0.9020    -1.3220    -0.8140 H     1 <1>   0.0800 
 18 H       -0.2560    -0.1980    -1.4880 H     1 <1>   0.0800 
 19 H       -1.4870     1.3630     0.0020 H     1 <1>   0.0800 
 20 H       -1.1960     1.3380     1.7270 H     1 <1>   0.0800 
 21 H        0.4280     2.4960    -0.5670 H     1 <1>   0.0800 
 22 H        1.4160     1.3420    -1.4210 H     1 <1>   0.0800 
 23 H        2.6770    -0.5030     0.0240 H     1 <1>   0.0800 
 24 H        2.4490    -0.4620     1.7520 H     1 <1>   0.0800 
 25 H       -0.8720    -2.5690     0.2890 H     1 <1>   0.0800 
 26 H       -1.2110    -2.4390    -1.4060 H     1 <1>   0.0800 
 27 H       -3.3200     0.2320     1.1410 H     1 <1>   0.0800 
 28 H       -2.2240    -0.8610     1.9190 H     1 <1>   0.0800 
 29 H        2.3730     3.4600     0.5070 H     1 <1>   0.0800 
 30 H        2.6040     3.4380    -1.2230 H     1 <1>   0.0800 
 31 H        4.6070     0.5070     1.0680 H     1 <1>   0.0800 
 32 H        3.6090     1.6600     1.9160 H     1 <1>   0.0800 
 33 H       -3.2250    -2.0050     0.0180 H     1 <1>   0.0800 
 34 H       -2.8380    -0.6850    -1.0450 H     1 <1>   0.0800 
 35 H        3.9200     1.4570    -1.0190 H     1 <1>   0.4500 
 36 H        4.9760     3.3980     0.9040 H     1 <1>   0.0800 
 37 H        4.8530     3.7140    -0.8100 H     1 <1>   0.0800 
 38 H        6.4150     1.4290     0.4360 H     1 <1>   0.0800 
 39 H        7.0510     2.8440    -0.3360 H     1 <1>   0.0800 
 40 H        6.1950     1.6750    -1.2930 H     1 <1>   0.0800 
@<TRIPOS>BOND
  1   1   2  1   
  2   1   3  1   
  3   1   4  1   
  4   1  15  1   
  5   2   5  1   
  6   2   6  1   
  7   2  16  1   
  8   3   7  1   
  9   3  17  1   
 10   3  18  1   
 11   4   8  1   
 12   4  19  1   
 13   4  20  1   
 14   5   9  1   
 15   5  21  1   
 16   5  22  1   
 17   6  10  1   
 18   6  23  1   
 19   6  24  1   
 20   7  11  1   
 21   7  25  1   
 22   7  26  1   
 23   8  11  1   
 24   8  27  1   
 25   8  28  1   
 26   9  12  1   
 27   9  29  1   
 28   9  30  1   
 29  10  12  1   
 30  10  31  1   
 31  10  32  1   
 32  11  33  1   
 33  11  34  1   
 34  12  13  1   
 35  12  35  1   
 36  13  14  1   
 37  13  36  1   
 38  13  37  1   
 39  14  38  1   
 40  14  39  1   
 41  14  40  1   
@<TRIPOS>SUBSTRUCTURE
  1 ****   2 GROUP 4 **** **** 0

# MOE 2024.06 (io_trps.svl 2023.06)
