@<TRIPOS>MOLECULE
NONAME
40 41 1 0 0 
SMALL
USER_CHARGES


@<TRIPOS>ATOM
  1 O       -0.2460     0.0950    -0.0510 O.2   1 <1>  -0.5700 
  2 C       -0.7390    -0.9960    -0.2690 C.2   1 <1>   0.6900 
  3 N       -2.0670    -1.1030    -0.5980 N.am  1 <1>  -0.6600 
  4 N       -0.0040    -2.1410    -0.1590 N.am  1 <1>  -0.5470 
  5 C       -3.0120     0.0210    -0.3500 C.3   1 <1>   0.1400 
  6 C       -2.6530    -2.2310    -1.3710 C.3   1 <1>   0.1400 
  7 C        1.3660    -2.3660     0.0480 C.ar  1 <1>   0.1170 
  8 C       -4.2530    -0.4950     0.3990 C.3   1 <1>  -0.0800 
  9 C       -3.8690    -2.7820    -0.6210 C.3   1 <1>  -0.1600 
 10 C        1.7890    -3.5590     0.6390 C.ar  1 <1>  -0.1440 
 11 C        2.3250    -1.4370    -0.3440 C.ar  1 <1>  -0.1500 
 12 C       -4.9010    -1.6780    -0.3430 C.3   1 <1>  -0.1600 
 13 C       -5.2740     0.6330     0.5980 C.3   1 <1>  -0.2400 
 14 C        3.1420    -3.7940     0.8220 C.ar  1 <1>  -0.1500 
 15 C        0.7890    -4.6150     1.0950 C.3   1 <1>  -0.0970 
 16 C        3.6750    -1.6710    -0.1560 C.ar  1 <1>  -0.1430 
 17 C        4.0810    -2.8580     0.4290 C.ar  1 <1>  -0.1500 
 18 C        4.7030    -0.6410    -0.5870 C.3   1 <1>  -0.0970 
 19 H       -0.5880    -2.9620    -0.0760 H     1 <1>   0.3700 
 20 H       -3.2990     0.4490    -1.2940 H     1 <1>   0.0800 
 21 H       -2.5370     0.7890     0.2360 H     1 <1>   0.0800 
 22 H       -1.9310    -3.0120    -1.5320 H     1 <1>   0.0800 
 23 H       -2.9600    -1.8640    -2.3350 H     1 <1>   0.0800 
 24 H       -3.9320    -0.8300     1.3710 H     1 <1>   0.0800 
 25 H       -3.5420    -3.2160     0.3080 H     1 <1>   0.0800 
 26 H       -4.3250    -3.5610    -1.2060 H     1 <1>   0.0800 
 27 H        2.0070    -0.5200    -0.8040 H     1 <1>   0.1500 
 28 H       -5.3100    -1.3350    -1.2770 H     1 <1>   0.0800 
 29 H       -5.7080    -2.0800     0.2460 H     1 <1>   0.0800 
 30 H       -5.6180     1.0070    -0.3500 H     1 <1>   0.0800 
 31 H       -4.8290     1.4440     1.1470 H     1 <1>   0.0800 
 32 H       -6.1220     0.2740     1.1550 H     1 <1>   0.0800 
 33 H        3.4790    -4.7090     1.2760 H     1 <1>   0.1500 
 34 H        0.2630    -5.0150     0.2470 H     1 <1>   0.0800 
 35 H        0.0830    -4.1810     1.7800 H     1 <1>   0.0800 
 36 H        1.2870    -5.4250     1.5970 H     1 <1>   0.0800 
 37 H        5.1270    -3.0560     0.5790 H     1 <1>   0.1500 
 38 H        4.2490     0.3290    -0.6810 H     1 <1>   0.0800 
 39 H        5.1220    -0.9210    -1.5370 H     1 <1>   0.0800 
 40 H        5.4930    -0.5780     0.1390 H     1 <1>   0.0800 
@<TRIPOS>BOND
  1   1   2  2   
  2   2   3  am  
  3   2   4  am  
  4   3   5  1   
  5   3   6  1   
  6   4   7  1   
  7   4  19  1   
  8   5   8  1   
  9   5  20  1   
 10   5  21  1   
 11   6   9  1   
 12   6  22  1   
 13   6  23  1   
 14   7  10  ar  
 15   7  11  ar  
 16   8  12  1   
 17   8  13  1   
 18   8  24  1   
 19   9  12  1   
 20   9  25  1   
 21   9  26  1   
 22  10  14  ar  
 23  10  15  1   
 24  11  16  ar  
 25  11  27  1   
 26  12  28  1   
 27  12  29  1   
 28  13  30  1   
 29  13  31  1   
 30  13  32  1   
 31  14  17  ar  
 32  14  33  1   
 33  15  34  1   
 34  15  35  1   
 35  15  36  1   
 36  16  17  ar  
 37  16  18  1   
 38  17  37  1   
 39  18  38  1   
 40  18  39  1   
 41  18  40  1   
@<TRIPOS>SUBSTRUCTURE
  1 ****   4 GROUP 4 **** **** 0

# MOE 2024.06 (io_trps.svl 2023.06)
