@<TRIPOS>MOLECULE
NONAME
38 38 1 0 0 
SMALL
USER_CHARGES


@<TRIPOS>ATOM
  1 O        5.6630     1.9180    -1.5040 O.2   1 <1>  -0.5700 
  2 C        5.4410     1.8690    -0.3100 C.2   1 <1>   0.7800 
  3 O        6.3560     2.3330     0.5540 O.3   1 <1>  -0.2330 
  4 N        4.3040     1.2960     0.2060 N.am  1 <1>  -0.6600 
  5 C        7.4830     3.0210     0.2260 C.ar  1 <1>   0.0830 
  6 C        3.9440     1.3240     1.6530 C.3   1 <1>   0.0600 
  7 C        3.2150     0.7900    -0.6790 C.3   1 <1>   0.0600 
  8 C        8.5050     2.5030    -0.5730 C.ar  1 <1>  -0.1440 
  9 C        7.6060     4.2900     0.7710 C.ar  1 <1>  -0.1500 
 10 C        9.6250     3.2840    -0.8200 C.ar  1 <1>  -0.1500 
 11 C        8.4520     1.1140    -1.1810 C.3   1 <1>   0.4860 
 12 C        8.7270     5.0610     0.5230 C.ar  1 <1>  -0.1440 
 13 C        9.7350     4.5510    -0.2760 C.ar  1 <1>  -0.1500 
 14 N        8.3190     0.1130    -0.0860 N.4   1 <1>  -0.9590 
 15 C        8.8570     6.4530     1.1160 C.3   1 <1>  -0.0970 
 16 C        9.5710     0.0190     0.7240 C.3   1 <1>   0.2630 
 17 C        7.8790    -1.2090    -0.6180 C.3   1 <1>   0.2630 
 18 H        4.7470     1.7160     2.2530 H     1 <1>   0.0800 
 19 H        3.7170     0.3280     1.9910 H     1 <1>   0.0800 
 20 H        3.0770     1.9460     1.7980 H     1 <1>   0.0800 
 21 H        3.5270     0.7760    -1.7100 H     1 <1>   0.0800 
 22 H        2.3520     1.4280    -0.5940 H     1 <1>   0.0800 
 23 H        2.9420    -0.2100    -0.3900 H     1 <1>   0.0800 
 24 H        6.8160     4.6740     1.3920 H     1 <1>   0.1500 
 25 H       10.4280     2.9220    -1.4400 H     1 <1>   0.1500 
 26 H        9.3490     0.9260    -1.7460 H     1 <1>   0.0800 
 27 H        7.6180     1.0460    -1.8590 H     1 <1>   0.0800 
 28 H       10.6110     5.1460    -0.4780 H     1 <1>   0.1500 
 29 H        7.5770     0.4940     0.5220 H     1 <1>   0.4500 
 30 H        7.9000     6.8250     1.4340 H     1 <1>   0.0800 
 31 H        9.2560     7.1320     0.3840 H     1 <1>   0.0800 
 32 H        9.5180     6.4290     1.9640 H     1 <1>   0.0800 
 33 H       10.3860    -0.3380     0.1160 H     1 <1>   0.0800 
 34 H        9.4320    -0.6600     1.5500 H     1 <1>   0.0800 
 35 H        9.8330     0.9880     1.1180 H     1 <1>   0.0800 
 36 H        8.6250    -1.6140    -1.2820 H     1 <1>   0.0800 
 37 H        6.9530    -1.1020    -1.1610 H     1 <1>   0.0800 
 38 H        7.7230    -1.9030     0.1920 H     1 <1>   0.0800 
@<TRIPOS>BOND
  1   1   2  2   
  2   2   3  1   
  3   2   4  am  
  4   3   5  1   
  5   4   6  1   
  6   4   7  1   
  7   5   8  ar  
  8   5   9  ar  
  9   6  18  1   
 10   6  19  1   
 11   6  20  1   
 12   7  21  1   
 13   7  22  1   
 14   7  23  1   
 15   8  10  ar  
 16   8  11  1   
 17   9  12  ar  
 18   9  24  1   
 19  10  13  ar  
 20  10  25  1   
 21  11  14  1   
 22  11  26  1   
 23  11  27  1   
 24  12  13  ar  
 25  12  15  1   
 26  13  28  1   
 27  14  16  1   
 28  14  17  1   
 29  14  29  1   
 30  15  30  1   
 31  15  31  1   
 32  15  32  1   
 33  16  33  1   
 34  16  34  1   
 35  16  35  1   
 36  17  36  1   
 37  17  37  1   
 38  17  38  1   
@<TRIPOS>SUBSTRUCTURE
  1 ****   5 GROUP 4 **** **** 0

# MOE 2024.06 (io_trps.svl 2023.06)
