@<TRIPOS>MOLECULE
NONAME
41 44 1 0 0 
SMALL
USER_CHARGES


@<TRIPOS>ATOM
  1 CL       0.1120     0.7920    -1.2570 Cl    1 <1>  -0.1770 
  2 C        1.6100     1.5090    -0.7250 C.ar  1 <1>   0.1770 
  3 C        1.8780     2.8290    -1.0310 C.ar  1 <1>  -0.1500 
  4 C        2.5100     0.7490    -0.0050 C.ar  1 <1>  -0.1500 
  5 C        3.0710     3.3930    -0.6060 C.ar  1 <1>  -0.1500 
  6 C        3.6980     1.3250     0.4130 C.ar  1 <1>  -0.1500 
  7 C        4.0010     2.6520     0.1200 C.ar  1 <1>  -0.0090 
  8 S        5.5630     3.3900     0.6770 S.o2  1 <1>   1.4470 
  9 O        5.7830     4.6520     0.0090 O.2   1 <1>  -0.6500 
 10 O        5.6620     3.2920     2.1160 O.2   1 <1>  -0.6500 
 11 N        6.7130     2.3690     0.0140 N.am  1 <1>  -0.9140 
 12 C        7.9480     2.2480     0.7730 C.3   1 <1>   0.2760 
 13 C        8.7660     3.5650     0.7840 C.3   1 <1>  -0.0800 
 14 C        8.8090     1.1320     0.1390 C.3   1 <1>  -0.0800 
 15 C       10.0290     3.3540     1.6450 C.3   1 <1>  -0.1600 
 16 C        9.2050     3.9540    -0.6460 C.3   1 <1>  -0.1600 
 17 C       10.0720     0.9260     1.0010 C.3   1 <1>  -0.1600 
 18 C        9.2490     1.5190    -1.2920 C.3   1 <1>  -0.1600 
 19 C       10.8950     2.2280     1.0490 C.3   1 <1>  -0.0800 
 20 C       10.0610     2.8280    -1.2580 C.3   1 <1>  -0.0800 
 21 C       11.3110     2.6170    -0.3820 C.3   1 <1>  -0.1600 
 22 H        1.1630     3.4040    -1.5920 H     1 <1>   0.1500 
 23 H        2.2810    -0.2770     0.2230 H     1 <1>   0.1500 
 24 H        3.2820     4.4230    -0.8430 H     1 <1>   0.1500 
 25 H        4.4060     0.7380     0.9760 H     1 <1>   0.1500 
 26 H        6.9770     2.8260    -0.8540 H     1 <1>   0.4200 
 27 H        7.7130     1.9610     1.7860 H     1 <1>   0.0800 
 28 H        8.1920     4.3610     1.2250 H     1 <1>   0.0800 
 29 H        8.2450     0.2160     0.1180 H     1 <1>   0.0800 
 30 H        9.7460     3.1030     2.6520 H     1 <1>   0.0800 
 31 H       10.5980     4.2670     1.6860 H     1 <1>   0.0800 
 32 H        9.7790     4.8640    -0.6090 H     1 <1>   0.0800 
 33 H        8.3480     4.1490    -1.2660 H     1 <1>   0.0800 
 34 H       10.6710     0.1320     0.5880 H     1 <1>   0.0800 
 35 H        9.7910     0.6350     1.9990 H     1 <1>   0.0800 
 36 H        8.3920     1.6330    -1.9320 H     1 <1>   0.0800 
 37 H        9.8530     0.7310    -1.7090 H     1 <1>   0.0800 
 38 H       11.7730     2.0830     1.6560 H     1 <1>   0.0800 
 39 H       10.3600     3.0990    -2.2570 H     1 <1>   0.0800 
 40 H       11.9260     1.8420    -0.8060 H     1 <1>   0.0800 
 41 H       11.8960     3.5200    -0.3590 H     1 <1>   0.0800 
@<TRIPOS>BOND
  1   1   2  1   
  2   2   3  ar  
  3   2   4  ar  
  4   3   5  ar  
  5   3  22  1   
  6   4   6  ar  
  7   4  23  1   
  8   5   7  ar  
  9   5  24  1   
 10   6   7  ar  
 11   6  25  1   
 12   7   8  1   
 13   8   9  2   
 14   8  10  2   
 15   8  11  am  
 16  11  12  1   
 17  11  26  1   
 18  12  13  1   
 19  12  14  1   
 20  12  27  1   
 21  13  15  1   
 22  13  16  1   
 23  13  28  1   
 24  14  17  1   
 25  14  18  1   
 26  14  29  1   
 27  15  19  1   
 28  15  30  1   
 29  15  31  1   
 30  16  20  1   
 31  16  32  1   
 32  16  33  1   
 33  17  19  1   
 34  17  34  1   
 35  17  35  1   
 36  18  20  1   
 37  18  36  1   
 38  18  37  1   
 39  19  21  1   
 40  19  38  1   
 41  20  21  1   
 42  20  39  1   
 43  21  40  1   
 44  21  41  1   
@<TRIPOS>SUBSTRUCTURE
  1 ****  11 GROUP 4 **** **** 0

# MOE 2024.06 (io_trps.svl 2023.06)
