@<TRIPOS>MOLECULE
NONAME
39 40 1 0 0 
SMALL
USER_CHARGES


@<TRIPOS>ATOM
  1 O        0.2190     0.2520    -1.0110 O.2   1 <1>  -0.5700 
  2 C        0.4820     1.3600    -0.5810 C.2   1 <1>   0.5440 
  3 N       -0.5510     2.1470    -0.1110 N.am  1 <1>  -0.6600 
  4 C        1.8630     1.8000    -0.6190 C.ar  1 <1>   0.0860 
  5 C       -1.8860     2.0410    -0.7690 C.3   1 <1>   0.2200 
  6 C       -0.4760     3.2400     0.9020 C.3   1 <1>   0.2200 
  7 C        2.8640     1.0550     0.0000 C.ar  1 <1>  -0.1500 
  8 C        2.2330     2.9710    -1.2810 C.ar  1 <1>  -0.1500 
  9 C       -2.5660     3.4230    -0.8950 C.3   1 <1>  -0.1600 
 10 C       -2.7630     1.0570     0.0060 C.3   1 <1>  -0.2400 
 11 C       -0.5950     4.6010     0.1940 C.3   1 <1>  -0.1600 
 12 C        0.7180     3.1650     1.8560 C.3   1 <1>  -0.2400 
 13 C        4.1890     1.4750    -0.0170 C.ar  1 <1>   0.0830 
 14 C        3.5480     3.3980    -1.3030 C.ar  1 <1>  -0.1500 
 15 C       -1.5410     4.5630    -1.0260 C.3   1 <1>  -0.1600 
 16 O        5.2020     0.7950     0.5740 O.3   1 <1>  -0.3630 
 17 C        4.5230     2.6510    -0.6680 C.ar  1 <1>  -0.1500 
 18 C        4.9820    -0.4550     1.1880 C.3   1 <1>   0.0400 
 19 H       -1.7360     1.6530    -1.7650 H     1 <1>   0.0800 
 20 H       -1.3490     3.1300     1.5250 H     1 <1>   0.0800 
 21 H        2.5710     0.1460     0.4900 H     1 <1>   0.1500 
 22 H        1.4740     3.5440    -1.7830 H     1 <1>   0.1500 
 23 H       -3.1810     3.6070    -0.0320 H     1 <1>   0.0800 
 24 H       -3.2170     3.4140    -1.7500 H     1 <1>   0.0800 
 25 H       -2.9230     1.3960     1.0120 H     1 <1>   0.0800 
 26 H       -2.2900     0.0920     0.0310 H     1 <1>   0.0800 
 27 H       -3.7150     0.9530    -0.4810 H     1 <1>   0.0800 
 28 H        0.3750     4.9440    -0.1180 H     1 <1>   0.0800 
 29 H       -0.9660     5.3140     0.9090 H     1 <1>   0.0800 
 30 H        1.6310     3.4710     1.3810 H     1 <1>   0.0800 
 31 H        0.8230     2.1670     2.2420 H     1 <1>   0.0800 
 32 H        0.5510     3.8280     2.6850 H     1 <1>   0.0800 
 33 H        3.8150     4.3060    -1.8150 H     1 <1>   0.1500 
 34 H       -2.0420     5.5090    -1.1340 H     1 <1>   0.0800 
 35 H       -0.9590     4.3940    -1.9160 H     1 <1>   0.0800 
 36 H        5.5500     2.9710    -0.6760 H     1 <1>   0.1500 
 37 H        5.9260    -0.8200     1.5520 H     1 <1>   0.0800 
 38 H        4.5840    -1.1380     0.4580 H     1 <1>   0.0800 
 39 H        4.2980    -0.3270     2.0080 H     1 <1>   0.0800 
@<TRIPOS>BOND
  1   1   2  2   
  2   2   3  am  
  3   2   4  1   
  4   3   5  1   
  5   3   6  1   
  6   4   7  ar  
  7   4   8  ar  
  8   5   9  1   
  9   5  10  1   
 10   5  19  1   
 11   6  11  1   
 12   6  12  1   
 13   6  20  1   
 14   7  13  ar  
 15   7  21  1   
 16   8  14  ar  
 17   8  22  1   
 18   9  15  1   
 19   9  23  1   
 20   9  24  1   
 21  10  25  1   
 22  10  26  1   
 23  10  27  1   
 24  11  15  1   
 25  11  28  1   
 26  11  29  1   
 27  12  30  1   
 28  12  31  1   
 29  12  32  1   
 30  13  16  1   
 31  13  17  ar  
 32  14  17  ar  
 33  14  33  1   
 34  15  34  1   
 35  15  35  1   
 36  16  18  1   
 37  17  36  1   
 38  18  37  1   
 39  18  38  1   
 40  18  39  1   
@<TRIPOS>SUBSTRUCTURE
  1 ****   4 GROUP 4 **** **** 0

# MOE 2024.06 (io_trps.svl 2023.06)
