@<TRIPOS>MOLECULE
NONAME
47 48 1 0 0 
SMALL
USER_CHARGES


@<TRIPOS>ATOM
  1 O        0.3680    -2.7310    -2.7500 O.2   1 <1>  -0.5700 
  2 C       -0.0300    -2.2950    -1.6860 C.2   1 <1>   0.5440 
  3 N        0.7280    -1.3610    -1.0480 N.am  1 <1>  -0.7300 
  4 C       -1.2780    -2.7600    -1.1120 C.ar  1 <1>   0.0860 
  5 C        2.1440    -1.0890    -1.3210 C.3   1 <1>   0.3640 
  6 C       -1.5360    -2.7850     0.2680 C.ar  1 <1>   0.0830 
  7 C       -2.2970    -3.2110    -1.9550 C.ar  1 <1>  -0.1500 
  8 C        2.9220    -1.4550    -0.0610 C.ar  1 <1>  -0.1440 
  9 C        2.3340     0.3820    -1.7250 C.3   1 <1>  -0.1600 
 10 O       -0.6110    -2.3980     1.1740 O.3   1 <1>  -0.3630 
 11 C       -2.7580    -3.2030     0.7660 C.ar  1 <1>  -0.1500 
 12 C       -3.5210    -3.6480    -1.4670 C.ar  1 <1>   0.0830 
 13 C        3.7890    -2.5380    -0.0850 C.ar  1 <1>  -0.1500 
 14 C        2.7690    -0.7440     1.1230 C.ar  1 <1>  -0.1500 
 15 C        1.6480     0.7320    -3.0550 C.3   1 <1>  -0.2400 
 16 C        0.3670    -3.3540     1.5290 C.3   1 <1>   0.0400 
 17 C       -3.7600    -3.6380    -0.0900 C.ar  1 <1>   0.0830 
 18 O       -4.5210    -4.0930    -2.2850 O.3   1 <1>  -0.3630 
 19 C        4.4930    -2.9030     1.0490 C.ar  1 <1>  -0.1500 
 20 C        3.4730    -1.1070     2.2580 C.ar  1 <1>  -0.1500 
 21 O       -4.9730    -4.0610     0.3590 O.3   1 <1>  -0.3630 
 22 C       -4.3370    -4.2140    -3.6780 C.3   1 <1>   0.0400 
 23 C        4.3360    -2.1870     2.2220 C.ar  1 <1>  -0.1500 
 24 C       -5.3170    -4.0440     1.7260 C.3   1 <1>   0.0400 
 25 H        0.4490    -1.1340    -0.0900 H     1 <1>   0.3700 
 26 H        2.4800    -1.7090    -2.1350 H     1 <1>   0.0800 
 27 H       -2.0980    -3.2040    -3.0100 H     1 <1>   0.1500 
 28 H        3.3890     0.5680    -1.8230 H     1 <1>   0.0800 
 29 H        1.9610     1.0260    -0.9510 H     1 <1>   0.0800 
 30 H       -2.8990    -3.1820     1.8290 H     1 <1>   0.1500 
 31 H        3.9170    -3.1080    -0.9900 H     1 <1>   0.1500 
 32 H        2.0980     0.0950     1.1720 H     1 <1>   0.1500 
 33 H        2.0100     0.0950    -3.8430 H     1 <1>   0.0800 
 34 H        1.8490     1.7550    -3.3180 H     1 <1>   0.0800 
 35 H        0.5830     0.6020    -2.9750 H     1 <1>   0.0800 
 36 H        1.0310    -2.9100     2.2490 H     1 <1>   0.0800 
 37 H        0.9230    -3.6380     0.6520 H     1 <1>   0.0800 
 38 H       -0.1220    -4.2120     1.9560 H     1 <1>   0.0800 
 39 H        5.1640    -3.7440     1.0180 H     1 <1>   0.1500 
 40 H        3.3500    -0.5480     3.1700 H     1 <1>   0.1500 
 41 H       -5.2410    -4.6170    -4.0990 H     1 <1>   0.0800 
 42 H       -3.5170    -4.8840    -3.8660 H     1 <1>   0.0800 
 43 H       -4.1450    -3.2400    -4.0920 H     1 <1>   0.0800 
 44 H        4.8850    -2.4690     3.1030 H     1 <1>   0.1500 
 45 H       -6.3260    -4.4030     1.8190 H     1 <1>   0.0800 
 46 H       -5.2540    -3.0330     2.0890 H     1 <1>   0.0800 
 47 H       -4.6470    -4.6920     2.2630 H     1 <1>   0.0800 
@<TRIPOS>BOND
  1   1   2  2   
  2   2   3  am  
  3   2   4  1   
  4   3   5  1   
  5   3  25  1   
  6   4   6  ar  
  7   4   7  ar  
  8   5   8  1   
  9   5   9  1   
 10   5  26  1   
 11   6  10  1   
 12   6  11  ar  
 13   7  12  ar  
 14   7  27  1   
 15   8  13  ar  
 16   8  14  ar  
 17   9  15  1   
 18   9  28  1   
 19   9  29  1   
 20  10  16  1   
 21  11  17  ar  
 22  11  30  1   
 23  12  17  ar  
 24  12  18  1   
 25  13  19  ar  
 26  13  31  1   
 27  14  20  ar  
 28  14  32  1   
 29  15  33  1   
 30  15  34  1   
 31  15  35  1   
 32  16  36  1   
 33  16  37  1   
 34  16  38  1   
 35  17  21  1   
 36  18  22  1   
 37  19  23  ar  
 38  19  39  1   
 39  20  23  ar  
 40  20  40  1   
 41  21  24  1   
 42  22  41  1   
 43  22  42  1   
 44  22  43  1   
 45  23  44  1   
 46  24  45  1   
 47  24  46  1   
 48  24  47  1   
@<TRIPOS>SUBSTRUCTURE
  1 ****   4 GROUP 4 **** **** 0

# MOE 2024.06 (io_trps.svl 2023.06)
