@<TRIPOS>MOLECULE
NONAME
52 53 1 0 0 
SMALL
USER_CHARGES


@<TRIPOS>ATOM
  1 N        0.3900    -0.5740    -0.0950 N.4   1 <1>  -0.9590 
  2 C        1.6680     0.2240     0.0390 C.3   1 <1>   0.3430 
  3 C       -0.7570     0.1330     0.5570 C.3   1 <1>   0.3430 
  4 C        0.5040    -1.9580     0.4600 C.3   1 <1>   0.3430 
  5 C        2.8540    -0.3090    -0.8210 C.3   1 <1>   0.3430 
  6 C       -1.1850     1.3190    -0.3000 C.3   1 <1>  -0.2400 
  7 C       -0.5420    -2.8510    -0.1970 C.3   1 <1>  -0.2400 
  8 N        4.1060     0.5360    -0.7940 N.4   1 <1>  -0.9590 
  9 C        4.8130     0.5640     0.5280 C.3   1 <1>   0.4860 
 10 C        3.9280     1.9210    -1.3550 C.3   1 <1>   0.2630 
 11 C        6.2080     1.1090     0.3080 C.ar  1 <1>  -0.1440 
 12 C        7.1850     0.3220    -0.2860 C.ar  1 <1>  -0.1500 
 13 C        6.5260     2.4030     0.6950 C.ar  1 <1>  -0.1500 
 14 C        8.4520     0.8310    -0.5010 C.ar  1 <1>  -0.1500 
 15 C        7.7970     2.9020     0.4770 C.ar  1 <1>  -0.1500 
 16 C        8.7820     2.1290    -0.1260 C.ar  1 <1>   0.0000 
 17 C       10.1090     2.6550    -0.3510 C.ar  1 <1>   0.0000 
 18 C       11.2270     2.0360     0.2020 C.ar  1 <1>  -0.1500 
 19 C       10.3100     3.7940    -1.1260 C.ar  1 <1>  -0.1500 
 20 C       12.5000     2.5340    -0.0110 C.ar  1 <1>  -0.1500 
 21 C       11.5800     4.2980    -1.3420 C.ar  1 <1>  -0.1500 
 22 C       12.6780     3.6670    -0.7840 C.ar  1 <1>  -0.1500 
 23 H        0.1250    -0.6680    -1.0870 H     1 <1>   0.4500 
 24 H        1.9630     0.2380     1.0750 H     1 <1>   0.0800 
 25 H        1.4720     1.2380    -0.2640 H     1 <1>   0.0800 
 26 H       -0.4860     0.4660     1.5470 H     1 <1>   0.0800 
 27 H       -1.5970    -0.5370     0.6530 H     1 <1>   0.0800 
 28 H        0.3640    -1.9490     1.5300 H     1 <1>   0.0800 
 29 H        1.4780    -2.3690     0.2520 H     1 <1>   0.0800 
 30 H        2.5190    -0.3810    -1.8440 H     1 <1>   0.0800 
 31 H        3.1020    -1.3030    -0.4880 H     1 <1>   0.0800 
 32 H       -0.4280     2.0800    -0.3450 H     1 <1>   0.0800 
 33 H       -2.0610     1.7650     0.1400 H     1 <1>   0.0800 
 34 H       -1.4480     1.0020    -1.2940 H     1 <1>   0.0800 
 35 H       -1.5430    -2.5340     0.0370 H     1 <1>   0.0800 
 36 H       -0.4290    -3.8550     0.1740 H     1 <1>   0.0800 
 37 H       -0.4130    -2.8800    -1.2640 H     1 <1>   0.0800 
 38 H        4.7990     0.0890    -1.4200 H     1 <1>   0.4500 
 39 H        4.8900    -0.4310     0.9350 H     1 <1>   0.0800 
 40 H        4.2850     1.1870     1.2310 H     1 <1>   0.0800 
 41 H        3.2960     2.5170    -0.7180 H     1 <1>   0.0800 
 42 H        3.4900     1.8770    -2.3400 H     1 <1>   0.0800 
 43 H        4.8850     2.4150    -1.4400 H     1 <1>   0.0800 
 44 H        6.9850    -0.6930    -0.5850 H     1 <1>   0.1500 
 45 H        5.8010     3.0390     1.1740 H     1 <1>   0.1500 
 46 H        9.2070     0.2200    -0.9650 H     1 <1>   0.1500 
 47 H        8.0410     3.9050     0.7840 H     1 <1>   0.1500 
 48 H       11.0960     1.1580     0.8080 H     1 <1>   0.1500 
 49 H        9.4630     4.2890    -1.5660 H     1 <1>   0.1500 
 50 H       13.3520     2.0430     0.4250 H     1 <1>   0.1500 
 51 H       11.7160     5.1790    -1.9440 H     1 <1>   0.1500 
 52 H       13.6670     4.0570    -0.9510 H     1 <1>   0.1500 
@<TRIPOS>BOND
  1   1   2  1   
  2   1   3  1   
  3   1   4  1   
  4   1  23  1   
  5   2   5  1   
  6   2  24  1   
  7   2  25  1   
  8   3   6  1   
  9   3  26  1   
 10   3  27  1   
 11   4   7  1   
 12   4  28  1   
 13   4  29  1   
 14   5   8  1   
 15   5  30  1   
 16   5  31  1   
 17   6  32  1   
 18   6  33  1   
 19   6  34  1   
 20   7  35  1   
 21   7  36  1   
 22   7  37  1   
 23   8   9  1   
 24   8  10  1   
 25   8  38  1   
 26   9  11  1   
 27   9  39  1   
 28   9  40  1   
 29  10  41  1   
 30  10  42  1   
 31  10  43  1   
 32  11  12  ar  
 33  11  13  ar  
 34  12  14  ar  
 35  12  44  1   
 36  13  15  ar  
 37  13  45  1   
 38  14  16  ar  
 39  14  46  1   
 40  15  16  ar  
 41  15  47  1   
 42  16  17  1   
 43  17  18  ar  
 44  17  19  ar  
 45  18  20  ar  
 46  18  48  1   
 47  19  21  ar  
 48  19  49  1   
 49  20  22  ar  
 50  20  50  1   
 51  21  22  ar  
 52  21  51  1   
 53  22  52  1   
@<TRIPOS>SUBSTRUCTURE
  1 ****  11 GROUP 4 **** **** 0

# MOE 2024.06 (io_trps.svl 2023.06)
