@<TRIPOS>MOLECULE
NONAME
48 50 1 0 0 
SMALL
USER_CHARGES


@<TRIPOS>ATOM
  1 O        1.9930    -5.3710     0.0230 O.3   1 <1>  -0.3630 
  2 C        0.6440    -5.4170    -0.1150 C.ar  1 <1>   0.0820 
  3 C        2.8070    -6.4250    -0.4250 C.3   1 <1>   0.1200 
  4 C       -0.0400    -6.4630    -0.7280 C.ar  1 <1>  -0.1500 
  5 C       -0.0710    -4.3450     0.3950 C.ar  1 <1>  -0.1500 
  6 C        4.2500    -6.0490    -0.0860 C.3   1 <1>   0.3430 
  7 C       -1.4200    -6.4250    -0.8220 C.ar  1 <1>  -0.1500 
  8 C       -1.4510    -4.3120     0.2990 C.ar  1 <1>  -0.1500 
  9 N        5.2150    -7.1060    -0.5170 N.4   1 <1>  -0.9060 
 10 C       -2.1360    -5.3530    -0.3100 C.ar  1 <1>  -0.1430 
 11 C        6.6180    -6.7840    -0.1920 C.3   1 <1>   0.4230 
 12 C       -3.6570    -5.3200    -0.4210 C.3   1 <1>   0.1270 
 13 C        7.5040    -7.8240    -0.8650 C.3   1 <1>  -0.1600 
 14 C        6.8670    -7.0400     1.2910 C.3   1 <1>  -0.1600 
 15 C       -4.2950    -6.6100     0.0820 C.ar  1 <1>  -0.1430 
 16 C        7.4600    -9.0620     0.0410 C.3   1 <1>  -0.1600 
 17 C        7.0520    -8.5560     1.4300 C.3   1 <1>  -0.1600 
 18 C       -4.0560    -7.0450     1.3760 C.ar  1 <1>  -0.1500 
 19 C       -5.1210    -7.3600    -0.7430 C.ar  1 <1>  -0.1500 
 20 C       -4.6340    -8.2140     1.8420 C.ar  1 <1>  -0.1500 
 21 C       -5.7000    -8.5280    -0.2790 C.ar  1 <1>  -0.1500 
 22 C       -5.4570    -8.9560     1.0140 C.ar  1 <1>  -0.1500 
 23 H        2.6690    -6.5240    -1.4870 H     1 <1>   0.0800 
 24 H        2.5060    -7.3200     0.0920 H     1 <1>   0.0800 
 25 H        0.4690    -7.3140    -1.1370 H     1 <1>   0.1500 
 26 H        0.4550    -3.5360     0.8680 H     1 <1>   0.1500 
 27 H        4.3230    -5.9020     0.9800 H     1 <1>   0.0800 
 28 H        4.4890    -5.1190    -0.5760 H     1 <1>   0.0800 
 29 H       -1.9460    -7.2400    -1.2920 H     1 <1>   0.1500 
 30 H       -1.9860    -3.4700     0.7020 H     1 <1>   0.1500 
 31 H        5.1470    -7.2570    -1.5300 H     1 <1>   0.4500 
 32 H        5.0090    -8.0010    -0.0590 H     1 <1>   0.4500 
 33 H        6.8710    -5.7780    -0.4930 H     1 <1>   0.0800 
 34 H       -3.9210    -5.1530    -1.4500 H     1 <1>   0.0800 
 35 H       -4.0510    -4.5000     0.1510 H     1 <1>   0.0800 
 36 H        8.5130    -7.4480    -0.8760 H     1 <1>   0.0800 
 37 H        7.2180    -8.0400    -1.8800 H     1 <1>   0.0800 
 38 H        6.0990    -6.6560     1.9380 H     1 <1>   0.0800 
 39 H        7.7940    -6.5600     1.5610 H     1 <1>   0.0800 
 40 H        8.4220    -9.5470     0.0700 H     1 <1>   0.0800 
 41 H        6.7350    -9.7730    -0.3210 H     1 <1>   0.0800 
 42 H        6.1340    -9.0250     1.7410 H     1 <1>   0.0800 
 43 H        7.8110    -8.7810     2.1630 H     1 <1>   0.0800 
 44 H       -3.4140    -6.4750     2.0250 H     1 <1>   0.1500 
 45 H       -5.3190    -7.0400    -1.7510 H     1 <1>   0.1500 
 46 H       -4.4420    -8.5440     2.8480 H     1 <1>   0.1500 
 47 H       -6.3400    -9.1050    -0.9240 H     1 <1>   0.1500 
 48 H       -5.9070    -9.8640     1.3750 H     1 <1>   0.1500 
@<TRIPOS>BOND
  1   1   2  1   
  2   1   3  1   
  3   2   4  ar  
  4   2   5  ar  
  5   3   6  1   
  6   3  23  1   
  7   3  24  1   
  8   4   7  ar  
  9   4  25  1   
 10   5   8  ar  
 11   5  26  1   
 12   6   9  1   
 13   6  27  1   
 14   6  28  1   
 15   7  10  ar  
 16   7  29  1   
 17   8  10  ar  
 18   8  30  1   
 19   9  11  1   
 20   9  31  1   
 21   9  32  1   
 22  10  12  1   
 23  11  13  1   
 24  11  14  1   
 25  11  33  1   
 26  12  15  1   
 27  12  34  1   
 28  12  35  1   
 29  13  16  1   
 30  13  36  1   
 31  13  37  1   
 32  14  17  1   
 33  14  38  1   
 34  14  39  1   
 35  15  18  ar  
 36  15  19  ar  
 37  16  17  1   
 38  16  40  1   
 39  16  41  1   
 40  17  42  1   
 41  17  43  1   
 42  18  20  ar  
 43  18  44  1   
 44  19  21  ar  
 45  19  45  1   
 46  20  22  ar  
 47  20  46  1   
 48  21  22  ar  
 49  21  47  1   
 50  22  48  1   
@<TRIPOS>SUBSTRUCTURE
  1 ****   4 GROUP 4 **** **** 0

# MOE 2024.06 (io_trps.svl 2023.06)
