@<TRIPOS>MOLECULE
NONAME
54 57 1 0 0 
SMALL
USER_CHARGES


@<TRIPOS>ATOM
  1 S        0.4290     0.1620     1.3050 S.3   1 <1>  -0.3320 
  2 C        1.4320     1.5850     0.8910 C.ar  1 <1>   0.7220 
  3 C       -1.3190     0.7670     1.3680 C.3   1 <1>   0.0700 
  4 N        0.8040     2.7530     0.7820 N.ar  1 <1>  -0.3100 
  5 N        2.7050     1.3410     0.7410 N.ar  1 <1>  -0.6200 
  6 C       -1.8700     0.8130    -0.0600 C.3   1 <1>  -0.1600 
  7 N        1.4980     3.8120     0.4800 N.ar  1 <1>  -0.3100 
  8 C        3.4050     2.4160     0.4310 C.ar  1 <1>   0.3930 
  9 C       -3.3260     1.2870    -0.0750 C.3   1 <1>  -0.2400 
 10 C        2.8210     3.6980     0.2910 C.ar  1 <1>   0.3100 
 11 O        4.7030     2.1040     0.2860 O.3   1 <1>  -0.3630 
 12 C        3.5000     4.9460    -0.0500 C.ar  1 <1>   0.0000 
 13 C        5.7160     3.0410     0.1320 C.3   1 <1>   0.7130 
 14 C        4.7070     4.9810    -0.7680 C.ar  1 <1>   0.1000 
 15 C        2.9460     6.1850     0.2980 C.ar  1 <1>  -0.1500 
 16 N        5.3840     3.8190    -1.0480 N.pl3 1 <1>  -0.8690 
 17 C        7.0520     2.3480    -0.0970 C.ar  1 <1>  -0.1430 
 18 C        5.2690     6.1860    -1.1670 C.ar  1 <1>  -0.1500 
 19 C        3.5200     7.3830    -0.0800 C.ar  1 <1>  -0.1500 
 20 C        8.2010     2.8510     0.4950 C.ar  1 <1>  -0.1500 
 21 C        7.1540     1.2230    -0.9010 C.ar  1 <1>  -0.1500 
 22 C        4.6830     7.3860    -0.8260 C.ar  1 <1>  -0.1500 
 23 C        9.4360     2.2530     0.3030 C.ar  1 <1>   0.0830 
 24 C        8.3800     0.6160    -1.1110 C.ar  1 <1>  -0.1500 
 25 O       10.4620     2.8620     0.9630 O.3   1 <1>  -0.3630 
 26 C        9.5380     1.1200    -0.5230 C.ar  1 <1>   0.0830 
 27 C       11.6050     2.1500     1.3750 C.3   1 <1>   0.1200 
 28 O       10.7550     0.5460    -0.7510 O.3   1 <1>  -0.3630 
 29 C       12.3020     2.9640     2.4610 C.3   1 <1>  -0.2400 
 30 C       10.9210    -0.5450    -1.6300 C.3   1 <1>   0.0400 
 31 H       -1.3240     1.7340     1.8390 H     1 <1>   0.0800 
 32 H       -1.8670     0.0660     1.9730 H     1 <1>   0.0800 
 33 H       -1.8090    -0.1690    -0.4960 H     1 <1>   0.0800 
 34 H       -1.2740     1.4840    -0.6560 H     1 <1>   0.0800 
 35 H       -3.9460     0.6200     0.4980 H     1 <1>   0.0800 
 36 H       -3.6930     1.3110    -1.0860 H     1 <1>   0.0800 
 37 H       -3.4030     2.2770     0.3390 H     1 <1>   0.0800 
 38 H        5.7480     3.6550     1.0170 H     1 <1>   0.0800 
 39 H        2.0360     6.2250     0.8710 H     1 <1>   0.1500 
 40 H        6.2290     3.9150    -1.6180 H     1 <1>   0.4000 
 41 H        6.1780     6.1850    -1.7400 H     1 <1>   0.1500 
 42 H        3.0590     8.3160     0.1990 H     1 <1>   0.1500 
 43 H        8.1550     3.7230     1.1220 H     1 <1>   0.1500 
 44 H        6.2720     0.8160    -1.3690 H     1 <1>   0.1500 
 45 H        5.1270     8.3180    -1.1340 H     1 <1>   0.1500 
 46 H        8.4020    -0.2510    -1.7420 H     1 <1>   0.1500 
 47 H       12.2510     2.0240     0.5230 H     1 <1>   0.0800 
 48 H       11.2960     1.1910     1.7530 H     1 <1>   0.0800 
 49 H       12.5920     3.9240     2.0730 H     1 <1>   0.0800 
 50 H       13.1840     2.4460     2.7920 H     1 <1>   0.0800 
 51 H       11.6450     3.0970     3.3010 H     1 <1>   0.0800 
 52 H       11.9670    -0.7930    -1.6610 H     1 <1>   0.0800 
 53 H       10.5860    -0.2570    -2.6110 H     1 <1>   0.0800 
 54 H       10.3590    -1.3830    -1.2580 H     1 <1>   0.0800 
@<TRIPOS>BOND
  1   1   2  1   
  2   1   3  1   
  3   2   4  ar  
  4   2   5  ar  
  5   3   6  1   
  6   3  31  1   
  7   3  32  1   
  8   4   7  ar  
  9   5   8  ar  
 10   6   9  1   
 11   6  33  1   
 12   6  34  1   
 13   7  10  ar  
 14   8  10  ar  
 15   8  11  1   
 16   9  35  1   
 17   9  36  1   
 18   9  37  1   
 19  10  12  1   
 20  11  13  1   
 21  12  14  ar  
 22  12  15  ar  
 23  13  16  1   
 24  13  17  1   
 25  13  38  1   
 26  14  16  1   
 27  14  18  ar  
 28  15  19  ar  
 29  15  39  1   
 30  16  40  1   
 31  17  20  ar  
 32  17  21  ar  
 33  18  22  ar  
 34  18  41  1   
 35  19  22  ar  
 36  19  42  1   
 37  20  23  ar  
 38  20  43  1   
 39  21  24  ar  
 40  21  44  1   
 41  22  45  1   
 42  23  25  1   
 43  23  26  ar  
 44  24  26  ar  
 45  24  46  1   
 46  25  27  1   
 47  26  28  1   
 48  27  29  1   
 49  27  47  1   
 50  27  48  1   
 51  28  30  1   
 52  29  49  1   
 53  29  50  1   
 54  29  51  1   
 55  30  52  1   
 56  30  53  1   
 57  30  54  1   
@<TRIPOS>SUBSTRUCTURE
  1 ****  13 GROUP 4 **** **** 0

# MOE 2024.06 (io_trps.svl 2023.06)
