@<TRIPOS>MOLECULE
NONAME
49 52 1 0 0 
SMALL
USER_CHARGES


@<TRIPOS>ATOM
  1 S       -0.2380    -0.1240     1.2830 S.o2  1 <1>   1.3330 
  2 O        0.5490     0.9030     1.9140 O.2   1 <1>  -0.6500 
  3 O       -0.3650    -1.4400     1.8580 O.2   1 <1>  -0.6500 
  4 N       -1.8020     0.5660     1.1550 N.am  1 <1>  -0.7570 
  5 C        0.2540    -0.2480    -0.4220 C.3   1 <1>  -0.1350 
  6 C       -3.0190     0.0070     0.7610 C.ar  1 <1>   0.1990 
  7 C       -4.1350     0.8190     0.7130 C.ar  1 <1>  -0.1500 
  8 C       -3.1490    -1.3500     0.4070 C.ar  1 <1>  -0.1500 
  9 C       -5.3610     0.2950     0.3150 C.ar  1 <1>   0.2270 
 10 C       -4.3560    -1.8800     0.0110 C.ar  1 <1>  -0.1500 
 11 N       -6.5700     0.9140     0.2070 N.2   1 <1>  -0.5650 
 12 C       -5.4680    -1.0370    -0.0340 C.ar  1 <1>  -0.1520 
 13 C       -7.3660    -0.0120    -0.1920 C.2   1 <1>   0.0060 
 14 N       -6.7730    -1.2220    -0.3650 N.pl3 1 <1>   0.0480 
 15 C       -8.8490     0.1770    -0.4500 C.3   1 <1>   0.5230 
 16 C       -7.4700    -2.4930    -0.6370 C.3   1 <1>   0.0960 
 17 N       -9.5640    -1.1220    -0.2450 N.4   1 <1>  -0.9590 
 18 C       -8.9320    -2.2350    -1.0410 C.3   1 <1>   0.3430 
 19 C      -11.0350    -0.9990    -0.4170 C.3   1 <1>   0.5660 
 20 C      -11.6600    -2.2860     0.1110 C.ar  1 <1>  -0.1430 
 21 C      -11.4160    -0.6530    -1.8600 C.3   1 <1>  -0.2400 
 22 C      -11.8530    -2.4030     1.4820 C.ar  1 <1>  -0.1500 
 23 C      -12.0310    -3.3470    -0.7110 C.ar  1 <1>  -0.1500 
 24 C      -12.3920    -3.5570     2.0220 C.ar  1 <1>  -0.1500 
 25 C      -12.5700    -4.5000    -0.1690 C.ar  1 <1>  -0.1500 
 26 C      -12.7480    -4.6070     1.1980 C.ar  1 <1>  -0.1500 
 27 H       -1.8050     1.4950     1.5650 H     1 <1>   0.4200 
 28 H        0.2310     0.7180    -0.8860 H     1 <1>   0.0800 
 29 H       -0.4060    -0.9040    -0.9540 H     1 <1>   0.0800 
 30 H        1.2520    -0.6370    -0.4890 H     1 <1>   0.0800 
 31 H       -4.0850     1.8580     0.9760 H     1 <1>   0.1500 
 32 H       -2.2920    -1.9950     0.4530 H     1 <1>   0.1500 
 33 H       -4.4400    -2.9190    -0.2530 H     1 <1>   0.1500 
 34 H       -8.9810     0.5220    -1.4620 H     1 <1>   0.0800 
 35 H       -9.2270     0.9310     0.2210 H     1 <1>   0.0800 
 36 H       -7.4380    -3.0970     0.2530 H     1 <1>   0.0800 
 37 H       -6.9560    -3.0200    -1.4210 H     1 <1>   0.0800 
 38 H       -9.4370    -1.3620     0.7470 H     1 <1>   0.4500 
 39 H       -9.4900    -3.1490    -0.9100 H     1 <1>   0.0800 
 40 H       -8.9610    -1.9860    -2.0900 H     1 <1>   0.0800 
 41 H      -11.3900    -0.1960     0.2110 H     1 <1>   0.0800 
 42 H      -11.0300    -1.3610    -2.5690 H     1 <1>   0.0800 
 43 H      -11.0800     0.3330    -2.1210 H     1 <1>   0.0800 
 44 H      -12.4890    -0.6550    -1.9440 H     1 <1>   0.0800 
 45 H      -11.5950    -1.6010     2.1530 H     1 <1>   0.1500 
 46 H      -11.9170    -3.3060    -1.7800 H     1 <1>   0.1500 
 47 H      -12.5400    -3.6420     3.0860 H     1 <1>   0.1500 
 48 H      -12.8580    -5.3180    -0.8080 H     1 <1>   0.1500 
 49 H      -13.1710    -5.5050     1.6180 H     1 <1>   0.1500 
@<TRIPOS>BOND
  1   1   2  2   
  2   1   3  2   
  3   1   4  am  
  4   1   5  1   
  5   4   6  1   
  6   4  27  1   
  7   5  28  1   
  8   5  29  1   
  9   5  30  1   
 10   6   7  ar  
 11   6   8  ar  
 12   7   9  ar  
 13   7  31  1   
 14   8  10  ar  
 15   8  32  1   
 16   9  11  1   
 17   9  12  ar  
 18  10  12  ar  
 19  10  33  1   
 20  11  13  2   
 21  12  14  1   
 22  13  14  1   
 23  13  15  1   
 24  14  16  1   
 25  15  17  1   
 26  15  34  1   
 27  15  35  1   
 28  16  18  1   
 29  16  36  1   
 30  16  37  1   
 31  17  18  1   
 32  17  19  1   
 33  17  38  1   
 34  18  39  1   
 35  18  40  1   
 36  19  20  1   
 37  19  21  1   
 38  19  41  1   
 39  20  22  ar  
 40  20  23  ar  
 41  21  42  1   
 42  21  43  1   
 43  21  44  1   
 44  22  24  ar  
 45  22  45  1   
 46  23  25  ar  
 47  23  46  1   
 48  24  26  ar  
 49  24  47  1   
 50  25  26  ar  
 51  25  48  1   
 52  26  49  1   
@<TRIPOS>SUBSTRUCTURE
  1 ****  14 GROUP 4 **** **** 0

# MOE 2024.06 (io_trps.svl 2023.06)
