@<TRIPOS>MOLECULE
NONAME
44 45 1 0 0 
SMALL
USER_CHARGES


@<TRIPOS>ATOM
  1 CL      -0.0470     0.3330    -0.5340 Cl    1 <1>  -0.1770 
  2 C        1.6070     0.8590    -0.3480 C.ar  1 <1>   0.1770 
  3 C        2.6340    -0.0050    -0.6800 C.ar  1 <1>  -0.1500 
  4 C        1.8640     2.1320     0.1280 C.ar  1 <1>  -0.1500 
  5 C        3.9480     0.4100    -0.5340 C.ar  1 <1>  -0.1500 
  6 C        3.1780     2.5430     0.2730 C.ar  1 <1>  -0.1500 
  7 C        4.2230     1.6910    -0.0540 C.ar  1 <1>   0.0830 
  8 O        5.4770     2.1780     0.1200 O.3   1 <1>  -0.3630 
  9 C        6.6150     1.4040    -0.1750 C.3   1 <1>   0.1200 
 10 C        7.8440     2.2600     0.1390 C.3   1 <1>  -0.1600 
 11 C        9.1540     1.5090    -0.1410 C.3   1 <1>  -0.1600 
 12 C       10.3570     2.4000     0.1790 C.3   1 <1>   0.3430 
 13 N       11.6290     1.7170    -0.1860 N.4   1 <1>  -0.9590 
 14 C       11.9590     0.5920     0.7420 C.3   1 <1>   0.3430 
 15 C       12.7470     2.7040    -0.2530 C.3   1 <1>   0.3430 
 16 C       13.2070    -0.1370     0.2450 C.3   1 <1>  -0.1600 
 17 C       14.0110     2.0190    -0.7720 C.3   1 <1>  -0.1600 
 18 C       14.4010     0.8170     0.0990 C.3   1 <1>  -0.0800 
 19 C       15.6080     0.0850    -0.4980 C.3   1 <1>  -0.2400 
 20 H        2.4030    -0.9880    -1.0480 H     1 <1>   0.1500 
 21 H        1.0490     2.7850     0.3790 H     1 <1>   0.1500 
 22 H        4.7330    -0.2720    -0.7960 H     1 <1>   0.1500 
 23 H        3.4010     3.5290     0.6420 H     1 <1>   0.1500 
 24 H        6.5830     1.1390    -1.2180 H     1 <1>   0.0800 
 25 H        6.5910     0.5210     0.4390 H     1 <1>   0.0800 
 26 H        7.8040     2.5470     1.1770 H     1 <1>   0.0800 
 27 H        7.8000     3.1520    -0.4640 H     1 <1>   0.0800 
 28 H        9.1780     1.2270    -1.1790 H     1 <1>   0.0800 
 29 H        9.1750     0.6200     0.4650 H     1 <1>   0.0800 
 30 H       10.3590     2.6540     1.2280 H     1 <1>   0.0800 
 31 H       10.2650     3.3140    -0.3850 H     1 <1>   0.0800 
 32 H       11.5240     1.3190    -1.1280 H     1 <1>   0.4500 
 33 H       11.1390    -0.1050     0.7910 H     1 <1>   0.0800 
 34 H       12.1380     0.9770     1.7330 H     1 <1>   0.0800 
 35 H       12.9360     3.1110     0.7280 H     1 <1>   0.0800 
 36 H       12.4850     3.5170    -0.9120 H     1 <1>   0.0800 
 37 H       12.9910    -0.6110    -0.6970 H     1 <1>   0.0800 
 38 H       13.4570    -0.9150     0.9460 H     1 <1>   0.0800 
 39 H       14.8170     2.7330    -0.7750 H     1 <1>   0.0800 
 40 H       13.8540     1.7080    -1.7900 H     1 <1>   0.0800 
 41 H       14.6780     1.1760     1.0780 H     1 <1>   0.0800 
 42 H       15.3850    -0.2940    -1.4800 H     1 <1>   0.0800 
 43 H       15.8940    -0.7410     0.1300 H     1 <1>   0.0800 
 44 H       16.4510     0.7510    -0.5740 H     1 <1>   0.0800 
@<TRIPOS>BOND
  1   1   2  1   
  2   2   3  ar  
  3   2   4  ar  
  4   3   5  ar  
  5   3  20  1   
  6   4   6  ar  
  7   4  21  1   
  8   5   7  ar  
  9   5  22  1   
 10   6   7  ar  
 11   6  23  1   
 12   7   8  1   
 13   8   9  1   
 14   9  10  1   
 15   9  24  1   
 16   9  25  1   
 17  10  11  1   
 18  10  26  1   
 19  10  27  1   
 20  11  12  1   
 21  11  28  1   
 22  11  29  1   
 23  12  13  1   
 24  12  30  1   
 25  12  31  1   
 26  13  14  1   
 27  13  15  1   
 28  13  32  1   
 29  14  16  1   
 30  14  33  1   
 31  14  34  1   
 32  15  17  1   
 33  15  35  1   
 34  15  36  1   
 35  16  18  1   
 36  16  37  1   
 37  16  38  1   
 38  17  18  1   
 39  17  39  1   
 40  17  40  1   
 41  18  19  1   
 42  18  41  1   
 43  19  42  1   
 44  19  43  1   
 45  19  44  1   
@<TRIPOS>SUBSTRUCTURE
  1 ****  10 GROUP 4 **** **** 0

# MOE 2024.06 (io_trps.svl 2023.06)
