@<TRIPOS>MOLECULE
NONAME
46 48 1 0 0 
SMALL
USER_CHARGES


@<TRIPOS>ATOM
  1 F       -0.1280    -2.1510     1.8080 F     1 <1>  -0.1900 
  2 C       -1.1660    -2.0490     1.0100 C.ar  1 <1>   0.1900 
  3 C       -1.1730    -2.7460    -0.2050 C.ar  1 <1>   0.1000 
  4 C       -2.2120    -1.2470     1.4210 C.ar  1 <1>  -0.1500 
  5 N       -0.1330    -3.5700    -0.6590 N.pl3 1 <1>  -0.8380 
  6 C       -2.2980    -2.5980    -1.0050 C.ar  1 <1>  -0.1500 
  7 C       -3.3200    -1.1210     0.5990 C.ar  1 <1>  -0.1500 
  8 C        1.1160    -2.8990    -1.1340 C.3   1 <1>   0.2090 
  9 C        0.0430    -4.8900     0.0200 C.3   1 <1>   0.2090 
 10 C       -3.3590    -1.7970    -0.6110 C.ar  1 <1>  -0.1500 
 11 C        2.2340    -2.9200    -0.0700 C.3   1 <1>   0.3430 
 12 C        1.1860    -4.8690     1.0590 C.3   1 <1>   0.3430 
 13 N        2.4640    -4.2940     0.5110 N.4   1 <1>  -0.9590 
 14 C        3.5460    -4.2770     1.5290 C.3   1 <1>   0.4860 
 15 C        4.8340    -3.8610     0.8460 C.ar  1 <1>  -0.1430 
 16 C        5.5600    -4.7380     0.0440 C.ar  1 <1>  -0.1430 
 17 C        5.2820    -2.5590     1.0250 C.ar  1 <1>  -0.1500 
 18 C        6.7080    -4.2820    -0.5830 C.ar  1 <1>  -0.1500 
 19 C        5.1530    -6.1920    -0.1710 C.3   1 <1>  -0.0970 
 20 C        6.4300    -2.1110     0.3960 C.ar  1 <1>  -0.1430 
 21 C        7.1390    -2.9800    -0.4110 C.ar  1 <1>  -0.1500 
 22 C        6.9170    -0.6860     0.5940 C.3   1 <1>  -0.0970 
 23 H       -2.1640    -0.7300     2.3630 H     1 <1>   0.1500 
 24 H       -2.3380    -3.1180    -1.9450 H     1 <1>   0.1500 
 25 H       -4.1480    -0.5010     0.8980 H     1 <1>   0.1500 
 26 H        0.8960    -1.8770    -1.3950 H     1 <1>   0.0800 
 27 H        1.4600    -3.3900    -2.0280 H     1 <1>   0.0800 
 28 H        0.2460    -5.6400    -0.7250 H     1 <1>   0.0800 
 29 H       -0.8760    -5.1640     0.5100 H     1 <1>   0.0800 
 30 H       -4.2200    -1.6990    -1.2490 H     1 <1>   0.1500 
 31 H        1.9620    -2.2370     0.7170 H     1 <1>   0.0800 
 32 H        3.1430    -2.5540    -0.5200 H     1 <1>   0.0800 
 33 H        1.3550    -5.8730     1.4100 H     1 <1>   0.0800 
 34 H        0.8600    -4.2800     1.9000 H     1 <1>   0.0800 
 35 H        2.7980    -4.8830    -0.2600 H     1 <1>   0.4500 
 36 H        3.6700    -5.2560     1.9620 H     1 <1>   0.0800 
 37 H        3.3060    -3.5830     2.3180 H     1 <1>   0.0800 
 38 H        4.7410    -1.8760     1.6590 H     1 <1>   0.1500 
 39 H        7.2860    -4.9390    -1.2120 H     1 <1>   0.1500 
 40 H        4.3450    -6.2570    -0.8770 H     1 <1>   0.0800 
 41 H        4.8620    -6.6520     0.7550 H     1 <1>   0.0800 
 42 H        5.9800    -6.7580    -0.5630 H     1 <1>   0.0800 
 43 H        8.0360    -2.6490    -0.9060 H     1 <1>   0.1500 
 44 H        6.0950    -0.0270     0.8090 H     1 <1>   0.0800 
 45 H        7.4110    -0.3320    -0.2930 H     1 <1>   0.0800 
 46 H        7.6130    -0.6510     1.4130 H     1 <1>   0.0800 
@<TRIPOS>BOND
  1   1   2  1   
  2   2   3  ar  
  3   2   4  ar  
  4   3   5  1   
  5   3   6  ar  
  6   4   7  ar  
  7   4  23  1   
  8   5   8  1   
  9   5   9  1   
 10   6  10  ar  
 11   6  24  1   
 12   7  10  ar  
 13   7  25  1   
 14   8  11  1   
 15   8  26  1   
 16   8  27  1   
 17   9  12  1   
 18   9  28  1   
 19   9  29  1   
 20  10  30  1   
 21  11  13  1   
 22  11  31  1   
 23  11  32  1   
 24  12  13  1   
 25  12  33  1   
 26  12  34  1   
 27  13  14  1   
 28  13  35  1   
 29  14  15  1   
 30  14  36  1   
 31  14  37  1   
 32  15  16  ar  
 33  15  17  ar  
 34  16  18  ar  
 35  16  19  1   
 36  17  20  ar  
 37  17  38  1   
 38  18  21  ar  
 39  18  39  1   
 40  19  40  1   
 41  19  41  1   
 42  19  42  1   
 43  20  21  ar  
 44  20  22  1   
 45  21  43  1   
 46  22  44  1   
 47  22  45  1   
 48  22  46  1   
@<TRIPOS>SUBSTRUCTURE
  1 ****  11 GROUP 4 **** **** 0

# MOE 2024.06 (io_trps.svl 2023.06)
