@<TRIPOS>MOLECULE
NONAME
51 54 1 0 0 
SMALL
USER_CHARGES


@<TRIPOS>ATOM
  1 S       -3.9570     1.3410    -2.9180 S.3   1 <1>  -0.0880 
  2 C       -5.4550     1.4700    -1.9990 C.2   1 <1>  -0.1470 
  3 C       -4.6910     0.2180    -4.0460 C.2   1 <1>  -0.1170 
  4 C       -6.4110     0.7040    -2.5580 C.2   1 <1>  -0.1570 
  5 C       -5.4690     2.3590    -0.7670 C.3   1 <1>   0.3740 
  6 C       -5.9750    -0.0100    -3.7200 C.2   1 <1>  -0.1570 
  7 O       -5.0800     3.6250    -1.1560 O.3   1 <1>  -0.6840 
  8 C       -4.5100     1.8580     0.3330 C.3   1 <1>   0.3480 
  9 N       -4.9680     0.5900     0.9840 N.pl3 1 <1>  -0.7670 
 10 C       -4.7910    -0.6640     0.5660 C.cat 1 <1>   1.0690 
 11 C       -5.5250     0.5240     2.2530 C.ar  1 <1>   0.3030 
 12 N       -4.2930    -0.9830    -0.5960 N.pl3 1 <1>  -0.8390 
 13 N       -5.1980    -1.5470     1.4810 N.pl3 1 <1>  -0.7670 
 14 C       -5.6650    -0.8170     2.5690 C.ar  1 <1>   0.3030 
 15 C       -5.9200     1.5120     3.1500 C.ar  1 <1>  -0.1160 
 16 C       -5.3530    -3.0290     1.3450 C.3   1 <1>   0.3480 
 17 C       -6.1980    -1.2000     3.7960 C.ar  1 <1>  -0.1160 
 18 C       -6.4510     1.1310     4.3660 C.ar  1 <1>  -0.1570 
 19 C       -4.0290    -3.7810     1.0890 C.3   1 <1>   0.1030 
 20 C       -6.5890    -0.2200     4.6880 C.ar  1 <1>  -0.1570 
 21 N       -3.5230    -3.6250    -0.2930 N.3   1 <1>  -0.8130 
 22 C       -2.0770    -3.9390    -0.3550 C.3   1 <1>   0.1030 
 23 C       -4.2340    -4.5060    -1.2510 C.3   1 <1>   0.1030 
 24 C       -1.5420    -3.8210    -1.7940 C.3   1 <1>   0.1130 
 25 C       -3.6490    -4.3710    -2.6690 C.3   1 <1>   0.1130 
 26 O       -2.2790    -4.6370    -2.6580 O.3   1 <1>  -0.5640 
 27 H       -4.0780    -0.1530    -4.8510 H     1 <1>   0.1430 
 28 H       -7.4250     0.6000    -2.2070 H     1 <1>   0.1430 
 29 H       -6.4680     2.4390    -0.3730 H     1 <1>   0.0720 
 30 H       -6.6500    -0.6540    -4.2590 H     1 <1>   0.1430 
 31 H       -5.4800     3.8340    -2.0250 H     1 <1>   0.3940 
 32 H       -4.4200     2.6250     1.0820 H     1 <1>   0.0720 
 33 H       -3.5330     1.7060    -0.0900 H     1 <1>   0.0720 
 34 H       -4.0080    -1.9610    -0.7620 H     1 <1>   0.4450 
 35 H       -4.1350    -0.3300    -1.3610 H     1 <1>   0.4450 
 36 H       -5.8150     2.5530     2.9040 H     1 <1>   0.1430 
 37 H       -6.0540    -3.2450     0.5580 H     1 <1>   0.0720 
 38 H       -5.7740    -3.4180     2.2540 H     1 <1>   0.0720 
 39 H       -6.3060    -2.2370     4.0530 H     1 <1>   0.1430 
 40 H       -6.7640     1.8770     5.0790 H     1 <1>   0.1430 
 41 H       -4.1720    -4.8290     1.2930 H     1 <1>   0.0720 
 42 H       -3.2980    -3.4150     1.7920 H     1 <1>   0.0720 
 43 H       -7.0050    -0.4930     5.6450 H     1 <1>   0.1430 
 44 H       -1.9000    -4.9420    -0.0010 H     1 <1>   0.0720 
 45 H       -1.5300    -3.2610     0.2770 H     1 <1>   0.0720 
 46 H       -5.2780    -4.2540    -1.2840 H     1 <1>   0.0720 
 47 H       -4.1470    -5.5350    -0.9420 H     1 <1>   0.0720 
 48 H       -0.5170    -4.1420    -1.8380 H     1 <1>   0.0720 
 49 H       -1.6030    -2.8060    -2.1440 H     1 <1>   0.0720 
 50 H       -3.8040    -3.3790    -3.0570 H     1 <1>   0.0720 
 51 H       -4.1120    -5.0790    -3.3330 H     1 <1>   0.0720 
@<TRIPOS>BOND
  1   1   2  1   
  2   1   3  1   
  3   2   4  2   
  4   2   5  1   
  5   3   6  2   
  6   3  27  1   
  7   4   6  1   
  8   4  28  1   
  9   5   7  1   
 10   5   8  1   
 11   5  29  1   
 12   6  30  1   
 13   7  31  1   
 14   8   9  1   
 15   8  32  1   
 16   8  33  1   
 17   9  10  ar  
 18   9  11  1   
 19  10  12  ar  
 20  10  13  ar  
 21  11  14  ar  
 22  11  15  ar  
 23  12  34  1   
 24  12  35  1   
 25  13  14  1   
 26  13  16  1   
 27  14  17  ar  
 28  15  18  ar  
 29  15  36  1   
 30  16  19  1   
 31  16  37  1   
 32  16  38  1   
 33  17  20  ar  
 34  17  39  1   
 35  18  20  ar  
 36  18  40  1   
 37  19  21  1   
 38  19  41  1   
 39  19  42  1   
 40  20  43  1   
 41  21  22  1   
 42  21  23  1   
 43  22  24  1   
 44  22  44  1   
 45  22  45  1   
 46  23  25  1   
 47  23  46  1   
 48  23  47  1   
 49  24  26  1   
 50  24  48  1   
 51  24  49  1   
 52  25  26  1   
 53  25  50  1   
 54  25  51  1   
@<TRIPOS>SUBSTRUCTURE
  1 ****  10 GROUP 4 **** **** 0

# MOE 2024.06 (io_trps.svl 2023.06)
