@<TRIPOS>MOLECULE
NONAME
35 35 1 0 0 
SMALL
USER_CHARGES


@<TRIPOS>ATOM
  1 S        0.7000    -0.3590     0.9060 S.3   1 <1>  -0.3320 
  2 C        0.6540    -1.7690    -0.2300 C.ar  1 <1>   0.1020 
  3 C       -1.0440     0.1350     1.2760 C.3   1 <1>  -0.0100 
  4 C        1.8370    -2.2350    -0.8280 C.ar  1 <1>   0.0860 
  5 C       -0.5720    -2.3640    -0.4960 C.ar  1 <1>  -0.1500 
  6 C        3.1660    -1.6890    -0.5900 C.2   1 <1>   0.5440 
  7 C        1.7100    -3.3050    -1.7180 C.ar  1 <1>  -0.1500 
  8 C       -0.6540    -3.4270    -1.3750 C.ar  1 <1>  -0.1500 
  9 O        4.0060    -1.6920    -1.4710 O.2   1 <1>  -0.5700 
 10 N        3.5610    -1.2200     0.6320 N.am  1 <1>  -0.7300 
 11 C        0.4910    -3.8950    -1.9900 C.ar  1 <1>  -0.1500 
 12 C        4.7120    -0.3060     0.8910 C.3   1 <1>   0.1400 
 13 C        6.0320    -1.0740     1.0990 C.3   1 <1>   0.3430 
 14 N        6.4020    -1.8500    -0.1220 N.4   1 <1>  -0.9590 
 15 C        7.1070    -3.1230     0.1950 C.3   1 <1>   0.2630 
 16 C        7.1410    -1.0290    -1.1260 C.3   1 <1>   0.2630 
 17 H       -1.0080     1.0310     1.8700 H     1 <1>   0.0800 
 18 H       -1.5110    -0.6630     1.8240 H     1 <1>   0.0800 
 19 H       -1.5440     0.3200     0.3420 H     1 <1>   0.0800 
 20 H       -1.4760    -2.0210    -0.0340 H     1 <1>   0.1500 
 21 H        2.5880    -3.6840    -2.2120 H     1 <1>   0.1500 
 22 H       -1.6050    -3.8880    -1.5830 H     1 <1>   0.1500 
 23 H        2.7940    -1.1220     1.3120 H     1 <1>   0.3700 
 24 H        0.4300    -4.7200    -2.6810 H     1 <1>   0.1500 
 25 H        4.4990     0.2710     1.7750 H     1 <1>   0.0800 
 26 H        4.8150     0.3830     0.0700 H     1 <1>   0.0800 
 27 H        5.8990    -1.7450     1.9310 H     1 <1>   0.0800 
 28 H        6.8210    -0.3850     1.3490 H     1 <1>   0.0800 
 29 H        5.4840    -2.0780    -0.5730 H     1 <1>   0.4500 
 30 H        8.0540    -2.9210     0.6660 H     1 <1>   0.0800 
 31 H        7.2810    -3.6850    -0.7090 H     1 <1>   0.0800 
 32 H        6.5070    -3.7240     0.8590 H     1 <1>   0.0800 
 33 H        8.0870    -0.7050    -0.7260 H     1 <1>   0.0800 
 34 H        6.5580    -0.1640    -1.3980 H     1 <1>   0.0800 
 35 H        7.3180    -1.6080    -2.0180 H     1 <1>   0.0800 
@<TRIPOS>BOND
  1   1   2  1   
  2   1   3  1   
  3   2   4  ar  
  4   2   5  ar  
  5   3  17  1   
  6   3  18  1   
  7   3  19  1   
  8   4   6  1   
  9   4   7  ar  
 10   5   8  ar  
 11   5  20  1   
 12   6   9  2   
 13   6  10  am  
 14   7  11  ar  
 15   7  21  1   
 16   8  11  ar  
 17   8  22  1   
 18  10  12  1   
 19  10  23  1   
 20  11  24  1   
 21  12  13  1   
 22  12  25  1   
 23  12  26  1   
 24  13  14  1   
 25  13  27  1   
 26  13  28  1   
 27  14  15  1   
 28  14  16  1   
 29  14  29  1   
 30  15  30  1   
 31  15  31  1   
 32  15  32  1   
 33  16  33  1   
 34  16  34  1   
 35  16  35  1   
@<TRIPOS>SUBSTRUCTURE
  1 ****   6 GROUP 4 **** **** 0

# MOE 2024.06 (io_trps.svl 2023.06)
