@<TRIPOS>MOLECULE
NONAME
52 54 1 0 0 
SMALL
USER_CHARGES


@<TRIPOS>ATOM
  1 S       -0.2060    -0.1220     0.8600 S.o2  1 <1>   1.4470 
  2 O       -0.0020    -0.1190     2.2930 O.2   1 <1>  -0.6500 
  3 O       -0.4580     1.1290     0.1780 O.2   1 <1>  -0.6500 
  4 N        1.1970    -0.7840     0.1740 N.am  1 <1>  -0.8490 
  5 C       -1.4920    -1.3200     0.4060 C.ar  1 <1>  -0.0090 
  6 C        1.5900    -2.0410     0.8320 C.3   1 <1>   0.1960 
  7 C        2.3000     0.1800     0.2080 C.3   1 <1>   0.1960 
  8 C       -1.8840    -1.4750    -0.9190 C.ar  1 <1>  -0.1500 
  9 C       -2.0990    -2.1290     1.3610 C.ar  1 <1>  -0.1500 
 10 C        2.7540    -2.7000     0.0780 C.3   1 <1>  -0.0190 
 11 C        3.5180    -0.3780    -0.5370 C.3   1 <1>  -0.1600 
 12 C       -2.8450    -2.4040    -1.2780 C.ar  1 <1>  -0.1500 
 13 C       -3.0610    -3.0620     1.0130 C.ar  1 <1>  -0.1500 
 14 C        3.1310    -4.0340     0.7190 C.2   1 <1>   0.5690 
 15 C        3.9560    -1.7370     0.0260 C.3   1 <1>  -0.1600 
 16 C       -3.4400    -3.2050    -0.3180 C.ar  1 <1>   0.0830 
 17 O        2.9380    -4.1600     1.9070 O.2   1 <1>  -0.5700 
 18 N        3.6700    -5.0570    -0.0230 N.am  1 <1>  -0.6600 
 19 O       -4.3680    -4.0920    -0.7500 O.3   1 <1>  -0.3630 
 20 C        4.0500    -5.0000    -1.4700 C.3   1 <1>   0.1400 
 21 C        3.9710    -6.3860     0.5950 C.3   1 <1>   0.1400 
 22 C       -5.0390    -4.9500     0.1430 C.3   1 <1>   0.1200 
 23 C        5.4830    -5.5220    -1.6770 C.3   1 <1>   0.1200 
 24 C        5.4070    -6.8280     0.2690 C.3   1 <1>   0.1200 
 25 C       -6.0090    -5.8080    -0.6640 C.3   1 <1>  -0.2400 
 26 O        5.6330    -6.7920    -1.1110 O.3   1 <1>  -0.5600 
 27 H        0.7600    -2.7260     0.8440 H     1 <1>   0.0800 
 28 H        1.8760    -1.8470     1.8550 H     1 <1>   0.0800 
 29 H        2.5600     0.4020     1.2320 H     1 <1>   0.0800 
 30 H        1.9950     1.0990    -0.2660 H     1 <1>   0.0800 
 31 H       -1.4290    -0.8590    -1.6760 H     1 <1>   0.1500 
 32 H       -1.8130    -2.0270     2.3960 H     1 <1>   0.1500 
 33 H        2.3980    -2.8880    -0.9170 H     1 <1>   0.0800 
 34 H        4.3300     0.3240    -0.4630 H     1 <1>   0.0800 
 35 H        3.2660    -0.4770    -1.5790 H     1 <1>   0.0800 
 36 H       -3.1410    -2.5140    -2.3060 H     1 <1>   0.1500 
 37 H       -3.5010    -3.6630     1.7860 H     1 <1>   0.1500 
 38 H        4.7430    -2.1490    -0.5790 H     1 <1>   0.0800 
 39 H        4.3410    -1.6010     1.0230 H     1 <1>   0.0800 
 40 H        3.9940    -3.9990    -1.8520 H     1 <1>   0.0800 
 41 H        3.3700    -5.6120    -2.0360 H     1 <1>   0.0800 
 42 H        3.2820    -7.1180     0.2110 H     1 <1>   0.0800 
 43 H        3.8500    -6.3490     1.6630 H     1 <1>   0.0800 
 44 H       -5.5690    -4.3480     0.8610 H     1 <1>   0.0800 
 45 H       -4.3080    -5.5660     0.6380 H     1 <1>   0.0800 
 46 H        6.1990    -4.8570    -1.2250 H     1 <1>   0.0800 
 47 H        5.7010    -5.6040    -2.7270 H     1 <1>   0.0800 
 48 H        5.5680    -7.8380     0.6030 H     1 <1>   0.0800 
 49 H        6.1200    -6.1850     0.7560 H     1 <1>   0.0800 
 50 H       -6.7250    -5.1820    -1.1670 H     1 <1>   0.0800 
 51 H       -6.5380    -6.4750    -0.0080 H     1 <1>   0.0800 
 52 H       -5.4720    -6.3920    -1.3890 H     1 <1>   0.0800 
@<TRIPOS>BOND
  1   1   2  2   
  2   1   3  2   
  3   1   4  am  
  4   1   5  1   
  5   4   6  1   
  6   4   7  1   
  7   5   8  ar  
  8   5   9  ar  
  9   6  10  1   
 10   6  27  1   
 11   6  28  1   
 12   7  11  1   
 13   7  29  1   
 14   7  30  1   
 15   8  12  ar  
 16   8  31  1   
 17   9  13  ar  
 18   9  32  1   
 19  10  14  1   
 20  10  15  1   
 21  10  33  1   
 22  11  15  1   
 23  11  34  1   
 24  11  35  1   
 25  12  16  ar  
 26  12  36  1   
 27  13  16  ar  
 28  13  37  1   
 29  14  17  2   
 30  14  18  am  
 31  15  38  1   
 32  15  39  1   
 33  16  19  1   
 34  18  20  1   
 35  18  21  1   
 36  19  22  1   
 37  20  23  1   
 38  20  40  1   
 39  20  41  1   
 40  21  24  1   
 41  21  42  1   
 42  21  43  1   
 43  22  25  1   
 44  22  44  1   
 45  22  45  1   
 46  23  26  1   
 47  23  46  1   
 48  23  47  1   
 49  24  26  1   
 50  24  48  1   
 51  24  49  1   
 52  25  50  1   
 53  25  51  1   
 54  25  52  1   
@<TRIPOS>SUBSTRUCTURE
  1 ****   6 GROUP 4 **** **** 0

# MOE 2024.06 (io_trps.svl 2023.06)
