@<TRIPOS>MOLECULE
NONAME
57 59 1 0 0 
SMALL
USER_CHARGES


@<TRIPOS>ATOM
  1 S        0.8170     0.6440     1.5840 S.o2  1 <1>   1.4470 
  2 O        0.4090     1.7540     0.7550 O.2   1 <1>  -0.6500 
  3 O        1.5140     0.8930     2.8250 O.2   1 <1>  -0.6500 
  4 N        1.9050    -0.2400     0.6190 N.am  1 <1>  -0.8490 
  5 C       -0.5610    -0.5030     1.8670 C.ar  1 <1>  -0.0090 
  6 C        1.4270    -0.4180    -0.7730 C.3   1 <1>   0.1960 
  7 C        3.2320     0.4200     0.6180 C.3   1 <1>   0.1960 
  8 C       -1.5800    -0.6370     0.9390 C.ar  1 <1>  -0.1500 
  9 C       -0.6190    -1.3010     3.0020 C.ar  1 <1>  -0.1500 
 10 C        2.4130    -1.2370    -1.6460 C.3   1 <1>   0.3430 
 11 C        4.2610    -0.2640    -0.3160 C.3   1 <1>   0.3430 
 12 C       -2.6310    -1.5460     1.0740 C.ar  1 <1>   0.0860 
 13 C       -1.6560    -2.1930     3.1930 C.ar  1 <1>  -0.1500 
 14 N        3.7110    -1.5190    -0.9340 N.4   1 <1>  -0.9590 
 15 C       -2.6650    -2.3270     2.2410 C.ar  1 <1>   0.0830 
 16 C       -3.6010    -1.6390    -0.0040 C.2   1 <1>   0.5440 
 17 C        4.7040    -2.2320    -1.7930 C.3   1 <1>   0.2630 
 18 O       -3.6840    -3.2070     2.4110 O.3   1 <1>  -0.3630 
 19 O       -3.2590    -1.3760    -1.1430 O.2   1 <1>  -0.5700 
 20 N       -4.8950    -2.0030     0.2230 N.am  1 <1>  -0.7300 
 21 C       -3.7610    -4.0990     3.5030 C.3   1 <1>   0.0400 
 22 C       -5.9550    -2.1440    -0.7850 C.3   1 <1>   0.2200 
 23 C       -7.1680    -1.3180    -0.3440 C.3   1 <1>  -0.1600 
 24 C       -6.3120    -3.6270    -0.9220 C.3   1 <1>  -0.1600 
 25 C       -8.3510    -1.5130    -1.3040 C.3   1 <1>  -0.1600 
 26 C       -7.4940    -3.8270    -1.8830 C.3   1 <1>  -0.1600 
 27 C       -8.7100    -2.9980    -1.4470 C.3   1 <1>  -0.1600 
 28 H        1.2730     0.5420    -1.2380 H     1 <1>   0.0800 
 29 H        0.4780    -0.9270    -0.7740 H     1 <1>   0.0800 
 30 H        3.6320     0.4160     1.6190 H     1 <1>   0.0800 
 31 H        3.1270     1.4530     0.3260 H     1 <1>   0.0800 
 32 H       -1.5670    -0.0080     0.0640 H     1 <1>   0.1500 
 33 H        0.1550    -1.2180     3.7480 H     1 <1>   0.1500 
 34 H        2.6030    -0.6920    -2.5560 H     1 <1>   0.0800 
 35 H        1.9420    -2.1670    -1.9200 H     1 <1>   0.0800 
 36 H        5.1490    -0.4910     0.2520 H     1 <1>   0.0800 
 37 H        4.5420     0.4310    -1.0910 H     1 <1>   0.0800 
 38 H       -1.6580    -2.7780     4.0940 H     1 <1>   0.1500 
 39 H        3.4470    -2.1140    -0.1310 H     1 <1>   0.4500 
 40 H        4.9840    -1.6180    -2.6330 H     1 <1>   0.0800 
 41 H        4.2840    -3.1540    -2.1640 H     1 <1>   0.0800 
 42 H        5.5900    -2.4660    -1.2250 H     1 <1>   0.0800 
 43 H       -5.1140    -2.3790     1.1480 H     1 <1>   0.3700 
 44 H       -4.6370    -4.7090     3.3750 H     1 <1>   0.0800 
 45 H       -3.8420    -3.5330     4.4140 H     1 <1>   0.0800 
 46 H       -2.8830    -4.7210     3.5100 H     1 <1>   0.0800 
 47 H       -5.6060    -1.7750    -1.7360 H     1 <1>   0.0800 
 48 H       -6.8960    -0.2770    -0.3200 H     1 <1>   0.0800 
 49 H       -7.4670    -1.6170     0.6450 H     1 <1>   0.0800 
 50 H       -6.5730    -4.0260     0.0420 H     1 <1>   0.0800 
 51 H       -5.4570    -4.1630    -1.2940 H     1 <1>   0.0800 
 52 H       -8.0930    -1.1150    -2.2710 H     1 <1>   0.0800 
 53 H       -9.2050    -0.9680    -0.9400 H     1 <1>   0.0800 
 54 H       -7.7590    -4.8700    -1.9160 H     1 <1>   0.0800 
 55 H       -7.1980    -3.5310    -2.8750 H     1 <1>   0.0800 
 56 H       -9.5000    -3.1100    -2.1700 H     1 <1>   0.0800 
 57 H       -9.0740    -3.3690    -0.5040 H     1 <1>   0.0800 
@<TRIPOS>BOND
  1   1   2  2   
  2   1   3  2   
  3   1   4  am  
  4   1   5  1   
  5   4   6  1   
  6   4   7  1   
  7   5   8  ar  
  8   5   9  ar  
  9   6  10  1   
 10   6  28  1   
 11   6  29  1   
 12   7  11  1   
 13   7  30  1   
 14   7  31  1   
 15   8  12  ar  
 16   8  32  1   
 17   9  13  ar  
 18   9  33  1   
 19  10  14  1   
 20  10  34  1   
 21  10  35  1   
 22  11  14  1   
 23  11  36  1   
 24  11  37  1   
 25  12  15  ar  
 26  12  16  1   
 27  13  15  ar  
 28  13  38  1   
 29  14  17  1   
 30  14  39  1   
 31  15  18  1   
 32  16  19  2   
 33  16  20  am  
 34  17  40  1   
 35  17  41  1   
 36  17  42  1   
 37  18  21  1   
 38  20  22  1   
 39  20  43  1   
 40  21  44  1   
 41  21  45  1   
 42  21  46  1   
 43  22  23  1   
 44  22  24  1   
 45  22  47  1   
 46  23  25  1   
 47  23  48  1   
 48  23  49  1   
 49  24  26  1   
 50  24  50  1   
 51  24  51  1   
 52  25  27  1   
 53  25  52  1   
 54  25  53  1   
 55  26  27  1   
 56  26  54  1   
 57  26  55  1   
 58  27  56  1   
 59  27  57  1   
@<TRIPOS>SUBSTRUCTURE
  1 ****   8 GROUP 4 **** **** 0

# MOE 2024.06 (io_trps.svl 2023.06)
