@<TRIPOS>MOLECULE
NONAME
56 58 1 0 0 
SMALL
USER_CHARGES


@<TRIPOS>ATOM
  1 O       -2.1900    -0.0050     1.7380 O.3   1 <1>  -0.3630 
  2 C       -2.4730     0.9280     0.7820 C.ar  1 <1>   0.0820 
  3 C       -0.9740    -0.0260     2.4490 C.3   1 <1>   0.0400 
  4 C       -1.7090     2.0540     0.4410 C.ar  1 <1>   0.0820 
  5 C       -3.6590     0.7020     0.1020 C.ar  1 <1>  -0.1500 
  6 O       -0.5390     2.3830     1.0370 O.3   1 <1>  -0.5330 
  7 C       -2.1430     2.9190    -0.5630 C.ar  1 <1>   0.0820 
  8 C       -4.1070     1.5610    -0.8890 C.ar  1 <1>  -0.1440 
  9 O       -1.3450     3.9930    -0.8490 O.3   1 <1>  -0.3630 
 10 C       -3.3430     2.6690    -1.2220 C.ar  1 <1>  -0.1500 
 11 C       -5.4280     1.2850    -1.5960 C.3   1 <1>   0.2530 
 12 C       -1.6380     4.8600    -1.9230 C.3   1 <1>   0.0400 
 13 N       -6.5130     1.0610    -0.6180 N.3   1 <1>  -0.8100 
 14 C       -7.7610     0.6250    -1.2660 C.3   1 <1>   0.1100 
 15 C       -6.7350     2.2250     0.2660 C.3   1 <1>   0.1100 
 16 C       -8.8390     0.2880    -0.2160 C.3   1 <1>   0.3430 
 17 C       -7.7940     1.9070     1.3380 C.3   1 <1>   0.3430 
 18 N       -9.0850     1.4360     0.7270 N.4   1 <1>  -0.9590 
 19 C      -10.0850     1.1100     1.7640 C.3   1 <1>   0.4810 
 20 C      -11.4310     1.0700     1.0840 C.2   1 <1>  -0.2880 
 21 C      -12.3550     2.0440     1.1560 C.2   1 <1>  -0.1780 
 22 C      -13.6570     2.0730     0.5270 C.ar  1 <1>   0.0280 
 23 C      -14.3340     3.2820     0.3850 C.ar  1 <1>  -0.1500 
 24 C      -14.2810     0.9230     0.0460 C.ar  1 <1>  -0.1500 
 25 C      -15.5760     3.3460    -0.2190 C.ar  1 <1>  -0.1500 
 26 C      -15.5230     0.9810    -0.5600 C.ar  1 <1>  -0.1500 
 27 C      -16.1730     2.1940    -0.6950 C.ar  1 <1>  -0.1500 
 28 H       -0.9700    -0.8940     3.0820 H     1 <1>   0.0800 
 29 H       -0.9060     0.8640     3.0470 H     1 <1>   0.0800 
 30 H       -0.1610    -0.0790     1.7460 H     1 <1>   0.0800 
 31 H       -4.2410    -0.1640     0.3630 H     1 <1>   0.1500 
 32 H       -0.2050     3.2050     0.6240 H     1 <1>   0.4500 
 33 H       -3.6930     3.3270    -1.9930 H     1 <1>   0.1500 
 34 H       -5.3060     0.4030    -2.2030 H     1 <1>   0.0800 
 35 H       -5.6830     2.1060    -2.2450 H     1 <1>   0.0800 
 36 H       -0.8520     5.5920    -1.9860 H     1 <1>   0.0800 
 37 H       -2.5760     5.3500    -1.7320 H     1 <1>   0.0800 
 38 H       -1.6770     4.2890    -2.8330 H     1 <1>   0.0800 
 39 H       -8.1240     1.3920    -1.9290 H     1 <1>   0.0800 
 40 H       -7.5670    -0.2570    -1.8540 H     1 <1>   0.0800 
 41 H       -5.8180     2.4810     0.7700 H     1 <1>   0.0800 
 42 H       -7.0410     3.0790    -0.3140 H     1 <1>   0.0800 
 43 H       -8.5070    -0.5730     0.3410 H     1 <1>   0.0800 
 44 H       -9.7530     0.0250    -0.7230 H     1 <1>   0.0800 
 45 H       -7.9670     2.7880     1.9350 H     1 <1>   0.0800 
 46 H       -7.3960     1.1410     1.9830 H     1 <1>   0.0800 
 47 H       -9.4780     2.2070     0.1740 H     1 <1>   0.4500 
 48 H       -9.8630     0.1670     2.2390 H     1 <1>   0.0800 
 49 H      -10.0940     1.8830     2.5170 H     1 <1>   0.0800 
 50 H      -11.5880     0.1690     0.5200 H     1 <1>   0.1500 
 51 H      -12.1540     2.9320     1.7330 H     1 <1>   0.1500 
 52 H      -13.8870     4.1900     0.7490 H     1 <1>   0.1500 
 53 H      -13.8050    -0.0330     0.1480 H     1 <1>   0.1500 
 54 H      -16.0810     4.2910    -0.3200 H     1 <1>   0.1500 
 55 H      -15.9890     0.0810    -0.9250 H     1 <1>   0.1500 
 56 H      -17.1390     2.2400    -1.1670 H     1 <1>   0.1500 
@<TRIPOS>BOND
  1   1   2  1   
  2   1   3  1   
  3   2   4  ar  
  4   2   5  ar  
  5   3  28  1   
  6   3  29  1   
  7   3  30  1   
  8   4   6  1   
  9   4   7  ar  
 10   5   8  ar  
 11   5  31  1   
 12   6  32  1   
 13   7   9  1   
 14   7  10  ar  
 15   8  10  ar  
 16   8  11  1   
 17   9  12  1   
 18  10  33  1   
 19  11  13  1   
 20  11  34  1   
 21  11  35  1   
 22  12  36  1   
 23  12  37  1   
 24  12  38  1   
 25  13  14  1   
 26  13  15  1   
 27  14  16  1   
 28  14  39  1   
 29  14  40  1   
 30  15  17  1   
 31  15  41  1   
 32  15  42  1   
 33  16  18  1   
 34  16  43  1   
 35  16  44  1   
 36  17  18  1   
 37  17  45  1   
 38  17  46  1   
 39  18  19  1   
 40  18  47  1   
 41  19  20  1   
 42  19  48  1   
 43  19  49  1   
 44  20  21  2   
 45  20  50  1   
 46  21  22  1   
 47  21  51  1   
 48  22  23  ar  
 49  22  24  ar  
 50  23  25  ar  
 51  23  52  1   
 52  24  26  ar  
 53  24  53  1   
 54  25  27  ar  
 55  25  54  1   
 56  26  27  ar  
 57  26  55  1   
 58  27  56  1   
@<TRIPOS>SUBSTRUCTURE
  1 ****  15 GROUP 4 **** **** 0

# MOE 2024.06 (io_trps.svl 2023.06)
