@<TRIPOS>MOLECULE
NONAME
34 35 1 0 0 
SMALL
USER_CHARGES


@<TRIPOS>ATOM
  1 F       -1.6120    -0.1810    -1.0840 F     1 <1>  -0.3400 
  2 C       -1.4060    -0.7860     0.0830 C.3   1 <1>   1.0200 
  3 F       -2.5770    -0.7300     0.7190 F     1 <1>  -0.3400 
  4 F       -0.5980     0.0150     0.7760 F     1 <1>  -0.3400 
  5 C       -0.8620    -2.2580    -0.0440 C.3   1 <1>   0.6410 
  6 O       -1.5520    -3.1240    -0.9380 O.3   1 <1>  -0.5600 
  7 N       -0.7540    -3.0450     1.2150 N.am  1 <1>  -0.7300 
  8 C        0.6140    -2.1460    -0.4360 C.2   1 <1>   0.5690 
  9 C       -2.9400    -3.2410    -0.8130 C.3   1 <1>   0.0400 
 10 C        0.5320    -3.3800     1.4130 C.2   1 <1>   0.6900 
 11 O        1.0410    -1.5550    -1.4020 O.2   1 <1>  -0.5700 
 12 N        1.3640    -2.8150     0.4910 N.am  1 <1>  -0.4200 
 13 O        0.8740    -4.1440     2.2850 O.2   1 <1>  -0.5700 
 14 C        2.8340    -3.0070     0.4990 C.3   1 <1>   0.2200 
 15 C        3.5620    -1.6590     0.6120 C.3   1 <1>  -0.1600 
 16 C        3.2910    -3.7910    -0.7410 C.3   1 <1>  -0.1600 
 17 C        5.0850    -1.8570     0.6180 C.3   1 <1>  -0.1600 
 18 C        4.8150    -3.9870    -0.7350 C.3   1 <1>  -0.1600 
 19 C        5.5460    -2.6420    -0.6180 C.3   1 <1>  -0.1600 
 20 H       -1.4650    -3.7430     1.4140 H     1 <1>   0.3700 
 21 H       -3.4100    -2.3320    -1.1480 H     1 <1>   0.0800 
 22 H       -3.2070    -3.4540     0.2080 H     1 <1>   0.0800 
 23 H       -3.2620    -4.0530    -1.4430 H     1 <1>   0.0800 
 24 H        3.0950    -3.5900     1.3670 H     1 <1>   0.0800 
 25 H        3.2650    -1.1640     1.5200 H     1 <1>   0.0800 
 26 H        3.3020    -1.0300    -0.2220 H     1 <1>   0.0800 
 27 H        3.0180    -3.2570    -1.6340 H     1 <1>   0.0800 
 28 H        2.8100    -4.7530    -0.7560 H     1 <1>   0.0800 
 29 H        5.3740    -2.3900     1.5080 H     1 <1>   0.0800 
 30 H        5.5720    -0.8970     0.6360 H     1 <1>   0.0800 
 31 H        5.1170    -4.4840    -1.6400 H     1 <1>   0.0800 
 32 H        5.0920    -4.6170     0.0940 H     1 <1>   0.0800 
 33 H        6.6070    -2.8130    -0.5620 H     1 <1>   0.0800 
 34 H        5.3540    -2.0570    -1.5020 H     1 <1>   0.0800 
@<TRIPOS>BOND
  1   1   2  1   
  2   2   3  1   
  3   2   4  1   
  4   2   5  1   
  5   5   6  1   
  6   5   7  1   
  7   5   8  1   
  8   6   9  1   
  9   7  10  am  
 10   7  20  1   
 11   8  11  2   
 12   8  12  am  
 13   9  21  1   
 14   9  22  1   
 15   9  23  1   
 16  10  12  am  
 17  10  13  2   
 18  12  14  1   
 19  14  15  1   
 20  14  16  1   
 21  14  24  1   
 22  15  17  1   
 23  15  25  1   
 24  15  26  1   
 25  16  18  1   
 26  16  27  1   
 27  16  28  1   
 28  17  19  1   
 29  17  29  1   
 30  17  30  1   
 31  18  19  1   
 32  18  31  1   
 33  18  32  1   
 34  19  33  1   
 35  19  34  1   
@<TRIPOS>SUBSTRUCTURE
  1 ****   8 GROUP 4 **** **** 0

# MOE 2024.06 (io_trps.svl 2023.06)
