@<TRIPOS>MOLECULE
NONAME
51 52 1 0 0 
SMALL
USER_CHARGES


@<TRIPOS>ATOM
  1 S        0.5310    -0.2890    -1.4190 S.o2  1 <1>   1.3330 
  2 O        0.6390    -0.6810    -0.0390 O.2   1 <1>  -0.6500 
  3 O        1.6430    -0.5260    -2.3110 O.2   1 <1>  -0.6500 
  4 N        0.2180     1.4100    -1.4750 N.am  1 <1>  -0.6930 
  5 C       -0.9440    -0.9760    -2.1400 C.3   1 <1>  -0.1350 
  6 C       -0.6970     1.9600    -0.5800 C.ar  1 <1>   0.1990 
  7 C        1.3380     2.2660    -1.9930 C.3   1 <1>   0.3370 
  8 C       -1.9740     2.2960    -1.0160 C.ar  1 <1>  -0.1500 
  9 C       -0.3640     2.1850     0.7490 C.ar  1 <1>  -0.1500 
 10 C        2.5530     2.3390    -1.0330 C.2   1 <1>   0.5690 
 11 C        0.8010     3.6480    -2.4040 C.3   1 <1>  -0.2400 
 12 C       -2.9010     2.8420    -0.1460 C.ar  1 <1>  -0.1500 
 13 C       -1.2860     2.7320     1.6230 C.ar  1 <1>  -0.1500 
 14 O        2.7200     3.3270    -0.3540 O.2   1 <1>  -0.5700 
 15 N        3.4050     1.2660    -0.9960 N.am  1 <1>  -0.5470 
 16 C       -2.5580     3.0630     1.1850 C.ar  1 <1>   0.0830 
 17 C        4.5560     1.0300    -0.2280 C.ar  1 <1>   0.1170 
 18 O       -3.4010     3.5950     2.1100 O.3   1 <1>  -0.3630 
 19 C        4.8990    -0.2850     0.0630 C.ar  1 <1>  -0.1500 
 20 C        5.3780     2.0490     0.2390 C.ar  1 <1>  -0.1500 
 21 C       -4.7050     3.9930     1.7560 C.3   1 <1>   0.1200 
 22 C        6.0320    -0.5820     0.8000 C.ar  1 <1>  -0.1500 
 23 C        6.5120     1.7590     0.9770 C.ar  1 <1>  -0.1500 
 24 C       -5.3790     4.5570     3.0030 C.3   1 <1>  -0.2400 
 25 C        6.8490     0.4460     1.2630 C.ar  1 <1>   0.0830 
 26 O        7.9790     0.2480     1.9920 O.3   1 <1>  -0.3620 
 27 C        8.3860    -1.0510     2.3610 C.3   1 <1>   0.0400 
 28 H       -0.8640    -2.0440    -2.1930 H     1 <1>   0.0800 
 29 H       -1.0890    -0.5900    -3.1300 H     1 <1>   0.0800 
 30 H       -1.7980    -0.7260    -1.5410 H     1 <1>   0.0800 
 31 H        1.6980     1.8180    -2.9020 H     1 <1>   0.0800 
 32 H       -2.2350     2.1310    -2.0440 H     1 <1>   0.1500 
 33 H        0.6210     1.9290     1.1010 H     1 <1>   0.1500 
 34 H        0.4680     4.2000    -1.5420 H     1 <1>   0.0800 
 35 H       -0.0080     3.5450    -3.1020 H     1 <1>   0.0800 
 36 H        1.5870     4.2130    -2.8710 H     1 <1>   0.0800 
 37 H       -3.8770     3.0900    -0.5190 H     1 <1>   0.1500 
 38 H       -1.0230     2.9040     2.6510 H     1 <1>   0.1500 
 39 H        3.0860     0.4490    -1.5320 H     1 <1>   0.3700 
 40 H        4.2700    -1.0840    -0.2870 H     1 <1>   0.1500 
 41 H        5.1370     3.0740     0.0260 H     1 <1>   0.1500 
 42 H       -5.2380     3.1320     1.3930 H     1 <1>   0.0800 
 43 H       -4.6360     4.7450     0.9890 H     1 <1>   0.0800 
 44 H        6.2590    -1.6100     1.0030 H     1 <1>   0.1500 
 45 H        7.1420     2.5520     1.3370 H     1 <1>   0.1500 
 46 H       -5.4270     3.8030     3.7690 H     1 <1>   0.0800 
 47 H       -6.3790     4.8720     2.7660 H     1 <1>   0.0800 
 48 H       -4.8280     5.4050     3.3680 H     1 <1>   0.0800 
 49 H        9.2880    -0.9650     2.9390 H     1 <1>   0.0800 
 50 H        8.5760    -1.6230     1.4700 H     1 <1>   0.0800 
 51 H        7.6120    -1.5030     2.9550 H     1 <1>   0.0800 
@<TRIPOS>BOND
  1   1   2  2   
  2   1   3  2   
  3   1   4  am  
  4   1   5  1   
  5   4   6  1   
  6   4   7  1   
  7   5  28  1   
  8   5  29  1   
  9   5  30  1   
 10   6   8  ar  
 11   6   9  ar  
 12   7  10  1   
 13   7  11  1   
 14   7  31  1   
 15   8  12  ar  
 16   8  32  1   
 17   9  13  ar  
 18   9  33  1   
 19  10  14  2   
 20  10  15  am  
 21  11  34  1   
 22  11  35  1   
 23  11  36  1   
 24  12  16  ar  
 25  12  37  1   
 26  13  16  ar  
 27  13  38  1   
 28  15  17  1   
 29  15  39  1   
 30  16  18  1   
 31  17  19  ar  
 32  17  20  ar  
 33  18  21  1   
 34  19  22  ar  
 35  19  40  1   
 36  20  23  ar  
 37  20  41  1   
 38  21  24  1   
 39  21  42  1   
 40  21  43  1   
 41  22  25  ar  
 42  22  44  1   
 43  23  25  ar  
 44  23  45  1   
 45  24  46  1   
 46  24  47  1   
 47  24  48  1   
 48  25  26  1   
 49  26  27  1   
 50  27  49  1   
 51  27  50  1   
 52  27  51  1   
@<TRIPOS>SUBSTRUCTURE
  1 ****  10 GROUP 4 **** **** 0

# MOE 2024.06 (io_trps.svl 2023.06)
