@<TRIPOS>MOLECULE
NONAME
37 38 1 0 0 
SMALL
USER_CHARGES


@<TRIPOS>ATOM
  1 O        0.6180    -0.4570     1.1600 O.3   1 <1>  -0.3630 
  2 C        1.0390    -1.4940     0.3830 C.ar  1 <1>   0.0830 
  3 C       -0.5140     0.3020     0.7980 C.3   1 <1>   0.0400 
  4 C        0.2020    -2.3760    -0.3180 C.ar  1 <1>   0.0830 
  5 C        2.4130    -1.6550     0.3180 C.ar  1 <1>  -0.1500 
  6 O       -1.1550    -2.2500    -0.2230 O.3   1 <1>  -0.3630 
  7 C        0.7860    -3.3810    -1.0850 C.ar  1 <1>  -0.1500 
  8 C        2.9920    -2.6610    -0.4420 C.ar  1 <1>  -0.1430 
  9 C       -2.0350    -3.2180    -0.7500 C.3   1 <1>   0.0400 
 10 C        2.1610    -3.5200    -1.1450 C.ar  1 <1>  -0.1500 
 11 C        4.5120    -2.8510    -0.5190 C.3   1 <1>   0.0630 
 12 C        5.0660    -3.7010     0.6520 C.3   1 <1>   0.2000 
 13 C        5.2890    -1.5290    -0.6500 C.3   1 <1>  -0.1600 
 14 O        4.4580    -3.3320     1.8400 O.3   1 <1>  -0.6800 
 15 C        6.5860    -3.5540     0.8570 C.3   1 <1>  -0.1600 
 16 C        6.7800    -1.7740    -0.9560 C.3   1 <1>  -0.1600 
 17 C        7.3070    -3.1240    -0.4290 C.3   1 <1>  -0.1600 
 18 H       -0.4440     1.2590     1.2810 H     1 <1>   0.0800 
 19 H       -1.3970    -0.2110     1.1330 H     1 <1>   0.0800 
 20 H       -0.5280     0.4260    -0.2710 H     1 <1>   0.0800 
 21 H        3.0240    -0.9720     0.8800 H     1 <1>   0.1500 
 22 H        0.1890    -4.0730    -1.6470 H     1 <1>   0.1500 
 23 H       -3.0380    -2.9370    -0.4820 H     1 <1>   0.0800 
 24 H       -1.7980    -4.1760    -0.3220 H     1 <1>   0.0800 
 25 H       -1.9360    -3.2360    -1.8210 H     1 <1>   0.0800 
 26 H        2.5810    -4.3080    -1.7450 H     1 <1>   0.1500 
 27 H        4.7140    -3.4000    -1.4220 H     1 <1>   0.0800 
 28 H        4.8150    -4.7340     0.4760 H     1 <1>   0.0800 
 29 H        5.2150    -0.9890     0.2780 H     1 <1>   0.0800 
 30 H        4.8540    -0.9190    -1.4230 H     1 <1>   0.0800 
 31 H        3.5060    -3.1680     1.6690 H     1 <1>   0.4000 
 32 H        6.9860    -4.4900     1.2040 H     1 <1>   0.0800 
 33 H        6.7800    -2.8100     1.6120 H     1 <1>   0.0800 
 34 H        7.3520    -0.9730    -0.5180 H     1 <1>   0.0800 
 35 H        6.9400    -1.7360    -2.0200 H     1 <1>   0.0800 
 36 H        7.1600    -3.8820    -1.1800 H     1 <1>   0.0800 
 37 H        8.3660    -3.0510    -0.2480 H     1 <1>   0.0800 
@<TRIPOS>BOND
  1   1   2  1   
  2   1   3  1   
  3   2   4  ar  
  4   2   5  ar  
  5   3  18  1   
  6   3  19  1   
  7   3  20  1   
  8   4   6  1   
  9   4   7  ar  
 10   5   8  ar  
 11   5  21  1   
 12   6   9  1   
 13   7  10  ar  
 14   7  22  1   
 15   8  10  ar  
 16   8  11  1   
 17   9  23  1   
 18   9  24  1   
 19   9  25  1   
 20  10  26  1   
 21  11  12  1   
 22  11  13  1   
 23  11  27  1   
 24  12  14  1   
 25  12  15  1   
 26  12  28  1   
 27  13  16  1   
 28  13  29  1   
 29  13  30  1   
 30  14  31  1   
 31  15  17  1   
 32  15  32  1   
 33  15  33  1   
 34  16  17  1   
 35  16  34  1   
 36  16  35  1   
 37  17  36  1   
 38  17  37  1   
@<TRIPOS>SUBSTRUCTURE
  1 ****   8 GROUP 4 **** **** 0

# MOE 2024.06 (io_trps.svl 2023.06)
