@<TRIPOS>MOLECULE
NONAME
50 51 1 0 0 
SMALL
USER_CHARGES


@<TRIPOS>ATOM
  1 O       -2.1790    -1.9130     0.1810 O.3   1 <1>  -0.3630 
  2 C       -3.5340    -1.8610     0.2050 C.ar  1 <1>   0.0830 
  3 C       -1.4940    -3.1500     0.1330 C.3   1 <1>   0.1200 
  4 C       -4.3560    -2.9820     0.1220 C.ar  1 <1>  -0.1500 
  5 C       -4.1100    -0.6060     0.3190 C.ar  1 <1>  -0.1500 
  6 C        0.0170    -2.8880     0.1420 C.3   1 <1>   0.2000 
  7 C       -5.7320    -2.8360     0.1580 C.ar  1 <1>  -0.1500 
  8 C       -5.4860    -0.4650     0.3550 C.ar  1 <1>  -0.1500 
  9 O        0.3160    -2.0010    -0.8850 O.3   1 <1>  -0.6800 
 10 C        0.8300    -4.1990     0.0010 C.3   1 <1>   0.1100 
 11 C       -6.3050    -1.5800     0.2760 C.ar  1 <1>  -0.1430 
 12 N        2.2720    -4.0240    -0.3040 N.3   1 <1>  -0.8100 
 13 C       -7.8170    -1.4250     0.3150 C.3   1 <1>  -0.0170 
 14 C        2.9530    -5.3030    -0.5630 C.3   1 <1>   0.1100 
 15 C        3.0020    -3.1900     0.6690 C.3   1 <1>   0.1100 
 16 C       -8.3760    -1.2540    -1.0990 C.3   1 <1>  -0.2400 
 17 C        4.4010    -5.0680    -1.0420 C.3   1 <1>   0.3430 
 18 C        4.4490    -2.9400     0.2000 C.3   1 <1>   0.3430 
 19 N        5.1860    -4.2270    -0.0710 N.4   1 <1>  -0.9590 
 20 C        6.5620    -3.9930    -0.5740 C.3   1 <1>   0.3430 
 21 C        7.4420    -3.4730     0.5560 C.3   1 <1>  -0.2400 
 22 H       -1.7780    -3.6630    -0.7690 H     1 <1>   0.0800 
 23 H       -1.7800    -3.7290     0.9930 H     1 <1>   0.0800 
 24 H       -3.9500    -3.9700     0.0280 H     1 <1>   0.1500 
 25 H       -3.4760     0.2600     0.3810 H     1 <1>   0.1500 
 26 H        0.2720    -2.4080     1.0710 H     1 <1>   0.0800 
 27 H       -6.3590    -3.7080     0.0920 H     1 <1>   0.1500 
 28 H       -5.9170     0.5170     0.4420 H     1 <1>   0.1500 
 29 H       -0.3940    -1.3250    -0.9220 H     1 <1>   0.4000 
 30 H        0.3860    -4.7720    -0.7950 H     1 <1>   0.0800 
 31 H        0.7230    -4.7710     0.9060 H     1 <1>   0.0800 
 32 H       -8.0790    -0.5700     0.9120 H     1 <1>   0.0800 
 33 H       -8.2590    -2.2920     0.7760 H     1 <1>   0.0800 
 34 H        2.4210    -5.8370    -1.3320 H     1 <1>   0.0800 
 35 H        2.9530    -5.9100     0.3260 H     1 <1>   0.0800 
 36 H        3.0020    -3.6600     1.6380 H     1 <1>   0.0800 
 37 H        2.5170    -2.2340     0.7600 H     1 <1>   0.0800 
 38 H       -7.9520    -0.3810    -1.5620 H     1 <1>   0.0800 
 39 H       -9.4450    -1.1450    -1.0650 H     1 <1>   0.0800 
 40 H       -8.1340    -2.1130    -1.7000 H     1 <1>   0.0800 
 41 H        4.3600    -4.5720    -1.9980 H     1 <1>   0.0800 
 42 H        4.8860    -6.0200    -1.1800 H     1 <1>   0.0800 
 43 H        4.9660    -2.3680     0.9520 H     1 <1>   0.0800 
 44 H        4.4090    -2.3480    -0.7000 H     1 <1>   0.0800 
 45 H        5.2410    -4.7450     0.8130 H     1 <1>   0.4500 
 46 H        6.5450    -3.2870    -1.3890 H     1 <1>   0.0800 
 47 H        6.9770    -4.9200    -0.9390 H     1 <1>   0.0800 
 48 H        7.1210    -2.5030     0.8910 H     1 <1>   0.0800 
 49 H        8.4510    -3.3740     0.1970 H     1 <1>   0.0800 
 50 H        7.4510    -4.1600     1.3830 H     1 <1>   0.0800 
@<TRIPOS>BOND
  1   1   2  1   
  2   1   3  1   
  3   2   4  ar  
  4   2   5  ar  
  5   3   6  1   
  6   3  22  1   
  7   3  23  1   
  8   4   7  ar  
  9   4  24  1   
 10   5   8  ar  
 11   5  25  1   
 12   6   9  1   
 13   6  10  1   
 14   6  26  1   
 15   7  11  ar  
 16   7  27  1   
 17   8  11  ar  
 18   8  28  1   
 19   9  29  1   
 20  10  12  1   
 21  10  30  1   
 22  10  31  1   
 23  11  13  1   
 24  12  14  1   
 25  12  15  1   
 26  13  16  1   
 27  13  32  1   
 28  13  33  1   
 29  14  17  1   
 30  14  34  1   
 31  14  35  1   
 32  15  18  1   
 33  15  36  1   
 34  15  37  1   
 35  16  38  1   
 36  16  39  1   
 37  16  40  1   
 38  17  19  1   
 39  17  41  1   
 40  17  42  1   
 41  18  19  1   
 42  18  43  1   
 43  18  44  1   
 44  19  20  1   
 45  19  45  1   
 46  20  21  1   
 47  20  46  1   
 48  20  47  1   
 49  21  48  1   
 50  21  49  1   
 51  21  50  1   
@<TRIPOS>SUBSTRUCTURE
  1 ****   6 GROUP 4 **** **** 0

# MOE 2024.06 (io_trps.svl 2023.06)
