@<TRIPOS>MOLECULE
NONAME
35 35 1 0 0 
SMALL
USER_CHARGES


@<TRIPOS>ATOM
  1 CL      -0.2560     0.6210     0.0500 Cl    1 <1>  -0.1770 
  2 C       -1.0060    -0.9470     0.1990 C.ar  1 <1>   0.1770 
  3 C       -0.5160    -2.0010    -0.5490 C.ar  1 <1>  -0.1500 
  4 C       -2.0700    -1.1110     1.0630 C.ar  1 <1>  -0.1500 
  5 C       -1.0960    -3.2580    -0.4390 C.ar  1 <1>  -0.1430 
  6 C       -2.6560    -2.3590     1.1760 C.ar  1 <1>  -0.1500 
  7 C       -2.1810    -3.4290     0.4290 C.ar  1 <1>   0.0830 
  8 C       -0.5190    -4.3910    -1.2720 C.3   1 <1>   0.4870 
  9 O       -2.8020    -4.6230     0.6280 O.3   1 <1>  -0.2320 
 10 N       -0.0660    -5.4820    -0.3650 N.4   1 <1>  -0.9590 
 11 C       -3.4450    -5.3310    -0.3120 C.2   1 <1>   0.7800 
 12 C        1.1520    -5.0880     0.4070 C.3   1 <1>   0.2630 
 13 C        0.1300    -6.7550    -1.1190 C.3   1 <1>   0.2630 
 14 O       -3.3750    -4.9820    -1.4740 O.2   1 <1>  -0.5700 
 15 N       -4.1100    -6.4670     0.0800 N.am  1 <1>  -0.6600 
 16 C       -4.3170    -6.8580     1.5050 C.3   1 <1>   0.0600 
 17 C       -4.8830    -7.2940    -0.8920 C.3   1 <1>   0.0600 
 18 H        0.3130    -1.8140    -1.2090 H     1 <1>   0.1500 
 19 H       -2.4320    -0.2730     1.6340 H     1 <1>   0.1500 
 20 H       -3.4870    -2.5010     1.8460 H     1 <1>   0.1500 
 21 H        0.3100    -4.0310    -1.8580 H     1 <1>   0.0800 
 22 H       -1.2670    -4.7560    -1.9550 H     1 <1>   0.0800 
 23 H       -0.8410    -5.6100     0.3040 H     1 <1>   0.4500 
 24 H        1.9800    -4.9120    -0.2600 H     1 <1>   0.0800 
 25 H        1.4250    -5.8690     1.0980 H     1 <1>   0.0800 
 26 H        0.9630    -4.1860     0.9680 H     1 <1>   0.0800 
 27 H        0.9170    -6.6430    -1.8480 H     1 <1>   0.0800 
 28 H       -0.7790    -7.0280    -1.6310 H     1 <1>   0.0800 
 29 H        0.3960    -7.5520    -0.4440 H     1 <1>   0.0800 
 30 H       -3.7620    -6.2250     2.1750 H     1 <1>   0.0800 
 31 H       -4.0000    -7.8760     1.6530 H     1 <1>   0.0800 
 32 H       -5.3620    -6.7810     1.7530 H     1 <1>   0.0800 
 33 H       -4.6920    -6.9820    -1.9050 H     1 <1>   0.0800 
 34 H       -5.9370    -7.1920    -0.6980 H     1 <1>   0.0800 
 35 H       -4.6070    -8.3290    -0.7940 H     1 <1>   0.0800 
@<TRIPOS>BOND
  1   1   2  1   
  2   2   3  ar  
  3   2   4  ar  
  4   3   5  ar  
  5   3  18  1   
  6   4   6  ar  
  7   4  19  1   
  8   5   7  ar  
  9   5   8  1   
 10   6   7  ar  
 11   6  20  1   
 12   7   9  1   
 13   8  10  1   
 14   8  21  1   
 15   8  22  1   
 16   9  11  1   
 17  10  12  1   
 18  10  13  1   
 19  10  23  1   
 20  11  14  2   
 21  11  15  am  
 22  12  24  1   
 23  12  25  1   
 24  12  26  1   
 25  13  27  1   
 26  13  28  1   
 27  13  29  1   
 28  15  16  1   
 29  15  17  1   
 30  16  30  1   
 31  16  31  1   
 32  16  32  1   
 33  17  33  1   
 34  17  34  1   
 35  17  35  1   
@<TRIPOS>SUBSTRUCTURE
  1 ****   7 GROUP 4 **** **** 0

# MOE 2024.06 (io_trps.svl 2023.06)
