@<TRIPOS>MOLECULE
NONAME
43 43 1 0 0 
SMALL
USER_CHARGES


@<TRIPOS>ATOM
  1 O        1.3550    -0.1370    -0.2940 O.3   1 <1>  -0.3630 
  2 C        0.0920    -0.6280    -0.1970 C.ar  1 <1>   0.0830 
  3 C        1.9760     0.4700     0.8260 C.3   1 <1>   0.1200 
  4 C       -0.2710    -1.6950    -1.0210 C.ar  1 <1>  -0.1440 
  5 C       -0.8220    -0.1000     0.7090 C.ar  1 <1>  -0.1500 
  6 C        3.4880     0.2140     0.7450 C.3   1 <1>   0.3430 
  7 C       -1.5380    -2.2560    -0.8850 C.ar  1 <1>  -0.1440 
  8 C        0.7100    -2.2390    -2.0600 C.3   1 <1>  -0.0970 
  9 C       -2.0820    -0.6520     0.8330 C.ar  1 <1>  -0.1440 
 10 N        3.7680    -1.1370     0.1530 N.4   1 <1>  -0.9590 
 11 C       -2.4280    -1.7300     0.0390 C.ar  1 <1>  -0.1500 
 12 C       -1.9970    -3.4420    -1.7240 C.3   1 <1>  -0.0970 
 13 C       -3.0890    -0.0880     1.8190 C.3   1 <1>  -0.0970 
 14 C        4.0500    -2.2000     1.1600 C.3   1 <1>   0.3430 
 15 C        4.8280    -1.0370    -0.8830 C.3   1 <1>   0.3430 
 16 C        2.7990    -2.5300     1.9640 C.3   1 <1>  -0.2400 
 17 C        4.7670    -2.2430    -1.8130 C.3   1 <1>  -0.2400 
 18 H        1.5800     0.0350     1.7260 H     1 <1>   0.0800 
 19 H        1.7570     1.5230     0.8150 H     1 <1>   0.0800 
 20 H       -0.5700     0.7470     1.3170 H     1 <1>   0.1500 
 21 H        3.9360     0.3060     1.7210 H     1 <1>   0.0800 
 22 H        3.9150     0.9780     0.1160 H     1 <1>   0.0800 
 23 H        1.4090    -1.4840    -2.3670 H     1 <1>   0.0800 
 24 H        0.1910    -2.5550    -2.9460 H     1 <1>   0.0800 
 25 H        1.2440    -3.0780    -1.6540 H     1 <1>   0.0800 
 26 H        2.8840    -1.3820    -0.3320 H     1 <1>   0.4500 
 27 H       -3.4100    -2.1590     0.1400 H     1 <1>   0.1500 
 28 H       -1.2590    -4.2230    -1.7060 H     1 <1>   0.0800 
 29 H       -2.1580    -3.1310    -2.7400 H     1 <1>   0.0800 
 30 H       -2.9180    -3.8490    -1.3460 H     1 <1>   0.0800 
 31 H       -2.6120     0.5620     2.5300 H     1 <1>   0.0800 
 32 H       -3.5660    -0.8870     2.3580 H     1 <1>   0.0800 
 33 H       -3.8410     0.4710     1.2910 H     1 <1>   0.0800 
 34 H        4.8450    -1.8900     1.8190 H     1 <1>   0.0800 
 35 H        4.3690    -3.0970     0.6550 H     1 <1>   0.0800 
 36 H        5.8000    -0.9730    -0.4180 H     1 <1>   0.0800 
 37 H        4.6760    -0.1450    -1.4700 H     1 <1>   0.0800 
 38 H        2.5590    -1.7430     2.6540 H     1 <1>   0.0800 
 39 H        1.9610    -2.7220     1.3170 H     1 <1>   0.0800 
 40 H        2.9790    -3.4190     2.5430 H     1 <1>   0.0800 
 41 H        5.4870    -2.1140    -2.6010 H     1 <1>   0.0800 
 42 H        5.0100    -3.1560    -1.3000 H     1 <1>   0.0800 
 43 H        3.7960    -2.3280    -2.2660 H     1 <1>   0.0800 
@<TRIPOS>BOND
  1   1   2  1   
  2   1   3  1   
  3   2   4  ar  
  4   2   5  ar  
  5   3   6  1   
  6   3  18  1   
  7   3  19  1   
  8   4   7  ar  
  9   4   8  1   
 10   5   9  ar  
 11   5  20  1   
 12   6  10  1   
 13   6  21  1   
 14   6  22  1   
 15   7  11  ar  
 16   7  12  1   
 17   8  23  1   
 18   8  24  1   
 19   8  25  1   
 20   9  11  ar  
 21   9  13  1   
 22  10  14  1   
 23  10  15  1   
 24  10  26  1   
 25  11  27  1   
 26  12  28  1   
 27  12  29  1   
 28  12  30  1   
 29  13  31  1   
 30  13  32  1   
 31  13  33  1   
 32  14  16  1   
 33  14  34  1   
 34  14  35  1   
 35  15  17  1   
 36  15  36  1   
 37  15  37  1   
 38  16  38  1   
 39  16  39  1   
 40  16  40  1   
 41  17  41  1   
 42  17  42  1   
 43  17  43  1   
@<TRIPOS>SUBSTRUCTURE
  1 ****   2 GROUP 4 **** **** 0

# MOE 2024.06 (io_trps.svl 2023.06)
