@<TRIPOS>MOLECULE
NONAME
50 53 1 0 0 
SMALL
USER_CHARGES


@<TRIPOS>ATOM
  1 CL      -0.7030    -0.0660    -0.6040 Cl    1 <1>  -0.1770 
  2 C       -0.3730    -1.7530    -0.3240 C.ar  1 <1>   0.1770 
  3 C        0.5840    -2.3960    -1.0830 C.ar  1 <1>  -0.1500 
  4 C       -1.0720    -2.4320     0.6550 C.ar  1 <1>  -0.1500 
  5 C        0.8440    -3.7370    -0.8580 C.ar  1 <1>  -0.1500 
  6 C       -0.8030    -3.7710     0.8700 C.ar  1 <1>  -0.1500 
  7 C        0.1590    -4.4640     0.1260 C.ar  1 <1>   0.0860 
  8 C        0.4010    -5.8710     0.3920 C.2   1 <1>   0.4230 
  9 O       -0.2520    -6.5080     1.1790 O.2   1 <1>  -0.5700 
 10 C        1.5130    -6.6110    -0.3390 C.3   1 <1>   0.1810 
 11 O        2.7840    -6.0690    -0.0030 O.3   1 <1>  -0.4300 
 12 C        3.8980    -6.4960    -0.6000 C.2   1 <1>   0.6340 
 13 O        3.7990    -7.3130    -1.4900 O.2   1 <1>  -0.5700 
 14 C        5.1690    -5.9530    -0.1560 C.ar  1 <1>   0.0860 
 15 C        6.3650    -6.3430    -0.7640 C.ar  1 <1>  -0.1500 
 16 C        5.2550    -5.0230     0.8920 C.ar  1 <1>  -0.1500 
 17 C        7.5830    -5.8270    -0.3450 C.ar  1 <1>   0.0860 
 18 C        6.4660    -4.5040     1.3140 C.ar  1 <1>  -0.1500 
 19 C        8.9330    -6.0450    -0.7800 C.2   1 <1>   0.5440 
 20 C        7.6370    -4.9100     0.6900 C.ar  1 <1>   0.0860 
 21 O        9.2920    -6.7840    -1.6710 O.2   1 <1>  -0.5700 
 22 N        9.7770    -5.2740    -0.0210 N.am  1 <1>  -0.4200 
 23 C        9.0170    -4.5710     0.8840 C.2   1 <1>   0.5440 
 24 C       11.2500    -5.2450    -0.1920 C.3   1 <1>   0.2200 
 25 O        9.4490    -3.7920     1.7080 O.2   1 <1>  -0.5700 
 26 C       11.9590    -5.7390     1.0780 C.3   1 <1>  -0.1600 
 27 C       11.7270    -3.8410    -0.5930 C.3   1 <1>  -0.1600 
 28 C       13.4850    -5.7070     0.9020 C.3   1 <1>  -0.1600 
 29 C       13.2530    -3.8090    -0.7670 C.3   1 <1>  -0.1600 
 30 C       13.9650    -4.3050     0.4990 C.3   1 <1>  -0.1600 
 31 H        1.1130    -1.8460    -1.8410 H     1 <1>   0.1500 
 32 H       -1.8140    -1.9150     1.2370 H     1 <1>   0.1500 
 33 H        1.5950    -4.2110    -1.4650 H     1 <1>   0.1500 
 34 H       -1.3510    -4.2980     1.6350 H     1 <1>   0.1500 
 35 H        1.3720    -6.5390    -1.4030 H     1 <1>   0.0800 
 36 H        1.5090    -7.6490    -0.0560 H     1 <1>   0.0800 
 37 H        6.3530    -7.0570    -1.5720 H     1 <1>   0.1500 
 38 H        4.3530    -4.7000     1.3880 H     1 <1>   0.1500 
 39 H        6.5190    -3.7900     2.1210 H     1 <1>   0.1500 
 40 H       11.5090    -5.9180    -0.9920 H     1 <1>   0.0800 
 41 H       11.6480    -6.7460     1.2950 H     1 <1>   0.0800 
 42 H       11.6960    -5.1120     1.9110 H     1 <1>   0.0800 
 43 H       11.4540    -3.1310     0.1680 H     1 <1>   0.0800 
 44 H       11.2580    -3.5520    -1.5160 H     1 <1>   0.0800 
 45 H       13.7730    -6.4150     0.1440 H     1 <1>   0.0800 
 46 H       13.9590    -5.9980     1.8240 H     1 <1>   0.0800 
 47 H       13.5690    -2.8040    -0.9870 H     1 <1>   0.0800 
 48 H       13.5310    -4.4320    -1.6010 H     1 <1>   0.0800 
 49 H       15.0280    -4.3240     0.3310 H     1 <1>   0.0800 
 50 H       13.7720    -3.6190     1.3060 H     1 <1>   0.0800 
@<TRIPOS>BOND
  1   1   2  1   
  2   2   3  ar  
  3   2   4  ar  
  4   3   5  ar  
  5   3  31  1   
  6   4   6  ar  
  7   4  32  1   
  8   5   7  ar  
  9   5  33  1   
 10   6   7  ar  
 11   6  34  1   
 12   7   8  1   
 13   8   9  2   
 14   8  10  1   
 15  10  11  1   
 16  10  35  1   
 17  10  36  1   
 18  11  12  1   
 19  12  13  2   
 20  12  14  1   
 21  14  15  ar  
 22  14  16  ar  
 23  15  17  ar  
 24  15  37  1   
 25  16  18  ar  
 26  16  38  1   
 27  17  19  1   
 28  17  20  ar  
 29  18  20  ar  
 30  18  39  1   
 31  19  21  2   
 32  19  22  am  
 33  20  23  1   
 34  22  23  am  
 35  22  24  1   
 36  23  25  2   
 37  24  26  1   
 38  24  27  1   
 39  24  40  1   
 40  26  28  1   
 41  26  41  1   
 42  26  42  1   
 43  27  29  1   
 44  27  43  1   
 45  27  44  1   
 46  28  30  1   
 47  28  45  1   
 48  28  46  1   
 49  29  30  1   
 50  29  47  1   
 51  29  48  1   
 52  30  49  1   
 53  30  50  1   
@<TRIPOS>SUBSTRUCTURE
  1 ****  16 GROUP 4 **** **** 0

# MOE 2024.06 (io_trps.svl 2023.06)
