@<TRIPOS>MOLECULE
NONAME
39 41 1 0 0 
SMALL
USER_CHARGES


@<TRIPOS>ATOM
  1 O       -0.8080     0.0930    -1.0170 O.2   1 <1>  -0.5700 
  2 C       -1.2240     1.2140    -0.7610 C.2   1 <1>   0.7160 
  3 N       -2.5980     1.3770    -0.6970 N.am  1 <1>  -0.6600 
  4 C       -0.2620     2.2930    -0.5360 C.2   1 <1>   0.2030 
  5 C       -3.5070     0.2480    -0.3290 C.3   1 <1>   0.1400 
  6 C       -3.2960     2.7000    -0.6860 C.3   1 <1>   0.1400 
  7 N       -0.4390     3.4110     0.1530 N.2   1 <1>  -0.7070 
  8 C        1.0480     2.2550    -1.0340 C.2   1 <1>  -0.1500 
  9 C       -4.1710     0.5000     1.0390 C.3   1 <1>   0.2090 
 10 C       -3.9050     2.9680     0.6980 C.3   1 <1>   0.2090 
 11 N        0.7240     4.0700     0.0920 N.pl3 1 <1>   0.3140 
 12 C        1.6390     3.3910    -0.6210 C.2   1 <1>  -0.3020 
 13 N       -4.8280     1.8480     1.0810 N.pl3 1 <1>  -0.8380 
 14 C        0.9240     5.3760     0.7540 C.3   1 <1>   0.0960 
 15 C       -6.1940     2.0020     1.1760 C.ar  1 <1>   0.7200 
 16 C        0.6950     6.5320    -0.2270 C.3   1 <1>  -0.2400 
 17 N       -6.8810     0.9920     1.7100 N.ar  1 <1>  -0.6200 
 18 N       -6.7150     3.1420     0.7230 N.ar  1 <1>  -0.6200 
 19 C       -8.1780     1.1500     1.8010 C.ar  1 <1>   0.1600 
 20 C       -8.0150     3.2730     0.8260 C.ar  1 <1>   0.1600 
 21 C       -8.8070     2.2910     1.3670 C.ar  1 <1>  -0.1500 
 22 H       -2.9660    -0.6810    -0.2900 H     1 <1>   0.0800 
 23 H       -4.2730     0.1520    -1.0790 H     1 <1>   0.0800 
 24 H       -4.0900     2.6850    -1.4110 H     1 <1>   0.0800 
 25 H       -2.6300     3.4970    -0.9590 H     1 <1>   0.0800 
 26 H        1.4570     1.4530    -1.6230 H     1 <1>   0.1500 
 27 H       -3.4210     0.4550     1.8080 H     1 <1>   0.0800 
 28 H       -4.8770    -0.2870     1.2300 H     1 <1>   0.0800 
 29 H       -4.4140     3.9150     0.6900 H     1 <1>   0.0800 
 30 H       -3.1110     3.0370     1.4220 H     1 <1>   0.0800 
 31 H        2.6390     3.7470    -0.7890 H     1 <1>   0.1500 
 32 H        1.9230     5.4100     1.1470 H     1 <1>   0.0800 
 33 H        0.2300     5.4460     1.5720 H     1 <1>   0.0800 
 34 H        1.3930     6.4760    -1.0440 H     1 <1>   0.0800 
 35 H        0.8320     7.4720     0.2780 H     1 <1>   0.0800 
 36 H       -0.3080     6.4950    -0.6140 H     1 <1>   0.0800 
 37 H       -8.7540     0.3500     2.2330 H     1 <1>   0.1500 
 38 H       -8.4600     4.1860     0.4690 H     1 <1>   0.1500 
 39 H       -9.8710     2.4090     1.4470 H     1 <1>   0.1500 
@<TRIPOS>BOND
  1   1   2  2   
  2   2   3  am  
  3   2   4  1   
  4   3   5  1   
  5   3   6  1   
  6   4   7  2   
  7   4   8  1   
  8   5   9  1   
  9   5  22  1   
 10   5  23  1   
 11   6  10  1   
 12   6  24  1   
 13   6  25  1   
 14   7  11  1   
 15   8  12  2   
 16   8  26  1   
 17   9  13  1   
 18   9  27  1   
 19   9  28  1   
 20  10  13  1   
 21  10  29  1   
 22  10  30  1   
 23  11  12  1   
 24  11  14  1   
 25  12  31  1   
 26  13  15  1   
 27  14  16  1   
 28  14  32  1   
 29  14  33  1   
 30  15  17  ar  
 31  15  18  ar  
 32  16  34  1   
 33  16  35  1   
 34  16  36  1   
 35  17  19  ar  
 36  18  20  ar  
 37  19  21  ar  
 38  19  37  1   
 39  20  21  ar  
 40  20  38  1   
 41  21  39  1   
@<TRIPOS>SUBSTRUCTURE
  1 ****   6 GROUP 4 **** **** 0

# MOE 2024.06 (io_trps.svl 2023.06)
