@<TRIPOS>MOLECULE
NONAME
41 43 1 0 0 
SMALL
USER_CHARGES


@<TRIPOS>ATOM
  1 O        0.4190     0.7840    -0.5890 O.co2 1 <1>  -0.9000 
  2 C       -0.1690     1.8440    -0.8410 C.2   1 <1>   0.9060 
  3 O       -0.2600     2.2780    -1.9910 O.co2 1 <1>  -0.9000 
  4 C       -0.8420     2.5590     0.3240 C.3   1 <1>  -0.1860 
  5 C       -2.4280     2.0740     0.6670 C.3   1 <1>  -0.0190 
  6 C       -0.8480     4.1910     0.1420 C.3   1 <1>  -0.0800 
  7 C       -2.9870     0.8070    -0.0070 C.2   1 <1>   0.5690 
  8 C       -3.3810     3.4030     0.4900 C.3   1 <1>  -0.0800 
  9 C       -2.1100     3.7990     0.3410 C.3   1 <1>  -0.1600 
 10 C       -1.8100     5.5070     0.0160 C.3   1 <1>  -0.1600 
 11 O       -4.1830     0.6990    -0.1620 O.2   1 <1>  -0.5700 
 12 N       -2.1560    -0.2010    -0.3570 N.am  1 <1>  -0.7300 
 13 C       -3.3750     5.0300     0.3560 C.3   1 <1>  -0.1600 
 14 C       -2.5110    -1.3480    -1.1860 C.3   1 <1>   0.3640 
 15 C       -1.8300    -2.6040    -0.6480 C.ar  1 <1>  -0.1440 
 16 C       -2.0680    -1.0450    -2.6140 C.3   1 <1>  -0.2400 
 17 C       -2.5840    -3.7310    -0.3530 C.ar  1 <1>  -0.1500 
 18 C       -0.4560    -2.6430    -0.4480 C.ar  1 <1>  -0.1500 
 19 C       -1.9770    -4.8790     0.1280 C.ar  1 <1>  -0.1500 
 20 C        0.1530    -3.7890     0.0330 C.ar  1 <1>  -0.1500 
 21 C       -0.6070    -4.9090     0.3210 C.ar  1 <1>  -0.1500 
 22 H       -0.2360     2.3120     1.1790 H     1 <1>   0.0800 
 23 H       -2.4450     1.8120     1.7140 H     1 <1>   0.0800 
 24 H       -0.2050     4.4870     0.9590 H     1 <1>   0.0800 
 25 H       -3.9840     3.1400    -0.3700 H     1 <1>   0.0800 
 26 H       -2.2200     3.6330    -0.8200 H     1 <1>   0.0800 
 27 H       -1.9830     3.9540     1.4980 H     1 <1>   0.0800 
 28 H       -1.7520     5.9000    -0.9890 H     1 <1>   0.0800 
 29 H       -1.4940     6.2870     0.6900 H     1 <1>   0.0800 
 30 H       -1.1330    -0.0250    -0.3430 H     1 <1>   0.3700 
 31 H       -3.7100     5.4800     1.2780 H     1 <1>   0.0800 
 32 H       -4.0430     5.3530    -0.4260 H     1 <1>   0.0800 
 33 H       -3.5790    -1.4810    -1.1690 H     1 <1>   0.0800 
 34 H       -1.0120    -0.8400    -2.6440 H     1 <1>   0.0800 
 35 H       -2.5950    -0.1850    -2.9840 H     1 <1>   0.0800 
 36 H       -2.2790    -1.8840    -3.2490 H     1 <1>   0.0800 
 37 H       -3.6500    -3.7150    -0.4970 H     1 <1>   0.1500 
 38 H        0.1460    -1.7730    -0.6660 H     1 <1>   0.1500 
 39 H       -2.5710    -5.7460     0.3530 H     1 <1>   0.1500 
 40 H        1.2180    -3.8000     0.1830 H     1 <1>   0.1500 
 41 H       -0.1330    -5.7990     0.6950 H     1 <1>   0.1500 
@<TRIPOS>BOND
  1   1   2  ar  
  2   2   3  ar  
  3   2   4  1   
  4   4   5  1   
  5   4   6  1   
  6   4  22  1   
  7   5   7  1   
  8   5   8  1   
  9   5  23  1   
 10   6   9  1   
 11   6  10  1   
 12   6  24  1   
 13   7  11  2   
 14   7  12  am  
 15   8   9  1   
 16   8  13  1   
 17   8  25  1   
 18   9  26  1   
 19   9  27  1   
 20  10  13  1   
 21  10  28  1   
 22  10  29  1   
 23  12  14  1   
 24  12  30  1   
 25  13  31  1   
 26  13  32  1   
 27  14  15  1   
 28  14  16  1   
 29  14  33  1   
 30  15  17  ar  
 31  15  18  ar  
 32  16  34  1   
 33  16  35  1   
 34  16  36  1   
 35  17  19  ar  
 36  17  37  1   
 37  18  20  ar  
 38  18  38  1   
 39  19  21  ar  
 40  19  39  1   
 41  20  21  ar  
 42  20  40  1   
 43  21  41  1   
@<TRIPOS>SUBSTRUCTURE
  1 ****  12 GROUP 4 **** **** 0

# MOE 2024.06 (io_trps.svl 2023.06)
