@<TRIPOS>MOLECULE
NONAME
35 36 1 0 0 
SMALL
USER_CHARGES


@<TRIPOS>ATOM
  1 CL       1.1700     1.4060     2.8180 Cl    1 <1>  -0.1770 
  2 C        1.9570     1.4520     1.2580 C.ar  1 <1>   0.1770 
  3 C        1.3490     2.0940     0.1890 C.ar  1 <1>  -0.1440 
  4 C        3.1870     0.8380     1.1280 C.ar  1 <1>  -0.1500 
  5 C        2.0060     2.1040    -1.0310 C.ar  1 <1>  -0.1500 
  6 C       -0.0070     2.7690     0.3400 C.3   1 <1>  -0.0960 
  7 C        3.8600     0.8510    -0.0900 C.ar  1 <1>   0.0860 
  8 C        3.2400     1.4890    -1.1640 C.ar  1 <1>  -0.1500 
  9 C        5.1570     0.2160    -0.2280 C.2   1 <1>   0.5440 
 10 O        5.2600    -0.9650     0.0450 O.2   1 <1>  -0.5700 
 11 N        6.2720     0.9130    -0.6510 N.am  1 <1>  -0.6600 
 12 C        6.3560     2.4000    -0.6890 C.3   1 <1>   0.1400 
 13 C        7.5570     0.2220    -0.9540 C.3   1 <1>   0.1400 
 14 C        7.4340     2.8820     0.2880 C.3   1 <1>  -0.1600 
 15 C        8.6390     0.6890     0.0240 C.3   1 <1>  -0.1600 
 16 C        8.7920     2.2180     0.0110 C.3   1 <1>  -0.0800 
 17 C        9.8330     2.6650     1.0430 C.3   1 <1>  -0.2400 
 18 H        3.6290     0.3410     1.9730 H     1 <1>   0.1500 
 19 H        1.5600     2.5870    -1.8840 H     1 <1>   0.1500 
 20 H       -0.7450     2.0460     0.6400 H     1 <1>   0.0800 
 21 H       -0.3230     3.2150    -0.5850 H     1 <1>   0.0800 
 22 H        0.0470     3.5380     1.0900 H     1 <1>   0.0800 
 23 H        3.7380     1.4950    -2.1190 H     1 <1>   0.1500 
 24 H        5.4170     2.8500    -0.4210 H     1 <1>   0.0800 
 25 H        6.6050     2.7100    -1.6890 H     1 <1>   0.0800 
 26 H        7.8500     0.4580    -1.9630 H     1 <1>   0.0800 
 27 H        7.4440    -0.8460    -0.8850 H     1 <1>   0.0800 
 28 H        7.1140     2.6570     1.2900 H     1 <1>   0.0800 
 29 H        7.5290     3.9500     0.2050 H     1 <1>   0.0800 
 30 H        9.5730     0.2260    -0.2410 H     1 <1>   0.0800 
 31 H        8.3740     0.3510     1.0110 H     1 <1>   0.0800 
 32 H        9.1290     2.5200    -0.9660 H     1 <1>   0.0800 
 33 H        9.5300     2.3790     2.0350 H     1 <1>   0.0800 
 34 H        9.9510     3.7340     1.0150 H     1 <1>   0.0800 
 35 H       10.7860     2.2130     0.8320 H     1 <1>   0.0800 
@<TRIPOS>BOND
  1   1   2  1   
  2   2   3  ar  
  3   2   4  ar  
  4   3   5  ar  
  5   3   6  1   
  6   4   7  ar  
  7   4  18  1   
  8   5   8  ar  
  9   5  19  1   
 10   6  20  1   
 11   6  21  1   
 12   6  22  1   
 13   7   8  ar  
 14   7   9  1   
 15   8  23  1   
 16   9  10  2   
 17   9  11  am  
 18  11  12  1   
 19  11  13  1   
 20  12  14  1   
 21  12  24  1   
 22  12  25  1   
 23  13  15  1   
 24  13  26  1   
 25  13  27  1   
 26  14  16  1   
 27  14  28  1   
 28  14  29  1   
 29  15  16  1   
 30  15  30  1   
 31  15  31  1   
 32  16  17  1   
 33  16  32  1   
 34  17  33  1   
 35  17  34  1   
 36  17  35  1   
@<TRIPOS>SUBSTRUCTURE
  1 ****   7 GROUP 4 **** **** 0

# MOE 2024.06 (io_trps.svl 2023.06)
