@<TRIPOS>MOLECULE
NONAME
41 43 1 0 0 
SMALL
USER_CHARGES


@<TRIPOS>ATOM
  1 O        0.2420    -0.2090    -1.2560 O.2   1 <1>  -0.5700 
  2 C        1.2980    -0.6940    -0.9240 C.2   1 <1>   0.4950 
  3 C        2.4230     0.0740    -0.5400 C.2   1 <1>  -0.1360 
  4 C        1.4280    -2.2050    -0.9390 C.3   1 <1>  -0.0990 
  5 C        3.6200    -0.4330    -0.1480 C.2   1 <1>  -0.0380 
  6 C        2.4710    -2.6800     0.0860 C.3   1 <1>   0.0640 
  7 N        4.7200     0.3020     0.1990 N.pl3 1 <1>  -0.8690 
  8 C        3.8130    -1.9420    -0.0750 C.3   1 <1>  -0.0220 
  9 C        2.6570    -4.1950     0.0270 C.ar  1 <1>  -0.1430 
 10 C        4.8810     1.7790     0.1970 C.3   1 <1>   0.2090 
 11 C        3.1300    -4.8190    -1.1200 C.ar  1 <1>  -0.1500 
 12 C        2.3490    -4.9720     1.1340 C.ar  1 <1>  -0.1500 
 13 C        6.3350     2.1570    -0.1360 C.3   1 <1>   0.2000 
 14 C        3.2930    -6.1930    -1.1590 C.ar  1 <1>  -0.1500 
 15 C        2.5110    -6.3470     1.0970 C.ar  1 <1>  -0.1500 
 16 O        7.2280     1.4720     0.6900 O.3   1 <1>  -0.5600 
 17 C        6.6690     3.6250     0.0840 C.3   1 <1>  -0.1600 
 18 C        2.9830    -6.9580    -0.0500 C.ar  1 <1>  -0.1500 
 19 C        8.4400     2.1530     0.7720 C.3   1 <1>   0.1200 
 20 C        8.1680     3.5900     0.3290 C.3   1 <1>  -0.1600 
 21 H        2.2660     1.1330    -0.5820 H     1 <1>   0.1500 
 22 H        1.7070    -2.5060    -1.9310 H     1 <1>   0.0800 
 23 H        0.4740    -2.6440    -0.7090 H     1 <1>   0.0800 
 24 H        2.0920    -2.4220     1.0610 H     1 <1>   0.0800 
 25 H        5.5930    -0.1500     0.5160 H     1 <1>   0.4000 
 26 H        4.4390    -2.1860     0.7650 H     1 <1>   0.0800 
 27 H        4.3180    -2.2630    -0.9670 H     1 <1>   0.0800 
 28 H        4.6250     2.1600     1.1700 H     1 <1>   0.0800 
 29 H        4.2240     2.2230    -0.5280 H     1 <1>   0.0800 
 30 H        3.3780    -4.2410    -1.9940 H     1 <1>   0.1500 
 31 H        1.9810    -4.5150     2.0360 H     1 <1>   0.1500 
 32 H        6.5590     1.8770    -1.1520 H     1 <1>   0.0800 
 33 H        3.6600    -6.6660    -2.0530 H     1 <1>   0.1500 
 34 H        2.2690    -6.9400     1.9620 H     1 <1>   0.1500 
 35 H        6.1620     3.9880     0.9610 H     1 <1>   0.0800 
 36 H        6.4010     4.2310    -0.7630 H     1 <1>   0.0800 
 37 H        3.1080    -8.0260    -0.0790 H     1 <1>   0.1500 
 38 H        9.1480     1.6670     0.1220 H     1 <1>   0.0800 
 39 H        8.7840     2.1050     1.7910 H     1 <1>   0.0800 
 40 H        8.4710     4.2980     1.0800 H     1 <1>   0.0800 
 41 H        8.7090     3.7910    -0.5800 H     1 <1>   0.0800 
@<TRIPOS>BOND
  1   1   2  2   
  2   2   3  1   
  3   2   4  1   
  4   3   5  2   
  5   3  21  1   
  6   4   6  1   
  7   4  22  1   
  8   4  23  1   
  9   5   7  1   
 10   5   8  1   
 11   6   8  1   
 12   6   9  1   
 13   6  24  1   
 14   7  10  1   
 15   7  25  1   
 16   8  26  1   
 17   8  27  1   
 18   9  11  ar  
 19   9  12  ar  
 20  10  13  1   
 21  10  28  1   
 22  10  29  1   
 23  11  14  ar  
 24  11  30  1   
 25  12  15  ar  
 26  12  31  1   
 27  13  16  1   
 28  13  17  1   
 29  13  32  1   
 30  14  18  ar  
 31  14  33  1   
 32  15  18  ar  
 33  15  34  1   
 34  16  19  1   
 35  17  20  1   
 36  17  35  1   
 37  17  36  1   
 38  18  37  1   
 39  19  20  1   
 40  19  38  1   
 41  19  39  1   
 42  20  40  1   
 43  20  41  1   
@<TRIPOS>SUBSTRUCTURE
  1 ****   8 GROUP 4 **** **** 0

# MOE 2024.06 (io_trps.svl 2023.06)
