@<TRIPOS>MOLECULE
NONAME
42 43 1 0 0 
SMALL
USER_CHARGES


@<TRIPOS>ATOM
  1 O       -1.4990     0.1920     1.3530 O.3   1 <1>  -0.3630 
  2 C       -2.0980     0.9320     0.3890 C.ar  1 <1>   0.0830 
  3 C       -0.8350    -0.9890     0.9570 C.3   1 <1>   0.1200 
  4 C       -1.5220     2.1210    -0.0640 C.ar  1 <1>   0.0830 
  5 C       -3.3150     0.5040    -0.1130 C.ar  1 <1>  -0.1500 
  6 C        0.5350    -0.6410     0.3770 C.3   1 <1>  -0.2400 
  7 O       -0.3330     2.5080     0.4760 O.3   1 <1>  -0.3620 
  8 C       -2.1830     2.8550    -1.0440 C.ar  1 <1>  -0.1500 
  9 C       -3.9780     1.2500    -1.0760 C.ar  1 <1>  -0.1440 
 10 C        0.3250     3.6850     0.0650 C.3   1 <1>   0.0400 
 11 C       -3.3990     2.4210    -1.5450 C.ar  1 <1>  -0.1500 
 12 C       -5.3290     0.7980    -1.5930 C.3   1 <1>   0.4860 
 13 N       -6.3320     0.9740    -0.5070 N.4   1 <1>  -0.9590 
 14 C       -7.6330     0.3350    -0.8520 C.3   1 <1>   0.3430 
 15 C       -6.4880     2.4100    -0.1260 C.3   1 <1>   0.3430 
 16 C       -8.5770     0.4100     0.3490 C.3   1 <1>  -0.1600 
 17 C       -7.4150     2.5230     1.0860 C.3   1 <1>  -0.1600 
 18 C       -8.7720     1.8540     0.8310 C.3   1 <1>  -0.1600 
 19 H       -1.4410    -1.5130     0.2390 H     1 <1>   0.0800 
 20 H       -0.7200    -1.6000     1.8350 H     1 <1>   0.0800 
 21 H       -3.7260    -0.4130     0.2700 H     1 <1>   0.1500 
 22 H        0.4270    -0.0700    -0.5280 H     1 <1>   0.0800 
 23 H        1.0740    -1.5410     0.1480 H     1 <1>   0.0800 
 24 H        1.1020    -0.0710     1.0920 H     1 <1>   0.0800 
 25 H       -1.7650     3.7670    -1.4270 H     1 <1>   0.1500 
 26 H        1.2360     3.7700     0.6290 H     1 <1>   0.0800 
 27 H       -0.3090     4.5290     0.2690 H     1 <1>   0.0800 
 28 H        0.5510     3.6130    -0.9840 H     1 <1>   0.0800 
 29 H       -3.8850     3.0130    -2.3040 H     1 <1>   0.1500 
 30 H       -5.2690    -0.2400    -1.8790 H     1 <1>   0.0800 
 31 H       -5.6080     1.3770    -2.4580 H     1 <1>   0.0800 
 32 H       -5.9520     0.5010     0.3220 H     1 <1>   0.4500 
 33 H       -7.4810    -0.6980    -1.1230 H     1 <1>   0.0800 
 34 H       -8.0790     0.8460    -1.6900 H     1 <1>   0.0800 
 35 H       -6.9050     2.9650    -0.9510 H     1 <1>   0.0800 
 36 H       -5.5280     2.8370     0.1210 H     1 <1>   0.0800 
 37 H       -8.1860    -0.1940     1.1500 H     1 <1>   0.0800 
 38 H       -9.5320    -0.0040     0.0730 H     1 <1>   0.0800 
 39 H       -7.5680     3.5630     1.3150 H     1 <1>   0.0800 
 40 H       -6.9380     2.0740     1.9400 H     1 <1>   0.0800 
 41 H       -9.3590     1.8620     1.7350 H     1 <1>   0.0800 
 42 H       -9.3130     2.4120     0.0850 H     1 <1>   0.0800 
@<TRIPOS>BOND
  1   1   2  1   
  2   1   3  1   
  3   2   4  ar  
  4   2   5  ar  
  5   3   6  1   
  6   3  19  1   
  7   3  20  1   
  8   4   7  1   
  9   4   8  ar  
 10   5   9  ar  
 11   5  21  1   
 12   6  22  1   
 13   6  23  1   
 14   6  24  1   
 15   7  10  1   
 16   8  11  ar  
 17   8  25  1   
 18   9  11  ar  
 19   9  12  1   
 20  10  26  1   
 21  10  27  1   
 22  10  28  1   
 23  11  29  1   
 24  12  13  1   
 25  12  30  1   
 26  12  31  1   
 27  13  14  1   
 28  13  15  1   
 29  13  32  1   
 30  14  16  1   
 31  14  33  1   
 32  14  34  1   
 33  15  17  1   
 34  15  35  1   
 35  15  36  1   
 36  16  18  1   
 37  16  37  1   
 38  16  38  1   
 39  17  18  1   
 40  17  39  1   
 41  17  40  1   
 42  18  41  1   
 43  18  42  1   
@<TRIPOS>SUBSTRUCTURE
  1 ****   5 GROUP 4 **** **** 0

# MOE 2024.06 (io_trps.svl 2023.06)
