@<TRIPOS>MOLECULE
NONAME
45 47 1 0 0 
SMALL
USER_CHARGES


@<TRIPOS>ATOM
  1 S        0.1240     0.0570    -0.3860 S.o2  1 <1>   1.4470 
  2 O       -0.2560     0.2830    -1.7650 O.2   1 <1>  -0.6500 
  3 O       -0.8550     0.2660     0.6610 O.2   1 <1>  -0.6500 
  4 N        0.5480    -1.5840    -0.2900 N.am  1 <1>  -0.8490 
  5 C        1.6830     0.9270    -0.0470 C.ar  1 <1>  -0.0090 
  6 C        0.7050    -2.1040     1.0600 C.3   1 <1>   0.1960 
  7 C       -0.4180    -2.4580    -0.9290 C.3   1 <1>   0.1960 
  8 C        1.6730     2.2810     0.2750 C.ar  1 <1>   0.0820 
  9 C        2.9120     0.2840    -0.1290 C.ar  1 <1>  -0.1500 
 10 C        0.7220    -3.6150     0.8700 C.3   1 <1>  -0.1600 
 11 C       -0.0800    -3.8520    -0.4100 C.3   1 <1>  -0.1600 
 12 O        0.4770     2.9080     0.3140 O.3   1 <1>  -0.3620 
 13 C        2.8680     2.9470     0.5390 C.ar  1 <1>  -0.1500 
 14 C        4.1240     0.9230     0.1270 C.ar  1 <1>   0.0860 
 15 C        0.3250     4.2660     0.6580 C.3   1 <1>   0.0400 
 16 C        4.0710     2.2730     0.4690 C.ar  1 <1>  -0.1500 
 17 C        5.3770     0.1990     0.0410 C.2   1 <1>   0.5440 
 18 O        5.4320    -0.9810     0.3250 O.2   1 <1>  -0.5700 
 19 N        6.5170     0.8190    -0.3770 N.am  1 <1>  -0.7300 
 20 C        7.8290     0.1480    -0.5170 C.3   1 <1>   0.3200 
 21 C        8.9590     1.1350    -0.2730 C.2   1 <1>  -0.0400 
 22 O       10.1780     0.7870    -0.6390 O.3   1 <1>  -0.2800 
 23 C        8.9710     2.3710     0.2770 C.2   1 <1>  -0.1500 
 24 C       10.9880     1.7810    -0.3370 C.2   1 <1>  -0.0100 
 25 C       10.3050     2.7950     0.2330 C.2   1 <1>  -0.1500 
 26 H       -0.1420    -1.8320     1.6700 H     1 <1>   0.0800 
 27 H        1.6110    -1.7460     1.5190 H     1 <1>   0.0800 
 28 H       -0.3430    -2.3950    -2.0020 H     1 <1>   0.0800 
 29 H       -1.4160    -2.1830    -0.6240 H     1 <1>   0.0800 
 30 H        2.9490    -0.7570    -0.4040 H     1 <1>   0.1500 
 31 H        0.2940    -4.1160     1.7200 H     1 <1>   0.0800 
 32 H        1.7370    -3.9460     0.7390 H     1 <1>   0.0800 
 33 H        0.5170    -4.3760    -1.1350 H     1 <1>   0.0800 
 34 H       -0.9800    -4.4110    -0.2240 H     1 <1>   0.0800 
 35 H        2.8760     3.9880     0.8000 H     1 <1>   0.1500 
 36 H       -0.7240     4.5010     0.6250 H     1 <1>   0.0800 
 37 H        0.8570     4.8700    -0.0550 H     1 <1>   0.0800 
 38 H        0.7010     4.4190     1.6550 H     1 <1>   0.0800 
 39 H        4.9830     2.8000     0.6900 H     1 <1>   0.1500 
 40 H        6.4740     1.7520    -0.7850 H     1 <1>   0.3700 
 41 H        7.9130    -0.2480    -1.5140 H     1 <1>   0.0800 
 42 H        7.9090    -0.6680     0.1810 H     1 <1>   0.0800 
 43 H        8.1550     2.9410     0.6820 H     1 <1>   0.1500 
 44 H       12.0360     1.6830    -0.5620 H     1 <1>   0.1500 
 45 H       10.6750     3.7400     0.5910 H     1 <1>   0.1500 
@<TRIPOS>BOND
  1   1   2  2   
  2   1   3  2   
  3   1   4  am  
  4   1   5  1   
  5   4   6  1   
  6   4   7  1   
  7   5   8  ar  
  8   5   9  ar  
  9   6  10  1   
 10   6  26  1   
 11   6  27  1   
 12   7  11  1   
 13   7  28  1   
 14   7  29  1   
 15   8  12  1   
 16   8  13  ar  
 17   9  14  ar  
 18   9  30  1   
 19  10  11  1   
 20  10  31  1   
 21  10  32  1   
 22  11  33  1   
 23  11  34  1   
 24  12  15  1   
 25  13  16  ar  
 26  13  35  1   
 27  14  16  ar  
 28  14  17  1   
 29  15  36  1   
 30  15  37  1   
 31  15  38  1   
 32  16  39  1   
 33  17  18  2   
 34  17  19  am  
 35  19  20  1   
 36  19  40  1   
 37  20  21  1   
 38  20  41  1   
 39  20  42  1   
 40  21  22  1   
 41  21  23  2   
 42  22  24  1   
 43  23  25  1   
 44  23  43  1   
 45  24  25  2   
 46  24  44  1   
 47  25  45  1   
@<TRIPOS>SUBSTRUCTURE
  1 ****  14 GROUP 4 **** **** 0

# MOE 2024.06 (io_trps.svl 2023.06)
