@<TRIPOS>MOLECULE
NONAME
24 24 1 0 0 
SMALL
USER_CHARGES


@<TRIPOS>ATOM
  1 P       -0.0920    -0.3650     0.1030 P.3   1 <1>   1.1710 
  2 O       -0.3290    -0.2950     1.5720 O.co2 1 <1>  -0.9500 
  3 O        0.6490    -1.5330    -0.4540 O.co2 1 <1>  -0.9500 
  4 O       -1.5420    -0.4250    -0.5610 O.3   1 <1>  -0.7710 
  5 C        0.6920     1.2010    -0.4370 C.3   1 <1>   0.3430 
  6 N        2.0610     1.4310     0.1720 N.4   1 <1>  -0.9590 
  7 C        2.6470     2.8030    -0.0560 C.3   1 <1>   0.3170 
  8 C        3.0160     0.4830    -0.4300 C.3   1 <1>   0.3430 
  9 C        2.3670     3.4730    -1.4310 C.2   1 <1>   0.9060 
 10 C        4.1480     2.5620     0.1540 C.3   1 <1>  -0.1600 
 11 C        4.3760     1.0580    -0.0600 C.3   1 <1>  -0.1600 
 12 O        2.3540     2.7750    -2.4550 O.co2 1 <1>  -0.9000 
 13 O        2.1400     4.6860    -1.4540 O.co2 1 <1>  -0.9000 
 14 H       -1.9140    -1.2690    -0.2740 H     1 <1>   0.5000 
 15 H        0.0640     2.0270    -0.1610 H     1 <1>   0.0800 
 16 H        0.7880     1.2270    -1.5080 H     1 <1>   0.0800 
 17 H        1.9700     1.2120     1.1730 H     1 <1>   0.4500 
 18 H        2.2780     3.4860     0.6880 H     1 <1>   0.0800 
 19 H        2.8980     0.4950    -1.5030 H     1 <1>   0.0800 
 20 H        2.8680    -0.5220    -0.0640 H     1 <1>   0.0800 
 21 H        4.4220     2.8480     1.1530 H     1 <1>   0.0800 
 22 H        4.7240     3.1510    -0.5400 H     1 <1>   0.0800 
 23 H        5.0810     0.8700    -0.8500 H     1 <1>   0.0800 
 24 H        4.7290     0.5950     0.8440 H     1 <1>   0.0800 
@<TRIPOS>BOND
  1   1   2  ar  
  2   1   3  ar  
  3   1   4  1   
  4   1   5  1   
  5   4  14  1   
  6   5   6  1   
  7   5  15  1   
  8   5  16  1   
  9   6   7  1   
 10   6   8  1   
 11   6  17  1   
 12   7   9  1   
 13   7  10  1   
 14   7  18  1   
 15   8  11  1   
 16   8  19  1   
 17   8  20  1   
 18   9  12  ar  
 19   9  13  ar  
 20  10  11  1   
 21  10  21  1   
 22  10  22  1   
 23  11  23  1   
 24  11  24  1   
@<TRIPOS>SUBSTRUCTURE
  1 ****   6 GROUP 4 **** **** 0

# MOE 2024.06 (io_trps.svl 2023.06)
