@<TRIPOS>MOLECULE
NONAME
52 54 1 0 0 
SMALL
USER_CHARGES


@<TRIPOS>ATOM
  1 O       -0.4240    -3.1630    -0.6460 O.3   1 <1>  -0.3630 
  2 C       -1.1810    -3.9190     0.1890 C.ar  1 <1>   0.0820 
  3 C        0.3320    -2.0720    -0.1640 C.3   1 <1>   0.1200 
  4 C       -1.7420    -5.0650    -0.3480 C.ar  1 <1>  -0.1500 
  5 C       -1.4070    -3.6000     1.5270 C.ar  1 <1>  -0.1500 
  6 C        1.1510    -1.4850    -1.3240 C.3   1 <1>   0.2000 
  7 C       -2.5220    -5.9030     0.4420 C.ar  1 <1>   0.0820 
  8 C       -2.1840    -4.4330     2.3130 C.ar  1 <1>  -0.1500 
  9 O        1.7540    -2.5280    -2.0370 O.3   1 <1>  -0.6800 
 10 C        2.2410    -0.4880    -0.8620 C.3   1 <1>   0.3430 
 11 O       -3.1020    -7.0430    -0.0090 O.3   1 <1>  -0.3620 
 12 C       -2.7370    -5.5790     1.7720 C.ar  1 <1>  -0.1500 
 13 N        3.5760    -1.1560    -0.7440 N.4   1 <1>  -0.9590 
 14 C       -2.9730    -7.4490    -1.3530 C.3   1 <1>   0.0400 
 15 C        3.7970    -1.8610     0.5730 C.3   1 <1>   0.3430 
 16 C        4.7210    -0.2330    -1.0820 C.3   1 <1>   0.3430 
 17 C        5.1690    -2.5640     0.6460 C.3   1 <1>   0.2090 
 18 C        6.0940    -0.9330    -1.0060 C.3   1 <1>   0.2090 
 19 N        6.2660    -1.6130     0.3090 N.pl3 1 <1>  -0.8380 
 20 C        7.5560    -2.0350     0.6120 C.ar  1 <1>   0.1000 
 21 C        8.2730    -1.3870     1.6090 C.ar  1 <1>  -0.1500 
 22 C        8.1530    -3.0950    -0.0610 C.ar  1 <1>  -0.1500 
 23 C        9.5570    -1.7860     1.9300 C.ar  1 <1>  -0.1500 
 24 C        9.4370    -3.4980     0.2570 C.ar  1 <1>  -0.1500 
 25 C       10.1420    -2.8430     1.2540 C.ar  1 <1>  -0.1500 
 26 H        0.9710    -2.4300     0.6210 H     1 <1>   0.0800 
 27 H       -0.3480    -1.3350     0.2270 H     1 <1>   0.0800 
 28 H       -1.5580    -5.2860    -1.3810 H     1 <1>   0.1500 
 29 H       -1.0000    -2.7150     1.9760 H     1 <1>   0.1500 
 30 H        0.4720    -0.9800    -1.9910 H     1 <1>   0.0800 
 31 H       -2.3640    -4.1920     3.3470 H     1 <1>   0.1500 
 32 H        1.0700    -3.2190    -2.2090 H     1 <1>   0.4000 
 33 H        1.9600    -0.0180     0.0660 H     1 <1>   0.0800 
 34 H        2.3020     0.2860    -1.6090 H     1 <1>   0.0800 
 35 H       -3.3420    -6.2320     2.3760 H     1 <1>   0.1500 
 36 H        3.5290    -1.9000    -1.4690 H     1 <1>   0.4500 
 37 H       -3.5200    -8.3660    -1.4790 H     1 <1>   0.0800 
 38 H       -1.9320    -7.6120    -1.5710 H     1 <1>   0.0800 
 39 H       -3.3870    -6.6870    -1.9900 H     1 <1>   0.0800 
 40 H        3.0270    -2.5970     0.7280 H     1 <1>   0.0800 
 41 H        3.7470    -1.1460     1.3770 H     1 <1>   0.0800 
 42 H        4.7320     0.5920    -0.3900 H     1 <1>   0.0800 
 43 H        4.5880     0.1670    -2.0740 H     1 <1>   0.0800 
 44 H        5.1880    -3.3990    -0.0330 H     1 <1>   0.0800 
 45 H        5.3240    -2.9430     1.6420 H     1 <1>   0.0800 
 46 H        6.8760    -0.2030    -1.1310 H     1 <1>   0.0800 
 47 H        6.1830    -1.6530    -1.8020 H     1 <1>   0.0800 
 48 H        7.8160    -0.5670     2.1310 H     1 <1>   0.1500 
 49 H        7.6140    -3.6070    -0.8340 H     1 <1>   0.1500 
 50 H       10.1030    -1.2760     2.7050 H     1 <1>   0.1500 
 51 H        9.8920    -4.3200    -0.2680 H     1 <1>   0.1500 
 52 H       11.1410    -3.1560     1.5030 H     1 <1>   0.1500 
@<TRIPOS>BOND
  1   1   2  1   
  2   1   3  1   
  3   2   4  ar  
  4   2   5  ar  
  5   3   6  1   
  6   3  26  1   
  7   3  27  1   
  8   4   7  ar  
  9   4  28  1   
 10   5   8  ar  
 11   5  29  1   
 12   6   9  1   
 13   6  10  1   
 14   6  30  1   
 15   7  11  1   
 16   7  12  ar  
 17   8  12  ar  
 18   8  31  1   
 19   9  32  1   
 20  10  13  1   
 21  10  33  1   
 22  10  34  1   
 23  11  14  1   
 24  12  35  1   
 25  13  15  1   
 26  13  16  1   
 27  13  36  1   
 28  14  37  1   
 29  14  38  1   
 30  14  39  1   
 31  15  17  1   
 32  15  40  1   
 33  15  41  1   
 34  16  18  1   
 35  16  42  1   
 36  16  43  1   
 37  17  19  1   
 38  17  44  1   
 39  17  45  1   
 40  18  19  1   
 41  18  46  1   
 42  18  47  1   
 43  19  20  1   
 44  20  21  ar  
 45  20  22  ar  
 46  21  23  ar  
 47  21  48  1   
 48  22  24  ar  
 49  22  49  1   
 50  23  25  ar  
 51  23  50  1   
 52  24  25  ar  
 53  24  51  1   
 54  25  52  1   
@<TRIPOS>SUBSTRUCTURE
  1 ****  15 GROUP 4 **** **** 0

# MOE 2024.06 (io_trps.svl 2023.06)
