@<TRIPOS>MOLECULE
NONAME
47 48 1 0 0 
SMALL
USER_CHARGES


@<TRIPOS>ATOM
  1 O       -3.8780    -0.9740    -0.8620 O.3   1 <1>  -0.6800 
  2 C       -3.6020    -2.0840    -0.0870 C.3   1 <1>   0.4240 
  3 C       -2.1020    -2.0570     0.2660 C.ar  1 <1>  -0.1440 
  4 C       -4.5050    -2.0380     1.1630 C.3   1 <1>  -0.0800 
  5 C       -3.9970    -3.2840    -0.9520 C.3   1 <1>  -0.1600 
  6 C       -1.4020    -3.2300     0.5350 C.ar  1 <1>  -0.1500 
  7 C       -1.4030    -0.8520     0.3460 C.ar  1 <1>  -0.1500 
  8 C       -5.9710    -2.0000     0.7240 C.3   1 <1>   0.3430 
  9 C       -4.2200    -0.8520     2.1090 C.3   1 <1>  -0.2400 
 10 C       -5.4690    -3.2150    -1.3640 C.3   1 <1>   0.4230 
 11 C       -0.0540    -3.2040     0.8480 C.ar  1 <1>  -0.1500 
 12 C       -0.0560    -0.8240     0.6580 C.ar  1 <1>  -0.1500 
 13 N       -6.3300    -3.1690    -0.1440 N.4   1 <1>  -0.9590 
 14 C       -5.8120    -4.4380    -2.2170 C.3   1 <1>  -0.2400 
 15 C        0.6220    -2.0010     0.9060 C.ar  1 <1>  -0.1500 
 16 C       -7.7910    -3.1250    -0.4690 C.3   1 <1>   0.3430 
 17 C       -8.6720    -3.3940     0.7670 C.3   1 <1>  -0.0800 
 18 C       -8.2880    -4.6920     1.5000 C.3   1 <1>  -0.2400 
 19 C      -10.1420    -3.4760     0.3340 C.3   1 <1>  -0.2400 
 20 H       -3.0490    -0.7220    -1.3190 H     1 <1>   0.4000 
 21 H       -4.3440    -2.9370     1.7320 H     1 <1>   0.0800 
 22 H       -3.8340    -4.2020    -0.4210 H     1 <1>   0.0800 
 23 H       -3.3710    -3.3020    -1.8270 H     1 <1>   0.0800 
 24 H       -1.8810    -4.1910     0.5140 H     1 <1>   0.1500 
 25 H       -1.8950     0.0910     0.1810 H     1 <1>   0.1500 
 26 H       -6.1450    -1.0830     0.1830 H     1 <1>   0.0800 
 27 H       -6.5920    -1.9900     1.6040 H     1 <1>   0.0800 
 28 H       -4.3240     0.0870     1.5920 H     1 <1>   0.0800 
 29 H       -3.2200    -0.9130     2.5020 H     1 <1>   0.0800 
 30 H       -4.8990    -0.8590     2.9430 H     1 <1>   0.0800 
 31 H       -5.6230    -2.3190    -1.9470 H     1 <1>   0.0800 
 32 H        0.4730    -4.1220     1.0480 H     1 <1>   0.1500 
 33 H        0.4670     0.1160     0.7110 H     1 <1>   0.1500 
 34 H       -6.1680    -4.0320     0.3860 H     1 <1>   0.4500 
 35 H       -5.7900    -5.3410    -1.6330 H     1 <1>   0.0800 
 36 H       -5.0910    -4.5380    -3.0100 H     1 <1>   0.0800 
 37 H       -6.7720    -4.3330    -2.6890 H     1 <1>   0.0800 
 38 H        1.6710    -1.9810     1.1480 H     1 <1>   0.1500 
 39 H       -8.0230    -3.8810    -1.1980 H     1 <1>   0.0800 
 40 H       -8.0450    -2.1680    -0.8950 H     1 <1>   0.0800 
 41 H       -8.5910    -2.5680     1.4520 H     1 <1>   0.0800 
 42 H       -8.3180    -5.5350     0.8310 H     1 <1>   0.0800 
 43 H       -8.9820    -4.8800     2.3030 H     1 <1>   0.0800 
 44 H       -7.3080    -4.6240     1.9360 H     1 <1>   0.0800 
 45 H      -10.3020    -4.3000    -0.3410 H     1 <1>   0.0800 
 46 H      -10.4460    -2.5670    -0.1560 H     1 <1>   0.0800 
 47 H      -10.7780    -3.6160     1.1920 H     1 <1>   0.0800 
@<TRIPOS>BOND
  1   1   2  1   
  2   1  20  1   
  3   2   3  1   
  4   2   4  1   
  5   2   5  1   
  6   3   6  ar  
  7   3   7  ar  
  8   4   8  1   
  9   4   9  1   
 10   4  21  1   
 11   5  10  1   
 12   5  22  1   
 13   5  23  1   
 14   6  11  ar  
 15   6  24  1   
 16   7  12  ar  
 17   7  25  1   
 18   8  13  1   
 19   8  26  1   
 20   8  27  1   
 21   9  28  1   
 22   9  29  1   
 23   9  30  1   
 24  10  13  1   
 25  10  14  1   
 26  10  31  1   
 27  11  15  ar  
 28  11  32  1   
 29  12  15  ar  
 30  12  33  1   
 31  13  16  1   
 32  13  34  1   
 33  14  35  1   
 34  14  36  1   
 35  14  37  1   
 36  15  38  1   
 37  16  17  1   
 38  16  39  1   
 39  16  40  1   
 40  17  18  1   
 41  17  19  1   
 42  17  41  1   
 43  18  42  1   
 44  18  43  1   
 45  18  44  1   
 46  19  45  1   
 47  19  46  1   
 48  19  47  1   
@<TRIPOS>SUBSTRUCTURE
  1 ****   2 GROUP 4 **** **** 0

# MOE 2024.06 (io_trps.svl 2023.06)
