@<TRIPOS>MOLECULE
NONAME
37 42 1 0 0 
SMALL
USER_CHARGES


@<TRIPOS>ATOM
  1 O        0.5860    -0.7600     1.5960 O.2   1 <1>  -0.5700 
  2 C        1.3500    -1.2950     0.8390 C.2   1 <1>   0.6670 
  3 O        1.0590    -2.4980     0.3470 O.3   1 <1>  -0.4300 
  4 C        2.6470    -0.6010     0.4410 C.3   1 <1>   0.0530 
  5 C        1.8530    -3.2500    -0.5470 C.3   1 <1>   0.0400 
  6 C        3.0550    -0.1700    -0.9980 C.3   1 <1>   0.0000 
  7 C        3.0500     0.8070     0.9790 C.3   1 <1>   0.0000 
  8 C        4.0900    -1.1190     0.7150 C.3   1 <1>   0.0000 
  9 C        3.4640     1.2370    -0.4640 C.3   1 <1>   0.0000 
 10 C        4.5020    -0.6920    -0.7300 C.3   1 <1>   0.0000 
 11 C        4.4980     0.2880     1.2480 C.3   1 <1>   0.0000 
 12 C        4.9060     0.7160    -0.1930 C.3   1 <1>   0.0530 
 13 C        6.1940     1.4260    -0.5900 C.2   1 <1>   0.5770 
 14 O        6.8870     0.8820    -1.4170 O.2   1 <1>  -0.5700 
 15 N        6.5520     2.6310    -0.0360 N.am  1 <1>  -0.6600 
 16 C        7.8250     3.3150    -0.4230 C.3   1 <1>   0.1400 
 17 C        5.7590     3.4200     0.9560 C.3   1 <1>   0.1400 
 18 C        7.5600     4.7800    -0.8070 C.3   1 <1>   0.1200 
 19 C        5.6060     4.8770     0.4890 C.3   1 <1>   0.1200 
 20 O        6.8560     5.4380     0.2090 O.3   1 <1>  -0.5600 
 21 H        1.3390    -4.1740    -0.7490 H     1 <1>   0.0800 
 22 H        2.8030    -3.4600    -0.0900 H     1 <1>   0.0800 
 23 H        1.9770    -2.7000    -1.4630 H     1 <1>   0.0800 
 24 H        2.4860    -0.3520    -1.8920 H     1 <1>   0.0000 
 25 H        2.4720     1.4060     1.6600 H     1 <1>   0.0000 
 26 H        4.3410    -2.0550     1.1800 H     1 <1>   0.0000 
 27 H        3.2190     2.1770    -0.9240 H     1 <1>   0.0000 
 28 H        5.0780    -1.2930    -1.4100 H     1 <1>   0.0000 
 29 H        5.0690     0.4780     2.1390 H     1 <1>   0.0000 
 30 H        8.2920     2.8130    -1.2520 H     1 <1>   0.0800 
 31 H        8.5090     3.2840     0.4070 H     1 <1>   0.0800 
 32 H        6.2680     3.4070     1.9030 H     1 <1>   0.0800 
 33 H        4.7830     3.0010     1.1000 H     1 <1>   0.0800 
 34 H        6.9890     4.8340    -1.7170 H     1 <1>   0.0800 
 35 H        8.4910     5.2990    -0.9510 H     1 <1>   0.0800 
 36 H        5.1470     5.4690     1.2610 H     1 <1>   0.0800 
 37 H        4.9970     4.9310    -0.3960 H     1 <1>   0.0800 
@<TRIPOS>BOND
  1   1   2  2   
  2   2   3  1   
  3   2   4  1   
  4   3   5  1   
  5   4   6  1   
  6   4   7  1   
  7   4   8  1   
  8   5  21  1   
  9   5  22  1   
 10   5  23  1   
 11   6   9  1   
 12   6  10  1   
 13   6  24  1   
 14   7   9  1   
 15   7  11  1   
 16   7  25  1   
 17   8  10  1   
 18   8  11  1   
 19   8  26  1   
 20   9  12  1   
 21   9  27  1   
 22  10  12  1   
 23  10  28  1   
 24  11  12  1   
 25  11  29  1   
 26  12  13  1   
 27  13  14  2   
 28  13  15  am  
 29  15  16  1   
 30  15  17  1   
 31  16  18  1   
 32  16  30  1   
 33  16  31  1   
 34  17  19  1   
 35  17  32  1   
 36  17  33  1   
 37  18  20  1   
 38  18  34  1   
 39  18  35  1   
 40  19  20  1   
 41  19  36  1   
 42  19  37  1   
@<TRIPOS>SUBSTRUCTURE
  1 ****  12 GROUP 4 **** **** 0

# MOE 2024.06 (io_trps.svl 2023.06)
