@<TRIPOS>MOLECULE
NONAME
49 52 1 0 0 
SMALL
USER_CHARGES


@<TRIPOS>ATOM
  1 N        0.2490     0.0200    -0.5980 N.4   1 <1>  -0.9590 
  2 C       -0.7950    -0.8750    -1.2160 C.3   1 <1>   0.3430 
  3 C       -0.2350     1.3240    -0.0430 C.3   1 <1>   0.3430 
  4 C        1.3990     0.2390    -1.5360 C.3   1 <1>   0.4860 
  5 C       -2.0590    -1.1590    -0.3520 C.3   1 <1>   0.3430 
  6 C       -0.9930     1.0840     1.2610 C.3   1 <1>  -0.1600 
  7 C        2.5570     0.7490    -0.7020 C.ar  1 <1>  -0.1440 
  8 N       -2.9120     0.0560    -0.0690 N.4   1 <1>  -0.9590 
  9 C       -2.5010     0.8620     1.1260 C.3   1 <1>   0.3430 
 10 C        3.1930    -0.1530     0.1600 C.ar  1 <1>   0.0000 
 11 C        2.9080     2.1050    -0.7590 C.ar  1 <1>   0.0000 
 12 C       -4.3420    -0.3650     0.1250 C.3   1 <1>   0.2630 
 13 C        4.1290     0.3560     1.0990 C.ar  1 <1>   0.0000 
 14 C        2.9590    -1.5610     0.1780 C.ar  1 <1>  -0.1500 
 15 C        3.8620     2.5900     0.1760 C.ar  1 <1>   0.0000 
 16 C        2.3650     3.0530    -1.6770 C.ar  1 <1>  -0.1500 
 17 C        4.4370     1.7070     1.0760 C.ar  1 <1>  -0.1500 
 18 C        4.7140    -0.5250     2.0420 C.ar  1 <1>  -0.1500 
 19 C        3.5460    -2.3810     1.0930 C.ar  1 <1>  -0.1500 
 20 C        4.1930     3.9690     0.1810 C.ar  1 <1>  -0.1500 
 21 C        2.7070     4.3710    -1.6460 C.ar  1 <1>  -0.1500 
 22 C        4.4290    -1.8540     2.0490 C.ar  1 <1>  -0.1500 
 23 C        3.6310     4.8390    -0.6990 C.ar  1 <1>  -0.1500 
 24 H        0.7010    -0.4690     0.1940 H     1 <1>   0.4500 
 25 H       -0.3370    -1.8240    -1.4470 H     1 <1>   0.0800 
 26 H       -1.1180    -0.4510    -2.1530 H     1 <1>   0.0800 
 27 H       -0.8440     1.8510    -0.7590 H     1 <1>   0.0800 
 28 H        0.6150     1.9490     0.1870 H     1 <1>   0.0800 
 29 H        1.1290     0.9320    -2.3130 H     1 <1>   0.0800 
 30 H        1.6880    -0.6860    -2.0070 H     1 <1>   0.0800 
 31 H       -1.7670    -1.6280     0.5740 H     1 <1>   0.0800 
 32 H       -2.6550    -1.8780    -0.8920 H     1 <1>   0.0800 
 33 H       -0.8690     1.9630     1.8710 H     1 <1>   0.0800 
 34 H       -0.5460     0.2790     1.8170 H     1 <1>   0.0800 
 35 H       -2.9130     0.6760    -0.8940 H     1 <1>   0.4500 
 36 H       -2.9900     1.8240     1.0770 H     1 <1>   0.0800 
 37 H       -2.8510     0.3790     2.0260 H     1 <1>   0.0800 
 38 H       -4.4330    -1.0160     0.9810 H     1 <1>   0.0800 
 39 H       -4.7050    -0.8910    -0.7450 H     1 <1>   0.0800 
 40 H       -4.9720     0.4960     0.2850 H     1 <1>   0.0800 
 41 H        2.3260    -2.0130    -0.5590 H     1 <1>   0.1500 
 42 H        1.6780     2.7430    -2.4380 H     1 <1>   0.1500 
 43 H        5.1540     2.0850     1.7840 H     1 <1>   0.1500 
 44 H        5.4010    -0.1130     2.7620 H     1 <1>   0.1500 
 45 H        3.3690    -3.4440     1.1010 H     1 <1>   0.1500 
 46 H        4.9100     4.3160     0.9040 H     1 <1>   0.1500 
 47 H        2.2940     5.0790    -2.3450 H     1 <1>   0.1500 
 48 H        4.8770    -2.5190     2.7690 H     1 <1>   0.1500 
 49 H        3.8850     5.8860    -0.6920 H     1 <1>   0.1500 
@<TRIPOS>BOND
  1   1   2  1   
  2   1   3  1   
  3   1   4  1   
  4   1  24  1   
  5   2   5  1   
  6   2  25  1   
  7   2  26  1   
  8   3   6  1   
  9   3  27  1   
 10   3  28  1   
 11   4   7  1   
 12   4  29  1   
 13   4  30  1   
 14   5   8  1   
 15   5  31  1   
 16   5  32  1   
 17   6   9  1   
 18   6  33  1   
 19   6  34  1   
 20   7  10  ar  
 21   7  11  ar  
 22   8   9  1   
 23   8  12  1   
 24   8  35  1   
 25   9  36  1   
 26   9  37  1   
 27  10  13  ar  
 28  10  14  ar  
 29  11  15  ar  
 30  11  16  ar  
 31  12  38  1   
 32  12  39  1   
 33  12  40  1   
 34  13  17  ar  
 35  13  18  ar  
 36  14  19  ar  
 37  14  41  1   
 38  15  17  ar  
 39  15  20  ar  
 40  16  21  ar  
 41  16  42  1   
 42  17  43  1   
 43  18  22  ar  
 44  18  44  1   
 45  19  22  ar  
 46  19  45  1   
 47  20  23  ar  
 48  20  46  1   
 49  21  23  ar  
 50  21  47  1   
 51  22  48  1   
 52  23  49  1   
@<TRIPOS>SUBSTRUCTURE
  1 ****   7 GROUP 4 **** **** 0

# MOE 2024.06 (io_trps.svl 2023.06)
