@<TRIPOS>MOLECULE
NONAME
48 51 1 0 0 
SMALL
USER_CHARGES


@<TRIPOS>ATOM
  1 S       -1.0730     2.7020    -2.0100 S.3   1 <1>  -0.0800 
  2 C       -1.8700     1.5720    -0.9090 C.2   1 <1>  -0.0450 
  3 C        0.1020     3.1720    -0.8020 C.2   1 <1>  -0.1100 
  4 C       -3.0080     0.8250    -1.3900 C.2   1 <1>   0.7150 
  5 C       -1.2160     1.6030     0.2830 C.2   1 <1>  -0.1500 
  6 C       -0.1120     2.5030     0.3450 C.2   1 <1>  -0.1500 
  7 O       -3.0550     0.4750    -2.5560 O.2   1 <1>  -0.5700 
  8 N       -4.0540     0.4730    -0.5560 N.am  1 <1>  -0.6600 
  9 C       -4.4330     1.2540     0.6530 C.3   1 <1>   0.1400 
 10 C       -5.0160    -0.6000    -0.9320 C.3   1 <1>   0.1400 
 11 C       -5.8340     1.8440     0.4700 C.3   1 <1>  -0.1600 
 12 C       -6.4110    -0.0030    -1.1320 C.3   1 <1>  -0.1600 
 13 C       -6.8580     0.7650     0.1170 C.3   1 <1>   0.1900 
 14 N       -8.1290     1.4320    -0.1270 N.3   1 <1>  -0.9000 
 15 C       -9.3200     0.5580    -0.0610 C.3   1 <1>   0.2510 
 16 C      -10.5560     1.1750    -0.7200 C.2   1 <1>   0.5690 
 17 C       -9.7520     0.3690     1.3950 C.3   1 <1>  -0.0990 
 18 O      -10.5970     1.4320    -1.9000 O.2   1 <1>  -0.5700 
 19 N      -11.5640     1.3610     0.1870 N.am  1 <1>  -0.2370 
 20 C      -11.1640     0.9010     1.4130 C.2   1 <1>   0.5690 
 21 C      -12.8220     1.9400    -0.1020 C.ar  1 <1>   0.1170 
 22 O      -11.8280     0.8750     2.4170 O.2   1 <1>  -0.5700 
 23 C      -12.9040     3.1280    -0.8280 C.ar  1 <1>  -0.1500 
 24 C      -14.0010     1.3340     0.3330 C.ar  1 <1>  -0.1500 
 25 C      -14.1310     3.7020    -1.1170 C.ar  1 <1>  -0.1500 
 26 C      -15.2350     1.8960     0.0530 C.ar  1 <1>  -0.1500 
 27 C      -15.2760     3.0730    -0.6700 C.ar  1 <1>   0.1900 
 28 F      -16.4370     3.6090    -0.9390 F     1 <1>  -0.1900 
 29 H        0.8370     3.9050    -1.0810 H     1 <1>   0.1500 
 30 H       -1.4780     1.0010     1.1350 H     1 <1>   0.1500 
 31 H        0.4720     2.6070     1.2430 H     1 <1>   0.1500 
 32 H       -3.7420     2.0600     0.8240 H     1 <1>   0.0800 
 33 H       -4.4150     0.6050     1.5120 H     1 <1>   0.0800 
 34 H       -5.0410    -1.3360    -0.1470 H     1 <1>   0.0800 
 35 H       -4.7020    -1.0960    -1.8360 H     1 <1>   0.0800 
 36 H       -5.7950     2.5810    -0.3120 H     1 <1>   0.0800 
 37 H       -6.1310     2.3340     1.3790 H     1 <1>   0.0800 
 38 H       -7.0930    -0.8030    -1.3480 H     1 <1>   0.0800 
 39 H       -6.3790     0.6560    -1.9820 H     1 <1>   0.0800 
 40 H       -6.9500     0.0890     0.9520 H     1 <1>   0.0800 
 41 H       -8.0880     1.8440    -1.0720 H     1 <1>   0.3600 
 42 H       -9.1290    -0.3900    -0.5320 H     1 <1>   0.0800 
 43 H       -9.1460     0.9340     2.0790 H     1 <1>   0.0800 
 44 H       -9.7560    -0.6700     1.6680 H     1 <1>   0.0800 
 45 H      -12.0030     3.6060    -1.1730 H     1 <1>   0.1500 
 46 H      -13.9550     0.4210     0.9000 H     1 <1>   0.1500 
 47 H      -14.2010     4.6170    -1.6780 H     1 <1>   0.1500 
 48 H      -16.1470     1.4360     0.3870 H     1 <1>   0.1500 
@<TRIPOS>BOND
  1   1   2  1   
  2   1   3  1   
  3   2   4  1   
  4   2   5  2   
  5   3   6  2   
  6   3  29  1   
  7   4   7  2   
  8   4   8  am  
  9   5   6  1   
 10   5  30  1   
 11   6  31  1   
 12   8   9  1   
 13   8  10  1   
 14   9  11  1   
 15   9  32  1   
 16   9  33  1   
 17  10  12  1   
 18  10  34  1   
 19  10  35  1   
 20  11  13  1   
 21  11  36  1   
 22  11  37  1   
 23  12  13  1   
 24  12  38  1   
 25  12  39  1   
 26  13  14  1   
 27  13  40  1   
 28  14  15  1   
 29  14  41  1   
 30  15  16  1   
 31  15  17  1   
 32  15  42  1   
 33  16  18  2   
 34  16  19  am  
 35  17  20  1   
 36  17  43  1   
 37  17  44  1   
 38  19  20  am  
 39  19  21  1   
 40  20  22  2   
 41  21  23  ar  
 42  21  24  ar  
 43  23  25  ar  
 44  23  45  1   
 45  24  26  ar  
 46  24  46  1   
 47  25  27  ar  
 48  25  47  1   
 49  26  27  ar  
 50  26  48  1   
 51  27  28  1   
@<TRIPOS>SUBSTRUCTURE
  1 ****  14 GROUP 4 **** **** 0

# MOE 2024.06 (io_trps.svl 2023.06)
