@<TRIPOS>MOLECULE
NONAME
49 50 1 0 0 
SMALL
USER_CHARGES


@<TRIPOS>ATOM
  1 O        0.0940     0.0010     0.9440 O.2   1 <1>  -0.5700 
  2 C        0.0760    -0.9770     0.2230 C.2   1 <1>   0.6900 
  3 N        1.2090    -1.5990    -0.2060 N.am  1 <1>  -0.5470 
  4 N       -1.1150    -1.4850    -0.1810 N.am  1 <1>  -0.7300 
  5 C        2.5620    -1.2510    -0.0680 C.ar  1 <1>   0.1170 
  6 C       -2.4040    -0.9320     0.2520 C.3   1 <1>   0.2200 
  7 C        3.5390    -2.2490    -0.0970 C.ar  1 <1>  -0.1430 
  8 C        2.9670     0.0720     0.0740 C.ar  1 <1>  -0.1500 
  9 C       -3.4650    -2.0280     0.2650 C.3   1 <1>  -0.1600 
 10 C       -2.8100     0.2030    -0.6850 C.3   1 <1>  -0.1600 
 11 C        4.8780    -1.9080     0.0150 C.ar  1 <1>  -0.1500 
 12 C        3.1680    -3.7200    -0.2440 C.3   1 <1>  -0.0970 
 13 C        4.3030     0.4020     0.1880 C.ar  1 <1>  -0.1500 
 14 C       -4.8200    -1.4410     0.6550 C.3   1 <1>   0.3430 
 15 C       -4.1680     0.7620    -0.2750 C.3   1 <1>   0.3430 
 16 C        5.2690    -0.5870     0.1570 C.ar  1 <1>  -0.1430 
 17 N       -5.1890    -0.3300    -0.2780 N.4   1 <1>  -0.9590 
 18 C        6.7390    -0.2310     0.2830 C.3   1 <1>  -0.0970 
 19 C       -6.5340     0.2330     0.0290 C.3   1 <1>   0.3430 
 20 C       -7.6330    -0.7570    -0.3630 C.3   1 <1>  -0.1600 
 21 C       -9.0210    -0.1400    -0.1610 C.3   1 <1>  -0.2400 
 22 H        1.0620    -2.5320    -0.5690 H     1 <1>   0.3700 
 23 H       -1.1240    -2.1490    -0.9520 H     1 <1>   0.3700 
 24 H       -2.2950    -0.5400     1.2530 H     1 <1>   0.0800 
 25 H        2.2340     0.8570     0.0950 H     1 <1>   0.1500 
 26 H       -3.1910    -2.7780     0.9860 H     1 <1>   0.0800 
 27 H       -3.5410    -2.4960    -0.7000 H     1 <1>   0.0800 
 28 H       -2.8470    -0.1370    -1.7040 H     1 <1>   0.0800 
 29 H       -2.0790     0.9910    -0.6200 H     1 <1>   0.0800 
 30 H        5.6310    -2.6760    -0.0050 H     1 <1>   0.1500 
 31 H        2.4760    -4.0040     0.5280 H     1 <1>   0.0800 
 32 H        4.0380    -4.3460    -0.1590 H     1 <1>   0.0800 
 33 H        2.7210    -3.8930    -1.2070 H     1 <1>   0.0800 
 34 H        4.5860     1.4340     0.3010 H     1 <1>   0.1500 
 35 H       -4.7710    -1.0670     1.6650 H     1 <1>   0.0800 
 36 H       -5.5660    -2.2190     0.6210 H     1 <1>   0.0800 
 37 H       -4.4560     1.5410    -0.9630 H     1 <1>   0.0800 
 38 H       -4.0940     1.1920     0.7110 H     1 <1>   0.0800 
 39 H       -5.2270    -0.7140    -1.2310 H     1 <1>   0.4500 
 40 H        7.3390    -0.9050    -0.3010 H     1 <1>   0.0800 
 41 H        7.0410    -0.2980     1.3120 H     1 <1>   0.0800 
 42 H        6.9160     0.7700    -0.0670 H     1 <1>   0.0800 
 43 H       -6.6800     1.1440    -0.5300 H     1 <1>   0.0800 
 44 H       -6.6090     0.4700     1.0790 H     1 <1>   0.0800 
 45 H       -7.5710    -1.6480     0.2380 H     1 <1>   0.0800 
 46 H       -7.5280    -1.0290    -1.3990 H     1 <1>   0.0800 
 47 H       -9.1770     0.1260     0.8710 H     1 <1>   0.0800 
 48 H       -9.7830    -0.8470    -0.4430 H     1 <1>   0.0800 
 49 H       -9.1420     0.7410    -0.7680 H     1 <1>   0.0800 
@<TRIPOS>BOND
  1   1   2  2   
  2   2   3  am  
  3   2   4  am  
  4   3   5  1   
  5   3  22  1   
  6   4   6  1   
  7   4  23  1   
  8   5   7  ar  
  9   5   8  ar  
 10   6   9  1   
 11   6  10  1   
 12   6  24  1   
 13   7  11  ar  
 14   7  12  1   
 15   8  13  ar  
 16   8  25  1   
 17   9  14  1   
 18   9  26  1   
 19   9  27  1   
 20  10  15  1   
 21  10  28  1   
 22  10  29  1   
 23  11  16  ar  
 24  11  30  1   
 25  12  31  1   
 26  12  32  1   
 27  12  33  1   
 28  13  16  ar  
 29  13  34  1   
 30  14  17  1   
 31  14  35  1   
 32  14  36  1   
 33  15  17  1   
 34  15  37  1   
 35  15  38  1   
 36  16  18  1   
 37  17  19  1   
 38  17  39  1   
 39  18  40  1   
 40  18  41  1   
 41  18  42  1   
 42  19  20  1   
 43  19  43  1   
 44  19  44  1   
 45  20  21  1   
 46  20  45  1   
 47  20  46  1   
 48  21  47  1   
 49  21  48  1   
 50  21  49  1   
@<TRIPOS>SUBSTRUCTURE
  1 ****   2 GROUP 4 **** **** 0

# MOE 2024.06 (io_trps.svl 2023.06)
