@<TRIPOS>MOLECULE
NONAME
47 48 1 0 0 
SMALL
USER_CHARGES


@<TRIPOS>ATOM
  1 O        0.0970    -0.3920    -0.2570 O.3   1 <1>  -0.3630 
  2 C       -1.1530    -0.9120    -0.1650 C.ar  1 <1>   0.0830 
  3 C        1.2380    -1.2000    -0.1050 C.3   1 <1>   0.1200 
  4 C       -2.2080    -0.0300    -0.3300 C.ar  1 <1>  -0.1500 
  5 C       -1.4180    -2.2570     0.0810 C.ar  1 <1>  -0.1500 
  6 C        2.4700    -0.3080    -0.2660 C.3   1 <1>  -0.1600 
  7 C       -3.5180    -0.4710    -0.2550 C.ar  1 <1>  -0.1440 
  8 C       -2.7250    -2.7070     0.1610 C.ar  1 <1>  -0.1430 
  9 C        3.7710    -1.1080    -0.1120 C.3   1 <1>  -0.1600 
 10 C       -3.7690    -1.8110    -0.0080 C.ar  1 <1>  -0.1500 
 11 C       -4.6720     0.4970    -0.4370 C.3   1 <1>  -0.0970 
 12 C       -3.0210    -4.1720     0.4290 C.3   1 <1>  -0.0970 
 13 C        4.9950    -0.1970    -0.2790 C.3   1 <1>  -0.1600 
 14 C        6.2940    -0.9910    -0.1260 C.3   1 <1>   0.3430 
 15 N        7.4680    -0.1120    -0.3730 N.4   1 <1>  -0.9590 
 16 C        8.7390    -0.8690    -0.4680 C.3   1 <1>   0.3430 
 17 C        7.6900     0.9200     0.6720 C.3   1 <1>   0.3430 
 18 C        9.8200     0.1820    -0.2560 C.3   1 <1>  -0.1600 
 19 C        9.1450     1.3330     0.4950 C.3   1 <1>  -0.1600 
 20 H        1.2140    -1.9630    -0.8640 H     1 <1>   0.0800 
 21 H        1.2100    -1.6440     0.8750 H     1 <1>   0.0800 
 22 H       -1.9890     1.0050    -0.5180 H     1 <1>   0.1500 
 23 H       -0.6200    -2.9610     0.2110 H     1 <1>   0.1500 
 24 H        2.4300     0.4680     0.4790 H     1 <1>   0.0800 
 25 H        2.4370     0.1490    -1.2400 H     1 <1>   0.0800 
 26 H        3.7940    -1.8890    -0.8540 H     1 <1>   0.0800 
 27 H        3.7880    -1.5690     0.8620 H     1 <1>   0.0800 
 28 H       -4.7850    -2.1580     0.0510 H     1 <1>   0.1500 
 29 H       -4.3310     1.4200    -0.8700 H     1 <1>   0.0800 
 30 H       -5.1230     0.7070     0.5160 H     1 <1>   0.0800 
 31 H       -5.4140     0.0690    -1.0870 H     1 <1>   0.0800 
 32 H       -2.1980    -4.6380     0.9400 H     1 <1>   0.0800 
 33 H       -3.1880    -4.6840    -0.5020 H     1 <1>   0.0800 
 34 H       -3.8990    -4.2690     1.0420 H     1 <1>   0.0800 
 35 H        4.9480     0.5800     0.4650 H     1 <1>   0.0800 
 36 H        4.9610     0.2540    -1.2550 H     1 <1>   0.0800 
 37 H        6.2930    -1.8000    -0.8400 H     1 <1>   0.0800 
 38 H        6.3500    -1.4150     0.8630 H     1 <1>   0.0800 
 39 H        7.3360     0.3790    -1.2680 H     1 <1>   0.4500 
 40 H        8.8430    -1.3630    -1.4210 H     1 <1>   0.0800 
 41 H        8.7890    -1.5990     0.3230 H     1 <1>   0.0800 
 42 H        7.5560     0.4840     1.6490 H     1 <1>   0.0800 
 43 H        7.0200     1.7570     0.5580 H     1 <1>   0.0800 
 44 H       10.1900     0.5210    -1.2090 H     1 <1>   0.0800 
 45 H       10.6430    -0.2320     0.3000 H     1 <1>   0.0800 
 46 H        9.6030     1.5080     1.4540 H     1 <1>   0.0800 
 47 H        9.2000     2.2410    -0.0790 H     1 <1>   0.0800 
@<TRIPOS>BOND
  1   1   2  1   
  2   1   3  1   
  3   2   4  ar  
  4   2   5  ar  
  5   3   6  1   
  6   3  20  1   
  7   3  21  1   
  8   4   7  ar  
  9   4  22  1   
 10   5   8  ar  
 11   5  23  1   
 12   6   9  1   
 13   6  24  1   
 14   6  25  1   
 15   7  10  ar  
 16   7  11  1   
 17   8  10  ar  
 18   8  12  1   
 19   9  13  1   
 20   9  26  1   
 21   9  27  1   
 22  10  28  1   
 23  11  29  1   
 24  11  30  1   
 25  11  31  1   
 26  12  32  1   
 27  12  33  1   
 28  12  34  1   
 29  13  14  1   
 30  13  35  1   
 31  13  36  1   
 32  14  15  1   
 33  14  37  1   
 34  14  38  1   
 35  15  16  1   
 36  15  17  1   
 37  15  39  1   
 38  16  18  1   
 39  16  40  1   
 40  16  41  1   
 41  17  19  1   
 42  17  42  1   
 43  17  43  1   
 44  18  19  1   
 45  18  44  1   
 46  18  45  1   
 47  19  46  1   
 48  19  47  1   
@<TRIPOS>SUBSTRUCTURE
  1 ****   6 GROUP 4 **** **** 0

# MOE 2024.06 (io_trps.svl 2023.06)
