@<TRIPOS>MOLECULE
NONAME
36 38 1 0 0 
SMALL
USER_CHARGES


@<TRIPOS>ATOM
  1 O        0.2900     0.9650    -1.2050 O.2   1 <1>  -0.5700 
  2 C        0.0500     1.9640    -0.5560 C.2   1 <1>   0.5440 
  3 N        1.0880     2.7130    -0.0840 N.am  1 <1>  -0.7300 
  4 C       -1.3120     2.3780    -0.2730 C.ar  1 <1>   0.0860 
  5 C        2.5210     2.4140    -0.2680 C.3   1 <1>   0.2200 
  6 C       -2.2430     1.5530     0.3730 C.ar  1 <1>  -0.1440 
  7 C       -1.7240     3.6590    -0.6420 C.ar  1 <1>  -0.1500 
  8 C        3.1960     2.2110     1.1010 C.3   1 <1>  -0.0800 
  9 C        3.2510     3.6490    -0.8250 C.3   1 <1>  -0.1600 
 10 C       -3.5250     2.0120     0.6300 C.ar  1 <1>  -0.1500 
 11 C       -1.8670     0.1410     0.8050 C.3   1 <1>  -0.0970 
 12 C       -3.0030     4.1140    -0.3820 C.ar  1 <1>  -0.1500 
 13 C        3.4920     3.6410     1.5350 C.3   1 <1>  -0.1600 
 14 C        4.6160     1.6750     0.8530 C.3   1 <1>  -0.1600 
 15 C        4.2700     3.9900     0.2780 C.3   1 <1>  -0.0800 
 16 C       -3.9070     3.2870     0.2560 C.ar  1 <1>  -0.1500 
 17 C        5.3540     2.8990     0.2820 C.3   1 <1>  -0.1600 
 18 H        0.8900     3.5020     0.5300 H     1 <1>   0.3700 
 19 H        2.6520     1.5540    -0.9040 H     1 <1>   0.0800 
 20 H       -1.0270     4.3040    -1.1480 H     1 <1>   0.1500 
 21 H        2.6210     1.6130     1.7870 H     1 <1>   0.0800 
 22 H        2.5720     4.4700    -0.9780 H     1 <1>   0.0800 
 23 H        3.7400     3.4210    -1.7550 H     1 <1>   0.0800 
 24 H       -4.2400     1.3760     1.1230 H     1 <1>   0.1500 
 25 H       -0.9560     0.1570     1.3770 H     1 <1>   0.0800 
 26 H       -1.7160    -0.4770    -0.0620 H     1 <1>   0.0800 
 27 H       -2.6380    -0.3010     1.4090 H     1 <1>   0.0800 
 28 H       -3.2960     5.1060    -0.6780 H     1 <1>   0.1500 
 29 H        4.0960     3.6880     2.4260 H     1 <1>   0.0800 
 30 H        2.6070     4.2410     1.6580 H     1 <1>   0.0800 
 31 H        4.6170     0.8450     0.1680 H     1 <1>   0.0800 
 32 H        5.0660     1.3670     1.7820 H     1 <1>   0.0800 
 33 H        4.6540     4.9950     0.2330 H     1 <1>   0.0800 
 34 H       -4.9050     3.6340     0.4610 H     1 <1>   0.1500 
 35 H        5.7440     2.7130    -0.7040 H     1 <1>   0.0800 
 36 H        6.1640     3.1810     0.9330 H     1 <1>   0.0800 
@<TRIPOS>BOND
  1   1   2  2   
  2   2   3  am  
  3   2   4  1   
  4   3   5  1   
  5   3  18  1   
  6   4   6  ar  
  7   4   7  ar  
  8   5   8  1   
  9   5   9  1   
 10   5  19  1   
 11   6  10  ar  
 12   6  11  1   
 13   7  12  ar  
 14   7  20  1   
 15   8  13  1   
 16   8  14  1   
 17   8  21  1   
 18   9  15  1   
 19   9  22  1   
 20   9  23  1   
 21  10  16  ar  
 22  10  24  1   
 23  11  25  1   
 24  11  26  1   
 25  11  27  1   
 26  12  16  ar  
 27  12  28  1   
 28  13  15  1   
 29  13  29  1   
 30  13  30  1   
 31  14  17  1   
 32  14  31  1   
 33  14  32  1   
 34  15  17  1   
 35  15  33  1   
 36  16  34  1   
 37  17  35  1   
 38  17  36  1   
@<TRIPOS>SUBSTRUCTURE
  1 ****   3 GROUP 4 **** **** 0

# MOE 2024.06 (io_trps.svl 2023.06)
