@<TRIPOS>MOLECULE
NONAME
47 49 1 0 0 
SMALL
USER_CHARGES


@<TRIPOS>ATOM
  1 O       -0.6460    -0.7830     1.1920 O.3   1 <1>  -0.3630 
  2 C       -1.8020    -0.9530     0.5080 C.ar  1 <1>   0.0820 
  3 C        0.5430    -1.0380     0.4750 C.3   1 <1>   0.0400 
  4 C       -2.2060    -0.1000    -0.5240 C.ar  1 <1>   0.0820 
  5 C       -2.5940    -2.0300     0.8640 C.ar  1 <1>  -0.1500 
  6 O       -1.5170     1.0060    -0.9050 O.3   1 <1>  -0.3630 
  7 C       -3.3720    -0.3720    -1.2170 C.ar  1 <1>  -0.1500 
  8 C       -3.7770    -2.2900     0.1770 C.ar  1 <1>   0.0820 
  9 C       -1.2440     1.9810     0.0810 C.3   1 <1>   0.0400 
 10 C       -4.1610    -1.4610    -0.8730 C.ar  1 <1>  -0.1440 
 11 O       -4.6000    -3.3310     0.4870 O.3   1 <1>  -0.3630 
 12 C       -5.4380    -1.7380    -1.6400 C.3   1 <1>   0.4860 
 13 C       -4.2120    -4.3040     1.4390 C.3   1 <1>   0.0400 
 14 N       -6.5750    -1.6710    -0.6930 N.4   1 <1>  -0.9590 
 15 C       -7.8360    -2.2060    -1.2650 C.3   1 <1>   0.4860 
 16 C       -6.7740    -0.3200    -0.0980 C.3   1 <1>   0.3430 
 17 C       -8.9500    -2.1610    -0.2310 C.ar  1 <1>  -0.1430 
 18 C       -7.6830    -0.4260     1.1270 C.3   1 <1>  -0.0170 
 19 C       -8.8880    -1.3230     0.8790 C.ar  1 <1>  -0.1430 
 20 C      -10.0600    -2.9740    -0.4110 C.ar  1 <1>  -0.1500 
 21 C       -9.9330    -1.3080     1.7890 C.ar  1 <1>  -0.1500 
 22 C      -11.0990    -2.9550     0.5010 C.ar  1 <1>  -0.1500 
 23 C      -11.0360    -2.1210     1.6010 C.ar  1 <1>  -0.1500 
 24 H        1.3750    -0.8920     1.1400 H     1 <1>   0.0800 
 25 H        0.6130    -0.3580    -0.3550 H     1 <1>   0.0800 
 26 H        0.5260    -2.0550     0.1250 H     1 <1>   0.0800 
 27 H       -2.2570    -2.6460     1.6750 H     1 <1>   0.1500 
 28 H       -3.6450     0.2860    -2.0240 H     1 <1>   0.1500 
 29 H       -0.9380     2.8840    -0.4160 H     1 <1>   0.0800 
 30 H       -0.4500     1.6350     0.7180 H     1 <1>   0.0800 
 31 H       -2.1350     2.1600     0.6560 H     1 <1>   0.0800 
 32 H       -5.3750    -2.7230    -2.0720 H     1 <1>   0.0800 
 33 H       -5.5640    -1.0180    -2.4320 H     1 <1>   0.0800 
 34 H       -4.1090    -3.8350     2.4020 H     1 <1>   0.0800 
 35 H       -3.2820    -4.7490     1.1290 H     1 <1>   0.0800 
 36 H       -4.9770    -5.0590     1.4840 H     1 <1>   0.0800 
 37 H       -6.3020    -2.3030     0.0790 H     1 <1>   0.4500 
 38 H       -7.6900    -3.2260    -1.5830 H     1 <1>   0.0800 
 39 H       -8.1300    -1.6200    -2.1200 H     1 <1>   0.0800 
 40 H       -7.2280     0.3330    -0.8260 H     1 <1>   0.0800 
 41 H       -5.8280     0.1050     0.1990 H     1 <1>   0.0800 
 42 H       -8.0120     0.5600     1.4030 H     1 <1>   0.0800 
 43 H       -7.1160    -0.8210     1.9520 H     1 <1>   0.0800 
 44 H      -10.1340    -3.6310    -1.2610 H     1 <1>   0.1500 
 45 H       -9.8980    -0.6670     2.6530 H     1 <1>   0.1500 
 46 H      -11.9590    -3.5870     0.3570 H     1 <1>   0.1500 
 47 H      -11.8450    -2.1050     2.3110 H     1 <1>   0.1500 
@<TRIPOS>BOND
  1   1   2  1   
  2   1   3  1   
  3   2   4  ar  
  4   2   5  ar  
  5   3  24  1   
  6   3  25  1   
  7   3  26  1   
  8   4   6  1   
  9   4   7  ar  
 10   5   8  ar  
 11   5  27  1   
 12   6   9  1   
 13   7  10  ar  
 14   7  28  1   
 15   8  10  ar  
 16   8  11  1   
 17   9  29  1   
 18   9  30  1   
 19   9  31  1   
 20  10  12  1   
 21  11  13  1   
 22  12  14  1   
 23  12  32  1   
 24  12  33  1   
 25  13  34  1   
 26  13  35  1   
 27  13  36  1   
 28  14  15  1   
 29  14  16  1   
 30  14  37  1   
 31  15  17  1   
 32  15  38  1   
 33  15  39  1   
 34  16  18  1   
 35  16  40  1   
 36  16  41  1   
 37  17  19  ar  
 38  17  20  ar  
 39  18  19  1   
 40  18  42  1   
 41  18  43  1   
 42  19  21  ar  
 43  20  22  ar  
 44  20  44  1   
 45  21  23  ar  
 46  21  45  1   
 47  22  23  ar  
 48  22  46  1   
 49  23  47  1   
@<TRIPOS>SUBSTRUCTURE
  1 ****  14 GROUP 4 **** **** 0

# MOE 2024.06 (io_trps.svl 2023.06)
