@<TRIPOS>MOLECULE
NONAME
50 52 1 0 0 
SMALL
USER_CHARGES


@<TRIPOS>ATOM
  1 O       -0.2220    -4.7550     0.0930 O.2   1 <1>  -0.5700 
  2 C        0.1840    -3.7540     0.6560 C.2   1 <1>   0.7150 
  3 N       -0.7190    -3.0430     1.3970 N.am  1 <1>  -0.7300 
  4 C        1.5560    -3.2990     0.5660 C.2   1 <1>   0.0550 
  5 C       -2.1100    -3.4510     1.7190 C.3   1 <1>   0.1400 
  6 O        1.8990    -2.1900     1.2440 O.3   1 <1>  -0.2800 
  7 C        2.6460    -3.7730    -0.0980 C.2   1 <1>  -0.1810 
  8 C       -2.9840    -3.5250     0.4470 C.3   1 <1>   0.3430 
  9 C        3.1900    -1.9490     1.0240 C.ar  1 <1>   0.1400 
 10 C        3.7240    -2.9110     0.1880 C.ar  1 <1>   0.0000 
 11 C        2.7830    -4.9880    -1.0030 C.3   1 <1>  -0.0590 
 12 N       -3.7430    -4.8140     0.3190 N.4   1 <1>  -0.9590 
 13 C        3.9410    -0.9000     1.5370 C.ar  1 <1>  -0.1500 
 14 C        5.0820    -2.8330    -0.1530 C.ar  1 <1>   0.0820 
 15 C       -2.8180    -5.9620    -0.0080 C.3   1 <1>   0.3430 
 16 C       -4.8010    -4.7110    -0.7440 C.3   1 <1>   0.3430 
 17 C        5.2720    -0.8150     1.1820 C.ar  1 <1>  -0.1500 
 18 O        5.6030    -3.8060    -0.9400 O.3   1 <1>  -0.3630 
 19 C        5.8400    -1.7650     0.3300 C.ar  1 <1>   0.0820 
 20 C       -3.5950    -7.2630    -0.2810 C.3   1 <1>   0.1200 
 21 C       -5.5070    -6.0610    -0.9700 C.3   1 <1>   0.1200 
 22 C        6.5820    -4.6370    -0.3550 C.3   1 <1>   0.0400 
 23 O        7.1470    -1.5880     0.0060 O.3   1 <1>  -0.3630 
 24 O       -4.5700    -7.0560    -1.2630 O.3   1 <1>  -0.5600 
 25 C        7.4000    -1.2370    -1.3370 C.3   1 <1>   0.0400 
 26 H       -0.3260    -2.2480     1.9150 H     1 <1>   0.3700 
 27 H       -2.5330    -2.7310     2.3980 H     1 <1>   0.0800 
 28 H       -2.0790    -4.4060     2.2150 H     1 <1>   0.0800 
 29 H       -2.3490    -3.4020    -0.4160 H     1 <1>   0.0800 
 30 H       -3.6780    -2.7010     0.4660 H     1 <1>   0.0800 
 31 H        1.8470    -5.4960    -1.1320 H     1 <1>   0.0800 
 32 H        3.4910    -5.6770    -0.5810 H     1 <1>   0.0800 
 33 H        3.1410    -4.6800    -1.9700 H     1 <1>   0.0800 
 34 H       -4.2100    -5.0310     1.2080 H     1 <1>   0.4500 
 35 H        3.4820    -0.1800     2.1890 H     1 <1>   0.1500 
 36 H       -2.1220    -6.1230     0.7990 H     1 <1>   0.0800 
 37 H       -2.2380    -5.7230    -0.8850 H     1 <1>   0.0800 
 38 H       -4.3520    -4.4050    -1.6750 H     1 <1>   0.0800 
 39 H       -5.5320    -3.9690    -0.4680 H     1 <1>   0.0800 
 40 H        5.8890    -0.0160     1.5530 H     1 <1>   0.1500 
 41 H       -4.0740    -7.6260     0.6130 H     1 <1>   0.0800 
 42 H       -2.9250    -8.0240    -0.6420 H     1 <1>   0.0800 
 43 H       -6.1800    -5.9920    -1.8080 H     1 <1>   0.0800 
 44 H       -6.0710    -6.3590    -0.1030 H     1 <1>   0.0800 
 45 H        6.8050    -5.4300    -1.0450 H     1 <1>   0.0800 
 46 H        6.1900    -5.0430     0.5610 H     1 <1>   0.0800 
 47 H        7.4680    -4.0620    -0.1600 H     1 <1>   0.0800 
 48 H        8.4520    -1.0450    -1.4430 H     1 <1>   0.0800 
 49 H        6.8370    -0.3520    -1.5770 H     1 <1>   0.0800 
 50 H        7.1090    -2.0500    -1.9780 H     1 <1>   0.0800 
@<TRIPOS>BOND
  1   1   2  2   
  2   2   3  am  
  3   2   4  1   
  4   3   5  1   
  5   3  26  1   
  6   4   6  1   
  7   4   7  2   
  8   5   8  1   
  9   5  27  1   
 10   5  28  1   
 11   6   9  1   
 12   7  10  1   
 13   7  11  1   
 14   8  12  1   
 15   8  29  1   
 16   8  30  1   
 17   9  10  ar  
 18   9  13  ar  
 19  10  14  ar  
 20  11  31  1   
 21  11  32  1   
 22  11  33  1   
 23  12  15  1   
 24  12  16  1   
 25  12  34  1   
 26  13  17  ar  
 27  13  35  1   
 28  14  18  1   
 29  14  19  ar  
 30  15  20  1   
 31  15  36  1   
 32  15  37  1   
 33  16  21  1   
 34  16  38  1   
 35  16  39  1   
 36  17  19  ar  
 37  17  40  1   
 38  18  22  1   
 39  19  23  1   
 40  20  24  1   
 41  20  41  1   
 42  20  42  1   
 43  21  24  1   
 44  21  43  1   
 45  21  44  1   
 46  22  45  1   
 47  22  46  1   
 48  22  47  1   
 49  23  25  1   
 50  25  48  1   
 51  25  49  1   
 52  25  50  1   
@<TRIPOS>SUBSTRUCTURE
  1 ****   4 GROUP 4 **** **** 0

# MOE 2024.06 (io_trps.svl 2023.06)
