@<TRIPOS>MOLECULE
NONAME
31 31 1 0 0 
SMALL
USER_CHARGES


@<TRIPOS>ATOM
  1 O       -0.5230    -1.7880    -1.6170 O.2   1 <1>  -0.5700 
  2 C        0.2200    -2.0600    -0.7090 C.2   1 <1>   0.5690 
  3 N        0.0060    -3.0180     0.2280 N.am  1 <1>  -0.4200 
  4 C        1.5310    -1.3500    -0.4640 C.3   1 <1>  -0.0990 
  5 C        1.0280    -3.0790     1.1190 C.2   1 <1>   0.5690 
  6 C       -1.2050    -3.8870     0.2900 C.3   1 <1>   0.2010 
  7 C        2.0770    -2.0370     0.8030 C.3   1 <1>  -0.0990 
  8 O        1.1240    -3.8540     2.0330 O.2   1 <1>  -0.5700 
  9 C       -2.4630    -3.1330     0.7140 C.2   1 <1>   0.5690 
 10 O       -3.0590    -3.5150     1.6930 O.2   1 <1>  -0.5700 
 11 N       -2.8720    -2.0730    -0.0360 N.am  1 <1>  -0.7300 
 12 C       -4.0110    -1.1750     0.1560 C.3   1 <1>   0.3000 
 13 C       -5.3130    -1.9720     0.0850 C.3   1 <1>  -0.2400 
 14 C       -3.9610    -0.1650    -0.9870 C.3   1 <1>  -0.2400 
 15 C       -3.8710    -0.4490     1.4940 C.3   1 <1>  -0.2400 
 16 H        1.3580    -0.3020    -0.3020 H     1 <1>   0.0800 
 17 H        2.1860    -1.4910    -1.3040 H     1 <1>   0.0800 
 18 H       -1.0360    -4.6890     0.9870 H     1 <1>   0.0800 
 19 H       -1.3770    -4.3190    -0.6780 H     1 <1>   0.0800 
 20 H        2.1630    -1.3470     1.6230 H     1 <1>   0.0800 
 21 H        3.0240    -2.5140     0.6200 H     1 <1>   0.0800 
 22 H       -2.2790    -1.8050    -0.8340 H     1 <1>   0.3700 
 23 H       -5.3740    -2.5120    -0.8420 H     1 <1>   0.0800 
 24 H       -6.1560    -1.3090     0.1510 H     1 <1>   0.0800 
 25 H       -5.3760    -2.6690     0.9010 H     1 <1>   0.0800 
 26 H       -4.0430    -0.6640    -1.9360 H     1 <1>   0.0800 
 27 H       -3.0410     0.3910    -0.9600 H     1 <1>   0.0800 
 28 H       -4.7760     0.5310    -0.9020 H     1 <1>   0.0800 
 29 H       -3.9290    -1.1450     2.3110 H     1 <1>   0.0800 
 30 H       -4.6650     0.2660     1.6110 H     1 <1>   0.0800 
 31 H       -2.9320     0.0710     1.5440 H     1 <1>   0.0800 
@<TRIPOS>BOND
  1   1   2  2   
  2   2   3  am  
  3   2   4  1   
  4   3   5  am  
  5   3   6  1   
  6   4   7  1   
  7   4  16  1   
  8   4  17  1   
  9   5   7  1   
 10   5   8  2   
 11   6   9  1   
 12   6  18  1   
 13   6  19  1   
 14   7  20  1   
 15   7  21  1   
 16   9  10  2   
 17   9  11  am  
 18  11  12  1   
 19  11  22  1   
 20  12  13  1   
 21  12  14  1   
 22  12  15  1   
 23  13  23  1   
 24  13  24  1   
 25  13  25  1   
 26  14  26  1   
 27  14  27  1   
 28  14  28  1   
 29  15  29  1   
 30  15  30  1   
 31  15  31  1   
@<TRIPOS>SUBSTRUCTURE
  1 ****   9 GROUP 4 **** **** 0

# MOE 2024.06 (io_trps.svl 2023.06)
