@<TRIPOS>MOLECULE
NONAME
41 42 1 0 0 
SMALL
USER_CHARGES


@<TRIPOS>ATOM
  1 S        0.4560    -0.5570     0.5800 S.o2  1 <1>   1.4470 
  2 O        0.6060     0.0970     1.8610 O.2   1 <1>  -0.6500 
  3 O        0.8590     0.1330    -0.6240 O.2   1 <1>  -0.6500 
  4 N        1.3960    -1.9470     0.6390 N.am  1 <1>  -0.9140 
  5 C       -1.2290    -1.2050     0.4090 C.ar  1 <1>  -0.0090 
  6 C        2.7540    -1.7300     1.1300 C.3   1 <1>   0.1960 
  7 C       -1.9180    -1.1240    -0.7960 C.ar  1 <1>  -0.1500 
  8 C       -1.8690    -1.8160     1.4800 C.ar  1 <1>  -0.1500 
  9 C        3.6460    -1.1400     0.0230 C.3   1 <1>   0.2000 
 10 C       -3.2020    -1.6260    -0.9370 C.ar  1 <1>  -0.1440 
 11 C       -3.1510    -2.3230     1.3600 C.ar  1 <1>  -0.1500 
 12 O        3.4580    -1.8550    -1.1580 O.3   1 <1>  -0.5600 
 13 C        5.1430    -1.2400     0.2820 C.3   1 <1>  -0.1600 
 14 C       -3.8290    -2.2300     0.1480 C.ar  1 <1>   0.0830 
 15 C       -3.9160    -1.5110    -2.2760 C.3   1 <1>  -0.0970 
 16 C        4.5260    -1.6200    -2.0160 C.3   1 <1>   0.1200 
 17 C        5.7280    -1.3240    -1.1210 C.3   1 <1>  -0.1600 
 18 O       -5.0890    -2.7060    -0.0330 O.3   1 <1>  -0.3620 
 19 C       -5.8110    -3.3200     1.0080 C.3   1 <1>   0.1200 
 20 C       -7.1780    -3.7210     0.4610 C.3   1 <1>  -0.2400 
 21 H        1.5490    -2.1820    -0.3480 H     1 <1>   0.4200 
 22 H        3.1610    -2.6830     1.4210 H     1 <1>   0.0800 
 23 H        2.7590    -1.0960     2.0010 H     1 <1>   0.0800 
 24 H       -1.4350    -0.6560    -1.6370 H     1 <1>   0.1500 
 25 H       -1.3520    -1.8940     2.4220 H     1 <1>   0.1500 
 26 H        3.3790    -0.1140    -0.1700 H     1 <1>   0.0800 
 27 H       -3.6010    -2.7840     2.2180 H     1 <1>   0.1500 
 28 H        5.3660    -2.1400     0.8280 H     1 <1>   0.0800 
 29 H        5.5080    -0.3900     0.8320 H     1 <1>   0.0800 
 30 H       -3.2960    -1.0300    -3.0110 H     1 <1>   0.0800 
 31 H       -4.8180    -0.9370    -2.1590 H     1 <1>   0.0800 
 32 H       -4.1770    -2.4910    -2.6340 H     1 <1>   0.0800 
 33 H        4.2780    -0.7720    -2.6320 H     1 <1>   0.0800 
 34 H        4.6750    -2.4920    -2.6290 H     1 <1>   0.0800 
 35 H        6.4620    -2.1070    -1.1930 H     1 <1>   0.0800 
 36 H        6.1800    -0.3930    -1.4150 H     1 <1>   0.0800 
 37 H       -5.9150    -2.6140     1.8130 H     1 <1>   0.0800 
 38 H       -5.2630    -4.1870     1.3370 H     1 <1>   0.0800 
 39 H       -7.7090    -2.8510     0.1190 H     1 <1>   0.0800 
 40 H       -7.7550    -4.1940     1.2340 H     1 <1>   0.0800 
 41 H       -7.0610    -4.4140    -0.3530 H     1 <1>   0.0800 
@<TRIPOS>BOND
  1   1   2  2   
  2   1   3  2   
  3   1   4  am  
  4   1   5  1   
  5   4   6  1   
  6   4  21  1   
  7   5   7  ar  
  8   5   8  ar  
  9   6   9  1   
 10   6  22  1   
 11   6  23  1   
 12   7  10  ar  
 13   7  24  1   
 14   8  11  ar  
 15   8  25  1   
 16   9  12  1   
 17   9  13  1   
 18   9  26  1   
 19  10  14  ar  
 20  10  15  1   
 21  11  14  ar  
 22  11  27  1   
 23  12  16  1   
 24  13  17  1   
 25  13  28  1   
 26  13  29  1   
 27  14  18  1   
 28  15  30  1   
 29  15  31  1   
 30  15  32  1   
 31  16  17  1   
 32  16  33  1   
 33  16  34  1   
 34  17  35  1   
 35  17  36  1   
 36  18  19  1   
 37  19  20  1   
 38  19  37  1   
 39  19  38  1   
 40  20  39  1   
 41  20  40  1   
 42  20  41  1   
@<TRIPOS>SUBSTRUCTURE
  1 ****   5 GROUP 4 **** **** 0

# MOE 2024.06 (io_trps.svl 2023.06)
