@<TRIPOS>MOLECULE
Structure914
17 18 1 0 0 
SMALL
USER_CHARGES


@<TRIPOS>ATOM
  1 CL      -0.1480    -0.0170     0.0000 Cl    1 <1>  -0.1770 
  2 C       -1.6320     0.8850     0.0000 C.ar  1 <1>   0.7970 
  3 N       -1.4910     2.2010     0.0000 N.ar  1 <1>  -0.6200 
  4 N       -2.7380     0.1530     0.0000 N.ar  1 <1>  -0.6200 
  5 C       -2.6330     2.8460     0.0000 C.ar  1 <1>   0.4870 
  6 C       -3.8420     0.8600     0.0000 C.ar  1 <1>   0.1660 
  7 CL      -2.5670     4.5840     0.0000 Cl    1 <1>  -0.1770 
  8 C       -3.8540     2.2180     0.0000 C.ar  1 <1>  -0.1440 
  9 C       -5.2330     0.2840     0.0000 C.3   1 <1>  -0.0170 
 10 C       -5.2570     2.7760     0.0000 C.3   1 <1>  -0.0170 
 11 C       -6.1560     1.5210     0.0000 C.3   1 <1>  -0.1600 
 12 H       -5.3830    -0.3170     0.8790 H     1 <1>   0.0800 
 13 H       -5.3830    -0.3170    -0.8790 H     1 <1>   0.0800 
 14 H       -5.4260     3.3730    -0.8800 H     1 <1>   0.0800 
 15 H       -5.4260     3.3730     0.8790 H     1 <1>   0.0800 
 16 H       -6.7830     1.5150     0.8750 H     1 <1>   0.0800 
 17 H       -6.7840     1.5150    -0.8740 H     1 <1>   0.0800 
@<TRIPOS>BOND
  1   1   2  1   
  2   2   3  ar  
  3   2   4  ar  
  4   3   5  ar  
  5   4   6  ar  
  6   5   7  1   
  7   5   8  ar  
  8   6   8  ar  
  9   6   9  1   
 10   8  10  1   
 11   9  11  1   
 12   9  12  1   
 13   9  13  1   
 14  10  11  1   
 15  10  14  1   
 16  10  15  1   
 17  11  16  1   
 18  11  17  1   
@<TRIPOS>SUBSTRUCTURE
  1 ****   8 GROUP 4 **** **** 0

# MOE 2024.06 (io_trps.svl 2023.06)
