@<TRIPOS>MOLECULE
NONAME
41 42 1 0 0 
SMALL
USER_CHARGES


@<TRIPOS>ATOM
  1 O        0.1280    -0.9280     0.9370 O.3   1 <1>  -0.3630 
  2 C       -1.0360    -1.2410     0.3260 C.ar  1 <1>   0.0830 
  3 C        1.2670    -0.9740     0.1170 C.3   1 <1>   0.1200 
  4 C       -1.4740    -2.5640     0.3210 C.ar  1 <1>  -0.1440 
  5 C       -1.7830    -0.2390    -0.2900 C.ar  1 <1>  -0.1440 
  6 C        2.4760    -0.6390     0.9940 C.3   1 <1>   0.3430 
  7 C       -2.6470    -2.8810    -0.3450 C.ar  1 <1>  -0.1500 
  8 C       -0.7070    -3.6680     1.0350 C.3   1 <1>  -0.0970 
  9 C       -2.9520    -0.5810    -0.9490 C.ar  1 <1>  -0.1500 
 10 C       -1.3600     1.2230    -0.2510 C.3   1 <1>  -0.0960 
 11 N        3.7600    -0.5850     0.2200 N.4   1 <1>  -0.9590 
 12 C       -3.3800    -1.8960    -0.9810 C.ar  1 <1>  -0.1500 
 13 C        4.1560    -1.9220    -0.3220 C.3   1 <1>   0.3430 
 14 C        4.8430    -0.0040     1.0690 C.3   1 <1>   0.3430 
 15 C        5.4080    -1.7770    -1.1890 C.3   1 <1>  -0.1600 
 16 C        6.1100     0.1830     0.2320 C.3   1 <1>  -0.1600 
 17 C        6.5640    -1.1320    -0.4140 C.3   1 <1>  -0.1600 
 18 H        1.1420    -0.2490    -0.6680 H     1 <1>   0.0800 
 19 H        1.3380    -1.9640    -0.2960 H     1 <1>   0.0800 
 20 H        2.5540    -1.3770     1.7750 H     1 <1>   0.0800 
 21 H        2.2960     0.3200     1.4520 H     1 <1>   0.0800 
 22 H       -3.0010    -3.8970    -0.3690 H     1 <1>   0.1500 
 23 H        0.1110    -4.0020     0.4260 H     1 <1>   0.0800 
 24 H       -1.3510    -4.5060     1.2360 H     1 <1>   0.0800 
 25 H       -0.3290    -3.3090     1.9760 H     1 <1>   0.0800 
 26 H       -3.5420     0.1740    -1.4390 H     1 <1>   0.1500 
 27 H       -0.6340     1.4180    -1.0180 H     1 <1>   0.0800 
 28 H       -0.9370     1.4640     0.7080 H     1 <1>   0.0800 
 29 H       -2.2070     1.8650    -0.4090 H     1 <1>   0.0800 
 30 H        3.6390     0.0500    -0.5800 H     1 <1>   0.4500 
 31 H       -4.2890    -2.1520    -1.4970 H     1 <1>   0.1500 
 32 H        3.3590    -2.3350    -0.9190 H     1 <1>   0.0800 
 33 H        4.3580    -2.6000     0.4920 H     1 <1>   0.0800 
 34 H        5.0530    -0.6640     1.8950 H     1 <1>   0.0800 
 35 H        4.5330     0.9490     1.4660 H     1 <1>   0.0800 
 36 H        5.1750    -1.1890    -2.0590 H     1 <1>   0.0800 
 37 H        5.7120    -2.7510    -1.5330 H     1 <1>   0.0800 
 38 H        6.8970     0.5570     0.8650 H     1 <1>   0.0800 
 39 H        5.9320     0.9240    -0.5280 H     1 <1>   0.0800 
 40 H        7.3930    -0.9470    -1.0780 H     1 <1>   0.0800 
 41 H        6.9060    -1.8090     0.3520 H     1 <1>   0.0800 
@<TRIPOS>BOND
  1   1   2  1   
  2   1   3  1   
  3   2   4  ar  
  4   2   5  ar  
  5   3   6  1   
  6   3  18  1   
  7   3  19  1   
  8   4   7  ar  
  9   4   8  1   
 10   5   9  ar  
 11   5  10  1   
 12   6  11  1   
 13   6  20  1   
 14   6  21  1   
 15   7  12  ar  
 16   7  22  1   
 17   8  23  1   
 18   8  24  1   
 19   8  25  1   
 20   9  12  ar  
 21   9  26  1   
 22  10  27  1   
 23  10  28  1   
 24  10  29  1   
 25  11  13  1   
 26  11  14  1   
 27  11  30  1   
 28  12  31  1   
 29  13  15  1   
 30  13  32  1   
 31  13  33  1   
 32  14  16  1   
 33  14  34  1   
 34  14  35  1   
 35  15  17  1   
 36  15  36  1   
 37  15  37  1   
 38  16  17  1   
 39  16  38  1   
 40  16  39  1   
 41  17  40  1   
 42  17  41  1   
@<TRIPOS>SUBSTRUCTURE
  1 ****   3 GROUP 4 **** **** 0

# MOE 2024.06 (io_trps.svl 2023.06)
