@<TRIPOS>MOLECULE
NONAME
51 52 1 0 0 
SMALL
USER_CHARGES


@<TRIPOS>ATOM
  1 BR       0.4250     0.7370    -0.8680 Br    1 <1>  -0.1110 
  2 C        0.0300    -1.1510    -0.8580 C.ar  1 <1>   0.1110 
  3 C        0.9530    -2.0570    -0.3550 C.ar  1 <1>   0.0830 
  4 C       -1.1890    -1.5570    -1.3680 C.ar  1 <1>  -0.1500 
  5 O        2.1520    -1.6650     0.1270 O.3   1 <1>  -0.3630 
  6 C        0.6410    -3.4060    -0.3790 C.ar  1 <1>  -0.1500 
  7 C       -1.5020    -2.9110    -1.3780 C.ar  1 <1>  -0.1430 
  8 C        2.1890    -1.2700     1.4790 C.3   1 <1>   0.0400 
  9 C       -0.5790    -3.8290    -0.8860 C.ar  1 <1>  -0.1500 
 10 C       -2.8360    -3.3810    -1.9290 C.3   1 <1>   0.4870 
 11 N       -3.7320    -3.7340    -0.7940 N.4   1 <1>  -0.9590 
 12 C       -4.9700    -4.4120    -1.2990 C.3   1 <1>   0.3430 
 13 C       -4.0550    -2.5380     0.0410 C.3   1 <1>   0.3430 
 14 C       -5.8920    -4.8490    -0.1530 C.3   1 <1>  -0.0190 
 15 C       -4.9250    -2.9550     1.2280 C.3   1 <1>  -0.1600 
 16 C       -7.1640    -5.4290    -0.7640 C.2   1 <1>   0.5690 
 17 C       -6.2120    -3.6570     0.7710 C.3   1 <1>  -0.1600 
 18 O       -7.4910    -4.9830    -1.8390 O.2   1 <1>  -0.5700 
 19 N       -7.8930    -6.4050    -0.1310 N.am  1 <1>  -0.6600 
 20 C       -7.5780    -6.9940     1.2000 C.3   1 <1>   0.1400 
 21 C       -9.1370    -6.9320    -0.7600 C.3   1 <1>   0.1400 
 22 C       -6.7510    -8.2640     1.0140 C.3   1 <1>  -0.2400 
 23 C      -10.3380    -6.1260    -0.2700 C.3   1 <1>  -0.2400 
 24 H       -1.8640    -0.8120    -1.7520 H     1 <1>   0.1500 
 25 H        1.3610    -4.1160    -0.0080 H     1 <1>   0.1500 
 26 H        3.1990    -0.9880     1.7170 H     1 <1>   0.0800 
 27 H        1.8830    -2.0980     2.0930 H     1 <1>   0.0800 
 28 H        1.5320    -0.4300     1.6200 H     1 <1>   0.0800 
 29 H       -0.7890    -4.8860    -0.8990 H     1 <1>   0.1500 
 30 H       -2.6750    -4.2430    -2.5560 H     1 <1>   0.0800 
 31 H       -3.2820    -2.6040    -2.5290 H     1 <1>   0.0800 
 32 H       -3.2120    -4.3870    -0.1980 H     1 <1>   0.4500 
 33 H       -4.7090    -5.2780    -1.8870 H     1 <1>   0.0800 
 34 H       -5.5150    -3.7350    -1.9380 H     1 <1>   0.0800 
 35 H       -4.5860    -1.8100    -0.5530 H     1 <1>   0.0800 
 36 H       -3.1480    -2.0820     0.4060 H     1 <1>   0.0800 
 37 H       -5.3860    -5.6160     0.4000 H     1 <1>   0.0800 
 38 H       -5.1850    -2.0770     1.7950 H     1 <1>   0.0800 
 39 H       -4.3610    -3.6000     1.8790 H     1 <1>   0.0800 
 40 H       -6.7710    -3.9910     1.6290 H     1 <1>   0.0800 
 41 H       -6.8320    -2.9530     0.2390 H     1 <1>   0.0800 
 42 H       -8.4930    -7.2320     1.7160 H     1 <1>   0.0800 
 43 H       -7.0410    -6.2900     1.8100 H     1 <1>   0.0800 
 44 H       -9.2640    -7.9730    -0.5120 H     1 <1>   0.0800 
 45 H       -9.0680    -6.8580    -1.8330 H     1 <1>   0.0800 
 46 H       -7.3060    -8.9960     0.4560 H     1 <1>   0.0800 
 47 H       -6.5150    -8.6840     1.9750 H     1 <1>   0.0800 
 48 H       -5.8320    -8.0510     0.5000 H     1 <1>   0.0800 
 49 H      -10.4490    -6.2110     0.7950 H     1 <1>   0.0800 
 50 H      -11.2330    -6.4970    -0.7360 H     1 <1>   0.0800 
 51 H      -10.2210    -5.0920    -0.5390 H     1 <1>   0.0800 
@<TRIPOS>BOND
  1   1   2  1   
  2   2   3  ar  
  3   2   4  ar  
  4   3   5  1   
  5   3   6  ar  
  6   4   7  ar  
  7   4  24  1   
  8   5   8  1   
  9   6   9  ar  
 10   6  25  1   
 11   7   9  ar  
 12   7  10  1   
 13   8  26  1   
 14   8  27  1   
 15   8  28  1   
 16   9  29  1   
 17  10  11  1   
 18  10  30  1   
 19  10  31  1   
 20  11  12  1   
 21  11  13  1   
 22  11  32  1   
 23  12  14  1   
 24  12  33  1   
 25  12  34  1   
 26  13  15  1   
 27  13  35  1   
 28  13  36  1   
 29  14  16  1   
 30  14  17  1   
 31  14  37  1   
 32  15  17  1   
 33  15  38  1   
 34  15  39  1   
 35  16  18  2   
 36  16  19  am  
 37  17  40  1   
 38  17  41  1   
 39  19  20  1   
 40  19  21  1   
 41  20  22  1   
 42  20  42  1   
 43  20  43  1   
 44  21  23  1   
 45  21  44  1   
 46  21  45  1   
 47  22  46  1   
 48  22  47  1   
 49  22  48  1   
 50  23  49  1   
 51  23  50  1   
 52  23  51  1   
@<TRIPOS>SUBSTRUCTURE
  1 ****  11 GROUP 4 **** **** 0

# MOE 2024.06 (io_trps.svl 2023.06)
