@<TRIPOS>MOLECULE
NONAME
31 32 1 0 0 
SMALL
USER_CHARGES


@<TRIPOS>ATOM
  1 CL      -0.8310    -0.6080    -2.5370 Cl    1 <1>  -0.1770 
  2 C       -2.2570    -1.0440    -1.6280 C.ar  1 <1>   0.1770 
  3 C       -3.4450    -1.3200    -2.2830 C.ar  1 <1>   0.1600 
  4 C       -2.1960    -1.1150    -0.2540 C.ar  1 <1>  -0.1500 
  5 N       -4.5740    -1.6580    -1.6740 N.ar  1 <1>  -0.6200 
  6 C       -3.3630    -1.4660     0.3880 C.ar  1 <1>  -0.1500 
  7 C       -4.5220    -1.7250    -0.3490 C.ar  1 <1>   0.4270 
  8 N       -5.7230    -2.0810     0.2200 N.am  1 <1>  -0.5470 
  9 C       -6.1980    -2.0900     1.4960 C.2   1 <1>   0.5690 
 10 O       -5.5460    -1.7720     2.4610 O.2   1 <1>  -0.5700 
 11 C       -7.6520    -2.5300     1.6860 C.3   1 <1>   0.1710 
 12 N       -8.4940    -2.3830     0.4620 N.3   1 <1>  -0.8100 
 13 C       -9.7510    -3.1460     0.5920 C.3   1 <1>   0.1100 
 14 C       -8.8140    -0.9620     0.1940 C.3   1 <1>   0.1100 
 15 C      -10.6500    -2.9450    -0.6430 C.3   1 <1>   0.1200 
 16 C       -9.7400    -0.8250    -1.0280 C.3   1 <1>   0.1200 
 17 O      -10.9010    -1.5840    -0.8480 O.3   1 <1>  -0.5600 
 18 H       -3.4600    -1.2580    -3.3570 H     1 <1>   0.1500 
 19 H       -1.2840    -0.9060     0.2780 H     1 <1>   0.1500 
 20 H       -3.3760    -1.5410     1.4590 H     1 <1>   0.1500 
 21 H       -6.4410    -2.3080    -0.4710 H     1 <1>   0.3700 
 22 H       -8.0810    -1.9700     2.4980 H     1 <1>   0.0800 
 23 H       -7.6280    -3.5650     1.9770 H     1 <1>   0.0800 
 24 H      -10.2900    -2.8290     1.4690 H     1 <1>   0.0800 
 25 H       -9.5270    -4.1940     0.6930 H     1 <1>   0.0800 
 26 H       -7.9100    -0.4090     0.0080 H     1 <1>   0.0800 
 27 H       -9.3030    -0.5240     1.0480 H     1 <1>   0.0800 
 28 H      -11.5960    -3.4360    -0.5010 H     1 <1>   0.0800 
 29 H      -10.1780    -3.3450    -1.5230 H     1 <1>   0.0800 
 30 H       -9.2410    -1.1630    -1.9200 H     1 <1>   0.0800 
 31 H      -10.0350     0.2000    -1.1610 H     1 <1>   0.0800 
@<TRIPOS>BOND
  1   1   2  1   
  2   2   3  ar  
  3   2   4  ar  
  4   3   5  ar  
  5   3  18  1   
  6   4   6  ar  
  7   4  19  1   
  8   5   7  ar  
  9   6   7  ar  
 10   6  20  1   
 11   7   8  1   
 12   8   9  am  
 13   8  21  1   
 14   9  10  2   
 15   9  11  1   
 16  11  12  1   
 17  11  22  1   
 18  11  23  1   
 19  12  13  1   
 20  12  14  1   
 21  13  15  1   
 22  13  24  1   
 23  13  25  1   
 24  14  16  1   
 25  14  26  1   
 26  14  27  1   
 27  15  17  1   
 28  15  28  1   
 29  15  29  1   
 30  16  17  1   
 31  16  30  1   
 32  16  31  1   
@<TRIPOS>SUBSTRUCTURE
  1 ****   8 GROUP 4 **** **** 0

# MOE 2024.06 (io_trps.svl 2023.06)
