@<TRIPOS>MOLECULE
NONAME
43 45 1 0 0 
SMALL
USER_CHARGES


@<TRIPOS>ATOM
  1 S       -0.0530    -0.1790    -0.0080 S.3   1 <1>  -0.0800 
  2 C        0.8790     1.2700    -0.3470 C.2   1 <1>   0.1040 
  3 C       -1.4440     0.7660     0.4640 C.2   1 <1>  -0.1400 
  4 N        2.1710     1.0240    -0.7780 N.am  1 <1>  -0.4940 
  5 C        0.1270     2.4020    -0.1470 C.2   1 <1>  -0.0860 
  6 C       -1.1930     2.0770     0.3500 C.2   1 <1>  -0.1810 
  7 C       -2.7100     0.0830     0.9340 C.3   1 <1>   0.0200 
  8 C        3.3450     1.4520    -0.2340 C.2   1 <1>   0.5690 
  9 C        0.5120     3.7610    -0.4400 C.2   1 <1>   0.7160 
 10 C       -2.2550     3.1030     0.7250 C.3   1 <1>   0.0210 
 11 C       -3.8500     1.1160     0.9870 C.3   1 <1>  -0.1600 
 12 O        3.3960     2.1390     0.7540 O.2   1 <1>  -0.5700 
 13 C        4.6290     1.0170    -0.8940 C.3   1 <1>  -0.1790 
 14 O       -0.2810     4.5220    -0.9670 O.2   1 <1>  -0.5700 
 15 N        1.7630     4.2210    -0.1170 N.am  1 <1>  -0.5470 
 16 C       -3.3780     2.4650     1.5690 C.3   1 <1>  -0.1600 
 17 C        2.3780     5.4660    -0.3300 C.ar  1 <1>   0.1170 
 18 C        3.3060     5.9600     0.5920 C.ar  1 <1>  -0.1440 
 19 C        2.1030     6.2200    -1.4670 C.ar  1 <1>  -0.1500 
 20 C        3.9290     7.1760     0.3620 C.ar  1 <1>  -0.1500 
 21 C        3.6570     5.1950     1.8630 C.3   1 <1>  -0.0970 
 22 C        2.7250     7.4340    -1.6890 C.ar  1 <1>  -0.1500 
 23 C        3.6420     7.9140    -0.7730 C.ar  1 <1>  -0.1500 
 24 H        2.2620     0.2530    -1.4380 H     1 <1>   0.3700 
 25 H       -2.5380    -0.3290     1.9130 H     1 <1>   0.0800 
 26 H       -2.9710    -0.7170     0.2650 H     1 <1>   0.0800 
 27 H       -2.6710     3.5140    -0.1790 H     1 <1>   0.0800 
 28 H       -1.8090     3.9090     1.2820 H     1 <1>   0.0800 
 29 H       -4.6620     0.7250     1.5750 H     1 <1>   0.0800 
 30 H       -4.2140     1.2820    -0.0120 H     1 <1>   0.0800 
 31 H        5.4620     1.5040    -0.4200 H     1 <1>   0.0800 
 32 H        4.6160     1.2870    -1.9330 H     1 <1>   0.0800 
 33 H        4.7480    -0.0460    -0.7970 H     1 <1>   0.0800 
 34 H        2.3230     3.5510     0.4240 H     1 <1>   0.3700 
 35 H       -4.2070     3.1470     1.6290 H     1 <1>   0.0800 
 36 H       -3.0110     2.3030     2.5680 H     1 <1>   0.0800 
 37 H        1.3970     5.8560    -2.1900 H     1 <1>   0.1500 
 38 H        4.6440     7.5600     1.0670 H     1 <1>   0.1500 
 39 H        4.3580     4.4130     1.6350 H     1 <1>   0.0800 
 40 H        2.7780     4.7600     2.3030 H     1 <1>   0.0800 
 41 H        4.1020     5.8480     2.5910 H     1 <1>   0.0800 
 42 H        2.4950     8.0030    -2.5730 H     1 <1>   0.1500 
 43 H        4.1290     8.8590    -0.9410 H     1 <1>   0.1500 
@<TRIPOS>BOND
  1   1   2  1   
  2   1   3  1   
  3   2   4  1   
  4   2   5  2   
  5   3   6  2   
  6   3   7  1   
  7   4   8  am  
  8   4  24  1   
  9   5   6  1   
 10   5   9  1   
 11   6  10  1   
 12   7  11  1   
 13   7  25  1   
 14   7  26  1   
 15   8  12  2   
 16   8  13  1   
 17   9  14  2   
 18   9  15  am  
 19  10  16  1   
 20  10  27  1   
 21  10  28  1   
 22  11  16  1   
 23  11  29  1   
 24  11  30  1   
 25  13  31  1   
 26  13  32  1   
 27  13  33  1   
 28  15  17  1   
 29  15  34  1   
 30  16  35  1   
 31  16  36  1   
 32  17  18  ar  
 33  17  19  ar  
 34  18  20  ar  
 35  18  21  1   
 36  19  22  ar  
 37  19  37  1   
 38  20  23  ar  
 39  20  38  1   
 40  21  39  1   
 41  21  40  1   
 42  21  41  1   
 43  22  23  ar  
 44  22  42  1   
 45  23  43  1   
@<TRIPOS>SUBSTRUCTURE
  1 ****   9 GROUP 4 **** **** 0

# MOE 2024.06 (io_trps.svl 2023.06)
