@<TRIPOS>MOLECULE
NONAME
48 49 1 0 0 
SMALL
USER_CHARGES


@<TRIPOS>ATOM
  1 O        6.7820    -5.9940     0.2470 O.3   1 <1>  -0.5600 
  2 C        6.1730    -5.7840    -0.9980 C.3   1 <1>   0.1200 
  3 C        6.8970    -7.3440     0.6090 C.3   1 <1>   0.1200 
  4 C        4.7390    -6.3620    -1.0190 C.3   1 <1>   0.3430 
  5 C        5.5200    -8.0500     0.5970 C.3   1 <1>   0.3430 
  6 N        4.4160    -7.0870     0.2610 N.4   1 <1>  -0.9590 
  7 C        3.0700    -7.7460     0.2720 C.3   1 <1>   0.3430 
  8 C        1.9170    -6.7400     0.2190 C.3   1 <1>   0.1200 
  9 O        0.7250    -7.4820     0.2040 O.3   1 <1>  -0.3630 
 10 C       -0.4890    -6.8760     0.1180 C.ar  1 <1>   0.0830 
 11 C       -1.6110    -7.6890     0.0150 C.ar  1 <1>  -0.1430 
 12 C       -0.6500    -5.4940     0.1260 C.ar  1 <1>  -0.1500 
 13 C       -2.8670    -7.1120    -0.0810 C.ar  1 <1>  -0.1500 
 14 C       -1.4800    -9.2050     0.0060 C.3   1 <1>  -0.0970 
 15 C       -1.9120    -4.9360     0.0300 C.ar  1 <1>  -0.1500 
 16 C       -3.0470    -5.7320    -0.0770 C.ar  1 <1>  -0.1430 
 17 C       -4.4760    -5.1530    -0.1870 C.3   1 <1>   0.1430 
 18 C       -4.5110    -3.6150    -0.1700 C.3   1 <1>  -0.2400 
 19 C       -5.3240    -5.6480     0.9940 C.3   1 <1>  -0.2400 
 20 C       -5.1170    -5.6150    -1.5050 C.3   1 <1>  -0.2400 
 21 H        6.7820    -6.2400    -1.7610 H     1 <1>   0.0800 
 22 H        6.1500    -4.7230    -1.1790 H     1 <1>   0.0800 
 23 H        7.3240    -7.3820     1.5970 H     1 <1>   0.0800 
 24 H        7.5800    -7.8270    -0.0690 H     1 <1>   0.0800 
 25 H        4.6460    -7.0320    -1.8580 H     1 <1>   0.0800 
 26 H        4.0430    -5.5540    -1.1720 H     1 <1>   0.0800 
 27 H        5.3450    -8.4930     1.5630 H     1 <1>   0.0800 
 28 H        5.5440    -8.8480    -0.1270 H     1 <1>   0.0800 
 29 H        4.4670    -6.3690     1.0020 H     1 <1>   0.4500 
 30 H        2.9640    -8.3250     1.1750 H     1 <1>   0.0800 
 31 H        2.9880    -8.4130    -0.5700 H     1 <1>   0.0800 
 32 H        1.9490    -6.1520    -0.6810 H     1 <1>   0.0800 
 33 H        1.9110    -6.1140     1.0930 H     1 <1>   0.0800 
 34 H        0.1850    -4.8280     0.2100 H     1 <1>   0.1500 
 35 H       -3.7230    -7.7560    -0.1610 H     1 <1>   0.1500 
 36 H       -1.0080    -9.5360     0.9130 H     1 <1>   0.0800 
 37 H       -0.8810    -9.5150    -0.8320 H     1 <1>   0.0800 
 38 H       -2.4420    -9.6790    -0.0700 H     1 <1>   0.0800 
 39 H       -1.9820    -3.8650     0.0410 H     1 <1>   0.1500 
 40 H       -3.9520    -3.2160    -0.9970 H     1 <1>   0.0800 
 41 H       -4.0980    -3.2390     0.7490 H     1 <1>   0.0800 
 42 H       -5.5220    -3.2590    -0.2500 H     1 <1>   0.0800 
 43 H       -4.8630    -5.3590     1.9220 H     1 <1>   0.0800 
 44 H       -5.4180    -6.7170     0.9840 H     1 <1>   0.0800 
 45 H       -6.3120    -5.2260     0.9560 H     1 <1>   0.0800 
 46 H       -4.5110    -5.3030    -2.3370 H     1 <1>   0.0800 
 47 H       -6.0990    -5.1910    -1.6180 H     1 <1>   0.0800 
 48 H       -5.2100    -6.6840    -1.5380 H     1 <1>   0.0800 
@<TRIPOS>BOND
  1   1   2  1   
  2   1   3  1   
  3   2   4  1   
  4   2  21  1   
  5   2  22  1   
  6   3   5  1   
  7   3  23  1   
  8   3  24  1   
  9   4   6  1   
 10   4  25  1   
 11   4  26  1   
 12   5   6  1   
 13   5  27  1   
 14   5  28  1   
 15   6   7  1   
 16   6  29  1   
 17   7   8  1   
 18   7  30  1   
 19   7  31  1   
 20   8   9  1   
 21   8  32  1   
 22   8  33  1   
 23   9  10  1   
 24  10  11  ar  
 25  10  12  ar  
 26  11  13  ar  
 27  11  14  1   
 28  12  15  ar  
 29  12  34  1   
 30  13  16  ar  
 31  13  35  1   
 32  14  36  1   
 33  14  37  1   
 34  14  38  1   
 35  15  16  ar  
 36  15  39  1   
 37  16  17  1   
 38  17  18  1   
 39  17  19  1   
 40  17  20  1   
 41  18  40  1   
 42  18  41  1   
 43  18  42  1   
 44  19  43  1   
 45  19  44  1   
 46  19  45  1   
 47  20  46  1   
 48  20  47  1   
 49  20  48  1   
@<TRIPOS>SUBSTRUCTURE
  1 ****  10 GROUP 4 **** **** 0

# MOE 2024.06 (io_trps.svl 2023.06)
