@<TRIPOS>MOLECULE
NONAME
42 46 1 0 0 
SMALL
USER_CHARGES


@<TRIPOS>ATOM
  1 S       -0.1570    -1.0730     0.8260 S.3   1 <1>  -0.0800 
  2 C       -1.5180    -0.0080     0.4530 C.ar  1 <1>   0.2970 
  3 C        0.9970     0.0670     0.1170 C.2   1 <1>  -0.0350 
  4 N       -2.7570    -0.3360     0.7630 N.ar  1 <1>  -0.5670 
  5 C       -1.0680     1.1450    -0.1780 C.ar  1 <1>   0.0000 
  6 C        2.3780    -0.0730     0.0250 C.cat 1 <1>   0.7840 
  7 C        0.3570     1.1710    -0.3610 C.2   1 <1>   0.1250 
  8 C       -3.6470     0.5780     0.4090 C.ar  1 <1>   0.1660 
  9 C       -2.0260     2.0790    -0.5350 C.ar  1 <1>  -0.1500 
 10 N        3.0450    -1.1370     0.4870 N.pl3 1 <1>  -0.7940 
 11 N        3.0430     0.9340    -0.5660 N.pl3 1 <1>  -0.7250 
 12 N        1.0600     2.1670    -0.9480 N.2   1 <1>  -0.5750 
 13 C       -3.3400     1.7810    -0.2320 C.ar  1 <1>  -0.1430 
 14 C       -5.0890     0.2680     0.7540 C.3   1 <1>  -0.0170 
 15 C        4.5090    -1.3150     0.4640 C.3   1 <1>   0.3290 
 16 C        2.3440     2.0190    -1.0290 C.2   1 <1>   0.7710 
 17 C        4.5130     0.8830    -0.7680 C.3   1 <1>   0.3290 
 18 C       -4.4400     2.7630    -0.6170 C.3   1 <1>   0.2630 
 19 C       -6.0800     1.1050    -0.0710 C.3   1 <1>   0.2800 
 20 C        5.1720     0.0540     0.3360 C.3   1 <1>  -0.1600 
 21 O       -5.6720     2.4370    -0.0370 O.3   1 <1>  -0.5600 
 22 C       -6.1940     0.6240    -1.5270 C.3   1 <1>  -0.2400 
 23 C       -7.4660     1.0820     0.5740 C.3   1 <1>  -0.2400 
 24 H       -1.7400     2.9920    -1.0280 H     1 <1>   0.1500 
 25 H        2.5080    -1.9040     0.9070 H     1 <1>   0.4500 
 26 H       -5.2300     0.4680     1.8000 H     1 <1>   0.0800 
 27 H       -5.2830    -0.7770     0.5940 H     1 <1>   0.0800 
 28 H        4.7770    -1.9420    -0.3720 H     1 <1>   0.0800 
 29 H        4.8350    -1.7970     1.3720 H     1 <1>   0.0800 
 30 H        2.9140     2.8040    -1.4980 H     1 <1>   0.0600 
 31 H        4.9260     1.8790    -0.7590 H     1 <1>   0.0800 
 32 H        4.7200     0.4400    -1.7290 H     1 <1>   0.0800 
 33 H       -4.5660     2.7860    -1.6850 H     1 <1>   0.0800 
 34 H       -4.1850     3.7530    -0.2830 H     1 <1>   0.0800 
 35 H        6.2180    -0.0710     0.1210 H     1 <1>   0.0800 
 36 H        5.0970     0.5790     1.2730 H     1 <1>   0.0800 
 37 H       -5.2300     0.5390    -1.9940 H     1 <1>   0.0800 
 38 H       -6.8080     1.3000    -2.0950 H     1 <1>   0.0800 
 39 H       -6.6500    -0.3490    -1.5550 H     1 <1>   0.0800 
 40 H       -7.4180     1.4690     1.5760 H     1 <1>   0.0800 
 41 H       -7.8450     0.0770     0.6130 H     1 <1>   0.0800 
 42 H       -8.1510     1.6840     0.0030 H     1 <1>   0.0800 
@<TRIPOS>BOND
  1   1   2  1   
  2   1   3  1   
  3   2   4  ar  
  4   2   5  ar  
  5   3   6  1   
  6   3   7  2   
  7   4   8  ar  
  8   5   7  1   
  9   5   9  ar  
 10   6  10  ar  
 11   6  11  ar  
 12   7  12  1   
 13   8  13  ar  
 14   8  14  1   
 15   9  13  ar  
 16   9  24  1   
 17  10  15  1   
 18  10  25  1   
 19  11  16  1   
 20  11  17  1   
 21  12  16  2   
 22  13  18  1   
 23  14  19  1   
 24  14  26  1   
 25  14  27  1   
 26  15  20  1   
 27  15  28  1   
 28  15  29  1   
 29  16  30  1   
 30  17  20  1   
 31  17  31  1   
 32  17  32  1   
 33  18  21  1   
 34  18  33  1   
 35  18  34  1   
 36  19  21  1   
 37  19  22  1   
 38  19  23  1   
 39  20  35  1   
 40  20  36  1   
 41  22  37  1   
 42  22  38  1   
 43  22  39  1   
 44  23  40  1   
 45  23  41  1   
 46  23  42  1   
@<TRIPOS>SUBSTRUCTURE
  1 ****   5 GROUP 4 **** **** 0

# MOE 2024.06 (io_trps.svl 2023.06)
