@<TRIPOS>MOLECULE
NONAME
49 51 1 0 0 
SMALL
USER_CHARGES


@<TRIPOS>ATOM
  1 S       -1.8710     0.0060     2.1750 S.3   1 <1>  -0.0800 
  2 C       -1.1560    -1.1000     1.0100 C.2   1 <1>   0.1040 
  3 C       -3.0260     0.6040     0.9970 C.2   1 <1>  -0.1400 
  4 N       -0.1090    -1.9260     1.3850 N.am  1 <1>  -0.4940 
  5 C       -1.7850    -0.9920    -0.2000 C.2   1 <1>  -0.0860 
  6 C       -2.8470    -0.0170    -0.1800 C.2   1 <1>  -0.1500 
  7 C       -3.9950     1.6690     1.4640 C.3   1 <1>  -0.0600 
  8 C        0.6530    -2.0430     2.5170 C.2   1 <1>   0.5690 
  9 C       -1.4440    -1.7470    -1.3720 C.2   1 <1>   0.8060 
 10 O        0.5470    -1.3440     3.4950 O.2   1 <1>  -0.5700 
 11 C        1.7100    -3.1490     2.5070 C.3   1 <1>   0.1710 
 12 O       -0.5300    -2.5510    -1.4080 O.2   1 <1>  -0.5700 
 13 O       -2.1690    -1.5540    -2.4800 O.3   1 <1>  -0.4300 
 14 N        2.0390    -3.6570     1.1420 N.3   1 <1>  -0.8100 
 15 C       -1.8980    -2.2620    -3.6690 C.3   1 <1>   0.1200 
 16 C        2.6750    -4.9820     1.2150 C.3   1 <1>   0.1100 
 17 C        2.8950    -2.7020     0.4110 C.3   1 <1>   0.1100 
 18 C       -2.9010    -1.8110    -4.7260 C.3   1 <1>  -0.2400 
 19 C        2.8520    -5.5450    -0.1950 C.3   1 <1>  -0.1600 
 20 C        3.0790    -3.1750    -1.0300 C.3   1 <1>  -0.1600 
 21 C        3.6660    -4.5860    -1.0520 C.3   1 <1>   0.5600 
 22 O        4.9820    -4.5700    -0.5970 O.3   1 <1>  -0.5600 
 23 O        3.7340    -5.0730    -2.3490 O.3   1 <1>  -0.5600 
 24 C        5.8370    -4.4680    -1.6780 C.3   1 <1>   0.1200 
 25 C        4.9620    -4.7450    -2.8860 C.3   1 <1>   0.1200 
 26 H        0.2200    -2.5850     0.6610 H     1 <1>   0.3700 
 27 H       -3.4320     0.1750    -1.0630 H     1 <1>   0.1500 
 28 H       -4.5860     1.2930     2.2790 H     1 <1>   0.0800 
 29 H       -4.6490     1.9550     0.6610 H     1 <1>   0.0800 
 30 H       -3.4520     2.5350     1.7980 H     1 <1>   0.0800 
 31 H        1.3170    -3.9550     3.1010 H     1 <1>   0.0800 
 32 H        2.6010    -2.7880     2.9910 H     1 <1>   0.0800 
 33 H       -1.9950    -3.3160    -3.4700 H     1 <1>   0.0800 
 34 H       -0.8890    -2.0430    -3.9760 H     1 <1>   0.0800 
 35 H        2.0520    -5.6540     1.7820 H     1 <1>   0.0800 
 36 H        3.6330    -4.9060     1.7040 H     1 <1>   0.0800 
 37 H        3.8560    -2.6250     0.8960 H     1 <1>   0.0800 
 38 H        2.4420    -1.7260     0.4030 H     1 <1>   0.0800 
 39 H       -3.9030    -2.0270    -4.4030 H     1 <1>   0.0800 
 40 H       -2.7170    -2.3350    -5.6460 H     1 <1>   0.0800 
 41 H       -2.8000    -0.7560    -4.9080 H     1 <1>   0.0800 
 42 H        1.8820    -5.6780    -0.6370 H     1 <1>   0.0800 
 43 H        3.3460    -6.4970    -0.1540 H     1 <1>   0.0800 
 44 H        3.7180    -2.4940    -1.5580 H     1 <1>   0.0800 
 45 H        2.1200    -3.1870    -1.5130 H     1 <1>   0.0800 
 46 H        6.6180    -5.2000    -1.5730 H     1 <1>   0.0800 
 47 H        6.2540    -3.4770    -1.7070 H     1 <1>   0.0800 
 48 H        4.8510    -3.8700    -3.5020 H     1 <1>   0.0800 
 49 H        5.3240    -5.5710    -3.4720 H     1 <1>   0.0800 
@<TRIPOS>BOND
  1   1   2  1   
  2   1   3  1   
  3   2   4  1   
  4   2   5  2   
  5   3   6  2   
  6   3   7  1   
  7   4   8  am  
  8   4  26  1   
  9   5   6  1   
 10   5   9  1   
 11   6  27  1   
 12   7  28  1   
 13   7  29  1   
 14   7  30  1   
 15   8  10  2   
 16   8  11  1   
 17   9  12  2   
 18   9  13  1   
 19  11  14  1   
 20  11  31  1   
 21  11  32  1   
 22  13  15  1   
 23  14  16  1   
 24  14  17  1   
 25  15  18  1   
 26  15  33  1   
 27  15  34  1   
 28  16  19  1   
 29  16  35  1   
 30  16  36  1   
 31  17  20  1   
 32  17  37  1   
 33  17  38  1   
 34  18  39  1   
 35  18  40  1   
 36  18  41  1   
 37  19  21  1   
 38  19  42  1   
 39  19  43  1   
 40  20  21  1   
 41  20  44  1   
 42  20  45  1   
 43  21  22  1   
 44  21  23  1   
 45  22  24  1   
 46  23  25  1   
 47  24  25  1   
 48  24  46  1   
 49  24  47  1   
 50  25  48  1   
 51  25  49  1   
@<TRIPOS>SUBSTRUCTURE
  1 ****  12 GROUP 4 **** **** 0

# MOE 2024.06 (io_trps.svl 2023.06)
