@<TRIPOS>MOLECULE
NONAME
51 54 1 0 0 
SMALL
USER_CHARGES


@<TRIPOS>ATOM
  1 CL      -1.3430     2.8140     2.1360 Cl    1 <1>  -0.1770 
  2 C       -2.4580     2.3540     0.8760 C.ar  1 <1>   0.1770 
  3 C       -3.7230     1.9250     1.2160 C.ar  1 <1>  -0.1500 
  4 C       -2.0480     2.4310    -0.4450 C.ar  1 <1>  -0.1500 
  5 C       -4.6290     1.5550     0.2190 C.ar  1 <1>   0.0860 
  6 C       -2.9300     2.0680    -1.4440 C.ar  1 <1>  -0.1500 
  7 C       -5.9690     1.1080     0.4940 C.2   1 <1>   0.4690 
  8 C       -4.2090     1.6330    -1.1170 C.ar  1 <1>   0.0830 
  9 O       -6.4390     1.0950     1.6190 O.2   1 <1>  -0.5700 
 10 C       -6.7690     0.7170    -0.6230 C.2   1 <1>  -0.1240 
 11 O       -5.0480     1.2840    -2.1180 O.3   1 <1>  -0.1590 
 12 C       -6.2780     0.8230    -1.8780 C.2   1 <1>  -0.0730 
 13 C       -8.1570     0.1730    -0.3330 C.3   1 <1>   0.4810 
 14 N       -8.9400     1.1540     0.4640 N.4   1 <1>  -0.9590 
 15 C      -10.2000     0.5590     1.0360 C.3   1 <1>   0.3430 
 16 C       -9.2180     2.4420    -0.2720 C.3   1 <1>   0.3430 
 17 C      -10.9740     1.5540     1.9270 C.3   1 <1>   0.2090 
 18 C       -9.9730     3.4700     0.5970 C.3   1 <1>   0.2090 
 19 N      -11.1710     2.8650     1.2460 N.pl3 1 <1>  -0.8380 
 20 C      -12.4180     3.1230     0.6780 C.ar  1 <1>   0.1000 
 21 C      -13.3090     4.0070     1.2880 C.ar  1 <1>  -0.1430 
 22 C      -12.7930     2.5000    -0.5080 C.ar  1 <1>  -0.1500 
 23 C      -14.5420     4.2490     0.7070 C.ar  1 <1>  -0.1500 
 24 C      -12.9410     4.7120     2.5860 C.3   1 <1>  -0.0970 
 25 C      -14.0250     2.7420    -1.0880 C.ar  1 <1>  -0.1430 
 26 C      -14.9000     3.6210    -0.4740 C.ar  1 <1>  -0.1500 
 27 C      -14.4360     2.0630    -2.3830 C.3   1 <1>  -0.0970 
 28 H       -4.0070     1.8770     2.2530 H     1 <1>   0.1500 
 29 H       -1.0530     2.7700    -0.6760 H     1 <1>   0.1500 
 30 H       -2.6310     2.1190    -2.4780 H     1 <1>   0.1500 
 31 H       -6.8080     0.5480    -2.7750 H     1 <1>   0.1500 
 32 H       -8.0550    -0.7420     0.2280 H     1 <1>   0.0800 
 33 H       -8.6690    -0.0490    -1.2540 H     1 <1>   0.0800 
 34 H       -8.3200     1.3880     1.2660 H     1 <1>   0.4500 
 35 H       -9.9620    -0.3140     1.6210 H     1 <1>   0.0800 
 36 H      -10.8520     0.2540     0.2350 H     1 <1>   0.0800 
 37 H       -9.8190     2.2380    -1.1420 H     1 <1>   0.0800 
 38 H       -8.2940     2.8840    -0.6050 H     1 <1>   0.0800 
 39 H      -10.4380     1.7140     2.8460 H     1 <1>   0.0800 
 40 H      -11.9340     1.1360     2.1800 H     1 <1>   0.0800 
 41 H      -10.2800     4.3010    -0.0160 H     1 <1>   0.0800 
 42 H       -9.3170     3.8540     1.3590 H     1 <1>   0.0800 
 43 H      -12.1150     1.8210    -0.9810 H     1 <1>   0.1500 
 44 H      -15.2360     4.9290     1.1680 H     1 <1>   0.1500 
 45 H      -12.7450     3.9830     3.3520 H     1 <1>   0.0800 
 46 H      -13.7350     5.3550     2.9190 H     1 <1>   0.0800 
 47 H      -12.0570     5.3050     2.4400 H     1 <1>   0.0800 
 48 H      -15.8630     3.8220    -0.9100 H     1 <1>   0.1500 
 49 H      -13.6760     1.3840    -2.7240 H     1 <1>   0.0800 
 50 H      -14.6030     2.8030    -3.1450 H     1 <1>   0.0800 
 51 H      -15.3460     1.5100    -2.2320 H     1 <1>   0.0800 
@<TRIPOS>BOND
  1   1   2  1   
  2   2   3  ar  
  3   2   4  ar  
  4   3   5  ar  
  5   3  28  1   
  6   4   6  ar  
  7   4  29  1   
  8   5   7  1   
  9   5   8  ar  
 10   6   8  ar  
 11   6  30  1   
 12   7   9  2   
 13   7  10  1   
 14   8  11  1   
 15  10  12  2   
 16  10  13  1   
 17  11  12  1   
 18  12  31  1   
 19  13  14  1   
 20  13  32  1   
 21  13  33  1   
 22  14  15  1   
 23  14  16  1   
 24  14  34  1   
 25  15  17  1   
 26  15  35  1   
 27  15  36  1   
 28  16  18  1   
 29  16  37  1   
 30  16  38  1   
 31  17  19  1   
 32  17  39  1   
 33  17  40  1   
 34  18  19  1   
 35  18  41  1   
 36  18  42  1   
 37  19  20  1   
 38  20  21  ar  
 39  20  22  ar  
 40  21  23  ar  
 41  21  24  1   
 42  22  25  ar  
 43  22  43  1   
 44  23  26  ar  
 45  23  44  1   
 46  24  45  1   
 47  24  46  1   
 48  24  47  1   
 49  25  26  ar  
 50  25  27  1   
 51  26  48  1   
 52  27  49  1   
 53  27  50  1   
 54  27  51  1   
@<TRIPOS>SUBSTRUCTURE
  1 ****  16 GROUP 4 **** **** 0

# MOE 2024.06 (io_trps.svl 2023.06)
