@<TRIPOS>MOLECULE
NONAME
53 55 1 0 0 
SMALL
USER_CHARGES


@<TRIPOS>ATOM
  1 N       -0.1440     0.1640    -0.3480 N.4   1 <1>  -0.9590 
  2 C        0.0560    -1.0110     0.5520 C.3   1 <1>   0.3430 
  3 C        1.0020     1.1130    -0.3580 C.3   1 <1>   0.3430 
  4 C       -1.4230     0.8710    -0.0230 C.3   1 <1>   0.4860 
  5 C        1.3280    -1.7600     0.1530 C.3   1 <1>  -0.1600 
  6 C        2.2860     0.3780    -0.7570 C.3   1 <1>  -0.1600 
  7 C       -2.5670    -0.0860    -0.2920 C.ar  1 <1>  -0.1440 
  8 C        2.5420    -0.8300     0.1510 C.3   1 <1>   0.4230 
  9 C       -3.2430    -0.6810     0.7650 C.ar  1 <1>  -0.1500 
 10 C       -2.9400    -0.3820    -1.5960 C.ar  1 <1>  -0.1500 
 11 N        3.7260    -1.5960    -0.3120 N.4   1 <1>  -0.9060 
 12 C       -4.2680    -1.5770     0.5180 C.ar  1 <1>  -0.1500 
 13 C       -3.9640    -1.2790    -1.8390 C.ar  1 <1>  -0.1500 
 14 C        5.0380    -0.9220    -0.1740 C.3   1 <1>   0.4230 
 15 C       -4.6260    -1.8790    -0.7830 C.ar  1 <1>  -0.1500 
 16 C        6.0840    -1.7270    -0.9620 C.3   1 <1>  -0.1600 
 17 C        5.4270    -0.7900     1.3030 C.3   1 <1>  -0.1600 
 18 C        7.5190    -1.5730    -0.4130 C.3   1 <1>  -0.0800 
 19 C        6.7550    -0.0240     1.4560 C.3   1 <1>  -0.1600 
 20 C        7.7090    -0.2070     0.2610 C.3   1 <1>  -0.1600 
 21 C        8.5530    -1.7840    -1.5240 C.3   1 <1>  -0.2400 
 22 H       -0.3020    -0.2010    -1.2990 H     1 <1>   0.4500 
 23 H       -0.7890    -1.6800     0.4800 H     1 <1>   0.0800 
 24 H        0.1300    -0.6780     1.5760 H     1 <1>   0.0800 
 25 H        1.1220     1.5490     0.6220 H     1 <1>   0.0800 
 26 H        0.8130     1.9130    -1.0580 H     1 <1>   0.0800 
 27 H       -1.5410     1.7430    -0.6450 H     1 <1>   0.0800 
 28 H       -1.4360     1.1820     1.0090 H     1 <1>   0.0800 
 29 H        1.1790    -2.1990    -0.8180 H     1 <1>   0.0800 
 30 H        1.4810    -2.5560     0.8610 H     1 <1>   0.0800 
 31 H        3.0990     1.0780    -0.6800 H     1 <1>   0.0800 
 32 H        2.2040     0.0710    -1.7860 H     1 <1>   0.0800 
 33 H        2.7100    -0.4840     1.1590 H     1 <1>   0.0800 
 34 H       -2.9920    -0.4570     1.7880 H     1 <1>   0.1500 
 35 H       -2.4520     0.0790    -2.4380 H     1 <1>   0.1500 
 36 H        3.6170    -1.8630    -1.2980 H     1 <1>   0.4500 
 37 H        3.7980    -2.4780     0.2110 H     1 <1>   0.4500 
 38 H       -4.7940    -2.0400     1.3360 H     1 <1>   0.1500 
 39 H       -4.2560    -1.5110    -2.8500 H     1 <1>   0.1500 
 40 H        4.9930     0.0690    -0.5990 H     1 <1>   0.0800 
 41 H       -5.4250    -2.5760    -0.9740 H     1 <1>   0.1500 
 42 H        6.0600    -1.3830    -1.9820 H     1 <1>   0.0800 
 43 H        5.8500    -2.7770    -0.9600 H     1 <1>   0.0800 
 44 H        5.5520    -1.7730     1.7260 H     1 <1>   0.0800 
 45 H        4.6760    -0.2700     1.8690 H     1 <1>   0.0800 
 46 H        7.6860    -2.3330     0.3360 H     1 <1>   0.0800 
 47 H        7.2450    -0.3620     2.3540 H     1 <1>   0.0800 
 48 H        6.5640     1.0290     1.5810 H     1 <1>   0.0800 
 49 H        7.5390     0.5720    -0.4630 H     1 <1>   0.0800 
 50 H        8.7250    -0.1040     0.6040 H     1 <1>   0.0800 
 51 H        8.4620    -1.0310    -2.2860 H     1 <1>   0.0800 
 52 H        8.4280    -2.7520    -1.9780 H     1 <1>   0.0800 
 53 H        9.5490    -1.7350    -1.1180 H     1 <1>   0.0800 
@<TRIPOS>BOND
  1   1   2  1   
  2   1   3  1   
  3   1   4  1   
  4   1  22  1   
  5   2   5  1   
  6   2  23  1   
  7   2  24  1   
  8   3   6  1   
  9   3  25  1   
 10   3  26  1   
 11   4   7  1   
 12   4  27  1   
 13   4  28  1   
 14   5   8  1   
 15   5  29  1   
 16   5  30  1   
 17   6   8  1   
 18   6  31  1   
 19   6  32  1   
 20   7   9  ar  
 21   7  10  ar  
 22   8  11  1   
 23   8  33  1   
 24   9  12  ar  
 25   9  34  1   
 26  10  13  ar  
 27  10  35  1   
 28  11  14  1   
 29  11  36  1   
 30  11  37  1   
 31  12  15  ar  
 32  12  38  1   
 33  13  15  ar  
 34  13  39  1   
 35  14  16  1   
 36  14  17  1   
 37  14  40  1   
 38  15  41  1   
 39  16  18  1   
 40  16  42  1   
 41  16  43  1   
 42  17  19  1   
 43  17  44  1   
 44  17  45  1   
 45  18  20  1   
 46  18  21  1   
 47  18  46  1   
 48  19  20  1   
 49  19  47  1   
 50  19  48  1   
 51  20  49  1   
 52  20  50  1   
 53  21  51  1   
 54  21  52  1   
 55  21  53  1   
@<TRIPOS>SUBSTRUCTURE
  1 ****   8 GROUP 4 **** **** 0

# MOE 2024.06 (io_trps.svl 2023.06)
