@<TRIPOS>MOLECULE
NONAME
46 48 1 0 0 
SMALL
USER_CHARGES


@<TRIPOS>ATOM
  1 S       -0.0570     0.1370     0.6560 S.o2  1 <1>   1.2040 
  2 O       -0.1620     0.7200     1.9760 O.2   1 <1>  -0.6500 
  3 O       -0.2040    -1.2930     0.4810 O.2   1 <1>  -0.6500 
  4 C        1.5150     0.6520    -0.0770 C.ar  1 <1>  -0.0090 
  5 C       -1.2110     0.9690    -0.4450 C.3   1 <1>   0.0890 
  6 C        2.1230     1.8430     0.2990 C.ar  1 <1>  -0.1500 
  7 C        2.1340    -0.1090    -1.0610 C.ar  1 <1>  -0.1500 
  8 C       -2.6800     0.8370    -0.0530 C.ar  1 <1>  -0.1440 
  9 C        3.3030     2.2650    -0.2890 C.ar  1 <1>  -0.1500 
 10 C        3.3140     0.3070    -1.6540 C.ar  1 <1>  -0.1500 
 11 C       -3.4210     1.9640     0.2660 C.ar  1 <1>  -0.1500 
 12 C       -3.2900    -0.4070    -0.0130 C.ar  1 <1>  -0.1500 
 13 C        3.9050     1.4970    -1.2700 C.ar  1 <1>  -0.1430 
 14 C       -4.7660     1.8850     0.6230 C.ar  1 <1>   0.0860 
 15 C       -4.6190    -0.5160     0.3530 C.ar  1 <1>  -0.1500 
 16 C        5.2000     1.9560    -1.9180 C.3   1 <1>  -0.0970 
 17 C       -5.5220     3.0860     0.9380 C.2   1 <1>   0.5440 
 18 C       -5.3440     0.6170     0.6720 C.ar  1 <1>  -0.1500 
 19 O       -5.0090     3.9460     1.6300 O.2   1 <1>  -0.5700 
 20 N       -6.8000     3.2960     0.4620 N.am  1 <1>  -0.6600 
 21 C       -7.3410     2.6670    -0.7810 C.3   1 <1>   0.1400 
 22 C       -7.6800     4.3760     1.0030 C.3   1 <1>   0.1400 
 23 C       -7.7830     3.7440    -1.7880 C.3   1 <1>   0.1200 
 24 C       -8.0880     5.3530    -0.1100 C.3   1 <1>   0.1200 
 25 O       -8.6530     4.6600    -1.1890 O.3   1 <1>  -0.5600 
 26 H       -1.0930     0.5790    -1.4370 H     1 <1>   0.0800 
 27 H       -0.9600     2.0110    -0.4830 H     1 <1>   0.0800 
 28 H        1.6720     2.4510     1.0670 H     1 <1>   0.1500 
 29 H        1.6930    -1.0430    -1.3680 H     1 <1>   0.1500 
 30 H        3.7520     3.1920     0.0240 H     1 <1>   0.1500 
 31 H        3.7720    -0.3040    -2.4130 H     1 <1>   0.1500 
 32 H       -2.9630     2.9390     0.2510 H     1 <1>   0.1500 
 33 H       -2.7360    -1.3000    -0.2560 H     1 <1>   0.1500 
 34 H       -5.0830    -1.4860     0.3960 H     1 <1>   0.1500 
 35 H        4.9820     2.5560    -2.7830 H     1 <1>   0.0800 
 36 H        5.7890     1.1090    -2.2220 H     1 <1>   0.0800 
 37 H        5.7800     2.5400    -1.2270 H     1 <1>   0.0800 
 38 H       -6.3730     0.5220     0.9700 H     1 <1>   0.1500 
 39 H       -8.1880     2.0530    -0.5270 H     1 <1>   0.0800 
 40 H       -6.6000     2.0430    -1.2470 H     1 <1>   0.0800 
 41 H       -7.1820     4.9190     1.7880 H     1 <1>   0.0800 
 42 H       -8.5640     3.9320     1.4240 H     1 <1>   0.0800 
 43 H       -8.3020     3.2910    -2.6130 H     1 <1>   0.0800 
 44 H       -6.9290     4.2790    -2.1680 H     1 <1>   0.0800 
 45 H       -7.2320     5.9030    -0.4600 H     1 <1>   0.0800 
 46 H       -8.8210     6.0480     0.2560 H     1 <1>   0.0800 
@<TRIPOS>BOND
  1   1   2  2   
  2   1   3  2   
  3   1   4  1   
  4   1   5  1   
  5   4   6  ar  
  6   4   7  ar  
  7   5   8  1   
  8   5  26  1   
  9   5  27  1   
 10   6   9  ar  
 11   6  28  1   
 12   7  10  ar  
 13   7  29  1   
 14   8  11  ar  
 15   8  12  ar  
 16   9  13  ar  
 17   9  30  1   
 18  10  13  ar  
 19  10  31  1   
 20  11  14  ar  
 21  11  32  1   
 22  12  15  ar  
 23  12  33  1   
 24  13  16  1   
 25  14  17  1   
 26  14  18  ar  
 27  15  18  ar  
 28  15  34  1   
 29  16  35  1   
 30  16  36  1   
 31  16  37  1   
 32  17  19  2   
 33  17  20  am  
 34  18  38  1   
 35  20  21  1   
 36  20  22  1   
 37  21  23  1   
 38  21  39  1   
 39  21  40  1   
 40  22  24  1   
 41  22  41  1   
 42  22  42  1   
 43  23  25  1   
 44  23  43  1   
 45  23  44  1   
 46  24  25  1   
 47  24  45  1   
 48  24  46  1   
@<TRIPOS>SUBSTRUCTURE
  1 ****   8 GROUP 4 **** **** 0

# MOE 2024.06 (io_trps.svl 2023.06)
