@<TRIPOS>MOLECULE
NONAME
34 35 1 0 0 
SMALL
USER_CHARGES


@<TRIPOS>ATOM
  1 O       -0.8810    -1.1900     1.7910 O.2   1 <1>  -0.5700 
  2 C       -0.3640    -1.9230     0.9880 C.2   1 <1>   0.4950 
  3 C        0.9560    -2.4390     1.1260 C.2   1 <1>  -0.1360 
  4 C       -1.1430    -2.3090    -0.2590 C.3   1 <1>  -0.0990 
  5 C        1.5440    -3.2820     0.2530 C.2   1 <1>  -0.0620 
  6 C       -0.7190    -3.6880    -0.8020 C.3   1 <1>  -0.1600 
  7 O        2.7980    -3.7080     0.4390 O.3   1 <1>  -0.3570 
  8 C        0.8060    -3.8020    -0.9780 C.3   1 <1>  -0.0220 
  9 C        3.7840    -3.7240    -0.5850 C.3   1 <1>   0.2610 
 10 C        5.0270    -4.4810    -0.0830 C.2   1 <1>   0.4230 
 11 C        4.0620    -2.2700    -1.0090 C.3   1 <1>  -0.2400 
 12 O        6.0550    -3.8630     0.0670 O.2   1 <1>  -0.5700 
 13 C        4.9540    -5.9130     0.1540 C.ar  1 <1>   0.0860 
 14 C        6.1240    -6.6350     0.4100 C.ar  1 <1>  -0.1500 
 15 C        3.7620    -6.6480     0.1370 C.ar  1 <1>  -0.1500 
 16 C        6.1130    -8.0000     0.6280 C.ar  1 <1>  -0.1500 
 17 C        3.7420    -8.0140     0.3530 C.ar  1 <1>  -0.1500 
 18 C        4.9190    -8.6950     0.5990 C.ar  1 <1>  -0.1500 
 19 H        1.4840    -2.0990     1.9980 H     1 <1>   0.1500 
 20 H       -0.9750    -1.5540    -1.0060 H     1 <1>   0.0800 
 21 H       -2.1920    -2.3190    -0.0260 H     1 <1>   0.0800 
 22 H       -1.2130    -3.8820    -1.7380 H     1 <1>   0.0800 
 23 H       -1.0390    -4.4400    -0.1000 H     1 <1>   0.0800 
 24 H        1.0520    -4.8360    -1.1440 H     1 <1>   0.0800 
 25 H        1.1140    -3.2380    -1.8410 H     1 <1>   0.0800 
 26 H        3.3870    -4.2640    -1.4240 H     1 <1>   0.0800 
 27 H        4.4140    -1.7030    -0.1650 H     1 <1>   0.0800 
 28 H        3.1790    -1.8080    -1.4090 H     1 <1>   0.0800 
 29 H        4.8250    -2.2540    -1.7660 H     1 <1>   0.0800 
 30 H        7.0660    -6.1120     0.4400 H     1 <1>   0.1500 
 31 H        2.8220    -6.1600    -0.0380 H     1 <1>   0.1500 
 32 H        7.0350    -8.5220     0.8220 H     1 <1>   0.1500 
 33 H        2.8090    -8.5510     0.3350 H     1 <1>   0.1500 
 34 H        4.9070    -9.7580     0.7680 H     1 <1>   0.1500 
@<TRIPOS>BOND
  1   1   2  2   
  2   2   3  1   
  3   2   4  1   
  4   3   5  2   
  5   3  19  1   
  6   4   6  1   
  7   4  20  1   
  8   4  21  1   
  9   5   7  1   
 10   5   8  1   
 11   6   8  1   
 12   6  22  1   
 13   6  23  1   
 14   7   9  1   
 15   8  24  1   
 16   8  25  1   
 17   9  10  1   
 18   9  11  1   
 19   9  26  1   
 20  10  12  2   
 21  10  13  1   
 22  11  27  1   
 23  11  28  1   
 24  11  29  1   
 25  13  14  ar  
 26  13  15  ar  
 27  14  16  ar  
 28  14  30  1   
 29  15  17  ar  
 30  15  31  1   
 31  16  18  ar  
 32  16  32  1   
 33  17  18  ar  
 34  17  33  1   
 35  18  34  1   
@<TRIPOS>SUBSTRUCTURE
  1 ****   7 GROUP 4 **** **** 0

# MOE 2024.06 (io_trps.svl 2023.06)
