@<TRIPOS>MOLECULE
NONAME
45 47 1 0 0 
SMALL
USER_CHARGES


@<TRIPOS>ATOM
  1 S        0.0610    -0.0830    -0.4770 S.o2  1 <1>   1.4470 
  2 O        0.3050     0.1970    -1.8760 O.2   1 <1>  -0.6500 
  3 O       -0.0680     1.0180     0.4530 O.2   1 <1>  -0.6500 
  4 N        1.3590    -1.0270     0.0640 N.am  1 <1>  -0.8490 
  5 C       -1.3590    -1.1970    -0.2950 C.ar  1 <1>  -0.0090 
  6 C        2.5610    -0.2010     0.2900 C.3   1 <1>   0.1960 
  7 C        1.6840    -2.1250    -0.8710 C.3   1 <1>   0.1960 
  8 C       -1.6540    -1.7820     0.9300 C.ar  1 <1>  -0.1500 
  9 C       -2.1830    -1.5010    -1.3730 C.ar  1 <1>  -0.1500 
 10 C        3.7500    -1.0290     0.8170 C.3   1 <1>   0.2090 
 11 C        2.8450    -2.9990    -0.3590 C.3   1 <1>   0.2090 
 12 C       -2.7280    -2.6420     1.0760 C.ar  1 <1>  -0.1500 
 13 C       -3.2580    -2.3610    -1.2340 C.ar  1 <1>  -0.1500 
 14 N        4.0610    -2.1730    -0.0950 N.pl3 1 <1>  -0.8380 
 15 C       -3.5380    -2.9380    -0.0070 C.ar  1 <1>  -0.1430 
 16 C        5.2370    -2.8810     0.1850 C.ar  1 <1>   0.1000 
 17 C       -4.7190    -3.8830     0.1490 C.3   1 <1>  -0.0170 
 18 C        5.4530    -3.6650     1.3250 C.ar  1 <1>   0.1900 
 19 C        6.2780    -2.8080    -0.7310 C.ar  1 <1>  -0.1500 
 20 C       -4.2880    -5.3270    -0.1150 C.3   1 <1>  -0.2400 
 21 F        4.5080    -3.7750     2.2300 F     1 <1>  -0.1900 
 22 C        6.6340    -4.3450     1.5530 C.ar  1 <1>  -0.1500 
 23 C        7.4710    -3.4830    -0.5210 C.ar  1 <1>  -0.1500 
 24 C        7.6520    -4.2520     0.6190 C.ar  1 <1>  -0.1500 
 25 H        2.3390     0.5670     1.0110 H     1 <1>   0.0800 
 26 H        2.8520     0.2800    -0.6280 H     1 <1>   0.0800 
 27 H        1.9600    -1.7230    -1.8320 H     1 <1>   0.0800 
 28 H        0.8190    -2.7510    -1.0070 H     1 <1>   0.0800 
 29 H       -1.0310    -1.5590     1.7800 H     1 <1>   0.1500 
 30 H       -1.9810    -1.0600    -2.3350 H     1 <1>   0.1500 
 31 H        3.5120    -1.4010     1.7980 H     1 <1>   0.0800 
 32 H        4.6170    -0.3970     0.8990 H     1 <1>   0.0800 
 33 H        3.0810    -3.7490    -1.0940 H     1 <1>   0.0800 
 34 H        2.5400    -3.4980     0.5440 H     1 <1>   0.0800 
 35 H       -2.9310    -3.0820     2.0380 H     1 <1>   0.1500 
 36 H       -3.8780    -2.5800    -2.0870 H     1 <1>   0.1500 
 37 H       -5.4990    -3.6070    -0.5380 H     1 <1>   0.0800 
 38 H       -5.1200    -3.8020     1.1450 H     1 <1>   0.0800 
 39 H        6.1420    -2.2130    -1.6160 H     1 <1>   0.1500 
 40 H       -3.9020    -5.4220    -1.1140 H     1 <1>   0.0800 
 41 H       -5.1280    -5.9900    -0.0030 H     1 <1>   0.0800 
 42 H       -3.5220    -5.6190     0.5810 H     1 <1>   0.0800 
 43 H        6.7530    -4.9360     2.4440 H     1 <1>   0.1500 
 44 H        8.2610    -3.4090    -1.2480 H     1 <1>   0.1500 
 45 H        8.5800    -4.7730     0.7770 H     1 <1>   0.1500 
@<TRIPOS>BOND
  1   1   2  2   
  2   1   3  2   
  3   1   4  am  
  4   1   5  1   
  5   4   6  1   
  6   4   7  1   
  7   5   8  ar  
  8   5   9  ar  
  9   6  10  1   
 10   6  25  1   
 11   6  26  1   
 12   7  11  1   
 13   7  27  1   
 14   7  28  1   
 15   8  12  ar  
 16   8  29  1   
 17   9  13  ar  
 18   9  30  1   
 19  10  14  1   
 20  10  31  1   
 21  10  32  1   
 22  11  14  1   
 23  11  33  1   
 24  11  34  1   
 25  12  15  ar  
 26  12  35  1   
 27  13  15  ar  
 28  13  36  1   
 29  14  16  1   
 30  15  17  1   
 31  16  18  ar  
 32  16  19  ar  
 33  17  20  1   
 34  17  37  1   
 35  17  38  1   
 36  18  21  1   
 37  18  22  ar  
 38  19  23  ar  
 39  19  39  1   
 40  20  40  1   
 41  20  41  1   
 42  20  42  1   
 43  22  24  ar  
 44  22  43  1   
 45  23  24  ar  
 46  23  44  1   
 47  24  45  1   
@<TRIPOS>SUBSTRUCTURE
  1 ****   7 GROUP 4 **** **** 0

# MOE 2024.06 (io_trps.svl 2023.06)
