@<TRIPOS>MOLECULE
NONAME
36 38 1 0 0 
SMALL
USER_CHARGES


@<TRIPOS>ATOM
  1 S       -0.2430    -0.8870     0.7880 S.o2  1 <1>   1.4470 
  2 O       -0.3700    -1.1060     2.2090 O.2   1 <1>  -0.6500 
  3 O       -0.0530    -2.0080    -0.1040 O.2   1 <1>  -0.6500 
  4 N        1.1050     0.1010     0.6720 N.am  1 <1>  -0.9140 
  5 C       -1.5840     0.1710     0.1810 C.ar  1 <1>  -0.0090 
  6 C        2.3500    -0.6370     0.6100 C.3   1 <1>   0.2760 
  7 C       -2.7620     0.3250     0.9060 C.ar  1 <1>  -0.1500 
  8 C       -1.4690     0.8440    -1.0330 C.ar  1 <1>  -0.1500 
  9 C        3.4560     0.2260     1.2080 C.3   1 <1>  -0.1600 
 10 C        2.7870    -0.7840    -0.8450 C.3   1 <1>  -0.1600 
 11 C       -3.7880     1.1250     0.4380 C.ar  1 <1>   0.0830 
 12 C       -2.4880     1.6530    -1.5100 C.ar  1 <1>  -0.1500 
 13 C        3.8740     1.2000     0.1010 C.3   1 <1>  -0.1600 
 14 C        3.4640     0.5390    -1.2200 C.3   1 <1>  -0.1600 
 15 O       -4.9240     1.2310     1.1730 O.3   1 <1>  -0.3630 
 16 C       -3.6480     1.8020    -0.7740 C.ar  1 <1>   0.0830 
 17 C       -6.0580     1.7780     0.5250 C.3   1 <1>   0.1200 
 18 O       -4.6300     2.6110    -1.2450 O.3   1 <1>  -0.3620 
 19 C       -5.6510     2.9810    -0.3370 C.3   1 <1>   0.1200 
 20 H        1.1080     0.5760     1.5690 H     1 <1>   0.4200 
 21 H        2.2730    -1.5860     1.1200 H     1 <1>   0.0800 
 22 H       -2.8870    -0.1840     1.8460 H     1 <1>   0.1500 
 23 H       -0.5670     0.7310    -1.6110 H     1 <1>   0.1500 
 24 H        4.2920    -0.4110     1.4380 H     1 <1>   0.0800 
 25 H        3.1540     0.7280     2.1100 H     1 <1>   0.0800 
 26 H        1.9690    -1.0270    -1.5000 H     1 <1>   0.0800 
 27 H        3.5130    -1.5760    -0.9020 H     1 <1>   0.0800 
 28 H       -2.3870     2.1700    -2.4480 H     1 <1>   0.1500 
 29 H        4.9320     1.3970     0.1350 H     1 <1>   0.0800 
 30 H        3.3420     2.1290     0.2150 H     1 <1>   0.0800 
 31 H        2.7600     1.1720    -1.7340 H     1 <1>   0.0800 
 32 H        4.3130     0.3690    -1.8600 H     1 <1>   0.0800 
 33 H       -6.7620     2.0700     1.2830 H     1 <1>   0.0800 
 34 H       -6.4960     1.0100    -0.0870 H     1 <1>   0.0800 
 35 H       -5.2750     3.7750     0.2830 H     1 <1>   0.0800 
 36 H       -6.4860     3.3430    -0.9080 H     1 <1>   0.0800 
@<TRIPOS>BOND
  1   1   2  2   
  2   1   3  2   
  3   1   4  am  
  4   1   5  1   
  5   4   6  1   
  6   4  20  1   
  7   5   7  ar  
  8   5   8  ar  
  9   6   9  1   
 10   6  10  1   
 11   6  21  1   
 12   7  11  ar  
 13   7  22  1   
 14   8  12  ar  
 15   8  23  1   
 16   9  13  1   
 17   9  24  1   
 18   9  25  1   
 19  10  14  1   
 20  10  26  1   
 21  10  27  1   
 22  11  15  1   
 23  11  16  ar  
 24  12  16  ar  
 25  12  28  1   
 26  13  14  1   
 27  13  29  1   
 28  13  30  1   
 29  14  31  1   
 30  14  32  1   
 31  15  17  1   
 32  16  18  1   
 33  17  19  1   
 34  17  33  1   
 35  17  34  1   
 36  18  19  1   
 37  19  35  1   
 38  19  36  1   
@<TRIPOS>SUBSTRUCTURE
  1 ****   5 GROUP 4 **** **** 0

# MOE 2024.06 (io_trps.svl 2023.06)
