@<TRIPOS>MOLECULE
NONAME
53 55 1 0 0 
SMALL
USER_CHARGES


@<TRIPOS>ATOM
  1 O        1.1410     0.8660     0.9810 O.2   1 <1>  -0.5700 
  2 C        1.2970    -0.3130     0.7650 C.2   1 <1>   0.5690 
  3 N        2.2250    -0.7780    -0.1440 N.am  1 <1>  -0.6600 
  4 C        0.4140    -1.2590     1.5760 C.3   1 <1>   0.0440 
  5 C        3.2300     0.0920    -0.8220 C.3   1 <1>   0.2200 
  6 C        2.3660    -2.2240    -0.5130 C.3   1 <1>   0.3200 
  7 C       -0.6450    -1.9850     0.7480 C.ar  1 <1>  -0.1440 
  8 C        4.1390     0.7740     0.2020 C.3   1 <1>  -0.2400 
  9 C        2.5460     1.0910    -1.7550 C.3   1 <1>  -0.2400 
 10 C        3.5610    -2.8620     0.1790 C.2   1 <1>   0.2980 
 11 C       -0.9090    -3.3270     0.9780 C.ar  1 <1>  -0.1500 
 12 C       -1.3500    -1.3140    -0.2400 C.ar  1 <1>  -0.1500 
 13 O        3.5070    -3.0360     1.4730 O.3   1 <1>  -0.0190 
 14 N        4.6320    -3.2520    -0.3800 N.2   1 <1>  -0.5650 
 15 C       -1.8560    -3.9970     0.2220 C.ar  1 <1>  -0.1500 
 16 C       -2.2960    -1.9820    -0.9960 C.ar  1 <1>  -0.1500 
 17 N        4.6440    -3.5820     1.7650 N.2   1 <1>  -0.4100 
 18 C        5.3160    -3.7090     0.6750 C.2   1 <1>   0.4620 
 19 C       -2.5560    -3.3240    -0.7750 C.ar  1 <1>   0.0820 
 20 C        6.6520    -4.2730     0.5640 C.ar  1 <1>   0.0540 
 21 O       -3.4970    -3.9030    -1.5610 O.3   1 <1>  -0.3630 
 22 C        7.2960    -4.4030    -0.6690 C.ar  1 <1>  -0.1500 
 23 C        7.3490    -4.7070     1.6930 C.ar  1 <1>  -0.1500 
 24 C       -3.8780    -5.2490    -1.3800 C.3   1 <1>   0.0400 
 25 C        8.5680    -4.9390    -0.7790 C.ar  1 <1>  -0.1440 
 26 C        8.6200    -5.2420     1.5960 C.ar  1 <1>  -0.1500 
 27 C        9.2300    -5.3580     0.3610 C.ar  1 <1>  -0.1500 
 28 C        9.2380    -5.0650    -2.1360 C.3   1 <1>  -0.0970 
 29 H       -0.0900    -0.6860     2.3330 H     1 <1>   0.0800 
 30 H        1.0450    -1.9630     2.0830 H     1 <1>   0.0800 
 31 H        3.8660    -0.5260    -1.4350 H     1 <1>   0.0800 
 32 H        2.4970    -2.3020    -1.5780 H     1 <1>   0.0800 
 33 H        1.4870    -2.7840    -0.2680 H     1 <1>   0.0800 
 34 H        3.5920     1.4840     0.7950 H     1 <1>   0.0800 
 35 H        4.9250     1.3010    -0.3060 H     1 <1>   0.0800 
 36 H        4.5850     0.0400     0.8480 H     1 <1>   0.0800 
 37 H        1.9740     1.8120    -1.1990 H     1 <1>   0.0800 
 38 H        1.8970     0.5750    -2.4390 H     1 <1>   0.0800 
 39 H        3.2870     1.6220    -2.3240 H     1 <1>   0.0800 
 40 H       -0.3800    -3.8620     1.7480 H     1 <1>   0.1500 
 41 H       -1.1690    -0.2680    -0.4270 H     1 <1>   0.1500 
 42 H       -2.0370    -5.0350     0.4240 H     1 <1>   0.1500 
 43 H       -2.8420    -1.4640    -1.7640 H     1 <1>   0.1500 
 44 H        6.7870    -4.0760    -1.5590 H     1 <1>   0.1500 
 45 H        6.8890    -4.6240     2.6620 H     1 <1>   0.1500 
 46 H       -4.6460    -5.4770    -2.0960 H     1 <1>   0.0800 
 47 H       -4.2620    -5.3710    -0.3820 H     1 <1>   0.0800 
 48 H       -3.0230    -5.8790    -1.5460 H     1 <1>   0.0800 
 49 H        9.1350    -5.5690     2.4830 H     1 <1>   0.1500 
 50 H       10.2200    -5.7750     0.2920 H     1 <1>   0.1500 
 51 H        8.5030    -5.0890    -2.9210 H     1 <1>   0.0800 
 52 H        9.8150    -5.9700    -2.1840 H     1 <1>   0.0800 
 53 H        9.8910    -4.2260    -2.2970 H     1 <1>   0.0800 
@<TRIPOS>BOND
  1   1   2  2   
  2   2   3  am  
  3   2   4  1   
  4   3   5  1   
  5   3   6  1   
  6   4   7  1   
  7   4  29  1   
  8   4  30  1   
  9   5   8  1   
 10   5   9  1   
 11   5  31  1   
 12   6  10  1   
 13   6  32  1   
 14   6  33  1   
 15   7  11  ar  
 16   7  12  ar  
 17   8  34  1   
 18   8  35  1   
 19   8  36  1   
 20   9  37  1   
 21   9  38  1   
 22   9  39  1   
 23  10  13  1   
 24  10  14  2   
 25  11  15  ar  
 26  11  40  1   
 27  12  16  ar  
 28  12  41  1   
 29  13  17  1   
 30  14  18  1   
 31  15  19  ar  
 32  15  42  1   
 33  16  19  ar  
 34  16  43  1   
 35  17  18  2   
 36  18  20  1   
 37  19  21  1   
 38  20  22  ar  
 39  20  23  ar  
 40  21  24  1   
 41  22  25  ar  
 42  22  44  1   
 43  23  26  ar  
 44  23  45  1   
 45  24  46  1   
 46  24  47  1   
 47  24  48  1   
 48  25  27  ar  
 49  25  28  1   
 50  26  27  ar  
 51  26  49  1   
 52  27  50  1   
 53  28  51  1   
 54  28  52  1   
 55  28  53  1   
@<TRIPOS>SUBSTRUCTURE
  1 ****  10 GROUP 4 **** **** 0

# MOE 2024.06 (io_trps.svl 2023.06)
