@<TRIPOS>MOLECULE
NONAME
33 35 1 0 0 
SMALL
USER_CHARGES


@<TRIPOS>ATOM
  1 CL      -0.4080    -0.3340     0.5590 Cl    1 <1>  -0.1770 
  2 C       -0.4660    -2.0670     0.3500 C.ar  1 <1>   0.1770 
  3 C        0.6120    -2.8330     0.7500 C.ar  1 <1>  -0.1500 
  4 C       -1.5940    -2.6450    -0.2080 C.ar  1 <1>  -0.1500 
  5 C        0.5360    -4.2000     0.5740 C.ar  1 <1>   0.1900 
  6 C       -1.6440    -4.0200    -0.3780 C.ar  1 <1>  -0.1500 
  7 F        1.5510    -4.9140     0.9960 F     1 <1>  -0.1900 
  8 C       -0.5750    -4.8260    -0.0020 C.ar  1 <1>   0.1170 
  9 N       -0.6960    -6.2060    -0.2130 N.am  1 <1>  -0.5470 
 10 C        0.1550    -7.0610    -0.8440 C.2   1 <1>   0.5690 
 11 O        1.1860    -6.6690    -1.3420 O.2   1 <1>  -0.5700 
 12 C       -0.1400    -8.5590    -0.9840 C.3   1 <1>  -0.0190 
 13 C       -1.4850    -9.2380    -0.5790 C.3   1 <1>  -0.1860 
 14 C        0.8240    -9.2900    -0.0420 C.3   1 <1>   0.2000 
 15 C       -2.7080    -8.4070    -0.2560 C.2   1 <1>   0.9060 
 16 C       -1.0310   -10.1080     0.6030 C.3   1 <1>   0.2000 
 17 O        0.0520    -9.4030     1.0910 O.3   1 <1>  -0.5600 
 18 C        0.9940   -10.7660    -0.4260 C.3   1 <1>  -0.1600 
 19 O       -2.9540    -7.4220    -0.9610 O.co2 1 <1>  -0.9000 
 20 O       -3.4600    -8.7360     0.6610 O.co2 1 <1>  -0.9000 
 21 C       -0.3210   -11.3620     0.0840 C.3   1 <1>  -0.1600 
 22 H        1.4810    -2.3820     1.1890 H     1 <1>   0.1500 
 23 H       -2.4220    -2.0280    -0.5050 H     1 <1>   0.1500 
 24 H       -2.5160    -4.4860    -0.8100 H     1 <1>   0.1500 
 25 H       -1.6720    -6.5530    -0.2140 H     1 <1>   0.3700 
 26 H        0.0910    -8.8140    -2.0020 H     1 <1>   0.0800 
 27 H       -1.8090    -9.8770    -1.3770 H     1 <1>   0.0800 
 28 H        1.7450    -8.7700     0.1640 H     1 <1>   0.0800 
 29 H       -1.7630   -10.2880     1.3720 H     1 <1>   0.0800 
 30 H        1.8360   -11.1850     0.0960 H     1 <1>   0.0800 
 31 H        1.1270   -10.8900    -1.4860 H     1 <1>   0.0800 
 32 H       -0.8860   -11.8620    -0.6820 H     1 <1>   0.0800 
 33 H       -0.1470   -12.0390     0.9020 H     1 <1>   0.0800 
@<TRIPOS>BOND
  1   1   2  1   
  2   2   3  ar  
  3   2   4  ar  
  4   3   5  ar  
  5   3  22  1   
  6   4   6  ar  
  7   4  23  1   
  8   5   7  1   
  9   5   8  ar  
 10   6   8  ar  
 11   6  24  1   
 12   8   9  1   
 13   9  10  am  
 14   9  25  1   
 15  10  11  2   
 16  10  12  1   
 17  12  13  1   
 18  12  14  1   
 19  12  26  1   
 20  13  15  1   
 21  13  16  1   
 22  13  27  1   
 23  14  17  1   
 24  14  18  1   
 25  14  28  1   
 26  15  19  ar  
 27  15  20  ar  
 28  16  17  1   
 29  16  21  1   
 30  16  29  1   
 31  18  21  1   
 32  18  30  1   
 33  18  31  1   
 34  21  32  1   
 35  21  33  1   
@<TRIPOS>SUBSTRUCTURE
  1 ****   9 GROUP 4 **** **** 0

# MOE 2024.06 (io_trps.svl 2023.06)
