@<TRIPOS>MOLECULE
NONAME
37 38 1 0 0 
SMALL
USER_CHARGES


@<TRIPOS>ATOM
  1 F       -0.3860     1.9590    -2.3370 F     1 <1>  -0.1900 
  2 C        0.3890     2.3030    -1.3360 C.ar  1 <1>   0.1900 
  3 C       -0.1850     2.9180    -0.2190 C.ar  1 <1>   0.1170 
  4 C        1.7380     2.0330    -1.4480 C.ar  1 <1>  -0.1500 
  5 N       -1.5730     3.1550    -0.1920 N.am  1 <1>  -0.5470 
  6 C        0.6720     3.2600     0.8290 C.ar  1 <1>  -0.1500 
  7 C        2.5390     2.3970    -0.3850 C.ar  1 <1>   0.1900 
  8 C       -2.3760     3.9020     0.6130 C.2   1 <1>   0.6900 
  9 C        2.0320     3.0040     0.7500 C.ar  1 <1>  -0.1500 
 10 F        3.8230     2.1570    -0.4530 F     1 <1>  -0.1900 
 11 O       -1.9530     4.5450     1.5530 O.2   1 <1>  -0.5700 
 12 N       -3.7060     3.8850     0.3280 N.am  1 <1>  -0.6600 
 13 C       -4.4670     5.1600     0.1390 C.3   1 <1>   0.2200 
 14 C       -4.4810     2.7870     0.9590 C.3   1 <1>   0.1400 
 15 C       -5.7670     4.8660    -0.6380 C.3   1 <1>  -0.1600 
 16 C       -3.6110     6.2160    -0.5990 C.3   1 <1>  -0.1600 
 17 C       -5.7340     2.4780     0.1410 C.3   1 <1>  -0.1600 
 18 C       -6.5950     3.7330    -0.0180 C.3   1 <1>  -0.1600 
 19 C       -4.3250     7.5560    -0.8400 C.3   1 <1>  -0.2400 
 20 H        2.1480     1.5610    -2.3210 H     1 <1>   0.1500 
 21 H       -2.0900     2.7770    -0.9840 H     1 <1>   0.3700 
 22 H        0.2830     3.7280     1.7150 H     1 <1>   0.1500 
 23 H        2.6910     3.2700     1.5570 H     1 <1>   0.1500 
 24 H       -4.7210     5.5430     1.1140 H     1 <1>   0.0800 
 25 H       -4.7590     3.0860     1.9560 H     1 <1>   0.0800 
 26 H       -3.8690     1.9030     1.0340 H     1 <1>   0.0800 
 27 H       -5.5160     4.6090    -1.6520 H     1 <1>   0.0800 
 28 H       -6.3790     5.7480    -0.6660 H     1 <1>   0.0800 
 29 H       -3.2870     5.8170    -1.5440 H     1 <1>   0.0800 
 30 H       -2.7370     6.4330    -0.0120 H     1 <1>   0.0800 
 31 H       -6.3020     1.7100     0.6350 H     1 <1>   0.0800 
 32 H       -5.4430     2.1040    -0.8250 H     1 <1>   0.0800 
 33 H       -7.4440     3.5170    -0.6440 H     1 <1>   0.0800 
 34 H       -6.9600     4.0430     0.9460 H     1 <1>   0.0800 
 35 H       -5.1230     7.4500    -1.5530 H     1 <1>   0.0800 
 36 H       -3.6250     8.2730    -1.2300 H     1 <1>   0.0800 
 37 H       -4.7240     7.9400     0.0830 H     1 <1>   0.0800 
@<TRIPOS>BOND
  1   1   2  1   
  2   2   3  ar  
  3   2   4  ar  
  4   3   5  1   
  5   3   6  ar  
  6   4   7  ar  
  7   4  20  1   
  8   5   8  am  
  9   5  21  1   
 10   6   9  ar  
 11   6  22  1   
 12   7   9  ar  
 13   7  10  1   
 14   8  11  2   
 15   8  12  am  
 16   9  23  1   
 17  12  13  1   
 18  12  14  1   
 19  13  15  1   
 20  13  16  1   
 21  13  24  1   
 22  14  17  1   
 23  14  25  1   
 24  14  26  1   
 25  15  18  1   
 26  15  27  1   
 27  15  28  1   
 28  16  19  1   
 29  16  29  1   
 30  16  30  1   
 31  17  18  1   
 32  17  31  1   
 33  17  32  1   
 34  18  33  1   
 35  18  34  1   
 36  19  35  1   
 37  19  36  1   
 38  19  37  1   
@<TRIPOS>SUBSTRUCTURE
  1 ****   5 GROUP 4 **** **** 0

# MOE 2024.06 (io_trps.svl 2023.06)
