@<TRIPOS>MOLECULE
NONAME
48 50 1 0 0 
SMALL
USER_CHARGES


@<TRIPOS>ATOM
  1 F        0.2700     0.7840     0.0240 F     1 <1>  -0.3400 
  2 C       -1.0520     0.9220    -0.0700 C.3   1 <1>   1.0200 
  3 F       -1.3760     1.8690     0.8080 F     1 <1>  -0.3400 
  4 F       -1.2830     1.4560    -1.2670 F     1 <1>  -0.3400 
  5 C       -1.8480    -0.4230     0.1640 C.3   1 <1>   0.6310 
  6 N       -1.6940    -1.0010     1.5110 N.am  1 <1>  -0.7300 
  7 N       -3.3410    -0.3530    -0.0050 N.3   1 <1>  -0.9000 
  8 C       -1.1320    -1.4900    -0.6790 C.2   1 <1>   0.5690 
  9 C       -1.0880    -2.1980     1.4280 C.2   1 <1>   0.6900 
 10 C       -4.0210    -1.6500    -0.1600 C.3   1 <1>   0.1100 
 11 O       -1.0330    -1.4790    -1.8850 O.2   1 <1>  -0.5700 
 12 N       -0.6880    -2.4790     0.1480 N.am  1 <1>  -0.4200 
 13 O       -0.9980    -2.9410     2.3770 O.2   1 <1>  -0.5700 
 14 C       -5.5300    -1.4340    -0.2560 C.3   1 <1>  -0.0170 
 15 C       -0.0410    -3.7230    -0.3330 C.3   1 <1>   0.2200 
 16 C       -6.2220    -2.7750    -0.4300 C.ar  1 <1>  -0.1430 
 17 C       -0.9880    -4.9230    -0.1830 C.3   1 <1>  -0.1600 
 18 C        1.2970    -3.9660     0.3810 C.3   1 <1>  -0.1600 
 19 C       -6.4780    -3.2720    -1.6990 C.ar  1 <1>  -0.1500 
 20 C       -6.5910    -3.5200     0.6790 C.ar  1 <1>  -0.1500 
 21 C       -0.3220    -6.2120    -0.6860 C.3   1 <1>  -0.1600 
 22 C        1.9610    -5.2550    -0.1250 C.3   1 <1>  -0.1600 
 23 C       -7.0970    -4.4990    -1.8580 C.ar  1 <1>  -0.1500 
 24 C       -7.2100    -4.7480     0.5220 C.ar  1 <1>  -0.1500 
 25 C        1.0170    -6.4570     0.0230 C.3   1 <1>  -0.1600 
 26 C       -7.4630    -5.2390    -0.7470 C.ar  1 <1>  -0.1500 
 27 H       -2.4470    -0.8450     2.1780 H     1 <1>   0.3700 
 28 H       -3.5120     0.1830    -0.8680 H     1 <1>   0.3600 
 29 H       -3.8200    -2.2880     0.6850 H     1 <1>   0.0800 
 30 H       -3.6830    -2.1490    -1.0540 H     1 <1>   0.0800 
 31 H       -5.7580    -0.7990    -1.0920 H     1 <1>   0.0800 
 32 H       -5.8850    -0.9580     0.6410 H     1 <1>   0.0800 
 33 H        0.1710    -3.6060    -1.3830 H     1 <1>   0.0800 
 34 H       -1.8880    -4.7470    -0.7450 H     1 <1>   0.0800 
 35 H       -1.2510    -5.0550     0.8520 H     1 <1>   0.0800 
 36 H        1.1370    -4.0570     1.4410 H     1 <1>   0.0800 
 37 H        1.9570    -3.1340     0.2050 H     1 <1>   0.0800 
 38 H       -6.1980    -2.7070    -2.5710 H     1 <1>   0.1500 
 39 H       -6.3990    -3.1490     1.6710 H     1 <1>   0.1500 
 40 H       -0.1560    -6.1400    -1.7480 H     1 <1>   0.0800 
 41 H       -0.9790    -7.0480    -0.5130 H     1 <1>   0.0800 
 42 H        2.8640    -5.4370     0.4320 H     1 <1>   0.0800 
 43 H        2.2310    -5.1380    -1.1610 H     1 <1>   0.0800 
 44 H       -7.2940    -4.8800    -2.8450 H     1 <1>   0.1500 
 45 H       -7.4950    -5.3220     1.3870 H     1 <1>   0.1500 
 46 H        1.4860    -7.3360    -0.3860 H     1 <1>   0.0800 
 47 H        0.8360    -6.6390     1.0690 H     1 <1>   0.0800 
 48 H       -7.9450    -6.1930    -0.8690 H     1 <1>   0.1500 
@<TRIPOS>BOND
  1   1   2  1   
  2   2   3  1   
  3   2   4  1   
  4   2   5  1   
  5   5   6  1   
  6   5   7  1   
  7   5   8  1   
  8   6   9  am  
  9   6  27  1   
 10   7  10  1   
 11   7  28  1   
 12   8  11  2   
 13   8  12  am  
 14   9  12  am  
 15   9  13  2   
 16  10  14  1   
 17  10  29  1   
 18  10  30  1   
 19  12  15  1   
 20  14  16  1   
 21  14  31  1   
 22  14  32  1   
 23  15  17  1   
 24  15  18  1   
 25  15  33  1   
 26  16  19  ar  
 27  16  20  ar  
 28  17  21  1   
 29  17  34  1   
 30  17  35  1   
 31  18  22  1   
 32  18  36  1   
 33  18  37  1   
 34  19  23  ar  
 35  19  38  1   
 36  20  24  ar  
 37  20  39  1   
 38  21  25  1   
 39  21  40  1   
 40  21  41  1   
 41  22  25  1   
 42  22  42  1   
 43  22  43  1   
 44  23  26  ar  
 45  23  44  1   
 46  24  26  ar  
 47  24  45  1   
 48  25  46  1   
 49  25  47  1   
 50  26  48  1   
@<TRIPOS>SUBSTRUCTURE
  1 ****   8 GROUP 4 **** **** 0

# MOE 2024.06 (io_trps.svl 2023.06)
