@<TRIPOS>MOLECULE
NONAME
42 44 1 0 0 
SMALL
USER_CHARGES


@<TRIPOS>ATOM
  1 CL       1.4340    -1.0850     3.0270 Cl    1 <1>  -0.1770 
  2 C        2.9250    -0.8000     2.1690 C.ar  1 <1>   0.1770 
  3 C        3.6600     0.3380     2.4410 C.ar  1 <1>  -0.1500 
  4 C        3.3570    -1.7150     1.2280 C.ar  1 <1>  -0.1500 
  5 C        4.8420     0.5630     1.7570 C.ar  1 <1>  -0.1500 
  6 C        4.5390    -1.4800     0.5500 C.ar  1 <1>  -0.1500 
  7 C        5.3060    -0.3380     0.7940 C.ar  1 <1>   0.0530 
  8 C        6.5340    -0.1140     0.0650 C.2   1 <1>   0.1340 
  9 N        7.2910    -1.0360    -0.4710 N.2   1 <1>  -0.3380 
 10 N        7.0620     1.0990    -0.1670 N.pl3 1 <1>   0.0330 
 11 N        8.3190    -0.4320    -1.0650 N.2   1 <1>  -0.3380 
 12 C        8.1560     0.8240    -0.8550 C.2   1 <1>   0.2430 
 13 S        9.2720     2.1150    -1.4010 S.3   1 <1>  -0.2860 
 14 C       10.6590     1.2250    -2.2640 C.3   1 <1>   0.1310 
 15 C       11.8640     1.0940    -1.3350 C.2   1 <1>   0.5690 
 16 O       12.7020     1.9600    -1.4110 O.2   1 <1>  -0.5700 
 17 N       12.0250     0.0530    -0.4440 N.am  1 <1>  -0.6600 
 18 C       11.1870    -1.1880    -0.4110 C.3   1 <1>   0.1400 
 19 C       13.0340     0.1640     0.6600 C.3   1 <1>   0.1400 
 20 C       12.0270    -2.4600    -0.1860 C.3   1 <1>   0.3430 
 21 C       13.8500    -1.1300     0.8230 C.3   1 <1>   0.3430 
 22 N       12.9620    -2.3330     0.9850 N.4   1 <1>  -0.9590 
 23 C       13.7650    -3.5790     1.1710 C.3   1 <1>   0.2630 
 24 H        3.3050     1.0330     3.1810 H     1 <1>   0.1500 
 25 H        2.7720    -2.5960     1.0330 H     1 <1>   0.1500 
 26 H        5.4080     1.4470     1.9890 H     1 <1>   0.1500 
 27 H        4.8780    -2.1920    -0.1830 H     1 <1>   0.1500 
 28 H        6.7120     2.0170     0.1010 H     1 <1>   0.2700 
 29 H       10.9250     1.8350    -3.1080 H     1 <1>   0.0800 
 30 H       10.2930     0.2830    -2.6190 H     1 <1>   0.0800 
 31 H       10.6670    -1.3140    -1.3420 H     1 <1>   0.0800 
 32 H       10.4540    -1.1000     0.3720 H     1 <1>   0.0800 
 33 H       12.5220     0.3860     1.5800 H     1 <1>   0.0800 
 34 H       13.7170     0.9750     0.4730 H     1 <1>   0.0800 
 35 H       12.5970    -2.6520    -1.0810 H     1 <1>   0.0800 
 36 H       11.3610    -3.2940    -0.0370 H     1 <1>   0.0800 
 37 H       14.4950    -1.0300     1.6810 H     1 <1>   0.0800 
 38 H       14.4740    -1.2510    -0.0480 H     1 <1>   0.0800 
 39 H       12.3820    -2.1820     1.8240 H     1 <1>   0.4500 
 40 H       14.3800    -3.7620     0.3050 H     1 <1>   0.0800 
 41 H       13.1150    -4.4270     1.3170 H     1 <1>   0.0800 
 42 H       14.4050    -3.4870     2.0350 H     1 <1>   0.0800 
@<TRIPOS>BOND
  1   1   2  1   
  2   2   3  ar  
  3   2   4  ar  
  4   3   5  ar  
  5   3  24  1   
  6   4   6  ar  
  7   4  25  1   
  8   5   7  ar  
  9   5  26  1   
 10   6   7  ar  
 11   6  27  1   
 12   7   8  1   
 13   8   9  2   
 14   8  10  1   
 15   9  11  1   
 16  10  12  1   
 17  10  28  1   
 18  11  12  2   
 19  12  13  1   
 20  13  14  1   
 21  14  15  1   
 22  14  29  1   
 23  14  30  1   
 24  15  16  2   
 25  15  17  am  
 26  17  18  1   
 27  17  19  1   
 28  18  20  1   
 29  18  31  1   
 30  18  32  1   
 31  19  21  1   
 32  19  33  1   
 33  19  34  1   
 34  20  22  1   
 35  20  35  1   
 36  20  36  1   
 37  21  22  1   
 38  21  37  1   
 39  21  38  1   
 40  22  23  1   
 41  22  39  1   
 42  23  40  1   
 43  23  41  1   
 44  23  42  1   
@<TRIPOS>SUBSTRUCTURE
  1 ****  11 GROUP 4 **** **** 0

# MOE 2024.06 (io_trps.svl 2023.06)
