@<TRIPOS>MOLECULE
NONAME
41 41 1 0 0 
SMALL
USER_CHARGES


@<TRIPOS>ATOM
  1 O        4.6030    -5.8800    -0.7060 O.3   1 <1>  -0.3630 
  2 C        5.7880    -5.4460    -0.2210 C.ar  1 <1>   0.0820 
  3 C        3.4950    -5.7110     0.1480 C.3   1 <1>   0.1200 
  4 C        6.5980    -6.3180     0.5020 C.ar  1 <1>  -0.1440 
  5 C        6.1900    -4.1330    -0.4590 C.ar  1 <1>  -0.1440 
  6 C        2.2580    -6.2360    -0.5730 C.3   1 <1>   0.1200 
  7 C        7.7980    -5.8550     1.0150 C.ar  1 <1>  -0.1500 
  8 C        6.1970    -7.7680     0.7370 C.3   1 <1>  -0.0960 
  9 C        7.3940    -3.6910     0.0630 C.ar  1 <1>  -0.1500 
 10 C        5.3390    -3.1770    -1.2830 C.3   1 <1>  -0.0960 
 11 O        1.1480    -6.0780     0.2600 O.3   1 <1>  -0.5600 
 12 C        8.1940    -4.5470     0.8000 C.ar  1 <1>  -0.1500 
 13 C       -0.0480    -6.5160    -0.2910 C.3   1 <1>   0.1200 
 14 C       -1.1500    -6.2550     0.7440 C.3   1 <1>   0.3430 
 15 N       -2.5220    -6.6250     0.2520 N.4   1 <1>  -0.9590 
 16 C       -3.5570    -6.1240     1.2090 C.3   1 <1>   0.2630 
 17 C       -2.6740    -8.1030     0.0560 C.3   1 <1>   0.2630 
 18 H        3.3930    -4.6640     0.3690 H     1 <1>   0.0800 
 19 H        3.6750    -6.2650     1.0510 H     1 <1>   0.0800 
 20 H        2.3810    -7.2830    -0.7950 H     1 <1>   0.0800 
 21 H        2.0980    -5.6760    -1.4780 H     1 <1>   0.0800 
 22 H        8.4340    -6.5110     1.5830 H     1 <1>   0.1500 
 23 H        5.7530    -8.1790    -0.1520 H     1 <1>   0.0800 
 24 H        5.4870    -7.8260     1.5420 H     1 <1>   0.0800 
 25 H        7.0540    -8.3650     0.9890 H     1 <1>   0.0800 
 26 H        7.7180    -2.6790    -0.1030 H     1 <1>   0.1500 
 27 H        4.9130    -3.6910    -2.1260 H     1 <1>   0.0800 
 28 H        5.9320    -2.3610    -1.6530 H     1 <1>   0.0800 
 29 H        4.5450    -2.7790    -0.6780 H     1 <1>   0.0800 
 30 H        9.1270    -4.1950     1.2030 H     1 <1>   0.1500 
 31 H        0.0450    -7.5660    -0.5060 H     1 <1>   0.0800 
 32 H       -0.2300    -5.9570    -1.1930 H     1 <1>   0.0800 
 33 H       -1.1310    -5.2050     0.9870 H     1 <1>   0.0800 
 34 H       -0.9230    -6.8100     1.6390 H     1 <1>   0.0800 
 35 H       -2.6760    -6.1530    -0.6530 H     1 <1>   0.4500 
 36 H       -3.4310    -6.5860     2.1750 H     1 <1>   0.0800 
 37 H       -4.5460    -6.3520     0.8450 H     1 <1>   0.0800 
 38 H       -3.4740    -5.0550     1.3250 H     1 <1>   0.0800 
 39 H       -2.5030    -8.6240     0.9840 H     1 <1>   0.0800 
 40 H       -1.9690    -8.4620    -0.6760 H     1 <1>   0.0800 
 41 H       -3.6690    -8.3340    -0.2890 H     1 <1>   0.0800 
@<TRIPOS>BOND
  1   1   2  1   
  2   1   3  1   
  3   2   4  ar  
  4   2   5  ar  
  5   3   6  1   
  6   3  18  1   
  7   3  19  1   
  8   4   7  ar  
  9   4   8  1   
 10   5   9  ar  
 11   5  10  1   
 12   6  11  1   
 13   6  20  1   
 14   6  21  1   
 15   7  12  ar  
 16   7  22  1   
 17   8  23  1   
 18   8  24  1   
 19   8  25  1   
 20   9  12  ar  
 21   9  26  1   
 22  10  27  1   
 23  10  28  1   
 24  10  29  1   
 25  11  13  1   
 26  12  30  1   
 27  13  14  1   
 28  13  31  1   
 29  13  32  1   
 30  14  15  1   
 31  14  33  1   
 32  14  34  1   
 33  15  16  1   
 34  15  17  1   
 35  15  35  1   
 36  16  36  1   
 37  16  37  1   
 38  16  38  1   
 39  17  39  1   
 40  17  40  1   
 41  17  41  1   
@<TRIPOS>SUBSTRUCTURE
  1 ****   3 GROUP 4 **** **** 0

# MOE 2024.06 (io_trps.svl 2023.06)
