@<TRIPOS>MOLECULE
NONAME
43 46 1 0 0 
SMALL
USER_CHARGES


@<TRIPOS>ATOM
  1 O       -1.0520     1.3810    -1.4850 O.2   1 <1>  -0.5700 
  2 C       -0.1980     2.0010    -0.9000 C.2   1 <1>   0.5690 
  3 N        1.1300     1.8980    -1.2770 N.am  1 <1>  -0.2370 
  4 C       -0.5790     2.8870     0.2950 C.3   1 <1>  -0.0190 
  5 C        2.1730     2.1380    -0.3520 C.ar  1 <1>   0.1170 
  6 C        1.4330     1.4700    -2.5540 C.2   1 <1>   0.5700 
  7 C       -1.9730     2.6210     0.9070 C.3   1 <1>   0.1530 
  8 C       -0.5720     4.4420     0.0710 C.3   1 <1>  -0.0800 
  9 C        2.4570     1.2300     0.6720 C.ar  1 <1>  -0.1440 
 10 C        2.9210     3.3060    -0.4460 C.ar  1 <1>  -0.1500 
 11 O        2.5530     1.3690    -2.9910 O.2   1 <1>  -0.5700 
 12 C       -3.0440     3.0260    -0.0930 C.2   1 <1>  -0.2880 
 13 C       -2.0570     3.8560     1.7930 C.3   1 <1>  -0.1900 
 14 C       -1.9250     4.8870     0.6830 C.3   1 <1>   0.1530 
 15 C       -0.3880     4.9150    -1.3850 C.3   1 <1>  -0.2400 
 16 C        3.4490     1.5250     1.5930 C.ar  1 <1>  -0.1500 
 17 C        1.7060    -0.0910     0.8000 C.3   1 <1>  -0.0970 
 18 C        3.9110     3.5920     0.4750 C.ar  1 <1>  -0.1500 
 19 C       -3.0220     4.3510    -0.2160 C.2   1 <1>  -0.2880 
 20 C       -2.9880     3.9910     2.9500 C.3   1 <1>  -0.2000 
 21 C       -1.4880     3.9820     3.1670 C.3   1 <1>  -0.2000 
 22 C        4.1720     2.7020     1.5000 C.ar  1 <1>  -0.1500 
 23 H        0.1170     2.6760     1.0860 H     1 <1>   0.0800 
 24 H        0.6130     1.2200    -3.2060 H     1 <1>   0.0600 
 25 H       -2.1210     1.6820     1.4100 H     1 <1>   0.0800 
 26 H        0.2190     4.8660     0.6660 H     1 <1>   0.0800 
 27 H        2.7360     3.9950    -1.2490 H     1 <1>   0.1500 
 28 H       -3.6460     2.2760    -0.5760 H     1 <1>   0.1500 
 29 H       -2.0200     5.9150     0.9870 H     1 <1>   0.0800 
 30 H       -1.1040     4.4500    -2.0410 H     1 <1>   0.0800 
 31 H        0.5970     4.6840    -1.7420 H     1 <1>   0.0800 
 32 H       -0.5200     5.9810    -1.4430 H     1 <1>   0.0800 
 33 H        3.6740     0.8380     2.3910 H     1 <1>   0.1500 
 34 H        0.7010     0.0790     1.1400 H     1 <1>   0.0800 
 35 H        2.1950    -0.7440     1.5020 H     1 <1>   0.0800 
 36 H        1.6740    -0.5940    -0.1500 H     1 <1>   0.0800 
 37 H        4.4820     4.5010     0.3930 H     1 <1>   0.1500 
 38 H       -3.6070     5.0150    -0.8280 H     1 <1>   0.1500 
 39 H       -3.5660     3.1340     3.2490 H     1 <1>   0.1000 
 40 H       -3.5280     4.9150     3.0720 H     1 <1>   0.1000 
 41 H       -1.0080     4.9010     3.4540 H     1 <1>   0.1000 
 42 H       -1.0480     3.1200     3.6380 H     1 <1>   0.1000 
 43 H        4.9410     2.9200     2.2210 H     1 <1>   0.1500 
@<TRIPOS>BOND
  1   1   2  2   
  2   2   3  am  
  3   2   4  1   
  4   3   5  1   
  5   3   6  am  
  6   4   7  1   
  7   4   8  1   
  8   4  23  1   
  9   5   9  ar  
 10   5  10  ar  
 11   6  11  2   
 12   6  24  1   
 13   7  12  1   
 14   7  13  1   
 15   7  25  1   
 16   8  14  1   
 17   8  15  1   
 18   8  26  1   
 19   9  16  ar  
 20   9  17  1   
 21  10  18  ar  
 22  10  27  1   
 23  12  19  2   
 24  12  28  1   
 25  13  14  1   
 26  13  20  1   
 27  13  21  1   
 28  14  19  1   
 29  14  29  1   
 30  15  30  1   
 31  15  31  1   
 32  15  32  1   
 33  16  22  ar  
 34  16  33  1   
 35  17  34  1   
 36  17  35  1   
 37  17  36  1   
 38  18  22  ar  
 39  18  37  1   
 40  19  38  1   
 41  20  21  1   
 42  20  39  1   
 43  20  40  1   
 44  21  41  1   
 45  21  42  1   
 46  22  43  1   
@<TRIPOS>SUBSTRUCTURE
  1 ****   4 GROUP 4 **** **** 0

# MOE 2024.06 (io_trps.svl 2023.06)
