@<TRIPOS>MOLECULE
NONAME
50 52 1 0 0 
SMALL
USER_CHARGES


@<TRIPOS>ATOM
  1 F        1.6160    -2.6280    -3.0780 F     1 <1>  -0.1900 
  2 C        2.5380    -2.5230    -2.1610 C.ar  1 <1>   0.1900 
  3 C        2.2420    -1.8520    -0.9910 C.ar  1 <1>  -0.1500 
  4 C        3.7770    -3.0880    -2.3930 C.ar  1 <1>  -0.1500 
  5 C        3.2250    -1.7400    -0.0210 C.ar  1 <1>  -0.1500 
  6 C        4.7530    -2.9710    -1.4180 C.ar  1 <1>  -0.1500 
  7 C        4.4840    -2.2930    -0.2330 C.ar  1 <1>  -0.1430 
  8 C        5.5640    -2.1580     0.8240 C.3   1 <1>   0.4870 
  9 N        6.0970    -0.7690     0.7910 N.4   1 <1>  -0.9590 
 10 C        6.7780    -0.4910    -0.5290 C.3   1 <1>   0.3430 
 11 C        7.0240    -0.5260     1.9540 C.3   1 <1>   0.3430 
 12 C        7.4470     0.8990    -0.5670 C.3   1 <1>   0.1400 
 13 C        7.6800     0.8720     1.9010 C.3   1 <1>   0.1400 
 14 N        8.3660     1.0720     0.5950 N.am  1 <1>  -0.6600 
 15 C        9.5970     0.5030     0.4780 C.2   1 <1>   0.6900 
 16 O        9.6610    -0.7040     0.3430 O.2   1 <1>  -0.5700 
 17 N       10.6790     1.3210     0.5290 N.am  1 <1>  -0.5470 
 18 C       12.0600     1.0780     0.4590 C.ar  1 <1>   0.1170 
 19 C       12.9260     2.1160     0.1000 C.ar  1 <1>  -0.1430 
 20 C       12.6020    -0.1680     0.7610 C.ar  1 <1>  -0.1500 
 21 C       14.2930     1.8880     0.0530 C.ar  1 <1>  -0.1500 
 22 C       12.4180     3.5120    -0.2540 C.3   1 <1>  -0.0170 
 23 C       13.9650    -0.3880     0.7070 C.ar  1 <1>  -0.1500 
 24 C       14.8140     0.6430     0.3540 C.ar  1 <1>  -0.1500 
 25 C       12.1820     4.3460     1.0080 C.3   1 <1>  -0.2400 
 26 H        1.2600    -1.4330    -0.8490 H     1 <1>   0.1500 
 27 H        3.9630    -3.6090    -3.3160 H     1 <1>   0.1500 
 28 H        2.9880    -1.2250     0.8950 H     1 <1>   0.1500 
 29 H        5.7180    -3.4190    -1.5960 H     1 <1>   0.1500 
 30 H        6.3570    -2.8640     0.6360 H     1 <1>   0.0800 
 31 H        5.1410    -2.3710     1.7920 H     1 <1>   0.0800 
 32 H        5.2930    -0.1340     0.8600 H     1 <1>   0.4500 
 33 H        6.0640    -0.5620    -1.3340 H     1 <1>   0.0800 
 34 H        7.5420    -1.2330    -0.7010 H     1 <1>   0.0800 
 35 H        7.8140    -1.2610     1.9420 H     1 <1>   0.0800 
 36 H        6.4890    -0.6300     2.8830 H     1 <1>   0.0800 
 37 H        6.6990     1.6720    -0.5570 H     1 <1>   0.0800 
 38 H        8.0080     0.9940    -1.4820 H     1 <1>   0.0800 
 39 H        8.4000     0.9550     2.6980 H     1 <1>   0.0800 
 40 H        6.9390     1.6390     2.0440 H     1 <1>   0.0800 
 41 H       10.4310     2.3060     0.5570 H     1 <1>   0.3700 
 42 H       11.9620    -0.9810     1.0460 H     1 <1>   0.1500 
 43 H       14.9670     2.6820    -0.2190 H     1 <1>   0.1500 
 44 H       11.5130     3.4460    -0.8310 H     1 <1>   0.0800 
 45 H       13.1430     4.0130    -0.8730 H     1 <1>   0.0800 
 46 H       14.3640    -1.3590     0.9420 H     1 <1>   0.1500 
 47 H       15.8770     0.4770     0.3120 H     1 <1>   0.1500 
 48 H       11.4570     3.8780     1.6480 H     1 <1>   0.0800 
 49 H       11.8310     5.3280     0.7440 H     1 <1>   0.0800 
 50 H       13.1030     4.4480     1.5560 H     1 <1>   0.0800 
@<TRIPOS>BOND
  1   1   2  1   
  2   2   3  ar  
  3   2   4  ar  
  4   3   5  ar  
  5   3  26  1   
  6   4   6  ar  
  7   4  27  1   
  8   5   7  ar  
  9   5  28  1   
 10   6   7  ar  
 11   6  29  1   
 12   7   8  1   
 13   8   9  1   
 14   8  30  1   
 15   8  31  1   
 16   9  10  1   
 17   9  11  1   
 18   9  32  1   
 19  10  12  1   
 20  10  33  1   
 21  10  34  1   
 22  11  13  1   
 23  11  35  1   
 24  11  36  1   
 25  12  14  1   
 26  12  37  1   
 27  12  38  1   
 28  13  14  1   
 29  13  39  1   
 30  13  40  1   
 31  14  15  am  
 32  15  16  2   
 33  15  17  am  
 34  17  18  1   
 35  17  41  1   
 36  18  19  ar  
 37  18  20  ar  
 38  19  21  ar  
 39  19  22  1   
 40  20  23  ar  
 41  20  42  1   
 42  21  24  ar  
 43  21  43  1   
 44  22  25  1   
 45  22  44  1   
 46  22  45  1   
 47  23  24  ar  
 48  23  46  1   
 49  24  47  1   
 50  25  48  1   
 51  25  49  1   
 52  25  50  1   
@<TRIPOS>SUBSTRUCTURE
  1 ****  14 GROUP 4 **** **** 0

# MOE 2024.06 (io_trps.svl 2023.06)
