@<TRIPOS>MOLECULE
NONAME
41 43 1 0 0 
SMALL
USER_CHARGES


@<TRIPOS>ATOM
  1 O       -0.6090    -0.3550     1.7550 O.2   1 <1>  -0.5700 
  2 C       -1.0320    -1.3720     1.2610 C.2   1 <1>   0.6300 
  3 N       -0.2710    -2.2580     0.5540 N.am  1 <1>  -0.5470 
  4 C       -2.4980    -1.7220     1.4440 C.3   1 <1>  -0.1000 
  5 C        1.0790    -2.2250     0.1720 C.ar  1 <1>   0.1170 
  6 C       -3.3530    -2.1330     0.2740 C.3   1 <1>  -0.0600 
  7 C       -3.5730    -0.8130     0.9310 C.3   1 <1>  -0.1950 
  8 C        1.8210    -1.0510     0.1010 C.ar  1 <1>  -0.1500 
  9 C        1.7010    -3.4210    -0.1690 C.ar  1 <1>  -0.1500 
 10 C       -4.5680    -3.0290     0.2830 C.2   1 <1>  -0.1900 
 11 C       -3.4210     0.4120     0.0360 C.3   1 <1>  -0.0650 
 12 C        3.1470    -1.0640    -0.2970 C.ar  1 <1>   0.0830 
 13 C        3.0260    -3.4460    -0.5670 C.ar  1 <1>  -0.1500 
 14 C       -5.8120    -2.6640    -0.0490 C.2   1 <1>  -0.2880 
 15 C       -4.7490     0.7410    -0.6660 C.3   1 <1>  -0.1600 
 16 O        3.7860     0.1340    -0.3370 O.3   1 <1>  -0.3630 
 17 C        3.7530    -2.2710    -0.6320 C.ar  1 <1>  -0.1500 
 18 C       -6.3560    -1.3210    -0.5480 C.3   1 <1>  -0.0220 
 19 C       -5.4200    -0.4390    -1.4080 C.3   1 <1>  -0.1600 
 20 C        5.1510     0.2270    -0.6770 C.3   1 <1>   0.0400 
 21 H       -0.7730    -3.0960     0.2720 H     1 <1>   0.3700 
 22 H       -2.6750    -2.2060     2.3860 H     1 <1>   0.1000 
 23 H       -2.8530    -2.1610    -0.6800 H     1 <1>   0.1000 
 24 H       -4.4030    -0.7020     1.6080 H     1 <1>   0.1000 
 25 H        1.3740    -0.1080     0.3520 H     1 <1>   0.1500 
 26 H        1.1490    -4.3410    -0.1220 H     1 <1>   0.1500 
 27 H       -4.3320    -4.0320     0.5960 H     1 <1>   0.1500 
 28 H       -2.6550     0.2420    -0.7000 H     1 <1>   0.0800 
 29 H       -3.1140     1.2520     0.6360 H     1 <1>   0.0800 
 30 H        3.4930    -4.3810    -0.8260 H     1 <1>   0.1500 
 31 H       -6.6120    -3.3820     0.0250 H     1 <1>   0.1500 
 32 H       -4.5470     1.5190    -1.3820 H     1 <1>   0.0800 
 33 H       -5.4380     1.1520     0.0520 H     1 <1>   0.0800 
 34 H        4.7790    -2.3150    -0.9440 H     1 <1>   0.1500 
 35 H       -6.7420    -0.7630     0.2860 H     1 <1>   0.0800 
 36 H       -7.2030    -1.5570    -1.1690 H     1 <1>   0.0800 
 37 H       -4.6880    -1.0430    -1.9160 H     1 <1>   0.0800 
 38 H       -6.0330    -0.0030    -2.1780 H     1 <1>   0.0800 
 39 H        5.4380     1.2620    -0.6200 H     1 <1>   0.0800 
 40 H        5.2860    -0.1350    -1.6810 H     1 <1>   0.0800 
 41 H        5.7260    -0.3510     0.0250 H     1 <1>   0.0800 
@<TRIPOS>BOND
  1   1   2  2   
  2   2   3  am  
  3   2   4  1   
  4   3   5  1   
  5   3  21  1   
  6   4   6  1   
  7   4   7  1   
  8   4  22  1   
  9   5   8  ar  
 10   5   9  ar  
 11   6   7  1   
 12   6  10  1   
 13   6  23  1   
 14   7  11  1   
 15   7  24  1   
 16   8  12  ar  
 17   8  25  1   
 18   9  13  ar  
 19   9  26  1   
 20  10  14  2   
 21  10  27  1   
 22  11  15  1   
 23  11  28  1   
 24  11  29  1   
 25  12  16  1   
 26  12  17  ar  
 27  13  17  ar  
 28  13  30  1   
 29  14  18  1   
 30  14  31  1   
 31  15  19  1   
 32  15  32  1   
 33  15  33  1   
 34  16  20  1   
 35  17  34  1   
 36  18  19  1   
 37  18  35  1   
 38  18  36  1   
 39  19  37  1   
 40  19  38  1   
 41  20  39  1   
 42  20  40  1   
 43  20  41  1   
@<TRIPOS>SUBSTRUCTURE
  1 ****   3 GROUP 4 **** **** 0

# MOE 2024.06 (io_trps.svl 2023.06)
