@<TRIPOS>MOLECULE
NONAME
54 56 1 0 0 
SMALL
USER_CHARGES


@<TRIPOS>ATOM
  1 CL       0.4460     1.7680     0.5020 Cl    1 <1>  -0.1770 
  2 C       -1.1880     2.3510     0.7310 C.ar  1 <1>   0.1770 
  3 C       -1.6130     3.5340     0.1480 C.ar  1 <1>  -0.0090 
  4 C       -2.0250     1.5810     1.5170 C.ar  1 <1>  -0.1500 
  5 S       -0.5080     4.5190    -0.8860 S.o2  1 <1>   1.4470 
  6 C       -2.9270     3.9290     0.3810 C.ar  1 <1>  -0.1500 
  7 C       -3.3300     1.9810     1.7400 C.ar  1 <1>  -0.1430 
  8 O        0.0440     3.7330    -1.9620 O.2   1 <1>  -0.6500 
  9 O       -1.1370     5.7840    -1.1950 O.2   1 <1>  -0.6500 
 10 N        0.7950     4.8800     0.0940 N.am  1 <1>  -0.9140 
 11 C       -3.7880     3.1630     1.1640 C.ar  1 <1>   0.0830 
 12 C       -4.2420     1.1220     2.6060 C.3   1 <1>  -0.0970 
 13 C        1.6300     5.8960    -0.5070 C.3   1 <1>   0.3760 
 14 O       -5.0800     3.5120     1.3970 O.3   1 <1>  -0.3620 
 15 C        2.9800     5.8730     0.1820 C.2   1 <1>  -0.0400 
 16 C       -5.6780     4.6620     0.8130 C.3   1 <1>   0.1810 
 17 O        3.7190     4.7820     0.0930 O.3   1 <1>  -0.2800 
 18 C        3.6140     6.8120     0.9180 C.2   1 <1>  -0.1500 
 19 C       -7.1770     4.7190     1.1060 C.2   1 <1>   0.5690 
 20 C        4.8320     4.9980     0.7650 C.2   1 <1>  -0.0100 
 21 C        4.8320     6.2370     1.3010 C.2   1 <1>  -0.1500 
 22 O       -7.6190     5.6800     1.6860 O.2   1 <1>  -0.5700 
 23 N       -8.0290     3.7400     0.7080 N.am  1 <1>  -0.7300 
 24 C       -7.7110     2.4670     0.0430 C.3   1 <1>   0.2200 
 25 C       -8.5890     2.3180    -1.2030 C.3   1 <1>  -0.1600 
 26 C       -7.9510     1.3210     1.0290 C.3   1 <1>  -0.1600 
 27 C       -8.3510     0.9610    -1.8820 C.3   1 <1>  -0.1600 
 28 C       -7.7030    -0.0390     0.3590 C.3   1 <1>  -0.1600 
 29 C       -8.5680    -0.1990    -0.8990 C.3   1 <1>  -0.1600 
 30 H       -1.6460     0.6710     1.9480 H     1 <1>   0.1500 
 31 H       -3.2600     4.8500    -0.0620 H     1 <1>   0.1500 
 32 H        1.3780     4.0400     0.0790 H     1 <1>   0.4200 
 33 H       -4.9590     0.6170     1.9870 H     1 <1>   0.0800 
 34 H       -3.6780     0.3860     3.1510 H     1 <1>   0.0800 
 35 H       -4.7680     1.7360     3.3150 H     1 <1>   0.0800 
 36 H        1.1680     6.8630    -0.3950 H     1 <1>   0.0800 
 37 H        1.7760     5.6980    -1.5570 H     1 <1>   0.0800 
 38 H       -5.5320     4.6250    -0.2500 H     1 <1>   0.0800 
 39 H       -5.1990     5.5330     1.2200 H     1 <1>   0.0800 
 40 H        3.2840     7.8020     1.1800 H     1 <1>   0.1500 
 41 H        5.5710     4.2170     0.8100 H     1 <1>   0.1500 
 42 H        5.5880     6.7120     1.9000 H     1 <1>   0.1500 
 43 H       -9.0070     3.8680     0.9720 H     1 <1>   0.3700 
 44 H       -6.6790     2.4520    -0.2610 H     1 <1>   0.0800 
 45 H       -8.3630     3.1080    -1.8970 H     1 <1>   0.0800 
 46 H       -9.6250     2.3940    -0.9250 H     1 <1>   0.0800 
 47 H       -8.9660     1.3570     1.3850 H     1 <1>   0.0800 
 48 H       -7.2910     1.4320     1.8710 H     1 <1>   0.0800 
 49 H       -7.3440     0.9220    -2.2610 H     1 <1>   0.0800 
 50 H       -9.0210     0.8540    -2.7190 H     1 <1>   0.0800 
 51 H       -7.9270    -0.8300     1.0540 H     1 <1>   0.0800 
 52 H       -6.6640    -0.1210     0.0890 H     1 <1>   0.0800 
 53 H       -8.3310    -1.1310    -1.3840 H     1 <1>   0.0800 
 54 H       -9.6060    -0.2340    -0.6150 H     1 <1>   0.0800 
@<TRIPOS>BOND
  1   1   2  1   
  2   2   3  ar  
  3   2   4  ar  
  4   3   5  1   
  5   3   6  ar  
  6   4   7  ar  
  7   4  30  1   
  8   5   8  2   
  9   5   9  2   
 10   5  10  am  
 11   6  11  ar  
 12   6  31  1   
 13   7  11  ar  
 14   7  12  1   
 15  10  13  1   
 16  10  32  1   
 17  11  14  1   
 18  12  33  1   
 19  12  34  1   
 20  12  35  1   
 21  13  15  1   
 22  13  36  1   
 23  13  37  1   
 24  14  16  1   
 25  15  17  1   
 26  15  18  2   
 27  16  19  1   
 28  16  38  1   
 29  16  39  1   
 30  17  20  1   
 31  18  21  1   
 32  18  40  1   
 33  19  22  2   
 34  19  23  am  
 35  20  21  2   
 36  20  41  1   
 37  21  42  1   
 38  23  24  1   
 39  23  43  1   
 40  24  25  1   
 41  24  26  1   
 42  24  44  1   
 43  25  27  1   
 44  25  45  1   
 45  25  46  1   
 46  26  28  1   
 47  26  47  1   
 48  26  48  1   
 49  27  29  1   
 50  27  49  1   
 51  27  50  1   
 52  28  29  1   
 53  28  51  1   
 54  28  52  1   
 55  29  53  1   
 56  29  54  1   
@<TRIPOS>SUBSTRUCTURE
  1 ****   6 GROUP 4 **** **** 0

# MOE 2024.06 (io_trps.svl 2023.06)
