@<TRIPOS>MOLECULE
NONAME
45 46 1 0 0 
SMALL
USER_CHARGES


@<TRIPOS>ATOM
  1 S        0.3360     0.0750     0.7630 S.o2  1 <1>   1.4470 
  2 O       -0.0150     0.6130     2.0600 O.2   1 <1>  -0.6500 
  3 O       -0.3030    -1.1360     0.2970 O.2   1 <1>  -0.6500 
  4 N       -0.0040     1.2800    -0.3790 N.am  1 <1>  -0.8490 
  5 C        2.1340    -0.1140     0.6380 C.ar  1 <1>  -0.0090 
  6 C       -1.4400     1.3310    -0.6920 C.3   1 <1>   0.1960 
  7 C        0.4450     2.6150     0.0510 C.3   1 <1>   0.1960 
  8 C        2.7420    -0.3180    -0.5940 C.ar  1 <1>  -0.1500 
  9 C        2.9450    -0.0640     1.7640 C.ar  1 <1>  -0.1500 
 10 C       -1.7460     2.4330    -1.7240 C.3   1 <1>   0.1200 
 11 C        0.1020     3.6800    -1.0070 C.3   1 <1>   0.1200 
 12 C        4.1140    -0.4640    -0.7140 C.ar  1 <1>  -0.1430 
 13 C        4.3170    -0.2080     1.6670 C.ar  1 <1>  -0.1500 
 14 O       -1.2710     3.6730    -1.2810 O.3   1 <1>  -0.5600 
 15 C        4.9100    -0.4110     0.4250 C.ar  1 <1>   0.0830 
 16 C        4.7320    -0.6850    -2.0870 C.3   1 <1>  -0.0970 
 17 O        6.2470    -0.5660     0.2650 O.3   1 <1>  -0.3630 
 18 C        7.1340    -0.6310     1.3750 C.3   1 <1>   0.1810 
 19 C        8.5630    -0.8990     0.9210 C.2   1 <1>   0.5690 
 20 O        9.4380    -0.9230     1.7540 O.2   1 <1>  -0.5700 
 21 N        8.8130    -1.1070    -0.3990 N.am  1 <1>  -0.7300 
 22 C       10.1320    -1.3620    -1.0040 C.3   1 <1>   0.1400 
 23 C       10.3140    -0.4160    -2.1840 C.3   1 <1>  -0.2400 
 24 H       -2.0070     1.5180     0.2050 H     1 <1>   0.0800 
 25 H       -1.7560     0.3830    -1.0940 H     1 <1>   0.0800 
 26 H        1.5110     2.6070     0.2070 H     1 <1>   0.0800 
 27 H       -0.0270     2.8890     0.9800 H     1 <1>   0.0800 
 28 H        2.1190    -0.3630    -1.4720 H     1 <1>   0.1500 
 29 H        2.4950     0.0910     2.7320 H     1 <1>   0.1500 
 30 H       -2.8080     2.5210    -1.8700 H     1 <1>   0.0800 
 31 H       -1.2830     2.2030    -2.6670 H     1 <1>   0.0800 
 32 H        0.6370     3.4910    -1.9210 H     1 <1>   0.0800 
 33 H        0.3600     4.6600    -0.6470 H     1 <1>   0.0800 
 34 H        4.8980    -0.1590     2.5690 H     1 <1>   0.1500 
 35 H        3.9820    -0.6790    -2.8580 H     1 <1>   0.0800 
 36 H        5.2370    -1.6340    -2.1100 H     1 <1>   0.0800 
 37 H        5.4440     0.0930    -2.2970 H     1 <1>   0.0800 
 38 H        6.8160    -1.4280     2.0210 H     1 <1>   0.0800 
 39 H        7.0980     0.3070     1.8960 H     1 <1>   0.0800 
 40 H        8.0140    -1.0690    -1.0380 H     1 <1>   0.3700 
 41 H       10.1820    -2.3860    -1.3330 H     1 <1>   0.0800 
 42 H       10.9080    -1.1970    -0.2740 H     1 <1>   0.0800 
 43 H        9.5570    -0.5900    -2.9280 H     1 <1>   0.0800 
 44 H       11.2770    -0.5810    -2.6320 H     1 <1>   0.0800 
 45 H       10.2650     0.6050    -1.8510 H     1 <1>   0.0800 
@<TRIPOS>BOND
  1   1   2  2   
  2   1   3  2   
  3   1   4  am  
  4   1   5  1   
  5   4   6  1   
  6   4   7  1   
  7   5   8  ar  
  8   5   9  ar  
  9   6  10  1   
 10   6  24  1   
 11   6  25  1   
 12   7  11  1   
 13   7  26  1   
 14   7  27  1   
 15   8  12  ar  
 16   8  28  1   
 17   9  13  ar  
 18   9  29  1   
 19  10  14  1   
 20  10  30  1   
 21  10  31  1   
 22  11  14  1   
 23  11  32  1   
 24  11  33  1   
 25  12  15  ar  
 26  12  16  1   
 27  13  15  ar  
 28  13  34  1   
 29  15  17  1   
 30  16  35  1   
 31  16  36  1   
 32  16  37  1   
 33  17  18  1   
 34  18  19  1   
 35  18  38  1   
 36  18  39  1   
 37  19  20  2   
 38  19  21  am  
 39  21  22  1   
 40  21  40  1   
 41  22  23  1   
 42  22  41  1   
 43  22  42  1   
 44  23  43  1   
 45  23  44  1   
 46  23  45  1   
@<TRIPOS>SUBSTRUCTURE
  1 ****  12 GROUP 4 **** **** 0

# MOE 2024.06 (io_trps.svl 2023.06)
