@<TRIPOS>MOLECULE
NONAME
54 56 1 0 0 
SMALL
USER_CHARGES


@<TRIPOS>ATOM
  1 O        0.4990    -1.2970     0.1550 O.2   1 <1>  -0.5700 
  2 C       -0.0640    -2.3610     0.1180 C.2   1 <1>   0.5690 
  3 N        0.4750    -3.5040    -0.3780 N.am  1 <1>  -0.4200 
  4 C       -1.4600    -2.6100     0.6520 C.3   1 <1>  -0.0190 
  5 C       -0.3560    -4.5650    -0.2100 C.2   1 <1>   0.5690 
  6 C        1.7970    -3.5860    -1.0270 C.3   1 <1>   0.1400 
  7 C       -1.6610    -4.1320     0.4280 C.3   1 <1>  -0.0190 
  8 C       -2.5050    -1.7110    -0.0270 C.3   1 <1>  -0.0220 
  9 O       -0.0820    -5.7020    -0.4980 O.2   1 <1>  -0.5700 
 10 C        2.8390    -4.0330     0.0010 C.3   1 <1>  -0.1600 
 11 C       -2.8790    -4.5160    -0.4290 C.3   1 <1>  -0.0220 
 12 C       -3.9010    -2.3090     0.1280 C.2   1 <1>  -0.2760 
 13 C        4.2120    -4.1600    -0.6550 C.3   1 <1>   0.3430 
 14 C       -4.0630    -3.6190    -0.1010 C.2   1 <1>  -0.2760 
 15 C       -5.0560    -1.3560     0.4840 C.3   1 <1>   0.1380 
 16 N        5.2360    -4.5600     0.3540 N.4   1 <1>  -0.9590 
 17 C       -5.4070    -4.3310    -0.0910 C.3   1 <1>  -0.0220 
 18 C       -6.3440    -2.1620     0.7800 C.3   1 <1>  -0.1600 
 19 C       -4.7450    -0.5320     1.7450 C.3   1 <1>  -0.2400 
 20 C       -5.2940    -0.4020    -0.6950 C.3   1 <1>  -0.2400 
 21 C        6.6140    -4.3330    -0.1820 C.3   1 <1>   0.2630 
 22 C        5.0800    -5.9870     0.7870 C.3   1 <1>   0.2630 
 23 C       -6.5630    -3.3310    -0.1890 C.3   1 <1>  -0.1600 
 24 H       -1.4670    -2.4080     1.7080 H     1 <1>   0.0800 
 25 H        2.0530    -2.6210    -1.4320 H     1 <1>   0.0800 
 26 H        1.7410    -4.2930    -1.8390 H     1 <1>   0.0800 
 27 H       -1.7510    -4.6130     1.3850 H     1 <1>   0.0800 
 28 H       -2.2940    -1.6330    -1.0790 H     1 <1>   0.0800 
 29 H       -2.4230    -0.7220     0.3820 H     1 <1>   0.0800 
 30 H        2.5320    -4.9820     0.4020 H     1 <1>   0.0800 
 31 H        2.8810    -3.3020     0.7900 H     1 <1>   0.0800 
 32 H       -3.1170    -5.5490    -0.2430 H     1 <1>   0.0800 
 33 H       -2.6540    -4.4130    -1.4760 H     1 <1>   0.0800 
 34 H        4.4810    -3.2070    -1.0830 H     1 <1>   0.0800 
 35 H        4.1740    -4.8880    -1.4500 H     1 <1>   0.0800 
 36 H        5.1140    -3.9550     1.1820 H     1 <1>   0.4500 
 37 H       -5.4930    -4.9040     0.8160 H     1 <1>   0.0800 
 38 H       -5.4720    -5.0090    -0.9250 H     1 <1>   0.0800 
 39 H       -7.1990    -1.5110     0.7580 H     1 <1>   0.0800 
 40 H       -6.2800    -2.5730     1.7730 H     1 <1>   0.0800 
 41 H       -5.6220    -0.0020     2.0700 H     1 <1>   0.0800 
 42 H       -4.4250    -1.1820     2.5400 H     1 <1>   0.0800 
 43 H       -3.9770     0.1960     1.5680 H     1 <1>   0.0800 
 44 H       -5.4850    -0.9600    -1.5940 H     1 <1>   0.0800 
 45 H       -4.4300     0.2150    -0.8640 H     1 <1>   0.0800 
 46 H       -6.1340     0.2390    -0.5020 H     1 <1>   0.0800 
 47 H        6.7840    -4.9450    -1.0530 H     1 <1>   0.0800 
 48 H        7.3510    -4.5840     0.5640 H     1 <1>   0.0800 
 49 H        6.7450    -3.2980    -0.4550 H     1 <1>   0.0800 
 50 H        5.1760    -6.6490    -0.0580 H     1 <1>   0.0800 
 51 H        4.1130    -6.1430     1.2370 H     1 <1>   0.0800 
 52 H        5.8360    -6.2430     1.5130 H     1 <1>   0.0800 
 53 H       -7.4890    -3.8290     0.0400 H     1 <1>   0.0800 
 54 H       -6.6270    -2.9600    -1.1960 H     1 <1>   0.0800 
@<TRIPOS>BOND
  1   1   2  2   
  2   2   3  am  
  3   2   4  1   
  4   3   5  am  
  5   3   6  1   
  6   4   7  1   
  7   4   8  1   
  8   4  24  1   
  9   5   7  1   
 10   5   9  2   
 11   6  10  1   
 12   6  25  1   
 13   6  26  1   
 14   7  11  1   
 15   7  27  1   
 16   8  12  1   
 17   8  28  1   
 18   8  29  1   
 19  10  13  1   
 20  10  30  1   
 21  10  31  1   
 22  11  14  1   
 23  11  32  1   
 24  11  33  1   
 25  12  14  2   
 26  12  15  1   
 27  13  16  1   
 28  13  34  1   
 29  13  35  1   
 30  14  17  1   
 31  15  18  1   
 32  15  19  1   
 33  15  20  1   
 34  16  21  1   
 35  16  22  1   
 36  16  36  1   
 37  17  23  1   
 38  17  37  1   
 39  17  38  1   
 40  18  23  1   
 41  18  39  1   
 42  18  40  1   
 43  19  41  1   
 44  19  42  1   
 45  19  43  1   
 46  20  44  1   
 47  20  45  1   
 48  20  46  1   
 49  21  47  1   
 50  21  48  1   
 51  21  49  1   
 52  22  50  1   
 53  22  51  1   
 54  22  52  1   
 55  23  53  1   
 56  23  54  1   
@<TRIPOS>SUBSTRUCTURE
  1 ****   4 GROUP 4 **** **** 0

# MOE 2024.06 (io_trps.svl 2023.06)
