@<TRIPOS>MOLECULE
NONAME
37 38 1 0 0 
SMALL
USER_CHARGES


@<TRIPOS>ATOM
  1 CL       3.4030     1.8620     1.8220 Cl    1 <1>  -0.1770 
  2 C        3.6770     0.6450     0.6010 C.ar  1 <1>   0.1770 
  3 C        4.4850    -0.4350     0.8950 C.ar  1 <1>  -0.1500 
  4 C        3.0790     0.7890    -0.6370 C.ar  1 <1>  -0.1500 
  5 C        4.7070    -1.3990    -0.0840 C.ar  1 <1>   0.0830 
  6 C        3.2930    -0.1750    -1.6070 C.ar  1 <1>  -0.1500 
  7 O        5.4980    -2.4880     0.0840 O.3   1 <1>  -0.3630 
  8 C        4.1030    -1.2630    -1.3260 C.ar  1 <1>  -0.1500 
  9 C        6.3290    -2.6650     1.2290 C.3   1 <1>   0.2610 
 10 C        7.3760    -1.5430     1.3940 C.2   1 <1>   0.5690 
 11 C        6.9780    -4.0600     1.1610 C.3   1 <1>  -0.1600 
 12 O        7.4660    -1.0660     2.5040 O.2   1 <1>  -0.5700 
 13 N        8.1700    -1.0770     0.3670 N.am  1 <1>  -0.6600 
 14 C        5.9550    -5.2020     1.0670 C.3   1 <1>  -0.2400 
 15 C        9.0140     0.1450     0.5340 C.3   1 <1>   0.1400 
 16 C        8.1600    -1.5480    -1.0510 C.3   1 <1>   0.1400 
 17 C        8.5920     1.2190    -0.4840 C.3   1 <1>   0.1200 
 18 C        7.7670    -0.3900    -1.9840 C.3   1 <1>   0.1200 
 19 O        8.6170     0.7050    -1.7880 O.3   1 <1>  -0.5600 
 20 H        4.9180    -0.4950     1.8760 H     1 <1>   0.1500 
 21 H        2.4550     1.6430    -0.8340 H     1 <1>   0.1500 
 22 H        2.8300    -0.0800    -2.5750 H     1 <1>   0.1500 
 23 H        4.2710    -2.0170    -2.0740 H     1 <1>   0.1500 
 24 H        5.6820    -2.6440     2.0870 H     1 <1>   0.0800 
 25 H        7.5680    -4.1990     2.0510 H     1 <1>   0.0800 
 26 H        7.6510    -4.1070     0.3240 H     1 <1>   0.0800 
 27 H        5.2810    -5.1740     1.9060 H     1 <1>   0.0800 
 28 H        6.4600    -6.1520     1.0670 H     1 <1>   0.0800 
 29 H        5.3800    -5.1230     0.1610 H     1 <1>   0.0800 
 30 H       10.0470    -0.1100     0.3760 H     1 <1>   0.0800 
 31 H        8.9210     0.5460     1.5280 H     1 <1>   0.0800 
 32 H        7.4860    -2.3690    -1.1970 H     1 <1>   0.0800 
 33 H        9.1450    -1.8880    -1.3160 H     1 <1>   0.0800 
 34 H        9.2700     2.0530    -0.4460 H     1 <1>   0.0800 
 35 H        7.5970     1.5700    -0.2700 H     1 <1>   0.0800 
 36 H        6.7530    -0.0790    -1.7980 H     1 <1>   0.0800 
 37 H        7.8540    -0.6940    -3.0120 H     1 <1>   0.0800 
@<TRIPOS>BOND
  1   1   2  1   
  2   2   3  ar  
  3   2   4  ar  
  4   3   5  ar  
  5   3  20  1   
  6   4   6  ar  
  7   4  21  1   
  8   5   7  1   
  9   5   8  ar  
 10   6   8  ar  
 11   6  22  1   
 12   7   9  1   
 13   8  23  1   
 14   9  10  1   
 15   9  11  1   
 16   9  24  1   
 17  10  12  2   
 18  10  13  am  
 19  11  14  1   
 20  11  25  1   
 21  11  26  1   
 22  13  15  1   
 23  13  16  1   
 24  14  27  1   
 25  14  28  1   
 26  14  29  1   
 27  15  17  1   
 28  15  30  1   
 29  15  31  1   
 30  16  18  1   
 31  16  32  1   
 32  16  33  1   
 33  17  19  1   
 34  17  34  1   
 35  17  35  1   
 36  18  19  1   
 37  18  36  1   
 38  18  37  1   
@<TRIPOS>SUBSTRUCTURE
  1 ****   5 GROUP 4 **** **** 0

# MOE 2024.06 (io_trps.svl 2023.06)
