@<TRIPOS>MOLECULE
NONAME
36 37 1 0 0 
SMALL
USER_CHARGES


@<TRIPOS>ATOM
  1 O        0.7090    -0.2000    -0.7370 O.3   1 <1>  -0.6800 
  2 C        1.4870    -1.1170    -0.0410 C.3   1 <1>   0.4800 
  3 C        2.5760    -0.3610     0.6750 C.1   1 <1>   0.3570 
  4 C        2.0230    -2.0870    -1.1410 C.3   1 <1>  -0.0800 
  5 C        0.5720    -1.8030     1.0160 C.3   1 <1>  -0.0800 
  6 N        3.3810     0.1750     1.2730 N.1   1 <1>  -0.5570 
  7 C        2.1430    -3.5660    -0.7170 C.3   1 <1>   0.5660 
  8 C        3.2890    -1.5860    -1.8810 C.3   1 <1>  -0.2400 
  9 C       -0.0470    -3.0670     0.4290 C.3   1 <1>   0.3430 
 10 C       -0.5170    -0.9010     1.6410 C.3   1 <1>  -0.2400 
 11 N        1.0450    -4.0400     0.1540 N.4   1 <1>  -0.9060 
 12 C        3.4480    -3.9790    -0.0520 C.ar  1 <1>  -0.1440 
 13 C        4.2470    -4.9040    -0.7130 C.ar  1 <1>  -0.1500 
 14 C        3.8700    -3.4910     1.1810 C.ar  1 <1>  -0.1500 
 15 C        5.4380    -5.3340    -0.1560 C.ar  1 <1>  -0.1500 
 16 C        5.0620    -3.9210     1.7350 C.ar  1 <1>  -0.1500 
 17 C        5.8460    -4.8440     1.0690 C.ar  1 <1>  -0.1500 
 18 H        0.6540     0.6440    -0.2410 H     1 <1>   0.4000 
 19 H        1.2630    -2.1170    -1.9050 H     1 <1>   0.0800 
 20 H        1.1830    -2.1210     1.8430 H     1 <1>   0.0800 
 21 H        2.0910    -4.1280    -1.6360 H     1 <1>   0.0800 
 22 H        4.1510    -1.5660    -1.2350 H     1 <1>   0.0800 
 23 H        3.1310    -0.5900    -2.2610 H     1 <1>   0.0800 
 24 H        3.5160    -2.2230    -2.7180 H     1 <1>   0.0800 
 25 H       -0.5800    -2.8240    -0.4780 H     1 <1>   0.0800 
 26 H       -0.7470    -3.4900     1.1330 H     1 <1>   0.0800 
 27 H       -1.2520    -0.6030     0.9120 H     1 <1>   0.0800 
 28 H       -0.0780    -0.0140     2.0660 H     1 <1>   0.0800 
 29 H       -1.0290    -1.4220     2.4330 H     1 <1>   0.0800 
 30 H        1.4980    -4.3320     1.0310 H     1 <1>   0.4500 
 31 H        0.6610    -4.9030    -0.2500 H     1 <1>   0.4500 
 32 H        3.9630    -5.3040    -1.6720 H     1 <1>   0.1500 
 33 H        3.3080    -2.7710     1.7420 H     1 <1>   0.1500 
 34 H        6.0530    -6.0510    -0.6750 H     1 <1>   0.1500 
 35 H        5.3880    -3.5350     2.6870 H     1 <1>   0.1500 
 36 H        6.7750    -5.1760     1.5020 H     1 <1>   0.1500 
@<TRIPOS>BOND
  1   1   2  1   
  2   1  18  1   
  3   2   3  1   
  4   2   4  1   
  5   2   5  1   
  6   3   6  3   
  7   4   7  1   
  8   4   8  1   
  9   4  19  1   
 10   5   9  1   
 11   5  10  1   
 12   5  20  1   
 13   7  11  1   
 14   7  12  1   
 15   7  21  1   
 16   8  22  1   
 17   8  23  1   
 18   8  24  1   
 19   9  11  1   
 20   9  25  1   
 21   9  26  1   
 22  10  27  1   
 23  10  28  1   
 24  10  29  1   
 25  11  30  1   
 26  11  31  1   
 27  12  13  ar  
 28  12  14  ar  
 29  13  15  ar  
 30  13  32  1   
 31  14  16  ar  
 32  14  33  1   
 33  15  17  ar  
 34  15  34  1   
 35  16  17  ar  
 36  16  35  1   
 37  17  36  1   
@<TRIPOS>SUBSTRUCTURE
  1 ****   7 GROUP 4 **** **** 0

# MOE 2024.06 (io_trps.svl 2023.06)
