@<TRIPOS>MOLECULE
NONAME
33 34 1 0 0 
SMALL
USER_CHARGES


@<TRIPOS>ATOM
  1 O        2.0230    -1.0140     0.9590 O.2   1 <1>  -0.5700 
  2 C        1.0300    -1.0190     0.2600 C.2   1 <1>   0.6900 
  3 N        0.0640    -1.9660     0.5020 N.am  1 <1>  -0.3680 
  4 N        0.9390    -0.1210    -0.7340 N.am  1 <1>  -0.8000 
  5 N       -1.1280    -2.2500    -0.1620 N.2   1 <1>  -0.5120 
  6 C       -2.0750    -1.4110    -0.2550 C.2   1 <1>   0.3280 
  7 C       -2.2130    -0.0410     0.3780 C.3   1 <1>  -0.0990 
  8 C       -3.3340    -1.6790    -1.0480 C.3   1 <1>  -0.0990 
  9 C       -3.1880     0.7110    -0.5520 C.3   1 <1>   0.0370 
 10 C       -4.1920    -0.4200    -0.8720 C.3   1 <1>  -0.1600 
 11 C       -3.8970     1.9010     0.1320 C.ar  1 <1>  -0.1440 
 12 C       -2.4690     1.1520    -1.8560 C.2   1 <1>   0.9060 
 13 C       -4.9950     2.4750    -0.4960 C.ar  1 <1>  -0.1500 
 14 C       -3.4810     2.4400     1.3460 C.ar  1 <1>  -0.1500 
 15 O       -3.1370     1.4220    -2.8630 O.co2 1 <1>  -0.9000 
 16 O       -1.2280     1.1640    -1.8980 O.co2 1 <1>  -0.9000 
 17 C       -5.6780     3.5320     0.0790 C.ar  1 <1>  -0.1500 
 18 C       -4.1620     3.4970     1.9250 C.ar  1 <1>  -0.1500 
 19 C       -5.2650     4.0430     1.2950 C.ar  1 <1>  -0.1500 
 20 H        0.4510    -2.7190     1.0710 H     1 <1>   0.3700 
 21 H        0.0470     0.1010    -1.2220 H     1 <1>   0.3700 
 22 H        1.6200     0.6260    -0.8080 H     1 <1>   0.3700 
 23 H       -2.6560    -0.1810     1.3460 H     1 <1>   0.0800 
 24 H       -1.2840     0.4800     0.4970 H     1 <1>   0.0800 
 25 H       -3.0650    -1.8010    -2.0830 H     1 <1>   0.0800 
 26 H       -3.8380    -2.5600    -0.6970 H     1 <1>   0.0800 
 27 H       -4.8600    -0.5510    -0.0390 H     1 <1>   0.0800 
 28 H       -4.7720    -0.2130    -1.7550 H     1 <1>   0.0800 
 29 H       -5.3120     2.1010    -1.4550 H     1 <1>   0.1500 
 30 H       -2.6180     2.0540     1.8550 H     1 <1>   0.1500 
 31 H       -6.5260     3.9560    -0.4290 H     1 <1>   0.1500 
 32 H       -3.8280     3.8980     2.8650 H     1 <1>   0.1500 
 33 H       -5.7940     4.8640     1.7430 H     1 <1>   0.1500 
@<TRIPOS>BOND
  1   1   2  2   
  2   2   3  am  
  3   2   4  am  
  4   3   5  1   
  5   3  20  1   
  6   4  21  1   
  7   4  22  1   
  8   5   6  2   
  9   6   7  1   
 10   6   8  1   
 11   7   9  1   
 12   7  23  1   
 13   7  24  1   
 14   8  10  1   
 15   8  25  1   
 16   8  26  1   
 17   9  10  1   
 18   9  11  1   
 19   9  12  1   
 20  10  27  1   
 21  10  28  1   
 22  11  13  ar  
 23  11  14  ar  
 24  12  15  ar  
 25  12  16  ar  
 26  13  17  ar  
 27  13  29  1   
 28  14  18  ar  
 29  14  30  1   
 30  17  19  ar  
 31  17  31  1   
 32  18  19  ar  
 33  18  32  1   
 34  19  33  1   
@<TRIPOS>SUBSTRUCTURE
  1 ****   9 GROUP 4 **** **** 0

# MOE 2024.06 (io_trps.svl 2023.06)
