@<TRIPOS>MOLECULE
NONAME
46 46 1 0 0 
SMALL
USER_CHARGES


@<TRIPOS>ATOM
  1 O        0.4440    -1.4070    -0.6840 O.3   1 <1>  -0.3630 
  2 C       -0.8390    -1.2960    -0.2460 C.ar  1 <1>   0.0830 
  3 C        1.5330    -1.0020     0.1060 C.3   1 <1>   0.1200 
  4 C       -1.8510    -1.7240    -1.1010 C.ar  1 <1>  -0.1440 
  5 C       -1.1700    -0.7780     1.0050 C.ar  1 <1>  -0.1500 
  6 C        2.8070    -1.2680    -0.6980 C.3   1 <1>  -0.1600 
  7 C       -3.1720    -1.6300    -0.6970 C.ar  1 <1>  -0.1500 
  8 C       -1.5200    -2.2930    -2.4740 C.3   1 <1>  -0.0970 
  9 C       -2.4930    -0.6850     1.4030 C.ar  1 <1>  -0.1430 
 10 C        4.0680    -0.8600     0.0780 C.3   1 <1>  -0.1600 
 11 C       -3.4920    -1.1150     0.5470 C.ar  1 <1>  -0.1500 
 12 C       -2.8470    -0.1220     2.7680 C.3   1 <1>  -0.0970 
 13 C        5.3190    -1.1280    -0.7630 C.3   1 <1>   0.3430 
 14 N        6.5400    -0.6570    -0.0450 N.4   1 <1>  -0.9590 
 15 C        7.6690    -0.4380    -0.9920 C.3   1 <1>   0.3430 
 16 C        6.9260    -1.5980     1.0430 C.3   1 <1>   0.3430 
 17 C        7.4510     0.8640    -1.7530 C.3   1 <1>  -0.2400 
 18 C        7.7920    -0.8680     2.0620 C.3   1 <1>  -0.2400 
 19 H        1.5210    -1.5760     1.0160 H     1 <1>   0.0800 
 20 H        1.4210     0.0470     0.3200 H     1 <1>   0.0800 
 21 H       -0.4110    -0.4430     1.6840 H     1 <1>   0.1500 
 22 H        2.7500    -0.7120    -1.6190 H     1 <1>   0.0800 
 23 H        2.8480    -2.3180    -0.9330 H     1 <1>   0.0800 
 24 H       -3.9630    -1.9590    -1.3480 H     1 <1>   0.1500 
 25 H       -0.9850    -1.5610    -3.0510 H     1 <1>   0.0800 
 26 H       -2.4120    -2.5660    -3.0070 H     1 <1>   0.0800 
 27 H       -0.9030    -3.1660    -2.3650 H     1 <1>   0.0800 
 28 H        4.1040    -1.4200     0.9950 H     1 <1>   0.0800 
 29 H        4.0080     0.1890     0.3100 H     1 <1>   0.0800 
 30 H       -4.5240    -1.0530     0.8440 H     1 <1>   0.1500 
 31 H       -2.1470     0.6430     3.0520 H     1 <1>   0.0800 
 32 H       -2.8230    -0.9070     3.5020 H     1 <1>   0.0800 
 33 H       -3.8310     0.3090     2.7540 H     1 <1>   0.0800 
 34 H        5.2170    -0.6000    -1.6970 H     1 <1>   0.0800 
 35 H        5.3990    -2.1800    -0.9830 H     1 <1>   0.0800 
 36 H        6.3220     0.2500     0.3880 H     1 <1>   0.4500 
 37 H        7.7480    -1.2660    -1.6790 H     1 <1>   0.0800 
 38 H        8.5970    -0.3650    -0.4480 H     1 <1>   0.0800 
 39 H        7.4570    -2.4440     0.6350 H     1 <1>   0.0800 
 40 H        6.0440    -1.9660     1.5430 H     1 <1>   0.0800 
 41 H        6.5760     0.8210    -2.3760 H     1 <1>   0.0800 
 42 H        8.2970     1.0410    -2.3940 H     1 <1>   0.0800 
 43 H        7.3730     1.6950    -1.0750 H     1 <1>   0.0800 
 44 H        8.7220    -0.5420     1.6330 H     1 <1>   0.0800 
 45 H        8.0240    -1.5400     2.8700 H     1 <1>   0.0800 
 46 H        7.2690    -0.0250     2.4760 H     1 <1>   0.0800 
@<TRIPOS>BOND
  1   1   2  1   
  2   1   3  1   
  3   2   4  ar  
  4   2   5  ar  
  5   3   6  1   
  6   3  19  1   
  7   3  20  1   
  8   4   7  ar  
  9   4   8  1   
 10   5   9  ar  
 11   5  21  1   
 12   6  10  1   
 13   6  22  1   
 14   6  23  1   
 15   7  11  ar  
 16   7  24  1   
 17   8  25  1   
 18   8  26  1   
 19   8  27  1   
 20   9  11  ar  
 21   9  12  1   
 22  10  13  1   
 23  10  28  1   
 24  10  29  1   
 25  11  30  1   
 26  12  31  1   
 27  12  32  1   
 28  12  33  1   
 29  13  14  1   
 30  13  34  1   
 31  13  35  1   
 32  14  15  1   
 33  14  16  1   
 34  14  36  1   
 35  15  17  1   
 36  15  37  1   
 37  15  38  1   
 38  16  18  1   
 39  16  39  1   
 40  16  40  1   
 41  17  41  1   
 42  17  42  1   
 43  17  43  1   
 44  18  44  1   
 45  18  45  1   
 46  18  46  1   
@<TRIPOS>SUBSTRUCTURE
  1 ****   3 GROUP 4 **** **** 0

# MOE 2024.06 (io_trps.svl 2023.06)
