@<TRIPOS>MOLECULE
NONAME
39 40 1 0 0 
SMALL
USER_CHARGES


@<TRIPOS>ATOM
  1 F       -1.6530     1.3070     1.4590 F     1 <1>  -0.1900 
  2 C       -0.9540     2.1670     0.7640 C.ar  1 <1>   0.1900 
  3 C       -1.4770     2.6460    -0.4270 C.ar  1 <1>  -0.1440 
  4 C        0.2720     2.5700     1.2560 C.ar  1 <1>  -0.1500 
  5 C       -0.7290     3.5690    -1.1450 C.ar  1 <1>  -0.1500 
  6 C       -2.8270     2.1680    -0.9210 C.3   1 <1>   0.4870 
  7 C        1.0040     3.4930     0.5300 C.ar  1 <1>  -0.1500 
  8 C        0.5030     3.9880    -0.6650 C.ar  1 <1>  -0.1500 
  9 N       -3.8800     2.6130     0.0320 N.4   1 <1>  -0.9590 
 10 C       -5.2120     1.9810    -0.2760 C.3   1 <1>   0.3430 
 11 C       -3.9650     4.1180     0.1110 C.3   1 <1>   0.3430 
 12 C       -6.3140     2.4400     0.6990 C.3   1 <1>   0.1400 
 13 C       -5.0570     4.5840     1.0900 C.3   1 <1>   0.1400 
 14 N       -6.3580     3.9300     0.7620 N.am  1 <1>  -0.6600 
 15 C       -7.4580     4.6670     0.4040 C.2   1 <1>   0.7800 
 16 O       -7.4260     5.8780     0.3290 O.2   1 <1>  -0.5700 
 17 O       -8.5750     4.0060     0.1070 O.3   1 <1>  -0.4300 
 18 C       -9.7480     4.6980    -0.2560 C.3   1 <1>   0.1200 
 19 C      -10.8390     3.6680    -0.5340 C.3   1 <1>  -0.2400 
 20 H        0.6470     2.1730     2.1840 H     1 <1>   0.1500 
 21 H       -1.0840     3.9690    -2.0800 H     1 <1>   0.1500 
 22 H       -2.8150     1.0920    -0.9830 H     1 <1>   0.0800 
 23 H       -3.0220     2.5650    -1.9050 H     1 <1>   0.0800 
 24 H        1.9640     3.8250     0.8910 H     1 <1>   0.1500 
 25 H        1.0840     4.7040    -1.2250 H     1 <1>   0.1500 
 26 H       -3.5730     2.2770     0.9580 H     1 <1>   0.4500 
 27 H       -5.1290     0.9070    -0.2300 H     1 <1>   0.0800 
 28 H       -5.5160     2.2460    -1.2750 H     1 <1>   0.0800 
 29 H       -4.1910     4.5210    -0.8630 H     1 <1>   0.0800 
 30 H       -3.0170     4.5260     0.4240 H     1 <1>   0.0800 
 31 H       -6.1190     2.0490     1.6830 H     1 <1>   0.0800 
 32 H       -7.2590     2.0400     0.3750 H     1 <1>   0.0800 
 33 H       -5.1450     5.6560     1.0360 H     1 <1>   0.0800 
 34 H       -4.7770     4.3340     2.0980 H     1 <1>   0.0800 
 35 H       -9.5420     5.2880    -1.1340 H     1 <1>   0.0800 
 36 H      -10.0280     5.3470     0.5570 H     1 <1>   0.0800 
 37 H      -10.5460     3.0220    -1.3410 H     1 <1>   0.0800 
 38 H      -11.7480     4.1710    -0.8120 H     1 <1>   0.0800 
 39 H      -11.0300     3.0830     0.3480 H     1 <1>   0.0800 
@<TRIPOS>BOND
  1   1   2  1   
  2   2   3  ar  
  3   2   4  ar  
  4   3   5  ar  
  5   3   6  1   
  6   4   7  ar  
  7   4  20  1   
  8   5   8  ar  
  9   5  21  1   
 10   6   9  1   
 11   6  22  1   
 12   6  23  1   
 13   7   8  ar  
 14   7  24  1   
 15   8  25  1   
 16   9  10  1   
 17   9  11  1   
 18   9  26  1   
 19  10  12  1   
 20  10  27  1   
 21  10  28  1   
 22  11  13  1   
 23  11  29  1   
 24  11  30  1   
 25  12  14  1   
 26  12  31  1   
 27  12  32  1   
 28  13  14  1   
 29  13  33  1   
 30  13  34  1   
 31  14  15  am  
 32  15  16  2   
 33  15  17  1   
 34  17  18  1   
 35  18  19  1   
 36  18  35  1   
 37  18  36  1   
 38  19  37  1   
 39  19  38  1   
 40  19  39  1   
@<TRIPOS>SUBSTRUCTURE
  1 ****  11 GROUP 4 **** **** 0

# MOE 2024.06 (io_trps.svl 2023.06)
