@<TRIPOS>MOLECULE
NONAME
38 39 1 0 0 
SMALL
USER_CHARGES


@<TRIPOS>ATOM
  1 S       -4.2250     4.7160    -1.0180 S.3   1 <1>  -0.0800 
  2 C       -4.2550     2.9890    -0.6880 C.2   1 <1>  -0.1400 
  3 C       -2.5490     4.8260    -0.5210 C.2   1 <1>  -0.1100 
  4 C       -3.0550     2.5690    -0.2370 C.2   1 <1>  -0.1810 
  5 C       -5.5640     2.2880    -0.9500 C.3   1 <1>   0.5230 
  6 C       -2.0880     3.6210    -0.1430 C.2   1 <1>  -0.1500 
  7 C       -2.6520     1.1580     0.1570 C.3   1 <1>  -0.0590 
  8 N       -6.5430     2.8750    -0.0130 N.4   1 <1>  -0.9060 
  9 C       -7.9140     2.3240    -0.1700 C.3   1 <1>   0.3430 
 10 C       -8.8800     2.9870     0.8100 C.3   1 <1>  -0.0170 
 11 C      -10.2530     2.3800     0.6040 C.ar  1 <1>  -0.1430 
 12 C      -11.1440     2.9480    -0.2950 C.ar  1 <1>  -0.1500 
 13 C      -10.6230     1.2410     1.3030 C.ar  1 <1>  -0.1500 
 14 C      -12.3880     2.3790    -0.5030 C.ar  1 <1>  -0.1500 
 15 C      -11.8670     0.6720     1.0960 C.ar  1 <1>  -0.1500 
 16 C      -12.7550     1.2320     0.1930 C.ar  1 <1>   0.0830 
 17 O      -13.9490     0.6080     0.0470 O.3   1 <1>  -0.3630 
 18 C      -14.9420     1.1140    -0.8170 C.3   1 <1>   0.0400 
 19 H       -2.0760     5.7930    -0.5660 H     1 <1>   0.1500 
 20 H       -5.4590     1.2300    -0.7770 H     1 <1>   0.0800 
 21 H       -5.8670     2.4510    -1.9720 H     1 <1>   0.0800 
 22 H       -1.0860     3.4270     0.2030 H     1 <1>   0.1500 
 23 H       -3.4650     0.4670     0.0350 H     1 <1>   0.0800 
 24 H       -2.3360     1.1410     1.1850 H     1 <1>   0.0800 
 25 H       -1.8310     0.8310    -0.4560 H     1 <1>   0.0800 
 26 H       -6.5290     3.8910    -0.1710 H     1 <1>   0.4500 
 27 H       -6.1850     2.7330     0.9380 H     1 <1>   0.4500 
 28 H       -7.9090     1.2610     0.0100 H     1 <1>   0.0800 
 29 H       -8.2670     2.4910    -1.1750 H     1 <1>   0.0800 
 30 H       -8.9280     4.0480     0.6330 H     1 <1>   0.0800 
 31 H       -8.5640     2.8190     1.8240 H     1 <1>   0.0800 
 32 H      -10.8830     3.8380    -0.8420 H     1 <1>   0.1500 
 33 H       -9.9580     0.7850     2.0160 H     1 <1>   0.1500 
 34 H      -13.0580     2.8400    -1.2040 H     1 <1>   0.1500 
 35 H      -12.1620    -0.2110     1.6340 H     1 <1>   0.1500 
 36 H      -15.7990     0.4680    -0.7550 H     1 <1>   0.0800 
 37 H      -14.5610     1.1190    -1.8230 H     1 <1>   0.0800 
 38 H      -15.2090     2.1060    -0.4990 H     1 <1>   0.0800 
@<TRIPOS>BOND
  1   1   2  1   
  2   1   3  1   
  3   2   4  2   
  4   2   5  1   
  5   3   6  2   
  6   3  19  1   
  7   4   6  1   
  8   4   7  1   
  9   5   8  1   
 10   5  20  1   
 11   5  21  1   
 12   6  22  1   
 13   7  23  1   
 14   7  24  1   
 15   7  25  1   
 16   8   9  1   
 17   8  26  1   
 18   8  27  1   
 19   9  10  1   
 20   9  28  1   
 21   9  29  1   
 22  10  11  1   
 23  10  30  1   
 24  10  31  1   
 25  11  12  ar  
 26  11  13  ar  
 27  12  14  ar  
 28  12  32  1   
 29  13  15  ar  
 30  13  33  1   
 31  14  16  ar  
 32  14  34  1   
 33  15  16  ar  
 34  15  35  1   
 35  16  17  1   
 36  17  18  1   
 37  18  36  1   
 38  18  37  1   
 39  18  38  1   
@<TRIPOS>SUBSTRUCTURE
  1 ****   9 GROUP 4 **** **** 0

# MOE 2024.06 (io_trps.svl 2023.06)
