@<TRIPOS>MOLECULE
NONAME
52 54 1 0 0 
SMALL
USER_CHARGES


@<TRIPOS>ATOM
  1 CL      -1.3410     1.4400     0.8130 Cl    1 <1>  -0.1770 
  2 C       -2.9480     0.8120     1.1210 C.ar  1 <1>   0.1770 
  3 C       -4.0220     1.3000     0.3800 C.ar  1 <1>   0.1170 
  4 C       -3.1050    -0.1530     2.0960 C.ar  1 <1>  -0.1500 
  5 N       -3.7950     2.2860    -0.5990 N.am  1 <1>  -0.5470 
  6 C       -5.2800     0.7630     0.6450 C.ar  1 <1>  -0.1500 
  7 C       -4.3670    -0.6620     2.3470 C.ar  1 <1>  -0.1500 
  8 C       -4.6210     3.2260    -1.1280 C.2   1 <1>   0.6900 
  9 C       -5.4560    -0.2050     1.6220 C.ar  1 <1>  -0.1440 
 10 O       -5.7770     3.3530    -0.7760 O.2   1 <1>  -0.5700 
 11 N       -4.1100     4.0900    -2.0410 N.am  1 <1>  -0.7300 
 12 C       -6.8380    -0.7720     1.8970 C.3   1 <1>  -0.0970 
 13 C       -4.9070     5.0190    -2.9000 C.3   1 <1>   0.1400 
 14 C       -5.3010     6.3210    -2.1660 C.3   1 <1>   0.3430 
 15 N       -6.1710     6.0480    -0.9860 N.4   1 <1>  -0.9590 
 16 C       -7.6140     5.8130    -1.3510 C.3   1 <1>   0.3430 
 17 C       -6.0370     7.0680     0.1130 C.3   1 <1>   0.3430 
 18 C       -8.4650     5.4110    -0.1290 C.3   1 <1>   0.2090 
 19 C       -6.8860     6.7180     1.3560 C.3   1 <1>   0.2090 
 20 N       -8.2970     6.3920     0.9870 N.pl3 1 <1>  -0.8380 
 21 C       -9.3460     7.2580     1.2870 C.ar  1 <1>   0.1000 
 22 C      -10.5350     6.7350     1.7890 C.ar  1 <1>  -0.1500 
 23 C       -9.2400     8.6350     1.0910 C.ar  1 <1>  -0.1500 
 24 C      -11.6050     7.5600     2.0870 C.ar  1 <1>  -0.1500 
 25 C      -10.3000     9.4740     1.3860 C.ar  1 <1>  -0.1500 
 26 C      -11.4660     8.9190     1.8790 C.ar  1 <1>   0.1900 
 27 F      -12.4720     9.7070     2.1570 F     1 <1>  -0.1900 
 28 H       -2.2520    -0.5020     2.6490 H     1 <1>   0.1500 
 29 H       -2.8110     2.3880    -0.8420 H     1 <1>   0.3700 
 30 H       -6.1310     1.0960     0.0810 H     1 <1>   0.1500 
 31 H       -4.4980    -1.4150     3.1060 H     1 <1>   0.1500 
 32 H       -3.1750     3.8780    -2.3970 H     1 <1>   0.3700 
 33 H       -6.9600    -0.9710     2.9470 H     1 <1>   0.0800 
 34 H       -6.9700    -1.6890     1.3520 H     1 <1>   0.0800 
 35 H       -7.6010    -0.0770     1.5950 H     1 <1>   0.0800 
 36 H       -5.7920     4.5140    -3.2480 H     1 <1>   0.0800 
 37 H       -4.3200     5.2740    -3.7660 H     1 <1>   0.0800 
 38 H       -5.8090     6.9830    -2.8480 H     1 <1>   0.0800 
 39 H       -4.3950     6.8080    -1.8450 H     1 <1>   0.0800 
 40 H       -5.8580     5.1300    -0.6050 H     1 <1>   0.4500 
 41 H       -7.6800     5.0270    -2.0850 H     1 <1>   0.0800 
 42 H       -8.0340     6.7080    -1.7770 H     1 <1>   0.0800 
 43 H       -6.3550     8.0300    -0.2510 H     1 <1>   0.0800 
 44 H       -5.0050     7.1500     0.4100 H     1 <1>   0.0800 
 45 H       -8.1700     4.4330     0.2110 H     1 <1>   0.0800 
 46 H       -9.5000     5.3620    -0.4180 H     1 <1>   0.0800 
 47 H       -6.8720     7.5410     2.0500 H     1 <1>   0.0800 
 48 H       -6.4530     5.8680     1.8560 H     1 <1>   0.0800 
 49 H      -10.6130     5.6760     1.9520 H     1 <1>   0.1500 
 50 H       -8.3330     9.0540     0.7030 H     1 <1>   0.1500 
 51 H      -12.5260     7.1650     2.4760 H     1 <1>   0.1500 
 52 H      -10.2340    10.5370     1.2400 H     1 <1>   0.1500 
@<TRIPOS>BOND
  1   1   2  1   
  2   2   3  ar  
  3   2   4  ar  
  4   3   5  1   
  5   3   6  ar  
  6   4   7  ar  
  7   4  28  1   
  8   5   8  am  
  9   5  29  1   
 10   6   9  ar  
 11   6  30  1   
 12   7   9  ar  
 13   7  31  1   
 14   8  10  2   
 15   8  11  am  
 16   9  12  1   
 17  11  13  1   
 18  11  32  1   
 19  12  33  1   
 20  12  34  1   
 21  12  35  1   
 22  13  14  1   
 23  13  36  1   
 24  13  37  1   
 25  14  15  1   
 26  14  38  1   
 27  14  39  1   
 28  15  16  1   
 29  15  17  1   
 30  15  40  1   
 31  16  18  1   
 32  16  41  1   
 33  16  42  1   
 34  17  19  1   
 35  17  43  1   
 36  17  44  1   
 37  18  20  1   
 38  18  45  1   
 39  18  46  1   
 40  19  20  1   
 41  19  47  1   
 42  19  48  1   
 43  20  21  1   
 44  21  22  ar  
 45  21  23  ar  
 46  22  24  ar  
 47  22  49  1   
 48  23  25  ar  
 49  23  50  1   
 50  24  26  ar  
 51  24  51  1   
 52  25  26  ar  
 53  25  52  1   
 54  26  27  1   
@<TRIPOS>SUBSTRUCTURE
  1 ****  10 GROUP 4 **** **** 0

# MOE 2024.06 (io_trps.svl 2023.06)
