@<TRIPOS>MOLECULE
NONAME
59 61 1 0 0 
SMALL
USER_CHARGES


@<TRIPOS>ATOM
  1 O       -0.1700    -2.0100    -2.4090 O.2   1 <1>  -0.5700 
  2 C        0.2070    -1.8060    -1.2800 C.2   1 <1>   0.5690 
  3 N       -0.5770    -1.2780    -0.2970 N.am  1 <1>  -0.5470 
  4 C        1.6460    -2.1470    -0.8910 C.3   1 <1>   0.1710 
  5 C       -1.9080    -0.8370    -0.3420 C.ar  1 <1>   0.1170 
  6 N        2.1860    -1.2780     0.1960 N.3   1 <1>  -0.8100 
  7 C       -2.1790     0.5350    -0.2710 C.ar  1 <1>  -0.1430 
  8 C       -2.9650    -1.7520    -0.4220 C.ar  1 <1>  -0.1430 
  9 C        3.3780    -1.8880     0.8250 C.3   1 <1>   0.1100 
 10 C        2.5500     0.0580    -0.3350 C.3   1 <1>   0.1100 
 11 C       -3.4990     0.9670    -0.2890 C.ar  1 <1>  -0.1500 
 12 C       -1.0110     1.5270    -0.1910 C.3   1 <1>  -0.0170 
 13 C       -4.2700    -1.2910    -0.4360 C.ar  1 <1>  -0.1500 
 14 C       -2.7430    -3.2620    -0.4830 C.3   1 <1>  -0.0170 
 15 C        3.9540    -1.0190     1.9620 C.3   1 <1>   0.2090 
 16 C        3.0830     1.0010     0.7620 C.3   1 <1>   0.2090 
 17 C       -4.5380     0.0610    -0.3710 C.ar  1 <1>  -0.1500 
 18 C       -1.3830     2.9990     0.0280 C.3   1 <1>  -0.2400 
 19 C       -2.4870    -3.8360     0.9130 C.3   1 <1>  -0.2400 
 20 N        4.2040     0.3910     1.5360 N.pl3 1 <1>  -0.8380 
 21 C        5.5020     0.7440     1.1820 C.ar  1 <1>   0.1000 
 22 C        6.0940     0.2870     0.0130 C.ar  1 <1>  -0.1500 
 23 C        6.2310     1.5800     2.0160 C.ar  1 <1>  -0.1500 
 24 C        7.3860     0.6520    -0.3240 C.ar  1 <1>   0.0830 
 25 C        7.5220     1.9530     1.6920 C.ar  1 <1>  -0.1500 
 26 O        7.8770     0.1530    -1.4880 O.3   1 <1>  -0.3630 
 27 C        8.1040     1.4920     0.5230 C.ar  1 <1>  -0.1500 
 28 C        9.1830     0.4650    -1.9200 C.3   1 <1>   0.0400 
 29 H       -0.0420    -1.0490     0.5440 H     1 <1>   0.3700 
 30 H        2.2710    -2.0820    -1.7650 H     1 <1>   0.0800 
 31 H        1.6450    -3.1700    -0.5620 H     1 <1>   0.0800 
 32 H        4.1440    -2.0450     0.0850 H     1 <1>   0.0800 
 33 H        3.1130    -2.8480     1.2340 H     1 <1>   0.0800 
 34 H        1.6900     0.5150    -0.7900 H     1 <1>   0.0800 
 35 H        3.3030    -0.0420    -1.0960 H     1 <1>   0.0800 
 36 H       -3.7490     2.0100    -0.2430 H     1 <1>   0.1500 
 37 H       -0.4490     1.4520    -1.1060 H     1 <1>   0.0800 
 38 H       -0.3650     1.2310     0.6170 H     1 <1>   0.0800 
 39 H       -5.0900    -1.9850    -0.4970 H     1 <1>   0.1500 
 40 H       -1.9200    -3.4950    -1.1330 H     1 <1>   0.0800 
 41 H       -3.6110    -3.7380    -0.9040 H     1 <1>   0.0800 
 42 H        4.8740    -1.4540     2.3120 H     1 <1>   0.0800 
 43 H        3.2610    -1.0130     2.7840 H     1 <1>   0.0800 
 44 H        2.2840     1.2410     1.4410 H     1 <1>   0.0800 
 45 H        3.4190     1.9190     0.3120 H     1 <1>   0.0800 
 46 H       -5.5560     0.4090    -0.3840 H     1 <1>   0.1500 
 47 H       -1.9610     3.3670    -0.8020 H     1 <1>   0.0800 
 48 H       -0.4910     3.5930     0.1080 H     1 <1>   0.0800 
 49 H       -1.9500     3.1110     0.9350 H     1 <1>   0.0800 
 50 H       -1.6020    -3.3980     1.3390 H     1 <1>   0.0800 
 51 H       -2.3540    -4.9010     0.8560 H     1 <1>   0.0800 
 52 H       -3.3210    -3.6220     1.5580 H     1 <1>   0.0800 
 53 H        5.5500    -0.3590    -0.6450 H     1 <1>   0.1500 
 54 H        5.7700     1.9320     2.9210 H     1 <1>   0.1500 
 55 H        8.0730     2.6010     2.3500 H     1 <1>   0.1500 
 56 H        9.1070     1.7950     0.2930 H     1 <1>   0.1500 
 57 H        9.3530    -0.0360    -2.8560 H     1 <1>   0.0800 
 58 H        9.8860     0.1160    -1.1850 H     1 <1>   0.0800 
 59 H        9.2610     1.5290    -2.0550 H     1 <1>   0.0800 
@<TRIPOS>BOND
  1   1   2  2   
  2   2   3  am  
  3   2   4  1   
  4   3   5  1   
  5   3  29  1   
  6   4   6  1   
  7   4  30  1   
  8   4  31  1   
  9   5   7  ar  
 10   5   8  ar  
 11   6   9  1   
 12   6  10  1   
 13   7  11  ar  
 14   7  12  1   
 15   8  13  ar  
 16   8  14  1   
 17   9  15  1   
 18   9  32  1   
 19   9  33  1   
 20  10  16  1   
 21  10  34  1   
 22  10  35  1   
 23  11  17  ar  
 24  11  36  1   
 25  12  18  1   
 26  12  37  1   
 27  12  38  1   
 28  13  17  ar  
 29  13  39  1   
 30  14  19  1   
 31  14  40  1   
 32  14  41  1   
 33  15  20  1   
 34  15  42  1   
 35  15  43  1   
 36  16  20  1   
 37  16  44  1   
 38  16  45  1   
 39  17  46  1   
 40  18  47  1   
 41  18  48  1   
 42  18  49  1   
 43  19  50  1   
 44  19  51  1   
 45  19  52  1   
 46  20  21  1   
 47  21  22  ar  
 48  21  23  ar  
 49  22  24  ar  
 50  22  53  1   
 51  23  25  ar  
 52  23  54  1   
 53  24  26  1   
 54  24  27  ar  
 55  25  27  ar  
 56  25  55  1   
 57  26  28  1   
 58  27  56  1   
 59  28  57  1   
 60  28  58  1   
 61  28  59  1   
@<TRIPOS>SUBSTRUCTURE
  1 ****  10 GROUP 4 **** **** 0

# MOE 2024.06 (io_trps.svl 2023.06)
