@<TRIPOS>MOLECULE
NONAME
40 42 1 0 0 
SMALL
USER_CHARGES


@<TRIPOS>ATOM
  1 S        0.1630     0.1250     0.7380 S.3   1 <1>  -0.0800 
  2 C        1.1960    -0.9910    -0.0940 C.2   1 <1>   0.4420 
  3 C       -1.1820    -0.7830     0.1380 C.2   1 <1>   0.1980 
  4 N        0.5290    -1.8960    -0.7130 N.2   1 <1>  -0.3380 
  5 N        2.5510    -0.7680     0.0160 N.am  1 <1>  -0.4940 
  6 N       -0.8260    -1.7720    -0.5750 N.2   1 <1>  -0.3380 
  7 C       -2.5830    -0.3360     0.5100 C.3   1 <1>   0.0200 
  8 C        3.6050    -1.4590    -0.5210 C.2   1 <1>   0.7150 
  9 C       -2.9980     0.9240    -0.2680 C.3   1 <1>  -0.1600 
 10 O        3.4070    -2.4280    -1.2240 O.2   1 <1>  -0.5700 
 11 C        4.9400    -0.9990    -0.2270 C.2   1 <1>  -0.0450 
 12 C       -4.3750     1.4810     0.1440 C.3   1 <1>  -0.0800 
 13 S        6.3130    -1.8700    -0.9250 S.3   1 <1>  -0.0800 
 14 C        5.4230     0.0300     0.5210 C.2   1 <1>  -0.1500 
 15 C       -5.5210     0.5030    -0.1810 C.3   1 <1>  -0.1600 
 16 C       -4.6130     2.8310    -0.5560 C.3   1 <1>  -0.1600 
 17 C        7.4750    -0.8020    -0.1720 C.2   1 <1>  -0.1100 
 18 C        6.8440     0.1400     0.5510 C.2   1 <1>  -0.1500 
 19 C       -6.8920     1.0980     0.1690 C.3   1 <1>  -0.1600 
 20 C       -5.9820     3.4250    -0.1970 C.3   1 <1>  -0.1600 
 21 C       -7.1120     2.4440    -0.5290 C.3   1 <1>  -0.1600 
 22 H        2.8120     0.0300     0.5800 H     1 <1>   0.3700 
 23 H       -2.6230    -0.1500     1.5680 H     1 <1>   0.0800 
 24 H       -3.2560    -1.1440     0.2870 H     1 <1>   0.0800 
 25 H       -2.9990     0.7010    -1.3210 H     1 <1>   0.0800 
 26 H       -2.2570     1.6870    -0.1010 H     1 <1>   0.0800 
 27 H       -4.3700     1.6560     1.2080 H     1 <1>   0.0800 
 28 H        4.8280     0.7380     1.0690 H     1 <1>   0.1500 
 29 H       -5.4020    -0.4120     0.3700 H     1 <1>   0.0800 
 30 H       -5.5010     0.2630    -1.2310 H     1 <1>   0.0800 
 31 H       -4.5590     2.6970    -1.6230 H     1 <1>   0.0800 
 32 H       -3.8450     3.5290    -0.2730 H     1 <1>   0.0800 
 33 H        8.5180    -0.9940    -0.3530 H     1 <1>   0.1500 
 34 H        7.3330     0.9180     1.1120 H     1 <1>   0.1500 
 35 H       -6.9580     1.2360     1.2350 H     1 <1>   0.0800 
 36 H       -7.6680     0.4110    -0.1230 H     1 <1>   0.0800 
 37 H       -6.1300     4.3420    -0.7400 H     1 <1>   0.0800 
 38 H       -6.0070     3.6560     0.8540 H     1 <1>   0.0800 
 39 H       -8.0550     2.8620    -0.2210 H     1 <1>   0.0800 
 40 H       -7.1500     2.2920    -1.5940 H     1 <1>   0.0800 
@<TRIPOS>BOND
  1   1   2  1   
  2   1   3  1   
  3   2   4  2   
  4   2   5  1   
  5   3   6  2   
  6   3   7  1   
  7   4   6  1   
  8   5   8  am  
  9   5  22  1   
 10   7   9  1   
 11   7  23  1   
 12   7  24  1   
 13   8  10  2   
 14   8  11  1   
 15   9  12  1   
 16   9  25  1   
 17   9  26  1   
 18  11  13  1   
 19  11  14  2   
 20  12  15  1   
 21  12  16  1   
 22  12  27  1   
 23  13  17  1   
 24  14  18  1   
 25  14  28  1   
 26  15  19  1   
 27  15  29  1   
 28  15  30  1   
 29  16  20  1   
 30  16  31  1   
 31  16  32  1   
 32  17  18  2   
 33  17  33  1   
 34  18  34  1   
 35  19  21  1   
 36  19  35  1   
 37  19  36  1   
 38  20  21  1   
 39  20  37  1   
 40  20  38  1   
 41  21  39  1   
 42  21  40  1   
@<TRIPOS>SUBSTRUCTURE
  1 ****   1 GROUP 4 **** **** 0

# MOE 2024.06 (io_trps.svl 2023.06)
