@<TRIPOS>MOLECULE
NONAME
50 52 1 0 0 
SMALL
USER_CHARGES


@<TRIPOS>ATOM
  1 S       -0.5800     0.4320     0.1220 S.3   1 <1>  -0.2860 
  2 C        1.0080     1.2660     0.1030 C.2   1 <1>   0.2420 
  3 C       -1.7130     1.7260     0.8350 C.3   1 <1>   0.1310 
  4 N        1.1690     2.4870     0.4730 N.2   1 <1>  -0.3380 
  5 N        2.1320     0.6750    -0.2880 N.pl3 1 <1>   0.0480 
  6 C       -3.1510     1.2350     0.9110 C.2   1 <1>   0.5690 
  7 N        2.4700     2.7380     0.3330 N.2   1 <1>  -0.3380 
  8 C        3.0410     1.6570    -0.1220 C.2   1 <1>   0.1330 
  9 C        2.3380    -0.7260    -0.7230 C.3   1 <1>   0.0960 
 10 O       -3.9030     1.7830     1.6800 O.2   1 <1>  -0.5700 
 11 N       -3.5550     0.2100     0.1160 N.am  1 <1>  -0.7300 
 12 C        4.4470     1.5160    -0.3920 C.ar  1 <1>   0.0530 
 13 C        2.7860    -1.5960     0.4560 C.3   1 <1>  -0.2400 
 14 C       -4.9060    -0.3730     0.0810 C.3   1 <1>   0.2200 
 15 C        4.9260     1.2960    -1.6830 C.ar  1 <1>   0.1600 
 16 C        5.3830     1.5880     0.6280 C.ar  1 <1>  -0.1500 
 17 C       -4.8070    -1.8000     0.6320 C.3   1 <1>  -0.1600 
 18 C       -5.4270    -0.2680    -1.3580 C.3   1 <1>  -0.1600 
 19 N        6.1920     1.1100    -2.0180 N.ar  1 <1>  -0.6200 
 20 C        6.7100     1.4100     0.3010 C.ar  1 <1>  -0.1500 
 21 C       -6.1160    -2.6070     0.5910 C.3   1 <1>  -0.1600 
 22 C       -6.9360    -0.5450    -1.4560 C.3   1 <1>  -0.1600 
 23 C        7.0570     1.1730    -1.0180 C.ar  1 <1>   0.1600 
 24 C       -6.4890    -3.0470    -0.8320 C.3   1 <1>  -0.1600 
 25 C       -7.3130    -2.0240    -1.6300 C.3   1 <1>  -0.1600 
 26 H       -1.6480     2.5930     0.2040 H     1 <1>   0.0800 
 27 H       -1.3470     1.9640     1.8160 H     1 <1>   0.0800 
 28 H        3.0820    -0.7510    -1.4990 H     1 <1>   0.0800 
 29 H        1.4190    -1.1080    -1.1300 H     1 <1>   0.0800 
 30 H       -2.8670    -0.2480    -0.4830 H     1 <1>   0.3700 
 31 H        3.7210    -1.2410     0.8530 H     1 <1>   0.0800 
 32 H        2.9230    -2.6110     0.1270 H     1 <1>   0.0800 
 33 H        2.0420    -1.5880     1.2330 H     1 <1>   0.0800 
 34 H       -5.5510     0.2030     0.7260 H     1 <1>   0.0800 
 35 H        4.2100     1.2730    -2.4860 H     1 <1>   0.1500 
 36 H        5.0720     1.7780     1.6410 H     1 <1>   0.1500 
 37 H       -4.4960    -1.7280     1.6600 H     1 <1>   0.0800 
 38 H       -4.0450    -2.3400     0.0990 H     1 <1>   0.0800 
 39 H       -4.8800    -0.9220    -2.0130 H     1 <1>   0.0800 
 40 H       -5.2670     0.7440    -1.6880 H     1 <1>   0.0800 
 41 H        7.4710     1.4560     1.0590 H     1 <1>   0.1500 
 42 H       -6.9210    -2.0560     1.0450 H     1 <1>   0.0800 
 43 H       -5.9660    -3.4950     1.1810 H     1 <1>   0.0800 
 44 H       -7.3300    -0.0050    -2.3000 H     1 <1>   0.0800 
 45 H       -7.4280    -0.1500    -0.5830 H     1 <1>   0.0800 
 46 H        8.0970     1.0320    -1.2630 H     1 <1>   0.1500 
 47 H       -7.0660    -3.9540    -0.7710 H     1 <1>   0.0800 
 48 H       -5.5940    -3.2900    -1.3790 H     1 <1>   0.0800 
 49 H       -7.2350    -2.2800    -2.6730 H     1 <1>   0.0800 
 50 H       -8.3500    -2.1320    -1.3610 H     1 <1>   0.0800 
@<TRIPOS>BOND
  1   1   2  1   
  2   1   3  1   
  3   2   4  2   
  4   2   5  1   
  5   3   6  1   
  6   3  26  1   
  7   3  27  1   
  8   4   7  1   
  9   5   8  1   
 10   5   9  1   
 11   6  10  2   
 12   6  11  am  
 13   7   8  2   
 14   8  12  1   
 15   9  13  1   
 16   9  28  1   
 17   9  29  1   
 18  11  14  1   
 19  11  30  1   
 20  12  15  ar  
 21  12  16  ar  
 22  13  31  1   
 23  13  32  1   
 24  13  33  1   
 25  14  17  1   
 26  14  18  1   
 27  14  34  1   
 28  15  19  ar  
 29  15  35  1   
 30  16  20  ar  
 31  16  36  1   
 32  17  21  1   
 33  17  37  1   
 34  17  38  1   
 35  18  22  1   
 36  18  39  1   
 37  18  40  1   
 38  19  23  ar  
 39  20  23  ar  
 40  20  41  1   
 41  21  24  1   
 42  21  42  1   
 43  21  43  1   
 44  22  25  1   
 45  22  44  1   
 46  22  45  1   
 47  23  46  1   
 48  24  25  1   
 49  24  47  1   
 50  24  48  1   
 51  25  49  1   
 52  25  50  1   
@<TRIPOS>SUBSTRUCTURE
  1 ****   1 GROUP 4 **** **** 0

# MOE 2024.06 (io_trps.svl 2023.06)
