@<TRIPOS>MOLECULE
NONAME
33 33 1 0 0 
SMALL
USER_CHARGES


@<TRIPOS>ATOM
  1 S       -0.0610    -0.3010    -1.1070 S.o2  1 <1>   1.2040 
  2 O       -0.3740     0.8670    -1.9010 O.2   1 <1>  -0.6500 
  3 O        0.8400    -1.3000    -1.6390 O.2   1 <1>  -0.6500 
  4 C       -1.5800    -1.0810    -0.5160 C.ar  1 <1>  -0.0090 
  5 C        0.6700     0.2920     0.4140 C.3   1 <1>  -0.0550 
  6 C       -2.7520    -0.3500    -0.3700 C.ar  1 <1>  -0.1500 
  7 C       -1.6050    -2.4220    -0.1580 C.ar  1 <1>  -0.1500 
  8 C        2.0090     1.0130     0.1750 C.3   1 <1>  -0.0990 
  9 C       -3.9160    -0.9230     0.1180 C.ar  1 <1>  -0.1430 
 10 C       -2.7590    -3.0080     0.3300 C.ar  1 <1>  -0.1500 
 11 C        2.6400     1.5230     1.4620 C.2   1 <1>   0.6590 
 12 C       -3.9190    -2.2660     0.4730 C.ar  1 <1>  -0.1440 
 13 C       -5.1650    -0.0630     0.2490 C.3   1 <1>  -0.0970 
 14 O        2.0980     1.3500     2.5190 O.2   1 <1>  -0.5700 
 15 O        3.8020     2.1650     1.4030 O.3   1 <1>  -0.4300 
 16 C       -5.1700    -2.9450     1.0140 C.3   1 <1>  -0.0970 
 17 C        4.5380     2.4320     0.2270 C.3   1 <1>   0.0400 
 18 H        0.8340    -0.5350     1.0790 H     1 <1>   0.0800 
 19 H       -0.0090     0.9700     0.8970 H     1 <1>   0.0800 
 20 H       -2.7490     0.6900    -0.6510 H     1 <1>   0.1500 
 21 H       -0.7150    -3.0190    -0.2660 H     1 <1>   0.1500 
 22 H        1.8440     1.8470    -0.4830 H     1 <1>   0.0800 
 23 H        2.6920     0.3320    -0.2990 H     1 <1>   0.0800 
 24 H       -2.7450    -4.0510     0.5960 H     1 <1>   0.1500 
 25 H       -4.9760     0.9470    -0.0690 H     1 <1>   0.0800 
 26 H       -5.4910    -0.0380     1.2730 H     1 <1>   0.0800 
 27 H       -5.9540    -0.4650    -0.3610 H     1 <1>   0.0800 
 28 H       -5.4900    -2.4600     1.9190 H     1 <1>   0.0800 
 29 H       -4.9830    -3.9800     1.2350 H     1 <1>   0.0800 
 30 H       -5.9610    -2.8920     0.2880 H     1 <1>   0.0800 
 31 H        5.4300     2.9640     0.5060 H     1 <1>   0.0800 
 32 H        3.9450     3.0400    -0.4320 H     1 <1>   0.0800 
 33 H        4.8050     1.5010    -0.2440 H     1 <1>   0.0800 
@<TRIPOS>BOND
  1   1   2  2   
  2   1   3  2   
  3   1   4  1   
  4   1   5  1   
  5   4   6  ar  
  6   4   7  ar  
  7   5   8  1   
  8   5  18  1   
  9   5  19  1   
 10   6   9  ar  
 11   6  20  1   
 12   7  10  ar  
 13   7  21  1   
 14   8  11  1   
 15   8  22  1   
 16   8  23  1   
 17   9  12  ar  
 18   9  13  1   
 19  10  12  ar  
 20  10  24  1   
 21  11  14  2   
 22  11  15  1   
 23  12  16  1   
 24  13  25  1   
 25  13  26  1   
 26  13  27  1   
 27  15  17  1   
 28  16  28  1   
 29  16  29  1   
 30  16  30  1   
 31  17  31  1   
 32  17  32  1   
 33  17  33  1   
@<TRIPOS>SUBSTRUCTURE
  1 ****   1 GROUP 4 **** **** 0

# MOE 2024.06 (io_trps.svl 2023.06)
