@<TRIPOS>MOLECULE
NONAME
41 42 1 0 0 
SMALL
USER_CHARGES


@<TRIPOS>ATOM
  1 F       -0.5750     0.1510     1.4060 F     1 <1>  -0.1900 
  2 C       -1.2590     1.2390     1.1650 C.ar  1 <1>   0.1900 
  3 C       -2.5010     1.1310     0.5770 C.ar  1 <1>  -0.1500 
  4 C       -0.7040     2.4560     1.5060 C.ar  1 <1>  -0.1500 
  5 C       -3.2350     2.2830     0.3140 C.ar  1 <1>   0.1170 
  6 C       -1.4310     3.6040     1.2450 C.ar  1 <1>  -0.1500 
  7 N       -4.4970     2.2210    -0.2990 N.am  1 <1>  -0.5470 
  8 C       -2.6850     3.5250     0.6550 C.ar  1 <1>  -0.1430 
  9 C       -5.4860     1.2770    -0.2630 C.2   1 <1>   0.5690 
 10 C       -3.4550     4.8160     0.3930 C.3   1 <1>  -0.0960 
 11 O       -5.3400     0.2220     0.3130 O.2   1 <1>  -0.5700 
 12 C       -6.7880     1.5680    -1.0360 C.3   1 <1>  -0.0190 
 13 C       -7.5580     2.8230    -0.5480 C.3   1 <1>  -0.1860 
 14 C       -7.7680     0.3760    -1.0450 C.3   1 <1>  -0.0220 
 15 C       -6.7900     4.1250    -0.7280 C.2   1 <1>   0.9060 
 16 C       -8.0240     2.6230     0.9030 C.3   1 <1>  -0.0220 
 17 C       -8.6020     0.2630     0.2320 C.2   1 <1>  -0.2760 
 18 O       -7.0250     5.0900     0.0020 O.co2 1 <1>  -0.9000 
 19 O       -5.9070     4.1760    -1.5930 O.co2 1 <1>  -0.9000 
 20 C       -8.6990     1.2680     1.1170 C.2   1 <1>  -0.2760 
 21 C       -9.2620    -1.1070     0.3340 C.3   1 <1>  -0.1020 
 22 C       -9.4510     1.2450     2.4430 C.3   1 <1>  -0.1020 
 23 H       -2.8900     0.1630     0.3260 H     1 <1>   0.1500 
 24 H        0.2680     2.4990     1.9630 H     1 <1>   0.1500 
 25 H       -1.0160     4.5620     1.5050 H     1 <1>   0.1500 
 26 H       -4.7870     3.0890    -0.7910 H     1 <1>   0.3700 
 27 H       -3.5910     4.9590    -0.6650 H     1 <1>   0.0800 
 28 H       -2.9380     5.6710     0.7850 H     1 <1>   0.0800 
 29 H       -4.4260     4.7720     0.8560 H     1 <1>   0.0800 
 30 H       -6.4930     1.7330    -2.0570 H     1 <1>   0.0800 
 31 H       -8.4350     2.9280    -1.1570 H     1 <1>   0.0800 
 32 H       -7.2130    -0.5320    -1.2070 H     1 <1>   0.0800 
 33 H       -8.4430     0.4890    -1.8740 H     1 <1>   0.0800 
 34 H       -8.7110     3.4160     1.1450 H     1 <1>   0.0800 
 35 H       -7.1820     2.7090     1.5690 H     1 <1>   0.0800 
 36 H       -9.8180    -1.3110    -0.5630 H     1 <1>   0.0800 
 37 H       -9.9400    -1.1800     1.1600 H     1 <1>   0.0800 
 38 H       -8.5060    -1.8620     0.4520 H     1 <1>   0.0800 
 39 H      -10.2630     1.9480     2.4130 H     1 <1>   0.0800 
 40 H       -8.7830     1.5250     3.2380 H     1 <1>   0.0800 
 41 H       -9.8480     0.2790     2.6800 H     1 <1>   0.0800 
@<TRIPOS>BOND
  1   1   2  1   
  2   2   3  ar  
  3   2   4  ar  
  4   3   5  ar  
  5   3  23  1   
  6   4   6  ar  
  7   4  24  1   
  8   5   7  1   
  9   5   8  ar  
 10   6   8  ar  
 11   6  25  1   
 12   7   9  am  
 13   7  26  1   
 14   8  10  1   
 15   9  11  2   
 16   9  12  1   
 17  10  27  1   
 18  10  28  1   
 19  10  29  1   
 20  12  13  1   
 21  12  14  1   
 22  12  30  1   
 23  13  15  1   
 24  13  16  1   
 25  13  31  1   
 26  14  17  1   
 27  14  32  1   
 28  14  33  1   
 29  15  18  ar  
 30  15  19  ar  
 31  16  20  1   
 32  16  34  1   
 33  16  35  1   
 34  17  20  2   
 35  17  21  1   
 36  20  22  1   
 37  21  36  1   
 38  21  37  1   
 39  21  38  1   
 40  22  39  1   
 41  22  40  1   
 42  22  41  1   
@<TRIPOS>SUBSTRUCTURE
  1 ****   9 GROUP 4 **** **** 0

# MOE 2024.06 (io_trps.svl 2023.06)
