@<TRIPOS>MOLECULE
NONAME
43 44 1 0 0 
SMALL
USER_CHARGES


@<TRIPOS>ATOM
  1 I        0.7600    -0.8250     1.3340 I     1 <1>  -0.0810 
  2 C       -1.3030    -1.0170     0.8100 C.ar  1 <1>   0.0810 
  3 C       -1.7000    -1.8850    -0.1980 C.ar  1 <1>   0.0830 
  4 C       -2.2100    -0.2450     1.5130 C.ar  1 <1>  -0.1500 
  5 O       -0.8230    -2.6460    -0.8870 O.3   1 <1>  -0.5330 
  6 C       -3.0520    -1.9800    -0.5140 C.ar  1 <1>   0.0830 
  7 C       -3.5600    -0.3380     1.2020 C.ar  1 <1>  -0.1430 
  8 O       -3.3990    -2.8490    -1.5100 O.3   1 <1>  -0.3630 
  9 C       -3.9690    -1.1980     0.1860 C.ar  1 <1>  -0.1500 
 10 C       -4.5830     0.5050     1.9630 C.3   1 <1>   0.5020 
 11 C       -4.7430    -3.1560    -1.8240 C.3   1 <1>   0.1200 
 12 N       -5.5980    -0.4150     2.5130 N.am  1 <1>  -0.7300 
 13 C       -5.1890     1.5710     1.0460 C.2   1 <1>  -0.1240 
 14 C       -5.3120    -4.1110    -0.7730 C.3   1 <1>  -0.2400 
 15 C       -6.8550    -0.4900     2.0510 C.2   1 <1>   0.6900 
 16 C       -6.5070     1.4930     0.7090 C.2   1 <1>  -0.0290 
 17 C       -4.2130     2.5370     0.6480 C.2   1 <1>   0.7060 
 18 O       -7.5820    -1.3980     2.3790 O.2   1 <1>  -0.5700 
 19 N       -7.2870     0.4590     1.1840 N.am  1 <1>  -0.5390 
 20 C       -7.2710     2.4740    -0.1670 C.3   1 <1>  -0.1020 
 21 O       -3.2470     2.8180     1.3320 O.2   1 <1>  -0.5700 
 22 O       -4.3510     3.1420    -0.5350 O.3   1 <1>  -0.4300 
 23 C       -3.3940     4.0630    -1.0100 C.3   1 <1>   0.1200 
 24 C       -3.8500     4.5520    -2.3800 C.3   1 <1>  -0.2400 
 25 H       -1.8610     0.4210     2.2830 H     1 <1>   0.1500 
 26 H       -1.3090    -3.1810    -1.5450 H     1 <1>   0.4500 
 27 H       -5.0160    -1.2490    -0.0460 H     1 <1>   0.1500 
 28 H       -4.1030     0.9920     2.7960 H     1 <1>   0.0800 
 29 H       -4.7400    -3.6370    -2.7870 H     1 <1>   0.0800 
 30 H       -5.3100    -2.2460    -1.9040 H     1 <1>   0.0800 
 31 H       -5.2520    -1.2130     3.0400 H     1 <1>   0.3700 
 32 H       -4.7170    -5.0050    -0.7260 H     1 <1>   0.0800 
 33 H       -6.3170    -4.3840    -1.0400 H     1 <1>   0.0800 
 34 H       -5.3380    -3.6490     0.1970 H     1 <1>   0.0800 
 35 H       -8.2690     0.3600     0.9260 H     1 <1>   0.3700 
 36 H       -8.2400     2.6710     0.2560 H     1 <1>   0.0800 
 37 H       -7.4000     2.0620    -1.1510 H     1 <1>   0.0800 
 38 H       -6.7650     3.4170    -0.2520 H     1 <1>   0.0800 
 39 H       -2.4420     3.5620    -1.0760 H     1 <1>   0.0800 
 40 H       -3.3270     4.8790    -0.3100 H     1 <1>   0.0800 
 41 H       -3.9230     3.7250    -3.0640 H     1 <1>   0.0800 
 42 H       -3.1370     5.2550    -2.7700 H     1 <1>   0.0800 
 43 H       -4.8050     5.0410    -2.3020 H     1 <1>   0.0800 
@<TRIPOS>BOND
  1   1   2  1   
  2   2   3  ar  
  3   2   4  ar  
  4   3   5  1   
  5   3   6  ar  
  6   4   7  ar  
  7   4  25  1   
  8   5  26  1   
  9   6   8  1   
 10   6   9  ar  
 11   7   9  ar  
 12   7  10  1   
 13   8  11  1   
 14   9  27  1   
 15  10  12  1   
 16  10  13  1   
 17  10  28  1   
 18  11  14  1   
 19  11  29  1   
 20  11  30  1   
 21  12  15  am  
 22  12  31  1   
 23  13  16  2   
 24  13  17  1   
 25  14  32  1   
 26  14  33  1   
 27  14  34  1   
 28  15  18  2   
 29  15  19  am  
 30  16  19  1   
 31  16  20  1   
 32  17  21  2   
 33  17  22  1   
 34  19  35  1   
 35  20  36  1   
 36  20  37  1   
 37  20  38  1   
 38  22  23  1   
 39  23  24  1   
 40  23  39  1   
 41  23  40  1   
 42  24  41  1   
 43  24  42  1   
 44  24  43  1   
@<TRIPOS>SUBSTRUCTURE
  1 ****   7 GROUP 4 **** **** 0

# MOE 2024.06 (io_trps.svl 2023.06)
