@<TRIPOS>MOLECULE
NONAME
44 46 1 0 0 
SMALL
USER_CHARGES


@<TRIPOS>ATOM
  1 S       -0.2190    -0.4900     1.2790 S.3   1 <1>  -0.2860 
  2 C       -0.5510     0.9220     0.2080 C.2   1 <1>   0.2420 
  3 C        1.2600     0.0010     2.2990 C.3   1 <1>   0.1310 
  4 N        0.1470     1.9900     0.2100 N.2   1 <1>  -0.3380 
  5 N       -1.5470     0.9730    -0.6730 N.pl3 1 <1>   0.5930 
  6 C        2.4030    -0.9890     2.1060 C.2   1 <1>   0.5690 
  7 N       -0.4250     2.7600    -0.7090 N.2   1 <1>   0.0000 
  8 N       -1.4360     2.1710    -1.2430 N.2   1 <1>  -0.4180 
  9 C       -2.5630     0.0280    -0.9990 C.ar  1 <1>  -0.0230 
 10 O        2.3860    -1.9510     2.8370 O.2   1 <1>  -0.5700 
 11 N        3.3920    -0.7700     1.1650 N.am  1 <1>  -0.6600 
 12 C       -2.2570    -1.3080    -1.2520 C.ar  1 <1>  -0.1500 
 13 C       -3.8930     0.4310    -1.0810 C.ar  1 <1>  -0.1500 
 14 C        4.6210    -1.6100     1.0090 C.3   1 <1>   0.2200 
 15 C        3.1480     0.0970    -0.0310 C.3   1 <1>   0.2200 
 16 C       -3.2540    -2.2130    -1.5680 C.ar  1 <1>  -0.1500 
 17 C       -4.8910    -0.4740    -1.3990 C.ar  1 <1>  -0.1500 
 18 C        4.3530    -2.6640    -0.0780 C.3   1 <1>  -0.1600 
 19 C        5.1830    -2.2160     2.2970 C.3   1 <1>  -0.2400 
 20 C        3.6490    -0.5690    -1.3330 C.3   1 <1>  -0.1600 
 21 C        3.7990     1.4630     0.1820 C.3   1 <1>  -0.2400 
 22 C       -4.5720    -1.7980    -1.6410 C.ar  1 <1>  -0.1500 
 23 C        3.5450    -2.1020    -1.2670 C.3   1 <1>  -0.1600 
 24 H        0.9410    -0.0140     3.3240 H     1 <1>   0.0800 
 25 H        1.5550     0.9970     2.0390 H     1 <1>   0.0800 
 26 H       -1.2370    -1.6520    -1.2050 H     1 <1>   0.1500 
 27 H       -4.1540     1.4610    -0.8990 H     1 <1>   0.1500 
 28 H        5.3950    -0.9570     0.6430 H     1 <1>   0.0800 
 29 H        2.0910     0.2350    -0.1500 H     1 <1>   0.0800 
 30 H       -3.0060    -3.2440    -1.7580 H     1 <1>   0.1500 
 31 H       -5.9160    -0.1490    -1.4590 H     1 <1>   0.1500 
 32 H        3.8200    -3.4940     0.3510 H     1 <1>   0.0800 
 33 H        5.3000    -3.0350    -0.4280 H     1 <1>   0.0800 
 34 H        4.5790    -3.0370     2.6390 H     1 <1>   0.0800 
 35 H        5.2390    -1.4670     3.0650 H     1 <1>   0.0800 
 36 H        6.1720    -2.5930     2.1150 H     1 <1>   0.0800 
 37 H        4.6730    -0.2960    -1.5170 H     1 <1>   0.0800 
 38 H        3.0710    -0.1970    -2.1610 H     1 <1>   0.0800 
 39 H        4.8650     1.3670     0.2810 H     1 <1>   0.0800 
 40 H        3.4070     1.9340     1.0640 H     1 <1>   0.0800 
 41 H        3.5880     2.1000    -0.6580 H     1 <1>   0.0800 
 42 H       -5.3470    -2.5030    -1.8880 H     1 <1>   0.1500 
 43 H        2.5090    -2.3680    -1.1360 H     1 <1>   0.0800 
 44 H        3.8850    -2.5440    -2.1870 H     1 <1>   0.0800 
@<TRIPOS>BOND
  1   1   2  1   
  2   1   3  1   
  3   2   4  2   
  4   2   5  1   
  5   3   6  1   
  6   3  24  1   
  7   3  25  1   
  8   4   7  1   
  9   5   8  1   
 10   5   9  1   
 11   6  10  2   
 12   6  11  am  
 13   7   8  2   
 14   9  12  ar  
 15   9  13  ar  
 16  11  14  1   
 17  11  15  1   
 18  12  16  ar  
 19  12  26  1   
 20  13  17  ar  
 21  13  27  1   
 22  14  18  1   
 23  14  19  1   
 24  14  28  1   
 25  15  20  1   
 26  15  21  1   
 27  15  29  1   
 28  16  22  ar  
 29  16  30  1   
 30  17  22  ar  
 31  17  31  1   
 32  18  23  1   
 33  18  32  1   
 34  18  33  1   
 35  19  34  1   
 36  19  35  1   
 37  19  36  1   
 38  20  23  1   
 39  20  37  1   
 40  20  38  1   
 41  21  39  1   
 42  21  40  1   
 43  21  41  1   
 44  22  42  1   
 45  23  43  1   
 46  23  44  1   
@<TRIPOS>SUBSTRUCTURE
  1 ****   1 GROUP 4 **** **** 0

# MOE 2024.06 (io_trps.svl 2023.06)
