@<TRIPOS>MOLECULE
NONAME
40 41 1 0 0 
SMALL
USER_CHARGES


@<TRIPOS>ATOM
  1 O        0.5110     0.5990    -0.9800 O.2   1 <1>  -0.5700 
  2 C        0.7570     1.3360    -0.0440 C.2   1 <1>   0.6900 
  3 N        2.0250     1.4550     0.4550 N.am  1 <1>  -0.6600 
  4 N       -0.2070     2.0940     0.5530 N.am  1 <1>  -0.5470 
  5 C        2.9580     0.3040     0.5990 C.3   1 <1>   0.2200 
  6 C        2.7300     2.7480     0.2640 C.3   1 <1>   0.1400 
  7 C       -1.5590     2.3100     0.2540 C.ar  1 <1>   0.1170 
  8 C        3.8040     0.1740    -0.6740 C.3   1 <1>  -0.1600 
  9 C        2.2400    -1.0000     0.9580 C.3   1 <1>  -0.2400 
 10 C        3.5950     2.6740    -1.0020 C.3   1 <1>  -0.1600 
 11 C       -2.3940     2.7970     1.2530 C.ar  1 <1>  -0.1500 
 12 C       -2.1070     2.0790    -1.0030 C.ar  1 <1>  -0.1500 
 13 C        4.5610     1.4790    -0.9700 C.3   1 <1>  -0.1600 
 14 C       -3.7330     3.0420     1.0080 C.ar  1 <1>  -0.1500 
 15 C       -3.4460     2.3220    -1.2520 C.ar  1 <1>  -0.1500 
 16 C       -4.2690     2.8070    -0.2480 C.ar  1 <1>  -0.1440 
 17 C       -5.7400     3.0730    -0.5220 C.3   1 <1>  -0.0170 
 18 C       -6.5760     1.8270    -0.2240 C.3   1 <1>  -0.2400 
 19 H        0.1230     2.4950     1.4230 H     1 <1>   0.3700 
 20 H        3.6220     0.5300     1.4170 H     1 <1>   0.0800 
 21 H        3.3470     2.9470     1.1230 H     1 <1>   0.0800 
 22 H        2.0180     3.5500     0.1650 H     1 <1>   0.0800 
 23 H        3.1590    -0.0690    -1.5010 H     1 <1>   0.0800 
 24 H        4.5090    -0.6300    -0.5590 H     1 <1>   0.0800 
 25 H        1.6520    -1.3590     0.1330 H     1 <1>   0.0800 
 26 H        1.6050    -0.8520     1.8110 H     1 <1>   0.0800 
 27 H        2.9640    -1.7570     1.2000 H     1 <1>   0.0800 
 28 H        4.1510     3.5880    -1.1090 H     1 <1>   0.0800 
 29 H        2.9450     2.5850    -1.8560 H     1 <1>   0.0800 
 30 H       -1.9970     2.9820     2.2330 H     1 <1>   0.1500 
 31 H       -1.4870     1.7070    -1.7980 H     1 <1>   0.1500 
 32 H        5.0690     1.3970    -1.9160 H     1 <1>   0.0800 
 33 H        5.3020     1.6410    -0.2070 H     1 <1>   0.0800 
 34 H       -4.3600     3.4150     1.7980 H     1 <1>   0.1500 
 35 H       -3.8440     2.1290    -2.2320 H     1 <1>   0.1500 
 36 H       -5.8710     3.3590    -1.5510 H     1 <1>   0.0800 
 37 H       -6.0800     3.8910     0.0890 H     1 <1>   0.0800 
 38 H       -6.2520     1.0080    -0.8420 H     1 <1>   0.0800 
 39 H       -7.6150     2.0200    -0.4200 H     1 <1>   0.0800 
 40 H       -6.4640     1.5440     0.8080 H     1 <1>   0.0800 
@<TRIPOS>BOND
  1   1   2  2   
  2   2   3  am  
  3   2   4  am  
  4   3   5  1   
  5   3   6  1   
  6   4   7  1   
  7   4  19  1   
  8   5   8  1   
  9   5   9  1   
 10   5  20  1   
 11   6  10  1   
 12   6  21  1   
 13   6  22  1   
 14   7  11  ar  
 15   7  12  ar  
 16   8  13  1   
 17   8  23  1   
 18   8  24  1   
 19   9  25  1   
 20   9  26  1   
 21   9  27  1   
 22  10  13  1   
 23  10  28  1   
 24  10  29  1   
 25  11  14  ar  
 26  11  30  1   
 27  12  15  ar  
 28  12  31  1   
 29  13  32  1   
 30  13  33  1   
 31  14  16  ar  
 32  14  34  1   
 33  15  16  ar  
 34  15  35  1   
 35  16  17  1   
 36  17  18  1   
 37  17  36  1   
 38  17  37  1   
 39  18  38  1   
 40  18  39  1   
 41  18  40  1   
@<TRIPOS>SUBSTRUCTURE
  1 ****   4 GROUP 4 **** **** 0

# MOE 2024.06 (io_trps.svl 2023.06)
