@<TRIPOS>MOLECULE
NONAME
50 53 1 0 0 
SMALL
USER_CHARGES


@<TRIPOS>ATOM
  1 O        0.5450     2.2830    -2.2170 O.2   1 <1>  -0.5700 
  2 C        1.1100     2.6570    -1.2250 C.2   1 <1>   0.6590 
  3 O        2.3770     3.0290    -1.3460 O.3   1 <1>  -0.4300 
  4 C        0.3990     2.7520     0.1430 C.3   1 <1>   0.1220 
  5 C        3.1390     3.6540    -0.3440 C.3   1 <1>   0.3440 
  6 C        1.1000     3.8080     1.0190 C.2   1 <1>   0.4480 
  7 C        0.4560     1.3700     0.8530 C.3   1 <1>  -0.1600 
  8 C       -1.0920     3.1910    -0.0010 C.3   1 <1>  -0.1600 
  9 C        3.9020     2.5430     0.4000 C.ar  1 <1>  -0.1440 
 10 C        2.2370     4.6490     0.4260 C.3   1 <1>   0.0610 
 11 O        0.7600     3.9720     2.1560 O.2   1 <1>  -0.5700 
 12 C       -0.4600     0.3130     0.2180 C.3   1 <1>  -0.1600 
 13 C       -2.0410     2.1180    -0.5670 C.3   1 <1>  -0.1600 
 14 C        4.8660     1.8630    -0.3350 C.ar  1 <1>  -0.1500 
 15 C        3.7070     2.1640     1.7260 C.ar  1 <1>  -0.1500 
 16 C        1.6210     5.7300    -0.5130 C.3   1 <1>  -0.1600 
 17 C        3.0420     5.4200     1.5160 C.3   1 <1>  -0.1600 
 18 C       -1.9130     0.7960     0.1950 C.3   1 <1>  -0.1600 
 19 C        5.6160     0.8460     0.2290 C.ar  1 <1>  -0.1500 
 20 C        4.4550     1.1470     2.2930 C.ar  1 <1>  -0.1500 
 21 C        2.6570     6.6930    -1.1150 C.3   1 <1>  -0.1600 
 22 C        4.1090     6.3640     0.9380 C.3   1 <1>  -0.1600 
 23 C        5.4110     0.4860     1.5460 C.ar  1 <1>  -0.1500 
 24 C        3.4810     7.3810    -0.0210 C.3   1 <1>  -0.1600 
 25 H        3.8820     4.2250    -0.8680 H     1 <1>   0.0800 
 26 H        0.1650     1.4840     1.8830 H     1 <1>   0.0800 
 27 H        1.4630     0.9940     0.8430 H     1 <1>   0.0800 
 28 H       -1.1510     4.0700    -0.6180 H     1 <1>   0.0800 
 29 H       -1.4670     3.4610     0.9710 H     1 <1>   0.0800 
 30 H       -0.3980    -0.6010     0.7830 H     1 <1>   0.0800 
 31 H       -0.1370     0.0970    -0.7870 H     1 <1>   0.0800 
 32 H       -1.8350     1.9480    -1.6090 H     1 <1>   0.0800 
 33 H       -3.0560     2.4710    -0.4990 H     1 <1>   0.0800 
 34 H        5.0380     2.1220    -1.3660 H     1 <1>   0.1500 
 35 H        2.9760     2.6360     2.3560 H     1 <1>   0.1500 
 36 H        0.9160     6.3130     0.0570 H     1 <1>   0.0800 
 37 H        1.0680     5.2870    -1.3220 H     1 <1>   0.0800 
 38 H        3.5200     4.7490     2.2030 H     1 <1>   0.0800 
 39 H        2.3560     6.0130     2.0990 H     1 <1>   0.0800 
 40 H       -2.2620     0.9290     1.2050 H     1 <1>   0.0800 
 41 H       -2.5330     0.0510    -0.2730 H     1 <1>   0.0800 
 42 H        6.3570     0.3330    -0.3600 H     1 <1>   0.1500 
 43 H        4.2910     0.8690     3.3200 H     1 <1>   0.1500 
 44 H        2.1490     7.4450    -1.6950 H     1 <1>   0.0800 
 45 H        3.3130     6.1650    -1.7850 H     1 <1>   0.0800 
 46 H        4.8700     5.8000     0.4280 H     1 <1>   0.0800 
 47 H        4.5890     6.8920     1.7450 H     1 <1>   0.0800 
 48 H        5.9930    -0.3040     1.9880 H     1 <1>   0.1500 
 49 H        2.8400     8.0410     0.5390 H     1 <1>   0.0800 
 50 H        4.2540     7.9800    -0.4710 H     1 <1>   0.0800 
@<TRIPOS>BOND
  1   1   2  2   
  2   2   3  1   
  3   2   4  1   
  4   3   5  1   
  5   4   6  1   
  6   4   7  1   
  7   4   8  1   
  8   5   9  1   
  9   5  10  1   
 10   5  25  1   
 11   6  10  1   
 12   6  11  2   
 13   7  12  1   
 14   7  26  1   
 15   7  27  1   
 16   8  13  1   
 17   8  28  1   
 18   8  29  1   
 19   9  14  ar  
 20   9  15  ar  
 21  10  16  1   
 22  10  17  1   
 23  12  18  1   
 24  12  30  1   
 25  12  31  1   
 26  13  18  1   
 27  13  32  1   
 28  13  33  1   
 29  14  19  ar  
 30  14  34  1   
 31  15  20  ar  
 32  15  35  1   
 33  16  21  1   
 34  16  36  1   
 35  16  37  1   
 36  17  22  1   
 37  17  38  1   
 38  17  39  1   
 39  18  40  1   
 40  18  41  1   
 41  19  23  ar  
 42  19  42  1   
 43  20  23  ar  
 44  20  43  1   
 45  21  24  1   
 46  21  44  1   
 47  21  45  1   
 48  22  24  1   
 49  22  46  1   
 50  22  47  1   
 51  23  48  1   
 52  24  49  1   
 53  24  50  1   
@<TRIPOS>SUBSTRUCTURE
  1 ****   5 GROUP 4 **** **** 0

# MOE 2024.06 (io_trps.svl 2023.06)
