@<TRIPOS>MOLECULE
NONAME
51 53 1 0 0 
SMALL
USER_CHARGES


@<TRIPOS>ATOM
  1 S        0.0920    -0.8180     1.3030 S.o2  1 <1>   1.4470 
  2 O       -0.7460    -1.7870     0.6360 O.2   1 <1>  -0.6500 
  3 O        0.9290    -1.2180     2.4130 O.2   1 <1>  -0.6500 
  4 N       -0.9470     0.4390     1.9100 N.am  1 <1>  -0.6930 
  5 C        1.0860     0.0940     0.0910 C.ar  1 <1>  -0.0090 
  6 C       -1.9140     1.0160     1.1010 C.ar  1 <1>   0.1990 
  7 C       -0.5150     1.1290     3.1490 C.3   1 <1>   0.1160 
  8 C        0.5510     0.4630    -1.1380 C.ar  1 <1>  -0.1500 
  9 C        2.3960     0.4740     0.3670 C.ar  1 <1>  -0.1500 
 10 C       -3.0010     0.2750     0.6500 C.ar  1 <1>  -0.1500 
 11 C       -1.8180     2.3450     0.7000 C.ar  1 <1>  -0.1500 
 12 C        1.2910     1.1880    -2.0550 C.ar  1 <1>  -0.1500 
 13 C        3.1460     1.1970    -0.5440 C.ar  1 <1>  -0.1500 
 14 C       -3.9560     0.8420    -0.1710 C.ar  1 <1>  -0.1500 
 15 C       -2.7750     2.9100    -0.1190 C.ar  1 <1>  -0.1500 
 16 C        2.5920     1.5610    -1.7670 C.ar  1 <1>   0.0830 
 17 C       -3.8730     2.1770    -0.5710 C.ar  1 <1>   0.0860 
 18 O        3.2510     2.2700    -2.7150 O.3   1 <1>  -0.3630 
 19 C       -4.8700     2.7810    -1.4310 C.2   1 <1>   0.5440 
 20 C        4.5900     2.6740    -2.5360 C.3   1 <1>   0.0400 
 21 O       -4.5020     3.3880    -2.4200 O.2   1 <1>  -0.5700 
 22 N       -6.2230     2.6930    -1.1630 N.am  1 <1>  -0.6600 
 23 C       -7.2450     3.0750    -2.1790 C.3   1 <1>   0.1400 
 24 C       -6.7840     2.3880     0.1830 C.3   1 <1>   0.1400 
 25 C       -8.0450     4.2840    -1.6840 C.3   1 <1>  -0.1600 
 26 C       -7.5880     3.5890     0.6950 C.3   1 <1>  -0.1600 
 27 C       -8.6690     4.0210    -0.3060 C.3   1 <1>  -0.1600 
 28 H       -0.4210     0.4120     3.9470 H     1 <1>   0.0800 
 29 H       -1.2400     1.8700     3.4360 H     1 <1>   0.0800 
 30 H        0.4380     1.6040     2.9910 H     1 <1>   0.0800 
 31 H       -0.4610     0.1820    -1.3820 H     1 <1>   0.1500 
 32 H        2.8370     0.1990     1.3110 H     1 <1>   0.1500 
 33 H       -3.0900    -0.7550     0.9470 H     1 <1>   0.1500 
 34 H       -0.9790     2.9340     1.0230 H     1 <1>   0.1500 
 35 H        0.8630     1.4690    -3.0010 H     1 <1>   0.1500 
 36 H        4.1530     1.4670    -0.2870 H     1 <1>   0.1500 
 37 H       -4.7810     0.2460    -0.5190 H     1 <1>   0.1500 
 38 H       -2.6820     3.9370    -0.4310 H     1 <1>   0.1500 
 39 H        4.8980     3.2070    -3.4170 H     1 <1>   0.0800 
 40 H        5.2040     1.8010    -2.4040 H     1 <1>   0.0800 
 41 H        4.6480     3.3210    -1.6790 H     1 <1>   0.0800 
 42 H       -7.9060     2.2400    -2.3380 H     1 <1>   0.0800 
 43 H       -6.7790     3.3100    -3.1210 H     1 <1>   0.0800 
 44 H       -6.0010     2.1690     0.8870 H     1 <1>   0.0800 
 45 H       -7.4230     1.5250     0.1090 H     1 <1>   0.0800 
 46 H       -8.8180     4.5140    -2.3950 H     1 <1>   0.0800 
 47 H       -7.3850     5.1330    -1.6310 H     1 <1>   0.0800 
 48 H       -6.9130     4.4080     0.8720 H     1 <1>   0.0800 
 49 H       -8.0470     3.3350     1.6340 H     1 <1>   0.0800 
 50 H       -9.4100     3.2450    -0.3910 H     1 <1>   0.0800 
 51 H       -9.1580     4.9120     0.0480 H     1 <1>   0.0800 
@<TRIPOS>BOND
  1   1   2  2   
  2   1   3  2   
  3   1   4  am  
  4   1   5  1   
  5   4   6  1   
  6   4   7  1   
  7   5   8  ar  
  8   5   9  ar  
  9   6  10  ar  
 10   6  11  ar  
 11   7  28  1   
 12   7  29  1   
 13   7  30  1   
 14   8  12  ar  
 15   8  31  1   
 16   9  13  ar  
 17   9  32  1   
 18  10  14  ar  
 19  10  33  1   
 20  11  15  ar  
 21  11  34  1   
 22  12  16  ar  
 23  12  35  1   
 24  13  16  ar  
 25  13  36  1   
 26  14  17  ar  
 27  14  37  1   
 28  15  17  ar  
 29  15  38  1   
 30  16  18  1   
 31  17  19  1   
 32  18  20  1   
 33  19  21  2   
 34  19  22  am  
 35  20  39  1   
 36  20  40  1   
 37  20  41  1   
 38  22  23  1   
 39  22  24  1   
 40  23  25  1   
 41  23  42  1   
 42  23  43  1   
 43  24  26  1   
 44  24  44  1   
 45  24  45  1   
 46  25  27  1   
 47  25  46  1   
 48  25  47  1   
 49  26  27  1   
 50  26  48  1   
 51  26  49  1   
 52  27  50  1   
 53  27  51  1   
@<TRIPOS>SUBSTRUCTURE
  1 ****  11 GROUP 4 **** **** 0

# MOE 2024.06 (io_trps.svl 2023.06)
