@<TRIPOS>MOLECULE
NONAME
40 42 1 0 0 
SMALL
USER_CHARGES


@<TRIPOS>ATOM
  1 O       -0.2610    -0.0530     0.2020 O.2   1 <1>  -0.5700 
  2 C        0.2430    -1.0730     0.6110 C.2   1 <1>   0.5690 
  3 N        1.1300    -1.0500     1.6460 N.am  1 <1>  -0.7300 
  4 C       -0.1010    -2.4300    -0.0430 C.3   1 <1>   0.0610 
  5 C        1.5640     0.1630     2.3820 C.3   1 <1>   0.0600 
  6 C       -0.5380    -3.4600     1.0300 C.3   1 <1>  -0.1600 
  7 C       -1.2560    -2.2970    -1.0690 C.3   1 <1>  -0.1600 
  8 C        1.1370    -2.9910    -0.7850 C.3   1 <1>  -0.1600 
  9 C       -0.8610    -4.8430     0.4130 C.3   1 <1>   0.0610 
 10 C       -1.5810    -3.6530    -1.7190 C.3   1 <1>  -0.0800 
 11 C        0.8210    -4.3520    -1.4340 C.3   1 <1>  -0.0800 
 12 C       -1.2280    -5.8380     1.5370 C.2   1 <1>   0.5690 
 13 C       -1.9990    -4.6500    -0.6250 C.3   1 <1>  -0.1600 
 14 C        0.3950    -5.3460    -0.3390 C.3   1 <1>  -0.1600 
 15 C       -0.3290    -4.1810    -2.4400 C.3   1 <1>  -0.1600 
 16 O       -0.4330    -6.0310     2.4270 O.2   1 <1>  -0.5700 
 17 N       -2.4290    -6.4820     1.5200 N.am  1 <1>  -0.7300 
 18 C       -2.8990    -7.4550     2.5380 C.3   1 <1>   0.0600 
 19 H        1.5220    -1.9350     1.9720 H     1 <1>   0.3700 
 20 H        1.0930     1.0410     1.9700 H     1 <1>   0.0800 
 21 H        2.6310     0.2740     2.3040 H     1 <1>   0.0800 
 22 H        1.2890     0.0780     3.4190 H     1 <1>   0.0800 
 23 H        0.2450    -3.5830     1.7570 H     1 <1>   0.0800 
 24 H       -1.4020    -3.0880     1.5530 H     1 <1>   0.0800 
 25 H       -0.9800    -1.5910    -1.8340 H     1 <1>   0.0800 
 26 H       -2.1320    -1.9080    -0.5790 H     1 <1>   0.0800 
 27 H        1.9570    -3.1060    -0.0990 H     1 <1>   0.0800 
 28 H        1.4460    -2.2920    -1.5430 H     1 <1>   0.0800 
 29 H       -2.3830    -3.5310    -2.4280 H     1 <1>   0.0800 
 30 H        1.6950    -4.7230    -1.9420 H     1 <1>   0.0800 
 31 H       -2.8840    -4.2840    -0.1350 H     1 <1>   0.0800 
 32 H       -2.2380    -5.5930    -1.0860 H     1 <1>   0.0800 
 33 H        0.1910    -6.3060    -0.7800 H     1 <1>   0.0800 
 34 H        1.2050    -5.4810     0.3580 H     1 <1>   0.0800 
 35 H       -0.0370    -3.4920    -3.2140 H     1 <1>   0.0800 
 36 H       -0.5470    -5.1250    -2.9090 H     1 <1>   0.0800 
 37 H       -3.0750    -6.2920     0.7520 H     1 <1>   0.3700 
 38 H       -2.1520    -7.5880     3.3030 H     1 <1>   0.0800 
 39 H       -3.0890    -8.4060     2.0720 H     1 <1>   0.0800 
 40 H       -3.8030    -7.0950     2.9960 H     1 <1>   0.0800 
@<TRIPOS>BOND
  1   1   2  2   
  2   2   3  am  
  3   2   4  1   
  4   3   5  1   
  5   3  19  1   
  6   4   6  1   
  7   4   7  1   
  8   4   8  1   
  9   5  20  1   
 10   5  21  1   
 11   5  22  1   
 12   6   9  1   
 13   6  23  1   
 14   6  24  1   
 15   7  10  1   
 16   7  25  1   
 17   7  26  1   
 18   8  11  1   
 19   8  27  1   
 20   8  28  1   
 21   9  12  1   
 22   9  13  1   
 23   9  14  1   
 24  10  13  1   
 25  10  15  1   
 26  10  29  1   
 27  11  14  1   
 28  11  15  1   
 29  11  30  1   
 30  12  16  2   
 31  12  17  am  
 32  13  31  1   
 33  13  32  1   
 34  14  33  1   
 35  14  34  1   
 36  15  35  1   
 37  15  36  1   
 38  17  18  1   
 39  17  37  1   
 40  18  38  1   
 41  18  39  1   
 42  18  40  1   
@<TRIPOS>SUBSTRUCTURE
  1 ****   6 GROUP 4 **** **** 0

# MOE 2024.06 (io_trps.svl 2023.06)
