@<TRIPOS>MOLECULE
NONAME
35 36 1 0 0 
SMALL
USER_CHARGES


@<TRIPOS>ATOM
  1 CL       0.9110     0.5470    -1.2200 Cl    1 <1>  -0.1770 
  2 C        0.6050    -1.1010    -0.7110 C.ar  1 <1>   0.1770 
  3 C        1.6550    -1.8990    -0.2700 C.ar  1 <1>   0.0820 
  4 C       -0.6900    -1.5780    -0.7630 C.ar  1 <1>  -0.1500 
  5 O        2.9030    -1.3590    -0.2510 O.3   1 <1>  -0.3630 
  6 C        1.3780    -3.2060     0.1280 C.ar  1 <1>  -0.1500 
  7 C       -0.9500    -2.8780    -0.3660 C.ar  1 <1>  -0.1500 
  8 C        4.0350    -2.1030     0.1200 C.3   1 <1>   0.1200 
  9 C        0.0800    -3.6930     0.0810 C.ar  1 <1>  -0.1440 
 10 C        5.2400    -1.1670    -0.0080 C.3   1 <1>   0.3430 
 11 C       -0.2220    -5.1180     0.5130 C.3   1 <1>  -0.0960 
 12 N        6.5350    -1.8340     0.3470 N.4   1 <1>  -0.9590 
 13 C        7.6660    -0.8740     0.3670 C.3   1 <1>   0.3430 
 14 C        6.9440    -2.9120    -0.5900 C.3   1 <1>   0.3430 
 15 C        8.9070    -1.7500     0.2670 C.3   1 <1>  -0.1600 
 16 C        8.4410    -3.0670    -0.3590 C.3   1 <1>  -0.1600 
 17 H       -1.4820    -0.9390    -1.1090 H     1 <1>   0.1500 
 18 H        2.1540    -3.8590     0.4760 H     1 <1>   0.1500 
 19 H       -1.9590    -3.2530    -0.4060 H     1 <1>   0.1500 
 20 H        4.1140    -2.9400    -0.5490 H     1 <1>   0.0800 
 21 H        3.9040    -2.4270     1.1380 H     1 <1>   0.0800 
 22 H        5.0810    -0.3240     0.6450 H     1 <1>   0.0800 
 23 H        5.2890    -0.8030    -1.0220 H     1 <1>   0.0800 
 24 H        0.4890    -5.4520     1.2470 H     1 <1>   0.0800 
 25 H       -0.1780    -5.7740    -0.3380 H     1 <1>   0.0800 
 26 H       -1.2040    -5.1790     0.9450 H     1 <1>   0.0800 
 27 H        6.4710    -2.2390     1.2910 H     1 <1>   0.4500 
 28 H        7.6700    -0.2740     1.2640 H     1 <1>   0.0800 
 29 H        7.6130    -0.2280    -0.4960 H     1 <1>   0.0800 
 30 H        6.7680    -2.5980    -1.6070 H     1 <1>   0.0800 
 31 H        6.4140    -3.8320    -0.4010 H     1 <1>   0.0800 
 32 H        9.3130    -1.9230     1.2490 H     1 <1>   0.0800 
 33 H        9.6610    -1.2660    -0.3320 H     1 <1>   0.0800 
 34 H        8.9440    -3.2680    -1.2900 H     1 <1>   0.0800 
 35 H        8.6250    -3.8890     0.3120 H     1 <1>   0.0800 
@<TRIPOS>BOND
  1   1   2  1   
  2   2   3  ar  
  3   2   4  ar  
  4   3   5  1   
  5   3   6  ar  
  6   4   7  ar  
  7   4  17  1   
  8   5   8  1   
  9   6   9  ar  
 10   6  18  1   
 11   7   9  ar  
 12   7  19  1   
 13   8  10  1   
 14   8  20  1   
 15   8  21  1   
 16   9  11  1   
 17  10  12  1   
 18  10  22  1   
 19  10  23  1   
 20  11  24  1   
 21  11  25  1   
 22  11  26  1   
 23  12  13  1   
 24  12  14  1   
 25  12  27  1   
 26  13  15  1   
 27  13  28  1   
 28  13  29  1   
 29  14  16  1   
 30  14  30  1   
 31  14  31  1   
 32  15  16  1   
 33  15  32  1   
 34  15  33  1   
 35  16  34  1   
 36  16  35  1   
@<TRIPOS>SUBSTRUCTURE
  1 ****   8 GROUP 4 **** **** 0

# MOE 2024.06 (io_trps.svl 2023.06)
