@<TRIPOS>MOLECULE
NONAME
39 40 1 0 0 
SMALL
USER_CHARGES


@<TRIPOS>ATOM
  1 CL      -0.1760     0.0640     0.1110 Cl    1 <1>  -0.1770 
  2 C        1.3330    -0.8100     0.0460 C.ar  1 <1>   0.1770 
  3 C        1.3220    -2.1570    -0.2660 C.ar  1 <1>  -0.1500 
  4 C        2.5140    -0.1380     0.3090 C.ar  1 <1>  -0.1500 
  5 C        2.5220    -2.8480    -0.3170 C.ar  1 <1>  -0.1500 
  6 C        3.7160    -0.8270     0.2590 C.ar  1 <1>  -0.1500 
  7 C        3.7080    -2.1800    -0.0560 C.ar  1 <1>   0.1020 
  8 S        5.2200    -3.1550    -0.1450 S.3   1 <1>  -0.3320 
  9 C        6.6240    -2.0090     0.1810 C.3   1 <1>   0.0700 
 10 C        7.9000    -2.8510     0.1000 C.3   1 <1>   0.3430 
 11 N        9.1360    -2.0400     0.3310 N.4   1 <1>  -0.9590 
 12 C        9.4340    -1.0380    -0.7470 C.3   1 <1>   0.3430 
 13 C       10.3470    -2.9130     0.5400 C.3   1 <1>   0.3430 
 14 C       10.6300    -0.1340    -0.3450 C.3   1 <1>   0.2000 
 15 C       11.6750    -2.1070     0.5450 C.3   1 <1>   0.2000 
 16 O       11.4170    -0.7320     0.6540 O.3   1 <1>  -0.5600 
 17 C       10.1600     1.2000     0.2330 C.3   1 <1>  -0.2400 
 18 C       12.5540    -2.3700    -0.6840 C.3   1 <1>  -0.2400 
 19 H        0.3890    -2.6540    -0.4650 H     1 <1>   0.1500 
 20 H        2.4840     0.9100     0.5490 H     1 <1>   0.1500 
 21 H        2.5370    -3.8970    -0.5570 H     1 <1>   0.1500 
 22 H        4.6250    -0.3000     0.4650 H     1 <1>   0.1500 
 23 H        6.4770    -1.5980     1.1630 H     1 <1>   0.0800 
 24 H        6.5860    -1.2480    -0.5780 H     1 <1>   0.0800 
 25 H        7.9500    -3.3230    -0.8680 H     1 <1>   0.0800 
 26 H        7.8360    -3.6280     0.8450 H     1 <1>   0.0800 
 27 H        9.0500    -1.4940     1.2020 H     1 <1>   0.4500 
 28 H        8.5760    -0.4170    -0.9420 H     1 <1>   0.0800 
 29 H        9.6800    -1.5520    -1.6610 H     1 <1>   0.0800 
 30 H       10.4030    -3.6590    -0.2350 H     1 <1>   0.0800 
 31 H       10.2590    -3.4350     1.4790 H     1 <1>   0.0800 
 32 H       11.2540     0.0550    -1.2020 H     1 <1>   0.0800 
 33 H       12.2390    -2.3830     1.4200 H     1 <1>   0.0800 
 34 H        9.5630     1.0490     1.1140 H     1 <1>   0.0800 
 35 H        9.5800     1.7410    -0.4930 H     1 <1>   0.0800 
 36 H       11.0140     1.8020     0.4910 H     1 <1>   0.0800 
 37 H       12.0300    -2.1910    -1.6040 H     1 <1>   0.0800 
 38 H       12.8830    -3.3940    -0.6830 H     1 <1>   0.0800 
 39 H       13.4290    -1.7450    -0.6450 H     1 <1>   0.0800 
@<TRIPOS>BOND
  1   1   2  1   
  2   2   3  ar  
  3   2   4  ar  
  4   3   5  ar  
  5   3  19  1   
  6   4   6  ar  
  7   4  20  1   
  8   5   7  ar  
  9   5  21  1   
 10   6   7  ar  
 11   6  22  1   
 12   7   8  1   
 13   8   9  1   
 14   9  10  1   
 15   9  23  1   
 16   9  24  1   
 17  10  11  1   
 18  10  25  1   
 19  10  26  1   
 20  11  12  1   
 21  11  13  1   
 22  11  27  1   
 23  12  14  1   
 24  12  28  1   
 25  12  29  1   
 26  13  15  1   
 27  13  30  1   
 28  13  31  1   
 29  14  16  1   
 30  14  17  1   
 31  14  32  1   
 32  15  16  1   
 33  15  18  1   
 34  15  33  1   
 35  17  34  1   
 36  17  35  1   
 37  17  36  1   
 38  18  37  1   
 39  18  38  1   
 40  18  39  1   
@<TRIPOS>SUBSTRUCTURE
  1 ****   9 GROUP 4 **** **** 0

# MOE 2024.06 (io_trps.svl 2023.06)
