@<TRIPOS>MOLECULE
NONAME
48 51 1 0 0 
SMALL
USER_CHARGES


@<TRIPOS>ATOM
  1 O       -0.9830    -0.3640     0.9530 O.3   1 <1>  -0.3630 
  2 C       -1.8880    -0.2490    -0.0530 C.ar  1 <1>   0.0820 
  3 C       -1.4390    -0.1070     2.2650 C.3   1 <1>   0.0400 
  4 C       -2.4410     0.9930    -0.3890 C.ar  1 <1>   0.0820 
  5 C       -2.2410    -1.3970    -0.7600 C.ar  1 <1>  -0.1440 
  6 O       -2.0390     2.0990     0.3030 O.3   1 <1>  -0.3620 
  7 C       -3.3690     1.0630    -1.4240 C.ar  1 <1>  -0.1500 
  8 C       -3.1670    -1.2990    -1.7900 C.ar  1 <1>  -0.1500 
  9 C       -1.6400    -2.7680    -0.4330 C.3   1 <1>   0.3190 
 10 C       -2.4750     3.3940    -0.0450 C.3   1 <1>   0.0400 
 11 C       -3.7280    -0.0780    -2.1170 C.ar  1 <1>  -0.1500 
 12 N       -1.8650    -3.1610     0.9790 N.pl3 1 <1>   0.3140 
 13 C       -0.1400    -2.8370    -0.8060 C.3   1 <1>  -0.1600 
 14 N       -3.0010    -3.1560     1.6590 N.2   1 <1>  -0.4180 
 15 C       -0.9550    -3.7790     1.7140 C.2   1 <1>   0.2700 
 16 C        0.5690    -4.0490    -0.1820 C.3   1 <1>   0.4330 
 17 N       -2.7370    -3.7170     2.7840 N.2   1 <1>   0.0000 
 18 N       -1.4650    -4.1190     2.8390 N.2   1 <1>  -0.3380 
 19 N        0.3320    -4.0450     1.2740 N.pl3 1 <1>  -0.8530 
 20 C        2.0670    -4.0210    -0.4570 C.ar  1 <1>  -0.1430 
 21 C        2.6290    -4.9270    -1.3460 C.ar  1 <1>  -0.1500 
 22 C        2.8900    -3.0930     0.1680 C.ar  1 <1>  -0.1500 
 23 C        3.9880    -4.9020    -1.6050 C.ar  1 <1>  -0.1500 
 24 C        4.2490    -3.0650    -0.0900 C.ar  1 <1>  -0.1500 
 25 C        4.8070    -3.9750    -0.9830 C.ar  1 <1>   0.0820 
 26 O        6.1260    -4.0190    -1.2940 O.3   1 <1>  -0.3630 
 27 C        7.0450    -3.1200    -0.7140 C.3   1 <1>   0.0400 
 28 H       -0.7540    -0.5670     2.9540 H     1 <1>   0.0800 
 29 H       -2.4200    -0.5300     2.3890 H     1 <1>   0.0800 
 30 H       -1.4650     0.9550     2.4270 H     1 <1>   0.0800 
 31 H       -3.8230     1.9930    -1.7070 H     1 <1>   0.1500 
 32 H       -3.4640    -2.1700    -2.3470 H     1 <1>   0.1500 
 33 H       -2.1520    -3.5080    -1.0190 H     1 <1>   0.0800 
 34 H       -1.9950     4.0940     0.6140 H     1 <1>   0.0800 
 35 H       -3.5420     3.4480     0.0800 H     1 <1>   0.0800 
 36 H       -2.1920     3.5960    -1.0620 H     1 <1>   0.0800 
 37 H       -4.4480    -0.0150    -2.9150 H     1 <1>   0.1500 
 38 H        0.3600    -1.9440    -0.4780 H     1 <1>   0.0800 
 39 H       -0.0400    -2.8730    -1.8750 H     1 <1>   0.0800 
 40 H        0.1510    -4.9550    -0.5890 H     1 <1>   0.0800 
 41 H        0.8480    -4.7580     1.7980 H     1 <1>   0.4000 
 42 H        2.0180    -5.6600    -1.8440 H     1 <1>   0.1500 
 43 H        2.4680    -2.3860     0.8630 H     1 <1>   0.1500 
 44 H        4.4250    -5.6030    -2.2930 H     1 <1>   0.1500 
 45 H        4.8520    -2.3330     0.4120 H     1 <1>   0.1500 
 46 H        8.0220    -3.3440    -1.1040 H     1 <1>   0.0800 
 47 H        7.0380    -3.2540     0.3530 H     1 <1>   0.0800 
 48 H        6.7670    -2.1160    -0.9800 H     1 <1>   0.0800 
@<TRIPOS>BOND
  1   1   2  1   
  2   1   3  1   
  3   2   4  ar  
  4   2   5  ar  
  5   3  28  1   
  6   3  29  1   
  7   3  30  1   
  8   4   6  1   
  9   4   7  ar  
 10   5   8  ar  
 11   5   9  1   
 12   6  10  1   
 13   7  11  ar  
 14   7  31  1   
 15   8  11  ar  
 16   8  32  1   
 17   9  12  1   
 18   9  13  1   
 19   9  33  1   
 20  10  34  1   
 21  10  35  1   
 22  10  36  1   
 23  11  37  1   
 24  12  14  1   
 25  12  15  1   
 26  13  16  1   
 27  13  38  1   
 28  13  39  1   
 29  14  17  2   
 30  15  18  2   
 31  15  19  1   
 32  16  19  1   
 33  16  20  1   
 34  16  40  1   
 35  17  18  1   
 36  19  41  1   
 37  20  21  ar  
 38  20  22  ar  
 39  21  23  ar  
 40  21  42  1   
 41  22  24  ar  
 42  22  43  1   
 43  23  25  ar  
 44  23  44  1   
 45  24  25  ar  
 46  24  45  1   
 47  25  26  1   
 48  26  27  1   
 49  27  46  1   
 50  27  47  1   
 51  27  48  1   
@<TRIPOS>SUBSTRUCTURE
  1 ****  13 GROUP 4 **** **** 0

# MOE 2024.06 (io_trps.svl 2023.06)
