@<TRIPOS>MOLECULE
NONAME
40 42 1 0 0 
SMALL
USER_CHARGES


@<TRIPOS>ATOM
  1 CL      -2.4390    -0.9620    -2.1420 Cl    1 <1>  -0.1770 
  2 C       -1.3970    -2.0750    -1.2860 C.ar  1 <1>   0.1770 
  3 C       -1.5920    -2.3310     0.0680 C.ar  1 <1>  -0.1440 
  4 C       -0.3790    -2.6810    -1.9970 C.ar  1 <1>  -0.1500 
  5 C       -0.7330    -3.2140     0.7130 C.ar  1 <1>  -0.1500 
  6 C       -2.7180    -1.6570     0.8390 C.3   1 <1>   0.2540 
  7 C        0.4570    -3.5570    -1.3350 C.ar  1 <1>   0.1770 
  8 C        0.2920    -3.8290     0.0110 C.ar  1 <1>  -0.1500 
  9 N       -4.0410    -2.1820     0.4190 N.3   1 <1>  -0.8100 
 10 CL       1.7480    -4.3360    -2.2120 Cl    1 <1>  -0.1770 
 11 C       -5.2070    -1.4440     0.9690 C.3   1 <1>   0.1900 
 12 C       -4.1640    -3.6310     0.6920 C.3   1 <1>   0.1100 
 13 C       -6.5610    -2.0260     0.4440 C.3   1 <1>   0.4230 
 14 C       -5.1180     0.0570     0.6480 C.3   1 <1>  -0.2400 
 15 C       -5.4500    -4.2120     0.0800 C.3   1 <1>   0.3430 
 16 N       -6.6910    -3.5120     0.5660 N.4   1 <1>  -0.9590 
 17 C       -6.8660    -1.7650    -1.0310 C.3   1 <1>  -0.1600 
 18 C       -7.8540    -3.8740    -0.2840 C.3   1 <1>   0.3430 
 19 C       -7.8380    -2.8750    -1.4400 C.3   1 <1>  -0.1600 
 20 H       -0.2400    -2.4740    -3.0420 H     1 <1>   0.1500 
 21 H       -0.8530    -3.4260     1.7620 H     1 <1>   0.1500 
 22 H       -2.6490    -0.6040     0.6350 H     1 <1>   0.0800 
 23 H       -2.5870    -1.7980     1.8980 H     1 <1>   0.0800 
 24 H        0.9630    -4.5130     0.5000 H     1 <1>   0.1500 
 25 H       -5.2050    -1.5480     2.0420 H     1 <1>   0.0800 
 26 H       -4.1450    -3.8140     1.7530 H     1 <1>   0.0800 
 27 H       -3.3350    -4.1580     0.2520 H     1 <1>   0.0800 
 28 H       -7.3530    -1.5710     1.0150 H     1 <1>   0.0800 
 29 H       -4.8880     0.2120    -0.3920 H     1 <1>   0.0800 
 30 H       -4.3680     0.5360     1.2500 H     1 <1>   0.0800 
 31 H       -6.0510     0.5430     0.8690 H     1 <1>   0.0800 
 32 H       -5.5100    -5.2640     0.3070 H     1 <1>   0.0800 
 33 H       -5.3760    -4.1100    -0.9900 H     1 <1>   0.0800 
 34 H       -6.8560    -3.7610     1.5470 H     1 <1>   0.4500 
 35 H       -5.9590    -1.8310    -1.6100 H     1 <1>   0.0800 
 36 H       -7.2890    -0.7860    -1.1740 H     1 <1>   0.0800 
 37 H       -8.7670    -3.7510     0.2790 H     1 <1>   0.0800 
 38 H       -7.7920    -4.8910    -0.6360 H     1 <1>   0.0800 
 39 H       -7.5090    -3.3530    -2.3470 H     1 <1>   0.0800 
 40 H       -8.8300    -2.4890    -1.6010 H     1 <1>   0.0800 
@<TRIPOS>BOND
  1   1   2  1   
  2   2   3  ar  
  3   2   4  ar  
  4   3   5  ar  
  5   3   6  1   
  6   4   7  ar  
  7   4  20  1   
  8   5   8  ar  
  9   5  21  1   
 10   6   9  1   
 11   6  22  1   
 12   6  23  1   
 13   7   8  ar  
 14   7  10  1   
 15   8  24  1   
 16   9  11  1   
 17   9  12  1   
 18  11  13  1   
 19  11  14  1   
 20  11  25  1   
 21  12  15  1   
 22  12  26  1   
 23  12  27  1   
 24  13  16  1   
 25  13  17  1   
 26  13  28  1   
 27  14  29  1   
 28  14  30  1   
 29  14  31  1   
 30  15  16  1   
 31  15  32  1   
 32  15  33  1   
 33  16  18  1   
 34  16  34  1   
 35  17  19  1   
 36  17  35  1   
 37  17  36  1   
 38  18  19  1   
 39  18  37  1   
 40  18  38  1   
 41  19  39  1   
 42  19  40  1   
@<TRIPOS>SUBSTRUCTURE
  1 ****   9 GROUP 4 **** **** 0

# MOE 2024.06 (io_trps.svl 2023.06)
