@<TRIPOS>MOLECULE
NONAME
32 32 1 0 0 
SMALL
USER_CHARGES


@<TRIPOS>ATOM
  1 S       -0.7100    -0.1950    -1.1830 S.o2  1 <1>   1.2040 
  2 O       -1.9330    -0.6460    -0.5390 O.2   1 <1>  -0.6500 
  3 O       -0.6670    -0.2910    -2.6320 O.2   1 <1>  -0.6500 
  4 C       -0.4810     1.5460    -0.7500 C.ar  1 <1>  -0.0090 
  5 C        0.8100    -0.9460    -0.3920 C.3   1 <1>   1.1250 
  6 C        0.2210     2.4090    -1.5850 C.ar  1 <1>  -0.1500 
  7 C       -0.9720     2.0600     0.4460 C.ar  1 <1>  -0.1500 
  8 F        1.9610    -0.4530    -0.8540 F     1 <1>  -0.3400 
  9 F        0.9230    -2.2660    -0.5550 F     1 <1>  -0.3400 
 10 F        0.8800    -0.7660     0.9290 F     1 <1>  -0.3400 
 11 C        0.4300     3.7300    -1.2370 C.ar  1 <1>  -0.1500 
 12 C       -0.7620     3.3810     0.7960 C.ar  1 <1>  -0.1500 
 13 C       -0.0560     4.2350    -0.0380 C.ar  1 <1>   0.1000 
 14 N        0.1380     5.5620     0.3280 N.pl3 1 <1>  -0.8380 
 15 C        1.4950     6.1600     0.2810 C.3   1 <1>   0.2090 
 16 C       -1.0210     6.4880     0.2660 C.3   1 <1>   0.2090 
 17 C        1.8920     6.5920     1.6880 C.3   1 <1>  -0.2400 
 18 C       -1.2890     6.8930    -1.1810 C.3   1 <1>  -0.2400 
 19 H        0.6070     2.0490    -2.5260 H     1 <1>   0.1500 
 20 H       -1.5280     1.4250     1.1160 H     1 <1>   0.1500 
 21 H        0.9650     4.3860    -1.8990 H     1 <1>   0.1500 
 22 H       -1.1410     3.7680     1.7240 H     1 <1>   0.1500 
 23 H        1.5080     7.0040    -0.3870 H     1 <1>   0.0800 
 24 H        2.2030     5.4320    -0.0770 H     1 <1>   0.0800 
 25 H       -0.8250     7.3590     0.8660 H     1 <1>   0.0800 
 26 H       -1.8900     5.9940     0.6670 H     1 <1>   0.0800 
 27 H        1.2230     7.3480     2.0540 H     1 <1>   0.0800 
 28 H        2.8890     6.9920     1.6780 H     1 <1>   0.0800 
 29 H        1.8680     5.7440     2.3490 H     1 <1>   0.0800 
 30 H       -0.4420     7.4080    -1.5940 H     1 <1>   0.0800 
 31 H       -2.1390     7.5490    -1.2190 H     1 <1>   0.0800 
 32 H       -1.5050     6.0230    -1.7740 H     1 <1>   0.0800 
@<TRIPOS>BOND
  1   1   2  2   
  2   1   3  2   
  3   1   4  1   
  4   1   5  1   
  5   4   6  ar  
  6   4   7  ar  
  7   5   8  1   
  8   5   9  1   
  9   5  10  1   
 10   6  11  ar  
 11   6  19  1   
 12   7  12  ar  
 13   7  20  1   
 14  11  13  ar  
 15  11  21  1   
 16  12  13  ar  
 17  12  22  1   
 18  13  14  1   
 19  14  15  1   
 20  14  16  1   
 21  15  17  1   
 22  15  23  1   
 23  15  24  1   
 24  16  18  1   
 25  16  25  1   
 26  16  26  1   
 27  17  27  1   
 28  17  28  1   
 29  17  29  1   
 30  18  30  1   
 31  18  31  1   
 32  18  32  1   
@<TRIPOS>SUBSTRUCTURE
  1 ****   4 GROUP 4 **** **** 0

# MOE 2024.06 (io_trps.svl 2023.06)
