@<TRIPOS>MOLECULE
NONAME
23 24 1 0 0 
SMALL
USER_CHARGES


@<TRIPOS>ATOM
  1 S        0.2340     0.2000     0.0100 S.3   1 <1>  -0.3310 
  2 C        0.0990    -1.5960     0.0290 C.2   1 <1>   0.0700 
  3 C       -1.4880     0.8640    -0.0070 C.3   1 <1>   0.0700 
  4 N        1.2760    -2.3330     0.0440 N.pl3 1 <1>   0.6010 
  5 C       -1.0850    -2.2630     0.0290 C.2   1 <1>  -0.1360 
  6 C       -1.3950     2.3870    -0.0230 C.3   1 <1>  -0.2400 
  7 N        2.5650    -1.9890     0.0480 N.2   1 <1>  -0.7070 
  8 C        1.1930    -3.6950     0.0580 C.2   1 <1>   0.3120 
  9 C       -1.0790    -3.6830     0.0450 C.2   1 <1>   0.3750 
 10 C        3.1510    -3.1450     0.0640 C.2   1 <1>   0.3660 
 11 N        0.0050    -4.3850     0.0590 N.2   1 <1>  -0.5760 
 12 N        2.3740    -4.2270     0.0710 N.2   1 <1>  -0.5650 
 13 C       -2.4080    -4.4050     0.0450 C.3   1 <1>  -0.1790 
 14 H       -1.9830     0.5090     0.8800 H     1 <1>   0.0800 
 15 H       -1.9730     0.4900    -0.8920 H     1 <1>   0.0800 
 16 H       -2.0340    -1.7650     0.0180 H     1 <1>   0.1500 
 17 H       -0.8760     2.7360     0.8520 H     1 <1>   0.0800 
 18 H       -2.3810     2.8170    -0.0330 H     1 <1>   0.0800 
 19 H       -0.8650     2.7170    -0.8990 H     1 <1>   0.0800 
 20 H        4.2250    -3.2470     0.0710 H     1 <1>   0.1500 
 21 H       -2.9750    -4.1320     0.9150 H     1 <1>   0.0800 
 22 H       -2.2520    -5.4700     0.0570 H     1 <1>   0.0800 
 23 H       -2.9640    -4.1510    -0.8380 H     1 <1>   0.0800 
@<TRIPOS>BOND
  1   1   2  1   
  2   1   3  1   
  3   2   4  1   
  4   2   5  2   
  5   3   6  1   
  6   3  14  1   
  7   3  15  1   
  8   4   7  1   
  9   4   8  1   
 10   5   9  1   
 11   5  16  1   
 12   6  17  1   
 13   6  18  1   
 14   6  19  1   
 15   7  10  2   
 16   8  11  1   
 17   8  12  2   
 18   9  11  2   
 19   9  13  1   
 20  10  12  1   
 21  10  20  1   
 22  13  21  1   
 23  13  22  1   
 24  13  23  1   
@<TRIPOS>SUBSTRUCTURE
  1 ****   2 GROUP 4 **** **** 0

# MOE 2024.06 (io_trps.svl 2023.06)
