@<TRIPOS>MOLECULE
NONAME
51 53 1 0 0 
SMALL
USER_CHARGES


@<TRIPOS>ATOM
  1 O       -0.0190     0.1580    -1.6400 O.2   1 <1>  -0.5700 
  2 C       -0.2170     1.1590    -0.9770 C.2   1 <1>   0.5440 
  3 N       -0.0030     1.1070     0.3840 N.am  1 <1>  -0.6600 
  4 C       -0.6480     2.3700    -1.6360 C.ar  1 <1>   0.0860 
  5 C        0.5490    -0.1110     1.0540 C.3   1 <1>   0.1400 
  6 C       -0.4770     2.1470     1.3480 C.3   1 <1>   0.1400 
  7 C        0.1810     3.5040    -1.6850 C.ar  1 <1>   0.1170 
  8 C       -1.9050     2.4230    -2.2370 C.ar  1 <1>  -0.1500 
  9 C        1.5240     0.2690     2.1810 C.3   1 <1>   0.1200 
 10 C        0.5780     2.4010     2.4370 C.3   1 <1>   0.1200 
 11 N        1.4600     3.4390    -1.1030 N.am  1 <1>  -0.5470 
 12 C       -0.2920     4.6520    -2.3200 C.ar  1 <1>  -0.1500 
 13 C       -2.3560     3.5690    -2.8600 C.ar  1 <1>  -0.1500 
 14 O        0.9460     1.2010     3.0530 O.3   1 <1>  -0.5600 
 15 C        2.4750     4.3430    -0.9320 C.2   1 <1>   0.5690 
 16 C       -1.5450     4.6880    -2.8980 C.ar  1 <1>  -0.1500 
 17 O        2.3970     5.5110    -1.2230 O.2   1 <1>  -0.5700 
 18 C        3.7790     3.8300    -0.3390 C.3   1 <1>   0.1810 
 19 O        3.5440     2.6720     0.4490 O.3   1 <1>  -0.3630 
 20 C        4.6290     1.9470     0.7930 C.ar  1 <1>   0.0830 
 21 C        5.0770     1.9450     2.1090 C.ar  1 <1>  -0.1430 
 22 C        5.2700     1.1870    -0.1740 C.ar  1 <1>  -0.1500 
 23 C        6.1860     1.1810     2.4340 C.ar  1 <1>  -0.1500 
 24 C        4.3760     2.7530     3.1920 C.3   1 <1>  -0.0970 
 25 C        6.3780     0.4270     0.1580 C.ar  1 <1>  -0.1430 
 26 C        6.8330     0.4310     1.4670 C.ar  1 <1>  -0.1500 
 27 C        7.0910    -0.4060    -0.8920 C.3   1 <1>  -0.0970 
 28 H        1.0640    -0.7310     0.3400 H     1 <1>   0.0800 
 29 H       -0.2620    -0.6850     1.4660 H     1 <1>   0.0800 
 30 H       -1.3830     1.8040     1.8160 H     1 <1>   0.0800 
 31 H       -0.6940     3.0720     0.8460 H     1 <1>   0.0800 
 32 H       -2.5290     1.5460    -2.2110 H     1 <1>   0.1500 
 33 H        2.4250     0.6880     1.7720 H     1 <1>   0.0800 
 34 H        1.7840    -0.6020     2.7550 H     1 <1>   0.0800 
 35 H        0.1780     3.0500     3.1960 H     1 <1>   0.0800 
 36 H        1.4560     2.8600     2.0180 H     1 <1>   0.0800 
 37 H        1.6880     2.5220    -0.6990 H     1 <1>   0.3700 
 38 H        0.3190     5.5340    -2.3720 H     1 <1>   0.1500 
 39 H       -3.3300     3.5930    -3.3180 H     1 <1>   0.1500 
 40 H       -1.8890     5.5860    -3.3830 H     1 <1>   0.1500 
 41 H        4.2200     4.5810     0.2910 H     1 <1>   0.0800 
 42 H        4.4580     3.5850    -1.1340 H     1 <1>   0.0800 
 43 H        4.8960     1.1860    -1.1810 H     1 <1>   0.1500 
 44 H        6.5530     1.1630     3.4450 H     1 <1>   0.1500 
 45 H        4.0900     3.7190     2.8180 H     1 <1>   0.0800 
 46 H        5.0220     2.8980     4.0390 H     1 <1>   0.0800 
 47 H        3.4940     2.2330     3.5210 H     1 <1>   0.0800 
 48 H        7.6940    -0.1540     1.7390 H     1 <1>   0.1500 
 49 H        6.4660    -0.5500    -1.7550 H     1 <1>   0.0800 
 50 H        7.3420    -1.3720    -0.4910 H     1 <1>   0.0800 
 51 H        7.9950     0.0890    -1.1970 H     1 <1>   0.0800 
@<TRIPOS>BOND
  1   1   2  2   
  2   2   3  am  
  3   2   4  1   
  4   3   5  1   
  5   3   6  1   
  6   4   7  ar  
  7   4   8  ar  
  8   5   9  1   
  9   5  28  1   
 10   5  29  1   
 11   6  10  1   
 12   6  30  1   
 13   6  31  1   
 14   7  11  1   
 15   7  12  ar  
 16   8  13  ar  
 17   8  32  1   
 18   9  14  1   
 19   9  33  1   
 20   9  34  1   
 21  10  14  1   
 22  10  35  1   
 23  10  36  1   
 24  11  15  am  
 25  11  37  1   
 26  12  16  ar  
 27  12  38  1   
 28  13  16  ar  
 29  13  39  1   
 30  15  17  2   
 31  15  18  1   
 32  16  40  1   
 33  18  19  1   
 34  18  41  1   
 35  18  42  1   
 36  19  20  1   
 37  20  21  ar  
 38  20  22  ar  
 39  21  23  ar  
 40  21  24  1   
 41  22  25  ar  
 42  22  43  1   
 43  23  26  ar  
 44  23  44  1   
 45  24  45  1   
 46  24  46  1   
 47  24  47  1   
 48  25  26  ar  
 49  25  27  1   
 50  26  48  1   
 51  27  49  1   
 52  27  50  1   
 53  27  51  1   
@<TRIPOS>SUBSTRUCTURE
  1 ****  19 GROUP 4 **** **** 0

# MOE 2024.06 (io_trps.svl 2023.06)
