@<TRIPOS>MOLECULE
NONAME
18 18 1 0 0 
SMALL
USER_CHARGES


@<TRIPOS>ATOM
  1 S        0.7910     0.3530     0.9790 S.o2  1 <1>   1.5130 
  2 O        0.5730     1.3220    -0.1280 O.co2 1 <1>  -0.8170 
  3 O        1.7290     0.8660     2.0090 O.co2 1 <1>  -0.8170 
  4 O       -0.4750    -0.1660     1.5540 O.co2 1 <1>  -0.8170 
  5 C        1.6450    -1.0760     0.1960 C.2   1 <1>  -0.0630 
  6 C        2.9800    -1.0510    -0.2140 C.2   1 <1>   0.1080 
  7 C        1.2360    -2.3280    -0.1570 C.2   1 <1>  -0.3320 
  8 N        3.3780    -2.1660    -0.7490 N.2   1 <1>  -0.7070 
  9 C        3.9020     0.1400    -0.0690 C.3   1 <1>  -0.0590 
 10 N        2.2930    -2.9520    -0.7090 N.pl3 1 <1>   0.3000 
 11 C       -0.1250    -2.9870    -0.0070 C.3   1 <1>  -0.0600 
 12 H        3.4110     1.0280    -0.4230 H     1 <1>   0.0800 
 13 H        4.8000    -0.0160    -0.6370 H     1 <1>   0.0800 
 14 H        4.1570     0.2730     0.9670 H     1 <1>   0.0800 
 15 H        2.3020    -3.9100    -1.0720 H     1 <1>   0.2700 
 16 H       -0.0760    -3.7760     0.7210 H     1 <1>   0.0800 
 17 H       -0.8600    -2.2730     0.3190 H     1 <1>   0.0800 
 18 H       -0.4500    -3.3900    -0.9490 H     1 <1>   0.0800 
@<TRIPOS>BOND
  1   1   2  ar  
  2   1   3  ar  
  3   1   4  ar  
  4   1   5  1   
  5   5   6  1   
  6   5   7  2   
  7   6   8  2   
  8   6   9  1   
  9   7  10  1   
 10   7  11  1   
 11   8  10  1   
 12   9  12  1   
 13   9  13  1   
 14   9  14  1   
 15  10  15  1   
 16  11  16  1   
 17  11  17  1   
 18  11  18  1   
@<TRIPOS>SUBSTRUCTURE
  1 ****   5 GROUP 4 **** **** 0

# MOE 2024.06 (io_trps.svl 2023.06)
