@<TRIPOS>MOLECULE
NONAME
39 41 1 0 0 
SMALL
USER_CHARGES


@<TRIPOS>ATOM
  1 BR       0.5640     0.4010    -2.5440 Br    1 <1>  -0.1110 
  2 C        0.2160     2.0170    -1.5520 C.ar  1 <1>   0.1110 
  3 C        1.2510     2.6210    -0.8530 C.ar  1 <1>   0.1170 
  4 C       -1.0620     2.5410    -1.5400 C.ar  1 <1>  -0.1500 
  5 N        2.5570     2.1930    -0.6730 N.am  1 <1>  -0.5470 
  6 C        1.0110     3.7910    -0.1540 C.ar  1 <1>  -0.1430 
  7 C       -1.3140     3.6890    -0.7990 C.ar  1 <1>  -0.1430 
  8 C        3.2150     3.0140     0.1820 C.2   1 <1>   0.5690 
  9 C       -0.2800     4.3050    -0.1020 C.ar  1 <1>  -0.1500 
 10 C        2.3180     4.2650     0.5040 C.3   1 <1>   0.7550 
 11 C       -2.7130     4.2760    -0.7500 C.3   1 <1>  -0.0960 
 12 O        4.2980     2.7330     0.6500 O.2   1 <1>  -0.5700 
 13 O        2.0750     4.4350     1.8600 O.3   1 <1>  -0.6800 
 14 N        2.8400     5.5630    -0.0280 N.3   1 <1>  -0.8100 
 15 C        4.1470     5.9070     0.5760 C.3   1 <1>   0.1100 
 16 C        1.9000     6.6950     0.0690 C.3   1 <1>   0.1100 
 17 C        4.7660     7.1230    -0.1160 C.3   1 <1>  -0.1600 
 18 C        2.4670     7.9410    -0.6190 C.3   1 <1>  -0.1600 
 19 C        3.8310     8.3340    -0.0420 C.3   1 <1>  -0.0800 
 20 C        4.4220     9.5290    -0.7990 C.3   1 <1>  -0.2400 
 21 H       -1.8440     2.0530    -2.0940 H     1 <1>   0.1500 
 22 H        2.9500     1.3090    -0.9990 H     1 <1>   0.3700 
 23 H       -0.4820     5.1840     0.4850 H     1 <1>   0.1500 
 24 H       -3.4480     3.5260    -0.9810 H     1 <1>   0.0800 
 25 H       -2.7980     5.0750    -1.4640 H     1 <1>   0.0800 
 26 H       -2.9220     4.6630     0.2310 H     1 <1>   0.0800 
 27 H        1.8240     3.5690     2.2220 H     1 <1>   0.4000 
 28 H        4.8360     5.0880     0.4760 H     1 <1>   0.0800 
 29 H        4.0210     6.1130     1.6270 H     1 <1>   0.0800 
 30 H        1.6870     6.9090     1.1030 H     1 <1>   0.0800 
 31 H        0.9840     6.4560    -0.4350 H     1 <1>   0.0800 
 32 H        4.9680     6.8700    -1.1410 H     1 <1>   0.0800 
 33 H        5.7020     7.3570     0.3590 H     1 <1>   0.0800 
 34 H        1.7750     8.7540    -0.4980 H     1 <1>   0.0800 
 35 H        2.5580     7.7380    -1.6710 H     1 <1>   0.0800 
 36 H        3.7020     8.6090     0.9920 H     1 <1>   0.0800 
 37 H        4.5640     9.2860    -1.8370 H     1 <1>   0.0800 
 38 H        5.3720     9.8030    -0.3770 H     1 <1>   0.0800 
 39 H        3.7620    10.3760    -0.7310 H     1 <1>   0.0800 
@<TRIPOS>BOND
  1   1   2  1   
  2   2   3  ar  
  3   2   4  ar  
  4   3   5  1   
  5   3   6  ar  
  6   4   7  ar  
  7   4  21  1   
  8   5   8  am  
  9   5  22  1   
 10   6   9  ar  
 11   6  10  1   
 12   7   9  ar  
 13   7  11  1   
 14   8  10  1   
 15   8  12  2   
 16   9  23  1   
 17  10  13  1   
 18  10  14  1   
 19  11  24  1   
 20  11  25  1   
 21  11  26  1   
 22  13  27  1   
 23  14  15  1   
 24  14  16  1   
 25  15  17  1   
 26  15  28  1   
 27  15  29  1   
 28  16  18  1   
 29  16  30  1   
 30  16  31  1   
 31  17  19  1   
 32  17  32  1   
 33  17  33  1   
 34  18  19  1   
 35  18  34  1   
 36  18  35  1   
 37  19  20  1   
 38  19  36  1   
 39  20  37  1   
 40  20  38  1   
 41  20  39  1   
@<TRIPOS>SUBSTRUCTURE
  1 ****  10 GROUP 4 **** **** 0

# MOE 2024.06 (io_trps.svl 2023.06)
