@<TRIPOS>MOLECULE
NONAME
53 56 1 0 0 
SMALL
USER_CHARGES


@<TRIPOS>ATOM
  1 O       -0.2270     0.1030    -0.7210 O.2   1 <1>  -0.5700 
  2 C       -0.8610     1.1380    -0.5430 C.2   1 <1>   0.5440 
  3 N       -0.2190     2.3700    -0.5700 N.am  1 <1>  -0.2980 
  4 C       -2.2710     1.1280    -0.2780 C.ar  1 <1>   0.0860 
  5 N       -0.8350     3.5630    -0.3350 N.2   1 <1>  -0.5120 
  6 C        1.2260     2.4500    -0.8960 C.3   1 <1>   0.1400 
  7 C       -2.9020     2.3580    -0.0370 C.ar  1 <1>   0.0860 
  8 C       -3.0250    -0.0510    -0.2450 C.ar  1 <1>  -0.1500 
  9 C       -2.1100     3.5640    -0.0910 C.2   1 <1>   0.2780 
 10 C        2.0660     2.3570     0.3810 C.3   1 <1>  -0.0990 
 11 C       -4.2760     2.3500     0.2500 C.ar  1 <1>  -0.1500 
 12 C       -4.3730    -0.0290     0.0300 C.ar  1 <1>  -0.1500 
 13 C       -2.7570     4.8340     0.1310 C.ar  1 <1>   0.0860 
 14 C        3.4740     1.9090     0.0460 C.2   1 <1>   0.5690 
 15 C       -5.0010     1.1800     0.2820 C.ar  1 <1>  -0.1500 
 16 C       -3.5400     5.4270    -0.8590 C.ar  1 <1>  -0.1500 
 17 C       -2.6230     5.5050     1.3450 C.ar  1 <1>  -0.1500 
 18 O        4.3420     2.7450     0.0710 O.2   1 <1>  -0.5700 
 19 N        3.7570     0.6050    -0.2950 N.am  1 <1>  -0.6600 
 20 C       -4.1810     6.6320    -0.6390 C.ar  1 <1>  -0.1500 
 21 C       -3.2610     6.7110     1.5700 C.ar  1 <1>  -0.1500 
 22 C        5.1090     0.2460    -0.8330 C.3   1 <1>   0.1400 
 23 C        2.7690    -0.5240    -0.2620 C.3   1 <1>   0.1400 
 24 C       -4.0440     7.2760     0.5790 C.ar  1 <1>  -0.1500 
 25 C        5.6600    -1.0310    -0.1760 C.3   1 <1>   0.3430 
 26 C        3.3690    -1.8060     0.3450 C.3   1 <1>   0.3430 
 27 N        4.6890    -2.1770    -0.2760 N.4   1 <1>  -0.9590 
 28 C        5.2490    -3.4150     0.3450 C.3   1 <1>   0.2630 
 29 H        1.4280     3.3840    -1.3930 H     1 <1>   0.0800 
 30 H        1.4770     1.6590    -1.5790 H     1 <1>   0.0800 
 31 H       -2.5350    -0.9900    -0.4390 H     1 <1>   0.1500 
 32 H        1.6250     1.6850     1.0900 H     1 <1>   0.0800 
 33 H        2.1050     3.3290     0.8380 H     1 <1>   0.0800 
 34 H       -4.7900     3.2740     0.4540 H     1 <1>   0.1500 
 35 H       -4.9420    -0.9440     0.0530 H     1 <1>   0.1500 
 36 H       -6.0560     1.1970     0.5030 H     1 <1>   0.1500 
 37 H       -3.6430     4.9340    -1.8100 H     1 <1>   0.1500 
 38 H       -2.0080     5.0730     2.1140 H     1 <1>   0.1500 
 39 H       -4.7830     7.0740    -1.4140 H     1 <1>   0.1500 
 40 H       -3.1480     7.2140     2.5160 H     1 <1>   0.1500 
 41 H        5.8100     1.0460    -0.6620 H     1 <1>   0.0800 
 42 H        5.0370     0.1060    -1.8970 H     1 <1>   0.0800 
 43 H        2.4190    -0.7210    -1.2600 H     1 <1>   0.0800 
 44 H        1.9160    -0.2630     0.3340 H     1 <1>   0.0800 
 45 H       -4.5410     8.2150     0.7520 H     1 <1>   0.1500 
 46 H        5.8680    -0.8180     0.8600 H     1 <1>   0.0800 
 47 H        6.5910    -1.2950    -0.6520 H     1 <1>   0.0800 
 48 H        2.6640    -2.6120     0.2210 H     1 <1>   0.0800 
 49 H        3.5020    -1.6470     1.4030 H     1 <1>   0.0800 
 50 H        4.5190    -2.3530    -1.2770 H     1 <1>   0.4500 
 51 H        5.4360    -3.2560     1.3950 H     1 <1>   0.0800 
 52 H        6.1760    -3.6880    -0.1320 H     1 <1>   0.0800 
 53 H        4.5560    -4.2340     0.2390 H     1 <1>   0.0800 
@<TRIPOS>BOND
  1   1   2  2   
  2   2   3  am  
  3   2   4  1   
  4   3   5  1   
  5   3   6  1   
  6   4   7  ar  
  7   4   8  ar  
  8   5   9  2   
  9   6  10  1   
 10   6  29  1   
 11   6  30  1   
 12   7   9  1   
 13   7  11  ar  
 14   8  12  ar  
 15   8  31  1   
 16   9  13  1   
 17  10  14  1   
 18  10  32  1   
 19  10  33  1   
 20  11  15  ar  
 21  11  34  1   
 22  12  15  ar  
 23  12  35  1   
 24  13  16  ar  
 25  13  17  ar  
 26  14  18  2   
 27  14  19  am  
 28  15  36  1   
 29  16  20  ar  
 30  16  37  1   
 31  17  21  ar  
 32  17  38  1   
 33  19  22  1   
 34  19  23  1   
 35  20  24  ar  
 36  20  39  1   
 37  21  24  ar  
 38  21  40  1   
 39  22  25  1   
 40  22  41  1   
 41  22  42  1   
 42  23  26  1   
 43  23  43  1   
 44  23  44  1   
 45  24  45  1   
 46  25  27  1   
 47  25  46  1   
 48  25  47  1   
 49  26  27  1   
 50  26  48  1   
 51  26  49  1   
 52  27  28  1   
 53  27  50  1   
 54  28  51  1   
 55  28  52  1   
 56  28  53  1   
@<TRIPOS>SUBSTRUCTURE
  1 ****   3 GROUP 4 **** **** 0

# MOE 2024.06 (io_trps.svl 2023.06)
