@<TRIPOS>MOLECULE
NONAME
44 45 1 0 0 
SMALL
USER_CHARGES


@<TRIPOS>ATOM
  1 O       -1.5620    -0.0730     0.5590 O.3   1 <1>  -0.5600 
  2 C       -2.1960     0.5460    -0.5270 C.3   1 <1>   0.1200 
  3 C       -1.4200    -1.4630     0.4240 C.3   1 <1>   0.1200 
  4 C       -3.6210    -0.0180    -0.7330 C.3   1 <1>   0.3430 
  5 C       -2.7850    -2.1480     0.1790 C.3   1 <1>   0.3430 
  6 N       -3.9090    -1.1520     0.2150 N.4   1 <1>  -0.9590 
  7 C       -5.2440    -1.8010     0.0110 C.3   1 <1>   0.3430 
  8 C       -6.4160    -0.8660     0.3310 C.3   1 <1>   0.1200 
  9 O       -7.5860    -1.5830     0.1240 O.3   1 <1>  -0.5600 
 10 C       -8.7540    -0.8680     0.4060 C.3   1 <1>   0.1200 
 11 C       -9.9580    -1.7680     0.1430 C.3   1 <1>   0.1200 
 12 O      -11.1240    -1.0280     0.4290 O.3   1 <1>  -0.3630 
 13 C      -12.3570    -1.5790     0.2860 C.ar  1 <1>   0.0820 
 14 C      -13.4400    -0.7710     0.5940 C.ar  1 <1>  -0.1500 
 15 C      -12.5800    -2.8860    -0.1440 C.ar  1 <1>  -0.1500 
 16 C      -14.7310    -1.2540     0.4750 C.ar  1 <1>  -0.1500 
 17 C      -13.8720    -3.3690    -0.2630 C.ar  1 <1>  -0.1500 
 18 C      -14.9570    -2.5530     0.0480 C.ar  1 <1>   0.0820 
 19 O      -16.2540    -2.9490    -0.0410 O.3   1 <1>  -0.3620 
 20 C      -16.5900    -4.2510    -0.4660 C.3   1 <1>   0.0400 
 21 H       -1.5940     0.3990    -1.4080 H     1 <1>   0.0800 
 22 H       -2.2400     1.6030    -0.3240 H     1 <1>   0.0800 
 23 H       -0.9750    -1.8350     1.3310 H     1 <1>   0.0800 
 24 H       -0.7410    -1.6630    -0.3880 H     1 <1>   0.0800 
 25 H       -3.7180    -0.3550    -1.7530 H     1 <1>   0.0800 
 26 H       -4.3330     0.7770    -0.5860 H     1 <1>   0.0800 
 27 H       -2.9360    -2.9050     0.9310 H     1 <1>   0.0800 
 28 H       -2.7610    -2.6420    -0.7780 H     1 <1>   0.0800 
 29 H       -3.8570    -0.7380     1.1590 H     1 <1>   0.4500 
 30 H       -5.3230    -2.6620     0.6540 H     1 <1>   0.0800 
 31 H       -5.3330    -2.1340    -1.0100 H     1 <1>   0.0800 
 32 H       -6.4240    -0.0120    -0.3250 H     1 <1>   0.0800 
 33 H       -6.3840    -0.5540     1.3610 H     1 <1>   0.0800 
 34 H       -8.7960    -0.0040    -0.2350 H     1 <1>   0.0800 
 35 H       -8.7390    -0.5700     1.4400 H     1 <1>   0.0800 
 36 H       -9.9350    -2.6260     0.7900 H     1 <1>   0.0800 
 37 H       -9.9900    -2.0630    -0.8910 H     1 <1>   0.0800 
 38 H      -13.2670     0.2360     0.9260 H     1 <1>   0.1500 
 39 H      -11.7650    -3.5390    -0.3910 H     1 <1>   0.1500 
 40 H      -15.5710    -0.6280     0.7140 H     1 <1>   0.1500 
 41 H      -14.0140    -4.3790    -0.5960 H     1 <1>   0.1500 
 42 H      -17.6620    -4.3370    -0.4580 H     1 <1>   0.0800 
 43 H      -16.1620    -4.9620     0.2170 H     1 <1>   0.0800 
 44 H      -16.2190    -4.3990    -1.4640 H     1 <1>   0.0800 
@<TRIPOS>BOND
  1   1   2  1   
  2   1   3  1   
  3   2   4  1   
  4   2  21  1   
  5   2  22  1   
  6   3   5  1   
  7   3  23  1   
  8   3  24  1   
  9   4   6  1   
 10   4  25  1   
 11   4  26  1   
 12   5   6  1   
 13   5  27  1   
 14   5  28  1   
 15   6   7  1   
 16   6  29  1   
 17   7   8  1   
 18   7  30  1   
 19   7  31  1   
 20   8   9  1   
 21   8  32  1   
 22   8  33  1   
 23   9  10  1   
 24  10  11  1   
 25  10  34  1   
 26  10  35  1   
 27  11  12  1   
 28  11  36  1   
 29  11  37  1   
 30  12  13  1   
 31  13  14  ar  
 32  13  15  ar  
 33  14  16  ar  
 34  14  38  1   
 35  15  17  ar  
 36  15  39  1   
 37  16  18  ar  
 38  16  40  1   
 39  17  18  ar  
 40  17  41  1   
 41  18  19  1   
 42  19  20  1   
 43  20  42  1   
 44  20  43  1   
 45  20  44  1   
@<TRIPOS>SUBSTRUCTURE
  1 ****  10 GROUP 4 **** **** 0

# MOE 2024.06 (io_trps.svl 2023.06)
