@<TRIPOS>MOLECULE
NONAME
43 44 1 0 0 
SMALL
USER_CHARGES


@<TRIPOS>ATOM
  1 O        0.6850    -0.4740    -1.2030 O.3   1 <1>  -0.3630 
  2 C        0.2570    -1.6510    -0.6640 C.ar  1 <1>   0.0830 
  3 C        1.8620     0.1790    -0.7800 C.3   1 <1>   0.0400 
  4 C        0.7780    -2.3140     0.4570 C.ar  1 <1>   0.0830 
  5 C       -0.8190    -2.2150    -1.3280 C.ar  1 <1>  -0.1500 
  6 O        1.8150    -1.8480     1.1900 O.3   1 <1>  -0.5330 
  7 C        0.2250    -3.5210     0.8780 C.ar  1 <1>   0.0830 
  8 C       -1.3920    -3.4040    -0.9050 C.ar  1 <1>  -0.1430 
  9 O        0.7890    -4.1200     1.9680 O.3   1 <1>  -0.3630 
 10 C       -0.8610    -4.0620     0.1950 C.ar  1 <1>  -0.1500 
 11 C       -2.5960    -3.9610    -1.6380 C.3   1 <1>   0.4860 
 12 C        0.4740    -5.4460     2.3350 C.3   1 <1>   0.0400 
 13 N       -3.8080    -3.6890    -0.8190 N.4   1 <1>  -0.9590 
 14 C       -4.9950    -4.4330    -1.3110 C.3   1 <1>   0.3430 
 15 C       -4.1010    -2.2350    -0.7190 C.3   1 <1>   0.3430 
 16 C       -5.9850    -4.6980    -0.1720 C.3   1 <1>  -0.1600 
 17 C       -4.4300    -1.8680     0.7270 C.3   1 <1>  -0.1600 
 18 C       -6.4610    -3.4650     0.6200 C.3   1 <1>  -0.1600 
 19 C       -5.3550    -2.8390     1.4840 C.3   1 <1>  -0.1600 
 20 H        2.0260     1.0260    -1.4200 H     1 <1>   0.0800 
 21 H        2.6890    -0.5050    -0.8580 H     1 <1>   0.0800 
 22 H        1.7320     0.5090     0.2360 H     1 <1>   0.0800 
 23 H       -1.1990    -1.6920    -2.1890 H     1 <1>   0.1500 
 24 H        1.9990    -2.4770     1.9170 H     1 <1>   0.4500 
 25 H       -1.2940    -4.9900     0.5180 H     1 <1>   0.1500 
 26 H       -2.4680    -5.0230    -1.7720 H     1 <1>   0.0800 
 27 H       -2.6870    -3.5010    -2.6080 H     1 <1>   0.0800 
 28 H        1.1130    -5.7260     3.1540 H     1 <1>   0.0800 
 29 H        0.6540    -6.0950     1.4970 H     1 <1>   0.0800 
 30 H       -0.5540    -5.4900     2.6480 H     1 <1>   0.0800 
 31 H       -3.6030    -4.0010     0.1380 H     1 <1>   0.4500 
 32 H       -4.6900    -5.3810    -1.7230 H     1 <1>   0.0800 
 33 H       -5.4810    -3.8710    -2.0930 H     1 <1>   0.0800 
 34 H       -4.9370    -1.9870    -1.3530 H     1 <1>   0.0800 
 35 H       -3.2550    -1.6480    -1.0400 H     1 <1>   0.0800 
 36 H       -5.5580    -5.4180     0.5050 H     1 <1>   0.0800 
 37 H       -6.8520    -5.1670    -0.6050 H     1 <1>   0.0800 
 38 H       -4.8950    -0.8970     0.7100 H     1 <1>   0.0800 
 39 H       -3.5120    -1.7540     1.2780 H     1 <1>   0.0800 
 40 H       -7.2460    -3.7920     1.2820 H     1 <1>   0.0800 
 41 H       -6.8950    -2.7290    -0.0360 H     1 <1>   0.0800 
 42 H       -5.8180    -2.2910     2.2890 H     1 <1>   0.0800 
 43 H       -4.7730    -3.6190     1.9470 H     1 <1>   0.0800 
@<TRIPOS>BOND
  1   1   2  1   
  2   1   3  1   
  3   2   4  ar  
  4   2   5  ar  
  5   3  20  1   
  6   3  21  1   
  7   3  22  1   
  8   4   6  1   
  9   4   7  ar  
 10   5   8  ar  
 11   5  23  1   
 12   6  24  1   
 13   7   9  1   
 14   7  10  ar  
 15   8  10  ar  
 16   8  11  1   
 17   9  12  1   
 18  10  25  1   
 19  11  13  1   
 20  11  26  1   
 21  11  27  1   
 22  12  28  1   
 23  12  29  1   
 24  12  30  1   
 25  13  14  1   
 26  13  15  1   
 27  13  31  1   
 28  14  16  1   
 29  14  32  1   
 30  14  33  1   
 31  15  17  1   
 32  15  34  1   
 33  15  35  1   
 34  16  18  1   
 35  16  36  1   
 36  16  37  1   
 37  17  19  1   
 38  17  38  1   
 39  17  39  1   
 40  18  19  1   
 41  18  40  1   
 42  18  41  1   
 43  19  42  1   
 44  19  43  1   
@<TRIPOS>SUBSTRUCTURE
  1 ****   8 GROUP 4 **** **** 0

# MOE 2024.06 (io_trps.svl 2023.06)
