@<TRIPOS>MOLECULE
NONAME
39 40 1 0 0 
SMALL
USER_CHARGES


@<TRIPOS>ATOM
  1 O       -0.5580    -0.2520     1.4520 O.2   1 <1>  -0.5700 
  2 C       -0.4910     0.8210     0.8840 C.2   1 <1>   0.5440 
  3 N       -1.6470     1.4180     0.4690 N.am  1 <1>  -0.7300 
  4 C        0.7930     1.4550     0.6370 C.ar  1 <1>   0.0860 
  5 C       -3.0080     0.8880     0.6560 C.3   1 <1>   0.2200 
  6 C        1.9430     0.6930     0.4420 C.ar  1 <1>  -0.1500 
  7 C        0.9290     2.8440     0.5830 C.ar  1 <1>  -0.1500 
  8 C       -3.6430     0.6740    -0.7120 C.3   1 <1>  -0.1600 
  9 C       -3.8740     1.9770     1.2770 C.3   1 <1>  -0.1600 
 10 C        3.1740     1.2730     0.1900 C.ar  1 <1>   0.0830 
 11 C        2.1520     3.4390     0.3320 C.ar  1 <1>  -0.1500 
 12 C       -4.1510     2.0490    -1.1590 C.3   1 <1>  -0.1600 
 13 C       -4.2950     2.8880     0.1180 C.3   1 <1>  -0.1600 
 14 O        4.2180     0.4240     0.0110 O.3   1 <1>  -0.3630 
 15 C        3.2760     2.6600     0.1330 C.ar  1 <1>  -0.1500 
 16 C        5.5520     0.8510    -0.1530 C.3   1 <1>   0.2000 
 17 C        6.3180    -0.3110    -0.7810 C.3   1 <1>  -0.2400 
 18 C        6.1300     1.2130     1.2170 C.3   1 <1>  -0.2400 
 19 H       -1.6030     2.2530    -0.1110 H     1 <1>   0.3700 
 20 H       -2.9940    -0.0120     1.2490 H     1 <1>   0.0800 
 21 H        1.8750    -0.3800     0.4880 H     1 <1>   0.1500 
 22 H        0.0680     3.4670     0.7480 H     1 <1>   0.1500 
 23 H       -4.4830     0.0120    -0.5940 H     1 <1>   0.0800 
 24 H       -2.9560     0.2320    -1.4130 H     1 <1>   0.0800 
 25 H       -3.3620     2.5060     2.0610 H     1 <1>   0.0800 
 26 H       -4.7520     1.5140     1.6940 H     1 <1>   0.0800 
 27 H        2.2310     4.5120     0.2950 H     1 <1>   0.1500 
 28 H       -5.0890     1.9600    -1.6790 H     1 <1>   0.0800 
 29 H       -3.4330     2.5090    -1.8170 H     1 <1>   0.0800 
 30 H       -3.6420     3.7420     0.0670 H     1 <1>   0.0800 
 31 H       -5.3070     3.2330     0.2500 H     1 <1>   0.0800 
 32 H        4.2120     3.1460    -0.0600 H     1 <1>   0.1500 
 33 H        5.5710     1.6890    -0.8280 H     1 <1>   0.0800 
 34 H        6.2810    -1.1740    -0.1400 H     1 <1>   0.0800 
 35 H        7.3460    -0.0370    -0.9320 H     1 <1>   0.0800 
 36 H        5.8880    -0.5590    -1.7340 H     1 <1>   0.0800 
 37 H        6.0830     0.3640     1.8750 H     1 <1>   0.0800 
 38 H        5.5850     2.0280     1.6570 H     1 <1>   0.0800 
 39 H        7.1570     1.5120     1.1140 H     1 <1>   0.0800 
@<TRIPOS>BOND
  1   1   2  2   
  2   2   3  am  
  3   2   4  1   
  4   3   5  1   
  5   3  19  1   
  6   4   6  ar  
  7   4   7  ar  
  8   5   8  1   
  9   5   9  1   
 10   5  20  1   
 11   6  10  ar  
 12   6  21  1   
 13   7  11  ar  
 14   7  22  1   
 15   8  12  1   
 16   8  23  1   
 17   8  24  1   
 18   9  13  1   
 19   9  25  1   
 20   9  26  1   
 21  10  14  1   
 22  10  15  ar  
 23  11  15  ar  
 24  11  27  1   
 25  12  13  1   
 26  12  28  1   
 27  12  29  1   
 28  13  30  1   
 29  13  31  1   
 30  14  16  1   
 31  15  32  1   
 32  16  17  1   
 33  16  18  1   
 34  16  33  1   
 35  17  34  1   
 36  17  35  1   
 37  17  36  1   
 38  18  37  1   
 39  18  38  1   
 40  18  39  1   
@<TRIPOS>SUBSTRUCTURE
  1 ****   4 GROUP 4 **** **** 0

# MOE 2024.06 (io_trps.svl 2023.06)
