@<TRIPOS>MOLECULE
NONAME
47 48 1 0 0 
SMALL
USER_CHARGES


@<TRIPOS>ATOM
  1 O       -0.7990    -0.3520     0.2400 O.3   1 <1>  -0.3630 
  2 C       -1.8390     0.5160     0.1580 C.ar  1 <1>   0.0830 
  3 C       -0.1850    -0.8720    -0.9180 C.3   1 <1>   0.0400 
  4 C       -2.4060     0.9380    -1.0410 C.ar  1 <1>  -0.1500 
  5 C       -2.3480     0.9950     1.3540 C.ar  1 <1>  -0.1500 
  6 C       -3.4670     1.8260    -1.0310 C.ar  1 <1>  -0.1500 
  7 C       -3.4090     1.8830     1.3610 C.ar  1 <1>  -0.1500 
  8 C       -3.9770     2.3030     0.1680 C.ar  1 <1>  -0.1430 
  9 C       -5.1500     3.2670     0.1730 C.3   1 <1>  -0.0170 
 10 C       -6.4650     2.4720     0.1290 C.3   1 <1>  -0.1600 
 11 C       -7.7390     3.3130     0.3530 C.3   1 <1>   0.4230 
 12 N       -8.9670     2.4640     0.2330 N.4   1 <1>  -0.9590 
 13 C       -7.8330     4.4470    -0.6770 C.3   1 <1>  -0.2400 
 14 C      -10.2130     3.1810     0.6470 C.3   1 <1>   0.4860 
 15 C       -8.8950     1.1470     0.9570 C.3   1 <1>   0.2630 
 16 C      -11.4140     2.3810     0.1840 C.ar  1 <1>  -0.1430 
 17 C      -11.7450     2.3330    -1.1640 C.ar  1 <1>  -0.1500 
 18 C      -12.1910     1.6890     1.1030 C.ar  1 <1>  -0.1500 
 19 C      -12.8310     1.5880    -1.5870 C.ar  1 <1>  -0.1500 
 20 C      -13.2770     0.9460     0.6770 C.ar  1 <1>  -0.1500 
 21 C      -13.5960     0.8930    -0.6680 C.ar  1 <1>  -0.1500 
 22 H        0.6150    -1.5190    -0.6080 H     1 <1>   0.0800 
 23 H        0.2080    -0.0570    -1.5000 H     1 <1>   0.0800 
 24 H       -0.9130    -1.4320    -1.4770 H     1 <1>   0.0800 
 25 H       -2.0340     0.5880    -1.9850 H     1 <1>   0.1500 
 26 H       -1.9030     0.6680     2.2760 H     1 <1>   0.1500 
 27 H       -3.8920     2.1450    -1.9670 H     1 <1>   0.1500 
 28 H       -3.7820     2.2420     2.3040 H     1 <1>   0.1500 
 29 H       -5.0610     3.9190    -0.6790 H     1 <1>   0.0800 
 30 H       -5.1070     3.8740     1.0620 H     1 <1>   0.0800 
 31 H       -6.3870     1.7320     0.9050 H     1 <1>   0.0800 
 32 H       -6.5220     1.9640    -0.8180 H     1 <1>   0.0800 
 33 H       -7.6950     3.7390     1.3430 H     1 <1>   0.0800 
 34 H       -9.0910     2.2460    -0.7640 H     1 <1>   0.4500 
 35 H       -7.8420     4.0550    -1.6790 H     1 <1>   0.0800 
 36 H       -6.9870     5.1030    -0.5860 H     1 <1>   0.0800 
 37 H       -8.6980     5.0650    -0.5280 H     1 <1>   0.0800 
 38 H      -10.2640     4.1580     0.1980 H     1 <1>   0.0800 
 39 H      -10.2370     3.3000     1.7180 H     1 <1>   0.0800 
 40 H       -8.7360     1.3050     2.0110 H     1 <1>   0.0800 
 41 H       -8.0880     0.5460     0.5710 H     1 <1>   0.0800 
 42 H       -9.8110     0.5930     0.8240 H     1 <1>   0.0800 
 43 H      -11.1720     2.8720    -1.8990 H     1 <1>   0.1500 
 44 H      -11.9670     1.7200     2.1560 H     1 <1>   0.1500 
 45 H      -13.0890     1.5490    -2.6330 H     1 <1>   0.1500 
 46 H      -13.8800     0.4080     1.3900 H     1 <1>   0.1500 
 47 H      -14.4420     0.3140    -0.9990 H     1 <1>   0.1500 
@<TRIPOS>BOND
  1   1   2  1   
  2   1   3  1   
  3   2   4  ar  
  4   2   5  ar  
  5   3  22  1   
  6   3  23  1   
  7   3  24  1   
  8   4   6  ar  
  9   4  25  1   
 10   5   7  ar  
 11   5  26  1   
 12   6   8  ar  
 13   6  27  1   
 14   7   8  ar  
 15   7  28  1   
 16   8   9  1   
 17   9  10  1   
 18   9  29  1   
 19   9  30  1   
 20  10  11  1   
 21  10  31  1   
 22  10  32  1   
 23  11  12  1   
 24  11  13  1   
 25  11  33  1   
 26  12  14  1   
 27  12  15  1   
 28  12  34  1   
 29  13  35  1   
 30  13  36  1   
 31  13  37  1   
 32  14  16  1   
 33  14  38  1   
 34  14  39  1   
 35  15  40  1   
 36  15  41  1   
 37  15  42  1   
 38  16  17  ar  
 39  16  18  ar  
 40  17  19  ar  
 41  17  43  1   
 42  18  20  ar  
 43  18  44  1   
 44  19  21  ar  
 45  19  45  1   
 46  20  21  ar  
 47  20  46  1   
 48  21  47  1   
@<TRIPOS>SUBSTRUCTURE
  1 ****  10 GROUP 4 **** **** 0

# MOE 2024.06 (io_trps.svl 2023.06)
