@<TRIPOS>MOLECULE
NONAME
33 34 1 0 0 
SMALL
USER_CHARGES


@<TRIPOS>ATOM
  1 O        1.0880    -0.9580     1.5460 O.3   1 <1>  -0.5600 
  2 C        0.4890    -1.6760     0.5020 C.3   1 <1>   0.1200 
  3 C        1.6900     0.2460     1.1490 C.3   1 <1>   0.1200 
  4 C        1.5340    -2.0770    -0.5660 C.3   1 <1>   0.3430 
  5 C        2.7150     0.0210     0.0130 C.3   1 <1>   0.3430 
  6 N        2.8670    -1.4410    -0.3000 N.4   1 <1>  -0.9590 
  7 C        3.8870    -1.7270    -1.3440 C.3   1 <1>   0.4860 
  8 C        5.2150    -1.1460    -0.8990 C.ar  1 <1>  -0.1440 
  9 C        5.9440    -1.7480     0.1180 C.ar  1 <1>  -0.1500 
 10 C        5.7070     0.0030    -1.5020 C.ar  1 <1>  -0.1500 
 11 C        7.1440    -1.2020     0.5380 C.ar  1 <1>  -0.1500 
 12 C        6.9060     0.5490    -1.0810 C.ar  1 <1>  -0.1500 
 13 C        7.6300    -0.0440    -0.0600 C.ar  1 <1>   0.0820 
 14 O        8.7900     0.5600     0.2920 O.3   1 <1>  -0.3620 
 15 C        9.6400     0.0100     1.2750 C.3   1 <1>   0.0400 
 16 H       -0.2870    -1.0680     0.0680 H     1 <1>   0.0800 
 17 H        0.0320    -2.5540     0.9230 H     1 <1>   0.0800 
 18 H        2.1800     0.6650     2.0100 H     1 <1>   0.0800 
 19 H        0.9190     0.9310     0.8370 H     1 <1>   0.0800 
 20 H        1.1690    -1.7840    -1.5360 H     1 <1>   0.0800 
 21 H        1.6350    -3.1500    -0.5680 H     1 <1>   0.0800 
 22 H        3.6630     0.4390     0.3120 H     1 <1>   0.0800 
 23 H        2.3900     0.5550    -0.8650 H     1 <1>   0.0800 
 24 H        3.2010    -1.8490     0.5850 H     1 <1>   0.4500 
 25 H        3.5930    -1.2880    -2.2830 H     1 <1>   0.0800 
 26 H        3.9920    -2.7910    -1.4810 H     1 <1>   0.0800 
 27 H        5.5920    -2.6480     0.5930 H     1 <1>   0.1500 
 28 H        5.1730     0.4870    -2.3030 H     1 <1>   0.1500 
 29 H        7.6880    -1.6860     1.3270 H     1 <1>   0.1500 
 30 H        7.2960     1.4400    -1.5420 H     1 <1>   0.1500 
 31 H       10.5030     0.6460     1.3630 H     1 <1>   0.0800 
 32 H        9.9440    -0.9740     0.9640 H     1 <1>   0.0800 
 33 H        9.1150    -0.0240     2.2130 H     1 <1>   0.0800 
@<TRIPOS>BOND
  1   1   2  1   
  2   1   3  1   
  3   2   4  1   
  4   2  16  1   
  5   2  17  1   
  6   3   5  1   
  7   3  18  1   
  8   3  19  1   
  9   4   6  1   
 10   4  20  1   
 11   4  21  1   
 12   5   6  1   
 13   5  22  1   
 14   5  23  1   
 15   6   7  1   
 16   6  24  1   
 17   7   8  1   
 18   7  25  1   
 19   7  26  1   
 20   8   9  ar  
 21   8  10  ar  
 22   9  11  ar  
 23   9  27  1   
 24  10  12  ar  
 25  10  28  1   
 26  11  13  ar  
 27  11  29  1   
 28  12  13  ar  
 29  12  30  1   
 30  13  14  1   
 31  14  15  1   
 32  15  31  1   
 33  15  32  1   
 34  15  33  1   
@<TRIPOS>SUBSTRUCTURE
  1 ****   8 GROUP 4 **** **** 0

# MOE 2024.06 (io_trps.svl 2023.06)
