@<TRIPOS>MOLECULE
NONAME
41 42 1 0 0 
SMALL
USER_CHARGES


@<TRIPOS>ATOM
  1 S       -0.2710     0.0690     0.5520 S.3   1 <1>  -0.3320 
  2 C       -1.7510    -0.7630    -0.0440 C.ar  1 <1>   0.1020 
  3 C        0.3090    -0.8560     2.0420 C.3   1 <1>  -0.0100 
  4 C       -2.3160    -1.8380     0.6220 C.ar  1 <1>  -0.1500 
  5 C       -2.3120    -0.2820    -1.2110 C.ar  1 <1>  -0.1500 
  6 C       -3.4620    -2.4260     0.1140 C.ar  1 <1>  -0.1500 
  7 C       -3.4550    -0.8720    -1.7190 C.ar  1 <1>  -0.1500 
  8 C       -4.0440    -1.9390    -1.0520 C.ar  1 <1>  -0.1430 
  9 C       -5.3160    -2.5630    -1.5870 C.3   1 <1>   0.4860 
 10 N       -6.4450    -2.1040    -0.7150 N.4   1 <1>  -0.9590 
 11 C       -7.6630    -2.9680    -0.9330 C.3   1 <1>   0.3430 
 12 C       -6.7170    -0.6570    -0.9610 C.3   1 <1>   0.3430 
 13 C       -8.8210    -2.8020     0.0980 C.3   1 <1>   0.3430 
 14 C       -7.1780     0.0600     0.3080 C.3   1 <1>  -0.1600 
 15 N       -9.2240    -1.3860     0.4510 N.4   1 <1>  -0.9590 
 16 C       -8.1690    -0.6640     1.2210 C.3   1 <1>   0.3430 
 17 C      -10.4810    -1.4260     1.2760 C.3   1 <1>   0.2630 
 18 H        1.2120    -0.3840     2.3840 H     1 <1>   0.0800 
 19 H        0.5000    -1.8730     1.7490 H     1 <1>   0.0800 
 20 H       -0.4580    -0.7970     2.7920 H     1 <1>   0.0800 
 21 H       -1.8750    -2.2200     1.5230 H     1 <1>   0.1500 
 22 H       -1.8450     0.5480    -1.7160 H     1 <1>   0.1500 
 23 H       -3.8780    -3.2690     0.6380 H     1 <1>   0.1500 
 24 H       -3.8660    -0.4860    -2.6370 H     1 <1>   0.1500 
 25 H       -5.2200    -3.6370    -1.5490 H     1 <1>   0.0800 
 26 H       -5.4770    -2.2690    -2.6120 H     1 <1>   0.0800 
 27 H       -6.0640    -2.2060     0.2360 H     1 <1>   0.4500 
 28 H       -7.3660    -4.0050    -0.9210 H     1 <1>   0.0800 
 29 H       -8.0580    -2.7740    -1.9170 H     1 <1>   0.0800 
 30 H       -7.4630    -0.5550    -1.7330 H     1 <1>   0.0800 
 31 H       -5.8250    -0.1630    -1.3120 H     1 <1>   0.0800 
 32 H       -8.5410    -3.3190     1.0020 H     1 <1>   0.0800 
 33 H       -9.6820    -3.3210    -0.2950 H     1 <1>   0.0800 
 34 H       -7.6080     1.0030     0.0180 H     1 <1>   0.0800 
 35 H       -6.3080     0.3060     0.8920 H     1 <1>   0.0800 
 36 H       -9.4590    -0.8460    -0.3960 H     1 <1>   0.4500 
 37 H       -8.6260     0.0700     1.8680 H     1 <1>   0.0800 
 38 H       -7.6430    -1.3610     1.8530 H     1 <1>   0.0800 
 39 H      -10.3170    -1.9640     2.1960 H     1 <1>   0.0800 
 40 H      -11.2760    -1.9130     0.7320 H     1 <1>   0.0800 
 41 H      -10.8040    -0.4260     1.5190 H     1 <1>   0.0800 
@<TRIPOS>BOND
  1   1   2  1   
  2   1   3  1   
  3   2   4  ar  
  4   2   5  ar  
  5   3  18  1   
  6   3  19  1   
  7   3  20  1   
  8   4   6  ar  
  9   4  21  1   
 10   5   7  ar  
 11   5  22  1   
 12   6   8  ar  
 13   6  23  1   
 14   7   8  ar  
 15   7  24  1   
 16   8   9  1   
 17   9  10  1   
 18   9  25  1   
 19   9  26  1   
 20  10  11  1   
 21  10  12  1   
 22  10  27  1   
 23  11  13  1   
 24  11  28  1   
 25  11  29  1   
 26  12  14  1   
 27  12  30  1   
 28  12  31  1   
 29  13  15  1   
 30  13  32  1   
 31  13  33  1   
 32  14  16  1   
 33  14  34  1   
 34  14  35  1   
 35  15  16  1   
 36  15  17  1   
 37  15  36  1   
 38  16  37  1   
 39  16  38  1   
 40  17  39  1   
 41  17  40  1   
 42  17  41  1   
@<TRIPOS>SUBSTRUCTURE
  1 ****   8 GROUP 4 **** **** 0

# MOE 2024.06 (io_trps.svl 2023.06)
