@<TRIPOS>MOLECULE
NONAME
51 53 1 0 0 
SMALL
USER_CHARGES


@<TRIPOS>ATOM
  1 CL       3.9540    -3.3460    -4.5500 Cl    1 <1>  -0.1770 
  2 C        3.5200    -2.9460    -2.9060 C.ar  1 <1>   0.1770 
  3 C        4.5170    -2.7670    -1.9690 C.ar  1 <1>  -0.1500 
  4 C        2.1840    -2.8150    -2.5750 C.ar  1 <1>  -0.1500 
  5 C        4.1810    -2.4470    -0.6590 C.ar  1 <1>   0.1000 
  6 C        1.8430    -2.4970    -1.2700 C.ar  1 <1>  -0.1500 
  7 N        5.1510    -2.2550     0.3150 N.pl3 1 <1>  -0.8380 
  8 C        2.8390    -2.3150    -0.3250 C.ar  1 <1>  -0.1500 
  9 C        5.9360    -3.4630     0.7120 C.3   1 <1>   0.2090 
 10 C        6.0230    -1.0540     0.1470 C.3   1 <1>   0.2090 
 11 C        6.8250    -3.1780     1.9390 C.3   1 <1>   0.1100 
 12 C        6.8990    -0.8270     1.3930 C.3   1 <1>   0.1100 
 13 N        7.7210    -2.0230     1.7130 N.3   1 <1>  -0.8100 
 14 C        8.6100    -1.7790     2.8890 C.3   1 <1>   0.1710 
 15 C        9.7880    -0.8470     2.5870 C.2   1 <1>   0.5690 
 16 O       10.3600    -0.3000     3.5000 O.2   1 <1>  -0.5700 
 17 N       10.1030    -0.6820     1.2720 N.am  1 <1>  -0.5470 
 18 C       10.9630     0.1850     0.5770 C.ar  1 <1>   0.1170 
 19 C       10.7150     0.4250    -0.7790 C.ar  1 <1>   0.0830 
 20 C       12.0450     0.8070     1.1870 C.ar  1 <1>  -0.1500 
 21 O        9.6380    -0.2040    -1.3410 O.3   1 <1>  -0.3630 
 22 C       11.5490     1.2770    -1.4940 C.ar  1 <1>  -0.1500 
 23 C       12.8720     1.6550     0.4710 C.ar  1 <1>  -0.1500 
 24 C        9.3500    -0.0680    -2.7150 C.3   1 <1>   0.0400 
 25 C       12.6240     1.8940    -0.8770 C.ar  1 <1>   0.0830 
 26 O       13.3820     2.7130    -1.6520 O.3   1 <1>  -0.3620 
 27 C       14.4900     3.4000    -1.1130 C.3   1 <1>   0.0400 
 28 H        5.5460    -2.8750    -2.2510 H     1 <1>   0.1500 
 29 H        1.4280    -2.9600    -3.3250 H     1 <1>   0.1500 
 30 H        0.8090    -2.3900    -0.9910 H     1 <1>   0.1500 
 31 H        2.5880    -2.0670     0.6900 H     1 <1>   0.1500 
 32 H        6.5580    -3.7750    -0.1080 H     1 <1>   0.0800 
 33 H        5.2560    -4.2650     0.9410 H     1 <1>   0.0800 
 34 H        5.4050    -0.1890    -0.0180 H     1 <1>   0.0800 
 35 H        6.6590    -1.1820    -0.7110 H     1 <1>   0.0800 
 36 H        7.4150    -4.0540     2.1460 H     1 <1>   0.0800 
 37 H        6.1910    -2.9910     2.7890 H     1 <1>   0.0800 
 38 H        6.2580    -0.5880     2.2240 H     1 <1>   0.0800 
 39 H        7.5340     0.0220     1.2100 H     1 <1>   0.0800 
 40 H        9.0270    -2.7130     3.2180 H     1 <1>   0.0800 
 41 H        8.0400    -1.3660     3.7020 H     1 <1>   0.0800 
 42 H        9.4460    -1.1820     0.6600 H     1 <1>   0.3700 
 43 H       12.2480     0.6260     2.2270 H     1 <1>   0.1500 
 44 H       11.3900     1.4860    -2.5330 H     1 <1>   0.1500 
 45 H       13.6970     2.1150     0.9810 H     1 <1>   0.1500 
 46 H        8.4850    -0.6660    -2.9380 H     1 <1>   0.0800 
 47 H       10.1920    -0.4200    -3.2850 H     1 <1>   0.0800 
 48 H        9.1450     0.9660    -2.9290 H     1 <1>   0.0800 
 49 H       14.9320     3.9880    -1.8980 H     1 <1>   0.0800 
 50 H       15.2030     2.6820    -0.7490 H     1 <1>   0.0800 
 51 H       14.1500     4.0440    -0.3220 H     1 <1>   0.0800 
@<TRIPOS>BOND
  1   1   2  1   
  2   2   3  ar  
  3   2   4  ar  
  4   3   5  ar  
  5   3  28  1   
  6   4   6  ar  
  7   4  29  1   
  8   5   7  1   
  9   5   8  ar  
 10   6   8  ar  
 11   6  30  1   
 12   7   9  1   
 13   7  10  1   
 14   8  31  1   
 15   9  11  1   
 16   9  32  1   
 17   9  33  1   
 18  10  12  1   
 19  10  34  1   
 20  10  35  1   
 21  11  13  1   
 22  11  36  1   
 23  11  37  1   
 24  12  13  1   
 25  12  38  1   
 26  12  39  1   
 27  13  14  1   
 28  14  15  1   
 29  14  40  1   
 30  14  41  1   
 31  15  16  2   
 32  15  17  am  
 33  17  18  1   
 34  17  42  1   
 35  18  19  ar  
 36  18  20  ar  
 37  19  21  1   
 38  19  22  ar  
 39  20  23  ar  
 40  20  43  1   
 41  21  24  1   
 42  22  25  ar  
 43  22  44  1   
 44  23  25  ar  
 45  23  45  1   
 46  24  46  1   
 47  24  47  1   
 48  24  48  1   
 49  25  26  1   
 50  26  27  1   
 51  27  49  1   
 52  27  50  1   
 53  27  51  1   
@<TRIPOS>SUBSTRUCTURE
  1 ****  12 GROUP 4 **** **** 0

# MOE 2024.06 (io_trps.svl 2023.06)
