@<TRIPOS>MOLECULE
NONAME
44 46 1 0 0 
SMALL
USER_CHARGES


@<TRIPOS>ATOM
  1 S        0.5220     0.1470     0.2940 S.3   1 <1>  -0.4600 
  2 C        1.0460     1.4360    -0.8590 C.3   1 <1>   0.5940 
  3 C        1.9990    -0.8860     0.1810 C.3   1 <1>   0.1310 
  4 N        2.3300     0.9420    -1.4040 N.am  1 <1>  -0.6600 
  5 C        1.2810     2.7630    -0.1340 C.ar  1 <1>  -0.1440 
  6 C        2.8890    -0.1410    -0.7890 C.2   1 <1>   0.5690 
  7 C        2.8830     1.6470    -2.5970 C.3   1 <1>   0.1400 
  8 C        0.9650     3.9510    -0.7800 C.ar  1 <1>  -0.1500 
  9 C        1.8350     2.8240     1.1410 C.ar  1 <1>  -0.1500 
 10 O        4.0410    -0.4740    -0.9440 O.2   1 <1>  -0.5700 
 11 C        4.3060     2.1690    -2.3640 C.3   1 <1>  -0.1600 
 12 C        1.2090     5.1720    -0.1750 C.ar  1 <1>  -0.1500 
 13 C        2.0750     4.0440     1.7500 C.ar  1 <1>  -0.1500 
 14 C        4.4490     2.8560    -1.0030 C.3   1 <1>   0.3430 
 15 C        1.7660     5.2190     1.0900 C.ar  1 <1>  -0.1500 
 16 N        5.8620     2.8410    -0.5480 N.4   1 <1>  -0.9590 
 17 C        6.3160     1.4660    -0.1340 C.3   1 <1>   0.3430 
 18 C        6.1000     3.8180     0.5640 C.3   1 <1>   0.3430 
 19 C        7.7780     1.4810     0.3690 C.3   1 <1>   0.1200 
 20 C        7.5270     3.6900     1.1470 C.3   1 <1>   0.1200 
 21 O        8.2990     2.7840     0.4070 O.3   1 <1>  -0.5600 
 22 H        0.2900     1.5110    -1.6230 H     1 <1>   0.0800 
 23 H        1.7110    -1.8480    -0.2000 H     1 <1>   0.0800 
 24 H        2.4380    -0.9620     1.1580 H     1 <1>   0.0800 
 25 H        2.2420     2.4730    -2.8550 H     1 <1>   0.0800 
 26 H        2.8860     0.9660    -3.4330 H     1 <1>   0.0800 
 27 H        0.5210     3.9390    -1.7620 H     1 <1>   0.1500 
 28 H        2.0790     1.9240     1.6790 H     1 <1>   0.1500 
 29 H        4.5520     2.8660    -3.1450 H     1 <1>   0.0800 
 30 H        4.9750     1.3350    -2.4590 H     1 <1>   0.0800 
 31 H        0.9550     6.0870    -0.6830 H     1 <1>   0.1500 
 32 H        2.4890     4.0800     2.7430 H     1 <1>   0.1500 
 33 H        3.8520     2.3400    -0.2700 H     1 <1>   0.0800 
 34 H        4.0810     3.8670    -1.0720 H     1 <1>   0.0800 
 35 H        1.9430     6.1700     1.5650 H     1 <1>   0.1500 
 36 H        6.4880     3.1240    -1.3150 H     1 <1>   0.4500 
 37 H        6.2370     0.7750    -0.9580 H     1 <1>   0.0800 
 38 H        5.6790     1.0910     0.6490 H     1 <1>   0.0800 
 39 H        5.3860     3.6560     1.3550 H     1 <1>   0.0800 
 40 H        5.9580     4.8240     0.2030 H     1 <1>   0.0800 
 41 H        8.3990     0.9000    -0.2910 H     1 <1>   0.0800 
 42 H        7.8440     1.0520     1.3540 H     1 <1>   0.0800 
 43 H        7.4930     3.3570     2.1700 H     1 <1>   0.0800 
 44 H        8.0250     4.6440     1.1220 H     1 <1>   0.0800 
@<TRIPOS>BOND
  1   1   2  1   
  2   1   3  1   
  3   2   4  1   
  4   2   5  1   
  5   2  22  1   
  6   3   6  1   
  7   3  23  1   
  8   3  24  1   
  9   4   6  am  
 10   4   7  1   
 11   5   8  ar  
 12   5   9  ar  
 13   6  10  2   
 14   7  11  1   
 15   7  25  1   
 16   7  26  1   
 17   8  12  ar  
 18   8  27  1   
 19   9  13  ar  
 20   9  28  1   
 21  11  14  1   
 22  11  29  1   
 23  11  30  1   
 24  12  15  ar  
 25  12  31  1   
 26  13  15  ar  
 27  13  32  1   
 28  14  16  1   
 29  14  33  1   
 30  14  34  1   
 31  15  35  1   
 32  16  17  1   
 33  16  18  1   
 34  16  36  1   
 35  17  19  1   
 36  17  37  1   
 37  17  38  1   
 38  18  20  1   
 39  18  39  1   
 40  18  40  1   
 41  19  21  1   
 42  19  41  1   
 43  19  42  1   
 44  20  21  1   
 45  20  43  1   
 46  20  44  1   
@<TRIPOS>SUBSTRUCTURE
  1 ****  14 GROUP 4 **** **** 0

# MOE 2024.06 (io_trps.svl 2023.06)
