@<TRIPOS>MOLECULE
NONAME
48 50 1 0 0 
SMALL
USER_CHARGES


@<TRIPOS>ATOM
  1 F        0.0220     4.9570     0.0990 F     1 <1>  -0.1900 
  2 C        0.6820     3.8380    -0.0220 C.ar  1 <1>   0.1900 
  3 C        0.0240     2.6150     0.1390 C.ar  1 <1>   0.0860 
  4 C        2.0320     3.9440    -0.3000 C.ar  1 <1>  -0.1500 
  5 C       -1.3940     2.4810     0.4210 C.2   1 <1>   0.5440 
  6 C        0.8260     1.4760     0.0120 C.ar  1 <1>  -0.1500 
  7 C        2.7880     2.7930    -0.4240 C.ar  1 <1>  -0.1500 
  8 O       -1.7920     1.5070     1.0310 O.2   1 <1>  -0.5700 
  9 N       -2.2940     3.4270     0.0020 N.am  1 <1>  -0.5470 
 10 C        2.1800     1.5590    -0.2660 C.ar  1 <1>  -0.1500 
 11 C       -3.6950     3.5260     0.0660 C.ar  1 <1>   0.1170 
 12 C       -4.2450     4.8110    -0.0640 C.ar  1 <1>   0.1000 
 13 C       -4.5330     2.4330     0.2190 C.ar  1 <1>  -0.1500 
 14 N       -3.4140     5.9280    -0.2220 N.pl3 1 <1>  -0.8380 
 15 C       -5.6250     4.9480    -0.0190 C.ar  1 <1>  -0.1500 
 16 C       -5.9240     2.5560     0.2600 C.ar  1 <1>   0.0860 
 17 C       -3.6440     6.8880    -1.3460 C.3   1 <1>   0.2090 
 18 C       -2.8670     6.5700     1.0120 C.3   1 <1>   0.2090 
 19 C       -6.4450     3.8480     0.1400 C.ar  1 <1>  -0.1500 
 20 C       -6.7790     1.3970     0.4150 C.2   1 <1>   0.6340 
 21 C       -4.3020     8.1990    -0.8700 C.3   1 <1>   0.1200 
 22 C       -3.6120     7.8750     1.3450 C.3   1 <1>   0.1200 
 23 O       -6.3670     0.2540     0.4350 O.2   1 <1>  -0.5700 
 24 O       -8.0960     1.6010     0.5380 O.3   1 <1>  -0.4300 
 25 O       -3.6380     8.7350     0.2400 O.3   1 <1>  -0.5600 
 26 C       -8.9970     0.5270     0.6920 C.3   1 <1>   0.1200 
 27 C      -10.4060     1.1020     0.8010 C.3   1 <1>  -0.2400 
 28 H        2.4840     4.9140    -0.4150 H     1 <1>   0.1500 
 29 H        0.3710     0.5060     0.1340 H     1 <1>   0.1500 
 30 H        3.8420     2.8540    -0.6410 H     1 <1>   0.1500 
 31 H       -1.8980     4.3230    -0.3000 H     1 <1>   0.3700 
 32 H        2.7640     0.6590    -0.3580 H     1 <1>   0.1500 
 33 H       -4.1070     1.4490     0.3050 H     1 <1>   0.1500 
 34 H       -6.0600     5.9250    -0.1020 H     1 <1>   0.1500 
 35 H       -4.2610     6.4270    -2.0970 H     1 <1>   0.0800 
 36 H       -2.6970     7.1210    -1.8010 H     1 <1>   0.0800 
 37 H       -1.8250     6.7900     0.8640 H     1 <1>   0.0800 
 38 H       -2.9480     5.8890     1.8420 H     1 <1>   0.0800 
 39 H       -7.5110     3.9930     0.1700 H     1 <1>   0.1500 
 40 H       -5.3300     8.0320    -0.6040 H     1 <1>   0.0800 
 41 H       -4.2690     8.9320    -1.6560 H     1 <1>   0.0800 
 42 H       -3.1160     8.3870     2.1490 H     1 <1>   0.0800 
 43 H       -4.6240     7.6620     1.6420 H     1 <1>   0.0800 
 44 H       -8.7300    -0.0160     1.5840 H     1 <1>   0.0800 
 45 H       -8.9080    -0.1190    -0.1650 H     1 <1>   0.0800 
 46 H      -10.4740     1.7530     1.6550 H     1 <1>   0.0800 
 47 H      -11.1150     0.3040     0.9210 H     1 <1>   0.0800 
 48 H      -10.6520     1.6500    -0.0910 H     1 <1>   0.0800 
@<TRIPOS>BOND
  1   1   2  1   
  2   2   3  ar  
  3   2   4  ar  
  4   3   5  1   
  5   3   6  ar  
  6   4   7  ar  
  7   4  28  1   
  8   5   8  2   
  9   5   9  am  
 10   6  10  ar  
 11   6  29  1   
 12   7  10  ar  
 13   7  30  1   
 14   9  11  1   
 15   9  31  1   
 16  10  32  1   
 17  11  12  ar  
 18  11  13  ar  
 19  12  14  1   
 20  12  15  ar  
 21  13  16  ar  
 22  13  33  1   
 23  14  17  1   
 24  14  18  1   
 25  15  19  ar  
 26  15  34  1   
 27  16  19  ar  
 28  16  20  1   
 29  17  21  1   
 30  17  35  1   
 31  17  36  1   
 32  18  22  1   
 33  18  37  1   
 34  18  38  1   
 35  19  39  1   
 36  20  23  2   
 37  20  24  1   
 38  21  25  1   
 39  21  40  1   
 40  21  41  1   
 41  22  25  1   
 42  22  42  1   
 43  22  43  1   
 44  24  26  1   
 45  26  27  1   
 46  26  44  1   
 47  26  45  1   
 48  27  46  1   
 49  27  47  1   
 50  27  48  1   
@<TRIPOS>SUBSTRUCTURE
  1 ****  11 GROUP 4 **** **** 0

# MOE 2024.06 (io_trps.svl 2023.06)
