@<TRIPOS>MOLECULE
NONAME
41 42 1 0 0 
SMALL
USER_CHARGES


@<TRIPOS>ATOM
  1 O        0.0590     0.4920     1.0500 O.2   1 <1>  -0.5700 
  2 C        0.1110     1.5630     0.4920 C.2   1 <1>   0.4950 
  3 C        1.3360     2.1540     0.0410 C.2   1 <1>   0.0290 
  4 C       -1.2280     2.2490     0.2780 C.3   1 <1>  -0.0990 
  5 C        1.2730     3.4260    -0.6270 C.2   1 <1>   0.4950 
  6 C        2.5250     1.4940     0.2600 C.2   1 <1>  -0.0500 
  7 C       -1.1170     3.7770     0.1940 C.3   1 <1>   0.0000 
  8 O        2.2390     4.0200    -1.0530 O.2   1 <1>  -0.5700 
  9 C       -0.0590     4.1220    -0.8630 C.3   1 <1>  -0.0990 
 10 N        3.7620     1.9310    -0.1100 N.pl3 1 <1>  -0.6000 
 11 C       -2.4720     4.3690    -0.2220 C.3   1 <1>  -0.2400 
 12 C       -0.7290     4.3680     1.5620 C.3   1 <1>  -0.2400 
 13 C        5.0380     1.3660     0.0490 C.ar  1 <1>   0.1000 
 14 C        6.1570     2.0550    -0.4210 C.ar  1 <1>  -0.1430 
 15 C        5.2230     0.1310     0.6630 C.ar  1 <1>  -0.1500 
 16 C        7.4210     1.5050    -0.2710 C.ar  1 <1>  -0.1500 
 17 C        6.0140     3.4120    -1.1020 C.3   1 <1>  -0.0970 
 18 C        6.4870    -0.4090     0.8090 C.ar  1 <1>  -0.1500 
 19 C        7.5950     0.2750     0.3410 C.ar  1 <1>  -0.1430 
 20 C        8.9860    -0.3110     0.4990 C.3   1 <1>  -0.0970 
 21 H       -1.6520     1.8580    -0.6300 H     1 <1>   0.0800 
 22 H       -1.8900     1.9780     1.0820 H     1 <1>   0.0800 
 23 H        2.4940     0.5450     0.7680 H     1 <1>   0.1500 
 24 H        0.1030     5.1850    -0.8770 H     1 <1>   0.0800 
 25 H       -0.4060     3.8380    -1.8400 H     1 <1>   0.0800 
 26 H        3.7760     2.8440    -0.5950 H     1 <1>   0.4000 
 27 H       -2.7850     3.9840    -1.1770 H     1 <1>   0.0800 
 28 H       -2.4100     5.4410    -0.2960 H     1 <1>   0.0800 
 29 H       -3.2300     4.1270     0.5030 H     1 <1>   0.0800 
 30 H       -1.4760     4.1290     2.3000 H     1 <1>   0.0800 
 31 H       -0.6550     5.4400     1.5010 H     1 <1>   0.0800 
 32 H        0.2150     3.9910     1.9140 H     1 <1>   0.0800 
 33 H        4.3800    -0.4180     1.0330 H     1 <1>   0.1500 
 34 H        8.2820     2.0380    -0.6320 H     1 <1>   0.1500 
 35 H        6.9720     3.7990    -1.3970 H     1 <1>   0.0800 
 36 H        5.5580     4.1150    -0.4280 H     1 <1>   0.0800 
 37 H        5.4020     3.3190    -1.9810 H     1 <1>   0.0800 
 38 H        6.6020    -1.3640     1.2890 H     1 <1>   0.1500 
 39 H        8.9380    -1.3820     0.5770 H     1 <1>   0.0800 
 40 H        9.4460     0.0820     1.3870 H     1 <1>   0.0800 
 41 H        9.5950    -0.0600    -0.3510 H     1 <1>   0.0800 
@<TRIPOS>BOND
  1   1   2  2   
  2   2   3  1   
  3   2   4  1   
  4   3   5  1   
  5   3   6  2   
  6   4   7  1   
  7   4  21  1   
  8   4  22  1   
  9   5   8  2   
 10   5   9  1   
 11   6  10  1   
 12   6  23  1   
 13   7   9  1   
 14   7  11  1   
 15   7  12  1   
 16   9  24  1   
 17   9  25  1   
 18  10  13  1   
 19  10  26  1   
 20  11  27  1   
 21  11  28  1   
 22  11  29  1   
 23  12  30  1   
 24  12  31  1   
 25  12  32  1   
 26  13  14  ar  
 27  13  15  ar  
 28  14  16  ar  
 29  14  17  1   
 30  15  18  ar  
 31  15  33  1   
 32  16  19  ar  
 33  16  34  1   
 34  17  35  1   
 35  17  36  1   
 36  17  37  1   
 37  18  19  ar  
 38  18  38  1   
 39  19  20  1   
 40  20  39  1   
 41  20  40  1   
 42  20  41  1   
@<TRIPOS>SUBSTRUCTURE
  1 ****   6 GROUP 4 **** **** 0

# MOE 2024.06 (io_trps.svl 2023.06)
