@<TRIPOS>MOLECULE
NONAME
44 47 1 0 0 
SMALL
USER_CHARGES


@<TRIPOS>ATOM
  1 O       -0.9130     0.1500     1.3030 O.3   1 <1>  -0.5600 
  2 C       -1.9150    -0.3480     0.4600 C.3   1 <1>   0.1200 
  3 C       -1.2700     1.3440     1.9410 C.3   1 <1>   0.1200 
  4 C       -2.2400     0.6570    -0.6610 C.3   1 <1>   0.2090 
  5 C       -1.5490     2.4550     0.9120 C.3   1 <1>   0.2090 
  6 N       -2.5570     2.0130    -0.1060 N.pl3 1 <1>  -0.8380 
  7 C       -3.8870     2.3940     0.0820 C.ar  1 <1>   0.4100 
  8 N       -4.7290     1.4620     0.4090 N.ar  1 <1>  -0.5660 
  9 C       -4.2630     3.8080    -0.0680 C.ar  1 <1>   0.4100 
 10 C       -5.9880     1.9470     0.6370 C.ar  1 <1>   0.5450 
 11 N       -5.4540     4.2640     0.1720 N.ar  1 <1>  -0.5660 
 12 N       -3.2700     4.6710    -0.5050 N.pl3 1 <1>  -0.6000 
 13 N       -7.0370     1.3000     0.9840 N.2   1 <1>  -0.4100 
 14 C       -6.3300     3.2800     0.5340 C.ar  1 <1>   0.5450 
 15 C       -3.0170     6.0320    -0.2690 C.ar  1 <1>   0.1000 
 16 O       -7.9990     2.1790     1.0970 O.3   1 <1>   0.2420 
 17 N       -7.5730     3.3860     0.8250 N.2   1 <1>  -0.4100 
 18 C       -1.6890     6.4420    -0.1020 C.ar  1 <1>   0.0830 
 19 C       -4.0240     6.9870    -0.2120 C.ar  1 <1>  -0.1500 
 20 O       -0.7190     5.4760    -0.1750 O.3   1 <1>  -0.3630 
 21 C       -1.3970     7.7820     0.1310 C.ar  1 <1>  -0.1500 
 22 C       -3.7370     8.3210     0.0190 C.ar  1 <1>   0.0830 
 23 C        0.6440     5.8290    -0.2690 C.3   1 <1>   0.0400 
 24 C       -2.4150     8.7190     0.1920 C.ar  1 <1>  -0.1500 
 25 O       -4.7930     9.1770     0.0590 O.3   1 <1>  -0.3620 
 26 C       -4.6080    10.5560     0.2880 C.3   1 <1>   0.0400 
 27 H       -2.7940    -0.5500     1.0480 H     1 <1>   0.0800 
 28 H       -1.5620    -1.2720     0.0380 H     1 <1>   0.0800 
 29 H       -0.4560     1.6300     2.5830 H     1 <1>   0.0800 
 30 H       -2.1420     1.1650     2.5450 H     1 <1>   0.0800 
 31 H       -3.0700     0.2920    -1.2410 H     1 <1>   0.0800 
 32 H       -1.3920     0.7350    -1.3190 H     1 <1>   0.0800 
 33 H       -0.6310     2.7140     0.4140 H     1 <1>   0.0800 
 34 H       -1.9000     3.3310     1.4310 H     1 <1>   0.0800 
 35 H       -2.4130     4.1500    -0.7320 H     1 <1>   0.4000 
 36 H       -5.0490     6.7030    -0.3540 H     1 <1>   0.1500 
 37 H       -0.3890     8.1200     0.2710 H     1 <1>   0.1500 
 38 H        0.7780     6.4910    -1.1070 H     1 <1>   0.0800 
 39 H        1.2130     4.9290    -0.4230 H     1 <1>   0.0800 
 40 H        0.9490     6.3000     0.6480 H     1 <1>   0.0800 
 41 H       -2.1620     9.7450     0.3740 H     1 <1>   0.1500 
 42 H       -5.5740    11.0270     0.2770 H     1 <1>   0.0800 
 43 H       -3.9950    10.9610    -0.4980 H     1 <1>   0.0800 
 44 H       -4.1460    10.6910     1.2500 H     1 <1>   0.0800 
@<TRIPOS>BOND
  1   1   2  1   
  2   1   3  1   
  3   2   4  1   
  4   2  27  1   
  5   2  28  1   
  6   3   5  1   
  7   3  29  1   
  8   3  30  1   
  9   4   6  1   
 10   4  31  1   
 11   4  32  1   
 12   5   6  1   
 13   5  33  1   
 14   5  34  1   
 15   6   7  1   
 16   7   8  ar  
 17   7   9  ar  
 18   8  10  ar  
 19   9  11  ar  
 20   9  12  1   
 21  10  13  2   
 22  10  14  ar  
 23  11  14  ar  
 24  12  15  1   
 25  12  35  1   
 26  13  16  1   
 27  14  17  2   
 28  15  18  ar  
 29  15  19  ar  
 30  16  17  1   
 31  18  20  1   
 32  18  21  ar  
 33  19  22  ar  
 34  19  36  1   
 35  20  23  1   
 36  21  24  ar  
 37  21  37  1   
 38  22  24  ar  
 39  22  25  1   
 40  23  38  1   
 41  23  39  1   
 42  23  40  1   
 43  24  41  1   
 44  25  26  1   
 45  26  42  1   
 46  26  43  1   
 47  26  44  1   
@<TRIPOS>SUBSTRUCTURE
  1 ****   9 GROUP 4 **** **** 0

# MOE 2024.06 (io_trps.svl 2023.06)
