@<TRIPOS>MOLECULE
NONAME
43 44 1 0 0 
SMALL
USER_CHARGES


@<TRIPOS>ATOM
  1 O        0.5600     2.2090    -2.4600 O.2   1 <1>  -0.5700 
  2 C        0.0670     2.0870    -1.3640 C.2   1 <1>   0.5690 
  3 N        0.7720     1.6150    -0.3030 N.am  1 <1>  -0.7300 
  4 C       -1.3950     2.4690    -1.1710 C.3   1 <1>   0.1810 
  5 C        2.1830     1.2010    -0.3070 C.3   1 <1>   0.2200 
  6 O       -1.7060     2.6390     0.2070 O.3   1 <1>  -0.3630 
  7 C        2.2280    -0.2910     0.0450 C.3   1 <1>  -0.1600 
  8 C        2.9460     2.1170     0.6590 C.3   1 <1>  -0.1600 
  9 C       -3.0120     2.8340     0.5070 C.ar  1 <1>   0.0820 
 10 C        3.6400    -0.8880     0.1740 C.3   1 <1>  -0.1600 
 11 C        4.4700     1.9990     0.4980 C.3   1 <1>  -0.1600 
 12 C       -3.9520     1.8030     0.4140 C.ar  1 <1>   0.0820 
 13 C       -3.3920     4.0950     0.9350 C.ar  1 <1>  -0.1500 
 14 C        4.3540    -0.4340     1.4550 C.3   1 <1>  -0.1600 
 15 C        5.1270     0.8880     1.3320 C.3   1 <1>  -0.1600 
 16 O       -3.5250     0.5690     0.0180 O.3   1 <1>  -0.3620 
 17 C       -5.2800     2.0740     0.7370 C.ar  1 <1>  -0.1500 
 18 C       -4.7140     4.3500     1.2550 C.ar  1 <1>  -0.1500 
 19 C       -4.3880    -0.5460     0.0250 C.3   1 <1>   0.0400 
 20 C       -5.6550     3.3410     1.1530 C.ar  1 <1>  -0.1500 
 21 H        0.2900     1.5660     0.5980 H     1 <1>   0.3700 
 22 H       -2.0150     1.6960    -1.5820 H     1 <1>   0.0800 
 23 H       -1.5960     3.3950    -1.6760 H     1 <1>   0.0800 
 24 H        2.5800     1.3350    -1.3000 H     1 <1>   0.0800 
 25 H        1.7140    -0.8220    -0.7370 H     1 <1>   0.0800 
 26 H        1.6890    -0.4610     0.9600 H     1 <1>   0.0800 
 27 H        2.6580     1.9260     1.6780 H     1 <1>   0.0800 
 28 H        2.6770     3.1320     0.4230 H     1 <1>   0.0800 
 29 H        4.2320    -0.6610    -0.6960 H     1 <1>   0.0800 
 30 H        3.5340    -1.9580     0.2160 H     1 <1>   0.0800 
 31 H        4.9190     2.9340     0.7850 H     1 <1>   0.0800 
 32 H        4.7060     1.8530    -0.5430 H     1 <1>   0.0800 
 33 H       -2.6520     4.8710     1.0140 H     1 <1>   0.1500 
 34 H        5.0560    -1.1970     1.7450 H     1 <1>   0.0800 
 35 H        3.6380    -0.3560     2.2550 H     1 <1>   0.0800 
 36 H        5.3010     1.2610     2.3270 H     1 <1>   0.0800 
 37 H        6.0930     0.6840     0.9030 H     1 <1>   0.0800 
 38 H       -6.0360     1.3150     0.6720 H     1 <1>   0.1500 
 39 H       -5.0080     5.3320     1.5840 H     1 <1>   0.1500 
 40 H       -3.8200    -1.4090    -0.2730 H     1 <1>   0.0800 
 41 H       -5.1860    -0.3760    -0.6750 H     1 <1>   0.0800 
 42 H       -4.7690    -0.6870     1.0210 H     1 <1>   0.0800 
 43 H       -6.6830     3.5420     1.4010 H     1 <1>   0.1500 
@<TRIPOS>BOND
  1   1   2  2   
  2   2   3  am  
  3   2   4  1   
  4   3   5  1   
  5   3  21  1   
  6   4   6  1   
  7   4  22  1   
  8   4  23  1   
  9   5   7  1   
 10   5   8  1   
 11   5  24  1   
 12   6   9  1   
 13   7  10  1   
 14   7  25  1   
 15   7  26  1   
 16   8  11  1   
 17   8  27  1   
 18   8  28  1   
 19   9  12  ar  
 20   9  13  ar  
 21  10  14  1   
 22  10  29  1   
 23  10  30  1   
 24  11  15  1   
 25  11  31  1   
 26  11  32  1   
 27  12  16  1   
 28  12  17  ar  
 29  13  18  ar  
 30  13  33  1   
 31  14  15  1   
 32  14  34  1   
 33  14  35  1   
 34  15  36  1   
 35  15  37  1   
 36  16  19  1   
 37  17  20  ar  
 38  17  38  1   
 39  18  20  ar  
 40  18  39  1   
 41  19  40  1   
 42  19  41  1   
 43  19  42  1   
 44  20  43  1   
@<TRIPOS>SUBSTRUCTURE
  1 ****   3 GROUP 4 **** **** 0

# MOE 2024.06 (io_trps.svl 2023.06)
