@<TRIPOS>MOLECULE
NONAME
50 54 1 0 0 
SMALL
USER_CHARGES


@<TRIPOS>ATOM
  1 O       -0.2930     1.4250    -2.4960 O.2   1 <1>  -0.5700 
  2 C       -1.1160     1.8180    -1.6810 C.2   1 <1>   0.6160 
  3 N       -2.4190     1.4450    -1.7600 N.am  1 <1>  -0.5470 
  4 C       -0.9330     2.6790    -0.5530 C.2   1 <1>  -0.0140 
  5 C       -3.1200     2.0230    -0.7210 C.ar  1 <1>   0.1170 
  6 C       -2.2390     2.7840     0.0360 C.ar  1 <1>   0.0280 
  7 C        0.2180     3.2740    -0.1180 C.2   1 <1>  -0.0500 
  8 C       -4.4640     1.9290    -0.3950 C.ar  1 <1>  -0.1500 
  9 C       -2.7160     3.4700     1.1490 C.ar  1 <1>  -0.1500 
 10 N        1.4280     3.1360    -0.7240 N.pl3 1 <1>  -0.8690 
 11 C       -4.9280     2.6140     0.7130 C.ar  1 <1>  -0.1500 
 12 C       -4.0570     3.3810     1.4820 C.ar  1 <1>  -0.1500 
 13 C        2.7170     3.7040    -0.2810 C.3   1 <1>   0.2890 
 14 C        3.7690     2.5780    -0.0260 C.3   1 <1>   0.0000 
 15 C        3.1010     4.7480    -1.3320 C.3   1 <1>  -0.2400 
 16 C        4.0510     1.7190    -1.2890 C.3   1 <1>  -0.1600 
 17 C        3.2540     1.6320     1.0920 C.3   1 <1>  -0.1600 
 18 C        5.1160     3.1800     0.4540 C.3   1 <1>  -0.1600 
 19 C        5.0760     0.6090    -0.9850 C.3   1 <1>  -0.0800 
 20 C        4.2730     0.5210     1.4030 C.3   1 <1>  -0.0800 
 21 C        6.1460     2.0770     0.7640 C.3   1 <1>  -0.0800 
 22 C        4.5250    -0.3020     0.1270 C.3   1 <1>  -0.1600 
 23 C        6.3940     1.2480    -0.5090 C.3   1 <1>  -0.1600 
 24 C        5.5920     1.1600     1.8690 C.3   1 <1>  -0.1600 
 25 H       -2.7630     0.8290    -2.4940 H     1 <1>   0.3700 
 26 H        0.1890     3.8960     0.7610 H     1 <1>   0.1500 
 27 H       -5.1260     1.3340    -0.9970 H     1 <1>   0.1500 
 28 H       -2.0430     4.0620     1.7430 H     1 <1>   0.1500 
 29 H        1.4990     2.5430    -1.5680 H     1 <1>   0.4000 
 30 H       -5.9680     2.5560     0.9860 H     1 <1>   0.1500 
 31 H       -4.4330     3.9090     2.3420 H     1 <1>   0.1500 
 32 H        2.5530     4.2200     0.6500 H     1 <1>   0.0800 
 33 H        3.2690     4.2890    -2.2880 H     1 <1>   0.0800 
 34 H        3.9850     5.2800    -1.0380 H     1 <1>   0.0800 
 35 H        2.3050     5.4640    -1.4300 H     1 <1>   0.0800 
 36 H        3.1400     1.2650    -1.6380 H     1 <1>   0.0800 
 37 H        4.4330     2.3340    -2.0820 H     1 <1>   0.0800 
 38 H        3.0560     2.1970     1.9850 H     1 <1>   0.0800 
 39 H        2.3270     1.1760     0.7890 H     1 <1>   0.0800 
 40 H        5.5300     3.8210    -0.3030 H     1 <1>   0.0800 
 41 H        4.9560     3.7760     1.3350 H     1 <1>   0.0800 
 42 H        5.2540     0.0280    -1.8730 H     1 <1>   0.0800 
 43 H        3.8850    -0.1200     2.1770 H     1 <1>   0.0800 
 44 H        7.0690     2.5230     1.0920 H     1 <1>   0.0800 
 45 H        5.2260    -1.0910     0.3340 H     1 <1>   0.0800 
 46 H        3.6060    -0.7570    -0.1990 H     1 <1>   0.0800 
 47 H        6.7930     1.8790    -1.2840 H     1 <1>   0.0800 
 48 H        7.1190     0.4790    -0.3070 H     1 <1>   0.0800 
 49 H        6.3090     0.3910     2.0970 H     1 <1>   0.0800 
 50 H        5.4250     1.7290     2.7670 H     1 <1>   0.0800 
@<TRIPOS>BOND
  1   1   2  2   
  2   2   3  am  
  3   2   4  1   
  4   3   5  1   
  5   3  25  1   
  6   4   6  1   
  7   4   7  2   
  8   5   6  ar  
  9   5   8  ar  
 10   6   9  ar  
 11   7  10  1   
 12   7  26  1   
 13   8  11  ar  
 14   8  27  1   
 15   9  12  ar  
 16   9  28  1   
 17  10  13  1   
 18  10  29  1   
 19  11  12  ar  
 20  11  30  1   
 21  12  31  1   
 22  13  14  1   
 23  13  15  1   
 24  13  32  1   
 25  14  16  1   
 26  14  17  1   
 27  14  18  1   
 28  15  33  1   
 29  15  34  1   
 30  15  35  1   
 31  16  19  1   
 32  16  36  1   
 33  16  37  1   
 34  17  20  1   
 35  17  38  1   
 36  17  39  1   
 37  18  21  1   
 38  18  40  1   
 39  18  41  1   
 40  19  22  1   
 41  19  23  1   
 42  19  42  1   
 43  20  22  1   
 44  20  24  1   
 45  20  43  1   
 46  21  23  1   
 47  21  24  1   
 48  21  44  1   
 49  22  45  1   
 50  22  46  1   
 51  23  47  1   
 52  23  48  1   
 53  24  49  1   
 54  24  50  1   
@<TRIPOS>SUBSTRUCTURE
  1 ****  10 GROUP 4 **** **** 0

# MOE 2024.06 (io_trps.svl 2023.06)
