@<TRIPOS>MOLECULE
NONAME
43 45 1 0 0 
SMALL
USER_CHARGES


@<TRIPOS>ATOM
  1 CL       0.5140    -0.4840     2.0340 Cl    1 <1>  -0.1770 
  2 C        0.7400     0.4210     0.5560 C.ar  1 <1>   0.1770 
  3 C        0.4150     1.7690     0.5020 C.ar  1 <1>  -0.1440 
  4 C        1.2400    -0.2450    -0.5480 C.ar  1 <1>  -0.1500 
  5 C        0.5900     2.4460    -0.6960 C.ar  1 <1>  -0.1500 
  6 C       -0.1340     2.5060     1.7100 C.3   1 <1>   0.2840 
  7 C        1.4170     0.4430    -1.7360 C.ar  1 <1>  -0.1500 
  8 C        1.0900     1.7880    -1.8080 C.ar  1 <1>  -0.1500 
  9 N       -1.6000     2.3580     1.7130 N.am  1 <1>  -0.7300 
 10 C       -2.4700     3.3440     1.3930 C.2   1 <1>   0.5690 
 11 O       -2.1130     4.4710     1.1600 O.2   1 <1>  -0.5700 
 12 C       -3.9320     2.9990     1.2870 C.3   1 <1>  -0.0990 
 13 C       -4.2390     2.5510    -0.1420 C.3   1 <1>   0.1400 
 14 N       -5.5890     1.9530    -0.2110 N.am  1 <1>  -0.4200 
 15 C       -5.8780     0.6750     0.1720 C.2   1 <1>   0.5690 
 16 C       -6.7020     2.5840    -0.6880 C.2   1 <1>   0.5690 
 17 O       -5.1360    -0.0770     0.7500 O.2   1 <1>  -0.5700 
 18 C       -7.2790     0.3320    -0.2770 C.3   1 <1>  -0.0190 
 19 O       -6.7420     3.6650    -1.2150 O.2   1 <1>  -0.5700 
 20 C       -7.9110     1.7200    -0.4110 C.3   1 <1>  -0.0190 
 21 C       -8.2020    -0.5770     0.5400 C.3   1 <1>  -0.0220 
 22 C       -9.1040     1.6530    -1.3680 C.3   1 <1>  -0.0220 
 23 C       -9.6050    -0.4730    -0.0650 C.2   1 <1>  -0.2880 
 24 C       -9.9930     0.4920    -0.9150 C.2   1 <1>  -0.2880 
 25 H        1.4850    -1.2890    -0.4760 H     1 <1>   0.1500 
 26 H        0.3330     3.4910    -0.7660 H     1 <1>   0.1500 
 27 H        0.1330     3.5490     1.6560 H     1 <1>   0.0800 
 28 H        0.2730     2.1100     2.6240 H     1 <1>   0.0800 
 29 H        1.8070    -0.0640    -2.6020 H     1 <1>   0.1500 
 30 H        1.2240     2.3240    -2.7320 H     1 <1>   0.1500 
 31 H       -1.9310     1.3990     1.8360 H     1 <1>   0.3700 
 32 H       -4.5170     3.8660     1.5320 H     1 <1>   0.0800 
 33 H       -4.1560     2.2150     1.9860 H     1 <1>   0.0800 
 34 H       -3.5200     1.8140    -0.4570 H     1 <1>   0.0800 
 35 H       -4.1750     3.3930    -0.8120 H     1 <1>   0.0800 
 36 H       -7.1770    -0.1020    -1.2570 H     1 <1>   0.0800 
 37 H       -8.2810     2.0310     0.5510 H     1 <1>   0.0800 
 38 H       -8.2220    -0.2780     1.5740 H     1 <1>   0.0800 
 39 H       -7.8440    -1.5910     0.4830 H     1 <1>   0.0800 
 40 H       -8.7770     1.4960    -2.3820 H     1 <1>   0.0800 
 41 H       -9.6480     2.5810    -1.3240 H     1 <1>   0.0800 
 42 H      -10.2630    -1.2640     0.2580 H     1 <1>   0.1500 
 43 H      -10.9800     0.5240    -1.3470 H     1 <1>   0.1500 
@<TRIPOS>BOND
  1   1   2  1   
  2   2   3  ar  
  3   2   4  ar  
  4   3   5  ar  
  5   3   6  1   
  6   4   7  ar  
  7   4  25  1   
  8   5   8  ar  
  9   5  26  1   
 10   6   9  1   
 11   6  27  1   
 12   6  28  1   
 13   7   8  ar  
 14   7  29  1   
 15   8  30  1   
 16   9  10  am  
 17   9  31  1   
 18  10  11  2   
 19  10  12  1   
 20  12  13  1   
 21  12  32  1   
 22  12  33  1   
 23  13  14  1   
 24  13  34  1   
 25  13  35  1   
 26  14  15  am  
 27  14  16  am  
 28  15  17  2   
 29  15  18  1   
 30  16  19  2   
 31  16  20  1   
 32  18  20  1   
 33  18  21  1   
 34  18  36  1   
 35  20  22  1   
 36  20  37  1   
 37  21  23  1   
 38  21  38  1   
 39  21  39  1   
 40  22  24  1   
 41  22  40  1   
 42  22  41  1   
 43  23  24  2   
 44  23  42  1   
 45  24  43  1   
@<TRIPOS>SUBSTRUCTURE
  1 ****  13 GROUP 4 **** **** 0

# MOE 2024.06 (io_trps.svl 2023.06)
