@<TRIPOS>MOLECULE
NONAME
32 33 1 0 0 
SMALL
USER_CHARGES


@<TRIPOS>ATOM
  1 S        0.1380    -0.3210    -0.8910 S.o2  1 <1>   1.4470 
  2 O        0.0190    -1.5520    -0.1460 O.2   1 <1>  -0.6500 
  3 O        0.6540    -0.3320    -2.2420 O.2   1 <1>  -0.6500 
  4 N        1.1970     0.5920     0.0330 N.am  1 <1>  -0.9140 
  5 C       -1.3990     0.6350    -0.8140 C.ar  1 <1>  -0.0090 
  6 C        2.5880     0.2880    -0.2430 C.3   1 <1>   0.1960 
  7 C       -2.5310     0.1320    -0.1800 C.ar  1 <1>  -0.1500 
  8 C       -1.4760     1.9040    -1.3810 C.ar  1 <1>  -0.1500 
  9 C        3.4620     1.0600     0.7440 C.3   1 <1>  -0.1600 
 10 C       -3.6980     0.8710    -0.1120 C.ar  1 <1>   0.0830 
 11 C       -2.6420     2.6510    -1.3270 C.ar  1 <1>  -0.1500 
 12 C        4.9510     0.7930     0.4980 C.3   1 <1>  -0.2400 
 13 O       -4.7690     0.3450     0.5340 O.3   1 <1>  -0.3630 
 14 C       -3.7590     2.1350    -0.6980 C.ar  1 <1>   0.0830 
 15 C       -5.8240     1.2320     0.8570 C.3   1 <1>   0.1200 
 16 O       -4.8980     2.8700    -0.6680 O.3   1 <1>  -0.3630 
 17 C       -6.0880     2.1940    -0.3100 C.3   1 <1>   0.1200 
 18 H        1.0110     0.2760     0.9820 H     1 <1>   0.4200 
 19 H        2.8300     0.5820    -1.2520 H     1 <1>   0.0800 
 20 H        2.7620    -0.7720    -0.1430 H     1 <1>   0.0800 
 21 H       -2.5090    -0.8450     0.2720 H     1 <1>   0.1500 
 22 H       -0.6080     2.3110    -1.8740 H     1 <1>   0.1500 
 23 H        3.2150     0.7680     1.7500 H     1 <1>   0.0800 
 24 H        3.2710     2.1140     0.6340 H     1 <1>   0.0800 
 25 H       -2.6900     3.6290    -1.7720 H     1 <1>   0.1500 
 26 H        5.1730    -0.2530     0.6170 H     1 <1>   0.0800 
 27 H        5.5450     1.3500     1.2010 H     1 <1>   0.0800 
 28 H        5.2290     1.0960    -0.4970 H     1 <1>   0.0800 
 29 H       -5.5410     1.7820     1.7370 H     1 <1>   0.0800 
 30 H       -6.6970     0.6440     1.0730 H     1 <1>   0.0800 
 31 H       -6.8210     2.9330    -0.0400 H     1 <1>   0.0800 
 32 H       -6.4360     1.6510    -1.1710 H     1 <1>   0.0800 
@<TRIPOS>BOND
  1   1   2  2   
  2   1   3  2   
  3   1   4  am  
  4   1   5  1   
  5   4   6  1   
  6   4  18  1   
  7   5   7  ar  
  8   5   8  ar  
  9   6   9  1   
 10   6  19  1   
 11   6  20  1   
 12   7  10  ar  
 13   7  21  1   
 14   8  11  ar  
 15   8  22  1   
 16   9  12  1   
 17   9  23  1   
 18   9  24  1   
 19  10  13  1   
 20  10  14  ar  
 21  11  14  ar  
 22  11  25  1   
 23  12  26  1   
 24  12  27  1   
 25  12  28  1   
 26  13  15  1   
 27  14  16  1   
 28  15  17  1   
 29  15  29  1   
 30  15  30  1   
 31  16  17  1   
 32  17  31  1   
 33  17  32  1   
@<TRIPOS>SUBSTRUCTURE
  1 ****   5 GROUP 4 **** **** 0

# MOE 2024.06 (io_trps.svl 2023.06)
