@<TRIPOS>MOLECULE
NONAME
41 43 1 0 0 
SMALL
USER_CHARGES


@<TRIPOS>ATOM
  1 O        0.1880     3.1430     1.1510 O.2   1 <1>  -0.5700 
  2 C       -0.7480     3.3960     0.4290 C.2   1 <1>   0.5690 
  3 N       -0.6080     4.2840    -0.5950 N.am  1 <1>  -0.7300 
  4 C       -2.0950     2.7110     0.6720 C.3   1 <1>   0.2610 
  5 C        0.5960     5.1040    -0.8900 C.3   1 <1>   0.1400 
  6 O       -3.0180     3.0630    -0.3590 O.3   1 <1>  -0.3620 
  7 C       -2.6650     3.1010     2.0430 C.3   1 <1>   0.1200 
  8 C        1.8220     4.2200    -1.2070 C.3   1 <1>   0.3430 
  9 C       -4.3320     2.8210    -0.1190 C.ar  1 <1>   0.0820 
 10 O       -3.9450     2.5270     2.2310 O.3   1 <1>  -0.3630 
 11 N        3.0320     4.5810    -0.3970 N.4   1 <1>  -0.9590 
 12 C       -4.7910     2.5420     1.1700 C.ar  1 <1>   0.0820 
 13 C       -5.2220     2.8490    -1.1790 C.ar  1 <1>  -0.1500 
 14 C        4.2580     3.8870    -0.8560 C.3   1 <1>   0.3430 
 15 C        2.8990     4.2160     1.0380 C.3   1 <1>   0.3430 
 16 C       -6.1330     2.2780     1.3830 C.ar  1 <1>  -0.1500 
 17 C       -6.5650     2.5900    -0.9590 C.ar  1 <1>  -0.1500 
 18 C        5.2120     3.9770     0.3290 C.3   1 <1>  -0.1600 
 19 C        4.3290     4.2160     1.5570 C.3   1 <1>  -0.1600 
 20 C       -7.0190     2.3030     0.3190 C.ar  1 <1>  -0.1500 
 21 H       -1.4520     4.4740    -1.1540 H     1 <1>   0.3700 
 22 H       -1.9550     1.6470     0.6330 H     1 <1>   0.0800 
 23 H        0.7940     5.7350    -0.0420 H     1 <1>   0.0800 
 24 H        0.3860     5.7330    -1.7380 H     1 <1>   0.0800 
 25 H       -2.7640     4.1690     2.1210 H     1 <1>   0.0800 
 26 H       -2.0270     2.7490     2.8340 H     1 <1>   0.0800 
 27 H        2.0510     4.3180    -2.2550 H     1 <1>   0.0800 
 28 H        1.5640     3.1900    -1.0170 H     1 <1>   0.0800 
 29 H        3.2090     5.5920    -0.4470 H     1 <1>   0.4500 
 30 H       -4.8660     3.0680    -2.1690 H     1 <1>   0.1500 
 31 H        4.6740     4.3460    -1.7400 H     1 <1>   0.0800 
 32 H        4.0370     2.8510    -1.0590 H     1 <1>   0.0800 
 33 H        2.4890     3.2220     1.1240 H     1 <1>   0.0800 
 34 H        2.2680     4.9050     1.5780 H     1 <1>   0.0800 
 35 H       -6.4760     2.0590     2.3780 H     1 <1>   0.1500 
 36 H       -7.2580     2.6100    -1.7830 H     1 <1>   0.1500 
 37 H        5.8950     4.7980     0.1900 H     1 <1>   0.0800 
 38 H        5.7830     3.0690     0.4180 H     1 <1>   0.0800 
 39 H        4.4570     3.4480     2.3010 H     1 <1>   0.0800 
 40 H        4.5540     5.1680     2.0060 H     1 <1>   0.0800 
 41 H       -8.0630     2.1000     0.4860 H     1 <1>   0.1500 
@<TRIPOS>BOND
  1   1   2  2   
  2   2   3  am  
  3   2   4  1   
  4   3   5  1   
  5   3  21  1   
  6   4   6  1   
  7   4   7  1   
  8   4  22  1   
  9   5   8  1   
 10   5  23  1   
 11   5  24  1   
 12   6   9  1   
 13   7  10  1   
 14   7  25  1   
 15   7  26  1   
 16   8  11  1   
 17   8  27  1   
 18   8  28  1   
 19   9  12  ar  
 20   9  13  ar  
 21  10  12  1   
 22  11  14  1   
 23  11  15  1   
 24  11  29  1   
 25  12  16  ar  
 26  13  17  ar  
 27  13  30  1   
 28  14  18  1   
 29  14  31  1   
 30  14  32  1   
 31  15  19  1   
 32  15  33  1   
 33  15  34  1   
 34  16  20  ar  
 35  16  35  1   
 36  17  20  ar  
 37  17  36  1   
 38  18  19  1   
 39  18  37  1   
 40  18  38  1   
 41  19  39  1   
 42  19  40  1   
 43  20  41  1   
@<TRIPOS>SUBSTRUCTURE
  1 ****   2 GROUP 4 **** **** 0

# MOE 2024.06 (io_trps.svl 2023.06)
