@<TRIPOS>MOLECULE
NONAME
53 55 1 0 0 
SMALL
USER_CHARGES


@<TRIPOS>ATOM
  1 O       -0.5380     3.3230     1.6080 O.2   1 <1>  -0.5700 
  2 C       -1.3660     3.9730     1.0280 C.2   1 <1>   0.5690 
  3 N       -1.8000     5.1600     1.5370 N.am  1 <1>  -0.5470 
  4 C       -1.9580     3.4250    -0.2860 C.3   1 <1>   0.4040 
  5 C       -2.8820     5.9100     1.0690 C.ar  1 <1>   0.1170 
  6 N       -3.4670     3.2950    -0.2980 N.4   1 <1>  -0.9590 
  7 C       -2.7660     6.7850    -0.0150 C.ar  1 <1>  -0.1430 
  8 C       -4.1220     5.6940     1.6530 C.ar  1 <1>  -0.1500 
  9 C       -3.9400     2.2450     0.6500 C.3   1 <1>   0.3430 
 10 C       -4.0110     3.1090    -1.6690 C.3   1 <1>   0.3430 
 11 C       -3.9060     7.3880    -0.5260 C.ar  1 <1>  -0.1500 
 12 C       -1.4190     7.1230    -0.6490 C.3   1 <1>  -0.0170 
 13 C       -5.2550     6.2780     1.1260 C.ar  1 <1>   0.0830 
 14 C       -5.4670     2.2990     0.7440 C.3   1 <1>  -0.1600 
 15 C       -5.5370     3.2000    -1.6140 C.3   1 <1>  -0.1600 
 16 C       -5.1470     7.1330     0.0310 C.ar  1 <1>   0.0830 
 17 C       -0.7110     8.2190     0.1550 C.3   1 <1>  -0.1600 
 18 O       -6.4580     5.9860     1.6800 O.3   1 <1>  -0.3630 
 19 C       -6.1310     2.1790    -0.6350 C.3   1 <1>  -0.1600 
 20 O       -6.2430     7.7270    -0.5030 O.3   1 <1>  -0.3620 
 21 C        0.6470     8.5800    -0.4610 C.3   1 <1>  -0.1600 
 22 C       -7.6220     6.4160     0.9930 C.3   1 <1>   0.1200 
 23 C       -7.3900     7.7800     0.3250 C.3   1 <1>   0.1200 
 24 C        1.3430     9.6730     0.3530 C.3   1 <1>  -0.2400 
 25 H       -1.3530     5.4530     2.4120 H     1 <1>   0.3700 
 26 H       -1.5110     2.4640    -0.4770 H     1 <1>   0.0800 
 27 H       -1.6540     4.0900    -1.0740 H     1 <1>   0.0800 
 28 H       -3.8470     4.1930     0.0460 H     1 <1>   0.4500 
 29 H       -4.2170     5.0560     2.5140 H     1 <1>   0.1500 
 30 H       -3.5150     2.4060     1.6290 H     1 <1>   0.0800 
 31 H       -3.6330     1.2720     0.3020 H     1 <1>   0.0800 
 32 H       -3.7180     2.1450    -2.0550 H     1 <1>   0.0800 
 33 H       -3.6320     3.8740    -2.3280 H     1 <1>   0.0800 
 34 H       -3.8480     8.0710    -1.3560 H     1 <1>   0.1500 
 35 H       -1.5690     7.4700    -1.6580 H     1 <1>   0.0800 
 36 H       -0.7900     6.2540    -0.7000 H     1 <1>   0.0800 
 37 H       -5.7640     3.2210     1.2120 H     1 <1>   0.0800 
 38 H       -5.8080     1.4970     1.3750 H     1 <1>   0.0800 
 39 H       -5.9360     3.0240    -2.5980 H     1 <1>   0.0800 
 40 H       -5.8240     4.1970    -1.3250 H     1 <1>   0.0800 
 41 H       -0.5650     7.8830     1.1670 H     1 <1>   0.0800 
 42 H       -1.3360     9.0960     0.1850 H     1 <1>   0.0800 
 43 H       -7.1930     2.3350    -0.5430 H     1 <1>   0.0800 
 44 H       -5.9800     1.1830    -1.0190 H     1 <1>   0.0800 
 45 H        0.5080     8.9290    -1.4710 H     1 <1>   0.0800 
 46 H        1.2790     7.7090    -0.4920 H     1 <1>   0.0800 
 47 H       -8.4250     6.4740     1.7060 H     1 <1>   0.0800 
 48 H       -7.8660     5.6770     0.2500 H     1 <1>   0.0800 
 49 H       -8.2300     8.0560    -0.2860 H     1 <1>   0.0800 
 50 H       -7.2320     8.5400     1.0700 H     1 <1>   0.0800 
 51 H        0.7400    10.5640     0.3810 H     1 <1>   0.0800 
 52 H        2.2910     9.9170    -0.0940 H     1 <1>   0.0800 
 53 H        1.5170     9.3410     1.3610 H     1 <1>   0.0800 
@<TRIPOS>BOND
  1   1   2  2   
  2   2   3  am  
  3   2   4  1   
  4   3   5  1   
  5   3  25  1   
  6   4   6  1   
  7   4  26  1   
  8   4  27  1   
  9   5   7  ar  
 10   5   8  ar  
 11   6   9  1   
 12   6  10  1   
 13   6  28  1   
 14   7  11  ar  
 15   7  12  1   
 16   8  13  ar  
 17   8  29  1   
 18   9  14  1   
 19   9  30  1   
 20   9  31  1   
 21  10  15  1   
 22  10  32  1   
 23  10  33  1   
 24  11  16  ar  
 25  11  34  1   
 26  12  17  1   
 27  12  35  1   
 28  12  36  1   
 29  13  16  ar  
 30  13  18  1   
 31  14  19  1   
 32  14  37  1   
 33  14  38  1   
 34  15  19  1   
 35  15  39  1   
 36  15  40  1   
 37  16  20  1   
 38  17  21  1   
 39  17  41  1   
 40  17  42  1   
 41  18  22  1   
 42  19  43  1   
 43  19  44  1   
 44  20  23  1   
 45  21  24  1   
 46  21  45  1   
 47  21  46  1   
 48  22  23  1   
 49  22  47  1   
 50  22  48  1   
 51  23  49  1   
 52  23  50  1   
 53  24  51  1   
 54  24  52  1   
 55  24  53  1   
@<TRIPOS>SUBSTRUCTURE
  1 ****   5 GROUP 4 **** **** 0

# MOE 2024.06 (io_trps.svl 2023.06)
