@<TRIPOS>MOLECULE
NONAME
47 48 1 0 0 
SMALL
USER_CHARGES


@<TRIPOS>ATOM
  1 S        0.0120    -0.2540    -0.2470 S.o2  1 <1>   1.3330 
  2 O       -0.4580     0.7600    -1.1570 O.2   1 <1>  -0.6500 
  3 O        1.2210    -0.9940    -0.5050 O.2   1 <1>  -0.6500 
  4 N       -1.1920    -1.4730    -0.1470 N.am  1 <1>  -0.7570 
  5 C        0.0550     0.3790     1.4350 C.3   1 <1>  -0.0550 
  6 C       -2.5720    -1.3700    -0.1070 C.ar  1 <1>   0.1990 
  7 C        1.0950     1.4880     1.6710 C.3   1 <1>  -0.2400 
  8 C       -3.3310    -2.5330    -0.0590 C.ar  1 <1>  -0.1500 
  9 C       -3.2500    -0.1530    -0.1040 C.ar  1 <1>  -0.1500 
 10 C       -4.7100    -2.4840    -0.0130 C.ar  1 <1>  -0.1500 
 11 C       -4.6300    -0.1070    -0.0570 C.ar  1 <1>  -0.1500 
 12 C       -5.4010    -1.2710    -0.0180 C.ar  1 <1>   0.0860 
 13 C       -6.8500    -1.2360     0.0170 C.2   1 <1>   0.5440 
 14 O       -7.4800    -2.1340     0.5410 O.2   1 <1>  -0.5700 
 15 N       -7.5370    -0.1960    -0.5480 N.am  1 <1>  -0.7300 
 16 C       -9.0120    -0.0450    -0.5580 C.3   1 <1>   0.1400 
 17 C       -9.4240     1.0650     0.4110 C.3   1 <1>  -0.0220 
 18 C      -10.9260     1.3150     0.3680 C.2   1 <1>  -0.2760 
 19 C      -11.4610     2.3910    -0.2200 C.2   1 <1>  -0.2880 
 20 C      -11.7720     0.2530     1.0660 C.3   1 <1>  -0.0220 
 21 C      -12.9490     2.6990    -0.2560 C.3   1 <1>  -0.0220 
 22 C      -13.2590     0.3760     0.7000 C.3   1 <1>  -0.1600 
 23 C      -13.7240     1.8370     0.7510 C.3   1 <1>  -0.1600 
 24 H       -0.7700    -2.3800    -0.3210 H     1 <1>   0.4200 
 25 H        0.2640    -0.4330     2.1050 H     1 <1>   0.0800 
 26 H       -0.9150     0.7630     1.6880 H     1 <1>   0.0800 
 27 H        2.0840     1.1200     1.4530 H     1 <1>   0.0800 
 28 H        1.0660     1.8170     2.6940 H     1 <1>   0.0800 
 29 H        0.8930     2.3290     1.0300 H     1 <1>   0.0800 
 30 H       -2.8350    -3.4870    -0.0560 H     1 <1>   0.1500 
 31 H       -2.7050     0.7710    -0.1430 H     1 <1>   0.1500 
 32 H       -5.2770    -3.4000     0.0270 H     1 <1>   0.1500 
 33 H       -5.1170     0.8510    -0.0460 H     1 <1>   0.1500 
 34 H       -7.0210     0.5120    -1.0720 H     1 <1>   0.3700 
 35 H       -9.4760    -0.9730    -0.2730 H     1 <1>   0.0800 
 36 H       -9.3390     0.2010    -1.5530 H     1 <1>   0.0800 
 37 H       -8.9100     1.9690     0.1390 H     1 <1>   0.0800 
 38 H       -9.1300     0.8000     1.4120 H     1 <1>   0.0800 
 39 H      -10.8730     3.1380    -0.7240 H     1 <1>   0.1500 
 40 H      -11.6540     0.3650     2.1300 H     1 <1>   0.0800 
 41 H      -11.4390    -0.7350     0.8010 H     1 <1>   0.0800 
 42 H      -13.3160     2.5160    -1.2510 H     1 <1>   0.0800 
 43 H      -13.1100     3.7370    -0.0250 H     1 <1>   0.0800 
 44 H      -13.8460    -0.2210     1.3750 H     1 <1>   0.0800 
 45 H      -13.4070    -0.0040    -0.2960 H     1 <1>   0.0800 
 46 H      -14.7780     1.8970     0.5420 H     1 <1>   0.0800 
 47 H      -13.5590     2.2220     1.7430 H     1 <1>   0.0800 
@<TRIPOS>BOND
  1   1   2  2   
  2   1   3  2   
  3   1   4  am  
  4   1   5  1   
  5   4   6  1   
  6   4  24  1   
  7   5   7  1   
  8   5  25  1   
  9   5  26  1   
 10   6   8  ar  
 11   6   9  ar  
 12   7  27  1   
 13   7  28  1   
 14   7  29  1   
 15   8  10  ar  
 16   8  30  1   
 17   9  11  ar  
 18   9  31  1   
 19  10  12  ar  
 20  10  32  1   
 21  11  12  ar  
 22  11  33  1   
 23  12  13  1   
 24  13  14  2   
 25  13  15  am  
 26  15  16  1   
 27  15  34  1   
 28  16  17  1   
 29  16  35  1   
 30  16  36  1   
 31  17  18  1   
 32  17  37  1   
 33  17  38  1   
 34  18  19  2   
 35  18  20  1   
 36  19  21  1   
 37  19  39  1   
 38  20  22  1   
 39  20  40  1   
 40  20  41  1   
 41  21  23  1   
 42  21  42  1   
 43  21  43  1   
 44  22  23  1   
 45  22  44  1   
 46  22  45  1   
 47  23  46  1   
 48  23  47  1   
@<TRIPOS>SUBSTRUCTURE
  1 ****  12 GROUP 4 **** **** 0

# MOE 2024.06 (io_trps.svl 2023.06)
