@<TRIPOS>MOLECULE
NONAME
57 59 1 0 0 
SMALL
USER_CHARGES


@<TRIPOS>ATOM
  1 O       -1.1710    -1.5550     1.7770 O.2   1 <1>  -0.5700 
  2 C       -0.8980    -2.0330     0.7030 C.2   1 <1>   0.5690 
  3 N        0.3150    -1.8720     0.0840 N.am  1 <1>  -0.5470 
  4 C       -1.9720    -2.8540    -0.0260 C.3   1 <1>   0.1710 
  5 C        1.4380    -1.0970     0.4240 C.ar  1 <1>   0.1170 
  6 N       -3.0830    -2.0450    -0.6110 N.3   1 <1>  -0.8100 
  7 C        2.6830    -1.4150    -0.1240 C.ar  1 <1>  -0.1440 
  8 C        1.3470     0.0010     1.2730 C.ar  1 <1>  -0.1500 
  9 C       -2.6360    -0.9630    -1.5210 C.3   1 <1>   0.1100 
 10 C       -4.1420    -2.8730    -1.2290 C.3   1 <1>   0.1100 
 11 C        3.7910    -0.6400     0.1810 C.ar  1 <1>  -0.1500 
 12 C        2.8640    -2.6090    -1.0550 C.3   1 <1>  -0.0970 
 13 C        2.4570     0.7660     1.5730 C.ar  1 <1>  -0.1500 
 14 C       -3.8160    -0.0730    -1.9860 C.3   1 <1>   0.3430 
 15 C       -5.3290    -2.0170    -1.7440 C.3   1 <1>   0.3430 
 16 C        3.6870     0.4520     1.0260 C.ar  1 <1>  -0.1440 
 17 N       -5.1230    -0.5620    -1.4370 N.4   1 <1>  -0.9590 
 18 C        4.9110     1.2890     1.3530 C.3   1 <1>  -0.0970 
 19 C       -6.2640     0.3200    -1.7630 C.3   1 <1>   0.4810 
 20 C       -7.4370    -0.0920    -0.9060 C.2   1 <1>  -0.2880 
 21 C       -7.8540     0.5640     0.1900 C.2   1 <1>  -0.1780 
 22 C       -8.9700     0.2320     1.0490 C.ar  1 <1>   0.0280 
 23 C       -9.9850    -0.6380     0.6540 C.ar  1 <1>  -0.1500 
 24 C       -9.0600     0.7920     2.3210 C.ar  1 <1>  -0.1500 
 25 C      -11.0400    -0.9420     1.4960 C.ar  1 <1>  -0.1500 
 26 C      -10.1130     0.4930     3.1680 C.ar  1 <1>  -0.1500 
 27 C      -11.1060    -0.3770     2.7560 C.ar  1 <1>  -0.1500 
 28 H        0.4680    -2.4430    -0.7420 H     1 <1>   0.3700 
 29 H       -2.3880    -3.5370     0.6940 H     1 <1>   0.0800 
 30 H       -1.5060    -3.4370    -0.7990 H     1 <1>   0.0800 
 31 H        0.4040     0.2710     1.7100 H     1 <1>   0.1500 
 32 H       -1.9230    -0.3320    -1.0160 H     1 <1>   0.0800 
 33 H       -2.1450    -1.3850    -2.3820 H     1 <1>   0.0800 
 34 H       -3.7350    -3.4440    -2.0460 H     1 <1>   0.0800 
 35 H       -4.5150    -3.5720    -0.4990 H     1 <1>   0.0800 
 36 H        4.7510    -0.8840    -0.2390 H     1 <1>   0.1500 
 37 H        3.9020    -2.7530    -1.2960 H     1 <1>   0.0800 
 38 H        2.3260    -2.4500    -1.9710 H     1 <1>   0.0800 
 39 H        2.5090    -3.5060    -0.5790 H     1 <1>   0.0800 
 40 H        2.3560     1.6070     2.2370 H     1 <1>   0.1500 
 41 H       -3.8470    -0.0640    -3.0630 H     1 <1>   0.0800 
 42 H       -3.6360     0.9360    -1.6550 H     1 <1>   0.0800 
 43 H       -6.2320    -2.3690    -1.2740 H     1 <1>   0.0800 
 44 H       -5.4340    -2.1590    -2.8060 H     1 <1>   0.0800 
 45 H       -4.9900    -0.5490    -0.4120 H     1 <1>   0.4500 
 46 H        4.6240     2.2900     1.6200 H     1 <1>   0.0800 
 47 H        5.5680     1.3400     0.5030 H     1 <1>   0.0800 
 48 H        5.4420     0.8480     2.1780 H     1 <1>   0.0800 
 49 H       -6.0050     1.3420    -1.5360 H     1 <1>   0.0800 
 50 H       -6.5170     0.2530    -2.8080 H     1 <1>   0.0800 
 51 H       -7.9240    -0.9800    -1.2650 H     1 <1>   0.1500 
 52 H       -7.3300     1.4480     0.5150 H     1 <1>   0.1500 
 53 H       -9.9650    -1.0830    -0.3220 H     1 <1>   0.1500 
 54 H       -8.2980     1.4700     2.6610 H     1 <1>   0.1500 
 55 H      -11.8140    -1.6170     1.1720 H     1 <1>   0.1500 
 56 H      -10.1610     0.9370     4.1470 H     1 <1>   0.1500 
 57 H      -11.9260    -0.6110     3.4130 H     1 <1>   0.1500 
@<TRIPOS>BOND
  1   1   2  2   
  2   2   3  am  
  3   2   4  1   
  4   3   5  1   
  5   3  28  1   
  6   4   6  1   
  7   4  29  1   
  8   4  30  1   
  9   5   7  ar  
 10   5   8  ar  
 11   6   9  1   
 12   6  10  1   
 13   7  11  ar  
 14   7  12  1   
 15   8  13  ar  
 16   8  31  1   
 17   9  14  1   
 18   9  32  1   
 19   9  33  1   
 20  10  15  1   
 21  10  34  1   
 22  10  35  1   
 23  11  16  ar  
 24  11  36  1   
 25  12  37  1   
 26  12  38  1   
 27  12  39  1   
 28  13  16  ar  
 29  13  40  1   
 30  14  17  1   
 31  14  41  1   
 32  14  42  1   
 33  15  17  1   
 34  15  43  1   
 35  15  44  1   
 36  16  18  1   
 37  17  19  1   
 38  17  45  1   
 39  18  46  1   
 40  18  47  1   
 41  18  48  1   
 42  19  20  1   
 43  19  49  1   
 44  19  50  1   
 45  20  21  2   
 46  20  51  1   
 47  21  22  1   
 48  21  52  1   
 49  22  23  ar  
 50  22  24  ar  
 51  23  25  ar  
 52  23  53  1   
 53  24  26  ar  
 54  24  54  1   
 55  25  27  ar  
 56  25  55  1   
 57  26  27  ar  
 58  26  56  1   
 59  27  57  1   
@<TRIPOS>SUBSTRUCTURE
  1 ****   6 GROUP 4 **** **** 0

# MOE 2024.06 (io_trps.svl 2023.06)
