@<TRIPOS>MOLECULE
NONAME
29 31 1 0 0 
SMALL
USER_CHARGES


@<TRIPOS>ATOM
  1 O        0.4940    -0.1940    -1.2580 O.2   1 <1>  -0.5700 
  2 C        1.3530    -0.8410    -0.7390 C.2   1 <1>   0.4480 
  3 C        1.5150    -2.3400    -0.9440 C.3   1 <1>  -0.0190 
  4 C        2.4010    -0.2560     0.1970 C.3   1 <1>  -0.0190 
  5 C        2.9160    -2.6060    -1.5340 C.3   1 <1>  -0.1600 
  6 C        1.4010    -3.0340     0.4290 C.3   1 <1>  -0.1600 
  7 C        3.7950    -0.5370    -0.3980 C.3   1 <1>  -0.1600 
  8 C        2.2820    -0.9600     1.5630 C.3   1 <1>  -0.1600 
  9 C        4.0250    -2.0630    -0.5940 C.3   1 <1>   0.0610 
 10 C        2.4750    -2.4800     1.3880 C.3   1 <1>  -0.0800 
 11 C        5.4230    -2.3530    -1.1840 C.2   1 <1>   0.5690 
 12 C        3.8700    -2.7460     0.7900 C.3   1 <1>  -0.1600 
 13 O        6.1850    -1.4590    -1.4490 O.2   1 <1>  -0.5700 
 14 N        5.8110    -3.6240    -1.4150 N.am  1 <1>  -0.8000 
 15 H        0.7510    -2.6980    -1.6110 H     1 <1>   0.0800 
 16 H        2.2430     0.8030     0.3030 H     1 <1>   0.0800 
 17 H        2.9940    -2.1260    -2.4960 H     1 <1>   0.0800 
 18 H        3.0400    -3.6630    -1.6890 H     1 <1>   0.0800 
 19 H        1.5200    -4.0970     0.3150 H     1 <1>   0.0800 
 20 H        0.4220    -2.8570     0.8390 H     1 <1>   0.0800 
 21 H        4.5530    -0.1340     0.2520 H     1 <1>   0.0800 
 22 H        3.8850    -0.0340    -1.3460 H     1 <1>   0.0800 
 23 H        3.0220    -0.5700     2.2410 H     1 <1>   0.0800 
 24 H        1.3130    -0.7610     1.9870 H     1 <1>   0.0800 
 25 H        2.3920    -2.9670     2.3460 H     1 <1>   0.0800 
 26 H        4.6270    -2.3740     1.4600 H     1 <1>   0.0800 
 27 H        4.0170    -3.8080     0.6980 H     1 <1>   0.0800 
 28 H        6.7390    -3.7930    -1.8050 H     1 <1>   0.3700 
 29 H        5.2380    -4.4420    -1.2200 H     1 <1>   0.3700 
@<TRIPOS>BOND
  1   1   2  2   
  2   2   3  1   
  3   2   4  1   
  4   3   5  1   
  5   3   6  1   
  6   3  15  1   
  7   4   7  1   
  8   4   8  1   
  9   4  16  1   
 10   5   9  1   
 11   5  17  1   
 12   5  18  1   
 13   6  10  1   
 14   6  19  1   
 15   6  20  1   
 16   7   9  1   
 17   7  21  1   
 18   7  22  1   
 19   8  10  1   
 20   8  23  1   
 21   8  24  1   
 22   9  11  1   
 23   9  12  1   
 24  10  12  1   
 25  10  25  1   
 26  11  13  2   
 27  11  14  am  
 28  12  26  1   
 29  12  27  1   
 30  14  28  1   
 31  14  29  1   
@<TRIPOS>SUBSTRUCTURE
  1 ****   9 GROUP 4 **** **** 0

# MOE 2024.06 (io_trps.svl 2023.06)
