@<TRIPOS>MOLECULE
NONAME
52 53 1 0 0 
SMALL
USER_CHARGES


@<TRIPOS>ATOM
  1 S        0.3320    -0.2610    -0.5720 S.o2  1 <1>   1.4470 
  2 O        0.9350     0.4170    -1.6980 O.2   1 <1>  -0.6500 
  3 O        1.0410    -1.3470     0.0630 O.2   1 <1>  -0.6500 
  4 N        0.1660     0.9570     0.6480 N.am  1 <1>  -0.6930 
  5 C       -1.3720    -0.7680    -0.9330 C.ar  1 <1>  -0.0090 
  6 C       -0.9070     1.8410     0.6820 C.ar  1 <1>   0.1990 
  7 C        1.1770     0.9780     1.7520 C.3   1 <1>   0.2570 
  8 C       -2.1880    -0.0010    -1.7580 C.ar  1 <1>  -0.1500 
  9 C       -1.9160    -1.9190    -0.3730 C.ar  1 <1>  -0.1500 
 10 C       -0.8560     3.1140     0.1090 C.ar  1 <1>  -0.1430 
 11 C       -2.0780     1.4370     1.3140 C.ar  1 <1>  -0.1500 
 12 C        2.5880     1.4490     1.3710 C.2   1 <1>   0.5690 
 13 C       -3.4970    -0.3680    -2.0180 C.ar  1 <1>  -0.1500 
 14 C       -3.2240    -2.2940    -0.6280 C.ar  1 <1>  -0.1500 
 15 C       -1.9710     3.9350     0.1650 C.ar  1 <1>  -0.1500 
 16 C        0.4000     3.6380    -0.5750 C.3   1 <1>  -0.0960 
 17 C       -3.1840     2.2610     1.3630 C.ar  1 <1>  -0.1500 
 18 O        3.3420     1.7100     2.2780 O.2   1 <1>  -0.5700 
 19 N        2.9550     1.5680     0.0610 N.am  1 <1>  -0.7300 
 20 C       -4.0160    -1.5170    -1.4520 C.ar  1 <1>  -0.1500 
 21 C       -3.1370     3.5170     0.7850 C.ar  1 <1>  -0.1430 
 22 C        4.2440     1.9440    -0.5180 C.3   1 <1>   0.3000 
 23 C       -4.3480     4.4310     0.8340 C.3   1 <1>  -0.0970 
 24 C        4.6020     3.3700    -0.1000 C.3   1 <1>  -0.2400 
 25 C        5.3140     0.9440    -0.0820 C.3   1 <1>  -0.2400 
 26 C        4.0680     1.8810    -2.0330 C.3   1 <1>  -0.2400 
 27 H        1.2590    -0.0050     2.1770 H     1 <1>   0.0800 
 28 H        0.8230     1.6310     2.5300 H     1 <1>   0.0800 
 29 H       -1.7940     0.9000    -2.2000 H     1 <1>   0.1500 
 30 H       -1.3080    -2.5330     0.2710 H     1 <1>   0.1500 
 31 H       -2.1230     0.4630     1.7650 H     1 <1>   0.1500 
 32 H       -4.1100     0.2430    -2.6590 H     1 <1>   0.1500 
 33 H       -3.6250    -3.1910    -0.1870 H     1 <1>   0.1500 
 34 H       -1.9370     4.9160    -0.2750 H     1 <1>   0.1500 
 35 H        0.7090     2.9690    -1.3560 H     1 <1>   0.0800 
 36 H        1.1940     3.7330     0.1430 H     1 <1>   0.0800 
 37 H        0.2290     4.6040    -1.0140 H     1 <1>   0.0800 
 38 H       -4.0810     1.9230     1.8530 H     1 <1>   0.1500 
 39 H        2.2660     1.3240    -0.6600 H     1 <1>   0.3700 
 40 H       -5.0340    -1.8050    -1.6530 H     1 <1>   0.1500 
 41 H       -4.2820     5.0750     1.6930 H     1 <1>   0.0800 
 42 H       -5.2540     3.8550     0.9000 H     1 <1>   0.0800 
 43 H       -4.3970     5.0380    -0.0520 H     1 <1>   0.0800 
 44 H        4.7530     3.4270     0.9630 H     1 <1>   0.0800 
 45 H        3.8210     4.0530    -0.3800 H     1 <1>   0.0800 
 46 H        5.5130     3.6780    -0.5800 H     1 <1>   0.0800 
 47 H        6.2470     1.1640    -0.5670 H     1 <1>   0.0800 
 48 H        5.0200    -0.0560    -0.3420 H     1 <1>   0.0800 
 49 H        5.4720     0.9970     0.9800 H     1 <1>   0.0800 
 50 H        4.9860     2.1460    -2.5250 H     1 <1>   0.0800 
 51 H        3.3030     2.5660    -2.3540 H     1 <1>   0.0800 
 52 H        3.7970     0.8860    -2.3400 H     1 <1>   0.0800 
@<TRIPOS>BOND
  1   1   2  2   
  2   1   3  2   
  3   1   4  am  
  4   1   5  1   
  5   4   6  1   
  6   4   7  1   
  7   5   8  ar  
  8   5   9  ar  
  9   6  10  ar  
 10   6  11  ar  
 11   7  12  1   
 12   7  27  1   
 13   7  28  1   
 14   8  13  ar  
 15   8  29  1   
 16   9  14  ar  
 17   9  30  1   
 18  10  15  ar  
 19  10  16  1   
 20  11  17  ar  
 21  11  31  1   
 22  12  18  2   
 23  12  19  am  
 24  13  20  ar  
 25  13  32  1   
 26  14  20  ar  
 27  14  33  1   
 28  15  21  ar  
 29  15  34  1   
 30  16  35  1   
 31  16  36  1   
 32  16  37  1   
 33  17  21  ar  
 34  17  38  1   
 35  19  22  1   
 36  19  39  1   
 37  20  40  1   
 38  21  23  1   
 39  22  24  1   
 40  22  25  1   
 41  22  26  1   
 42  23  41  1   
 43  23  42  1   
 44  23  43  1   
 45  24  44  1   
 46  24  45  1   
 47  24  46  1   
 48  25  47  1   
 49  25  48  1   
 50  25  49  1   
 51  26  50  1   
 52  26  51  1   
 53  26  52  1   
@<TRIPOS>SUBSTRUCTURE
  1 ****   4 GROUP 4 **** **** 0

# MOE 2024.06 (io_trps.svl 2023.06)
