@<TRIPOS>MOLECULE
NONAME
41 44 1 0 0 
SMALL
USER_CHARGES


@<TRIPOS>ATOM
  1 CL       0.1720     0.3830    -1.3950 Cl    1 <1>  -0.1770 
  2 C        1.5990     1.1920    -0.8020 C.ar  1 <1>   0.1770 
  3 C        1.5410     2.5380    -0.5000 C.ar  1 <1>  -0.1500 
  4 C        2.7690     0.4760    -0.6410 C.ar  1 <1>  -0.1500 
  5 C        2.6780     3.1750    -0.0290 C.ar  1 <1>  -0.1500 
  6 C        3.8980     1.1260    -0.1700 C.ar  1 <1>  -0.1500 
  7 C        3.8750     2.4830     0.1410 C.ar  1 <1>  -0.0090 
  8 S        5.3660     3.3130     0.7590 S.o2  1 <1>   1.4470 
  9 O        5.1860     4.7450     0.6900 O.2   1 <1>  -0.6500 
 10 O        5.7740     2.6840     1.9930 O.2   1 <1>  -0.6500 
 11 N        6.4820     2.9870    -0.4510 N.am  1 <1>  -0.9140 
 12 C        7.8990     3.0260    -0.1490 C.3   1 <1>   0.3560 
 13 C        8.6050     3.1120    -1.5180 C.3   1 <1>  -0.1600 
 14 C        8.3620     1.7280     0.5440 C.3   1 <1>  -0.1600 
 15 C        8.3180     4.2550     0.6880 C.3   1 <1>  -0.1600 
 16 C       10.1360     3.1300    -1.3500 C.3   1 <1>  -0.0800 
 17 C        9.8910     1.7440     0.7400 C.3   1 <1>  -0.0800 
 18 C        9.8480     4.2700     0.8790 C.3   1 <1>  -0.0800 
 19 C       10.5780     1.8410    -0.6340 C.3   1 <1>  -0.1600 
 20 C       10.5330     4.3480    -0.4970 C.3   1 <1>  -0.1600 
 21 C       10.2800     2.9700     1.5880 C.3   1 <1>  -0.1600 
 22 H        0.6190     3.0760    -0.6300 H     1 <1>   0.1500 
 23 H        2.7920    -0.5720    -0.8810 H     1 <1>   0.1500 
 24 H        2.6360     4.2260     0.2090 H     1 <1>   0.1500 
 25 H        4.8150     0.5740    -0.0410 H     1 <1>   0.1500 
 26 H        6.3350     3.7590    -1.0940 H     1 <1>   0.4200 
 27 H        8.3010     4.0050    -2.0330 H     1 <1>   0.0800 
 28 H        8.3280     2.2650    -2.1220 H     1 <1>   0.0800 
 29 H        8.0820     0.8770    -0.0510 H     1 <1>   0.0800 
 30 H        7.9040     1.6250     1.5090 H     1 <1>   0.0800 
 31 H        7.8660     4.2240     1.6630 H     1 <1>   0.0800 
 32 H        8.0080     5.1620     0.2000 H     1 <1>   0.0800 
 33 H       10.6100     3.1910    -2.3150 H     1 <1>   0.0800 
 34 H       10.2020     0.8420     1.2400 H     1 <1>   0.0800 
 35 H       10.1310     5.1200     1.4760 H     1 <1>   0.0800 
 36 H       11.6470     1.8420    -0.5080 H     1 <1>   0.0800 
 37 H       10.3210     0.9830    -1.2320 H     1 <1>   0.0800 
 38 H       10.2460     5.2560    -0.9970 H     1 <1>   0.0800 
 39 H       11.6020     4.3710    -0.3700 H     1 <1>   0.0800 
 40 H       11.3450     2.9800     1.7450 H     1 <1>   0.0800 
 41 H        9.8100     2.9090     2.5540 H     1 <1>   0.0800 
@<TRIPOS>BOND
  1   1   2  1   
  2   2   3  ar  
  3   2   4  ar  
  4   3   5  ar  
  5   3  22  1   
  6   4   6  ar  
  7   4  23  1   
  8   5   7  ar  
  9   5  24  1   
 10   6   7  ar  
 11   6  25  1   
 12   7   8  1   
 13   8   9  2   
 14   8  10  2   
 15   8  11  am  
 16  11  12  1   
 17  11  26  1   
 18  12  13  1   
 19  12  14  1   
 20  12  15  1   
 21  13  16  1   
 22  13  27  1   
 23  13  28  1   
 24  14  17  1   
 25  14  29  1   
 26  14  30  1   
 27  15  18  1   
 28  15  31  1   
 29  15  32  1   
 30  16  19  1   
 31  16  20  1   
 32  16  33  1   
 33  17  19  1   
 34  17  21  1   
 35  17  34  1   
 36  18  20  1   
 37  18  21  1   
 38  18  35  1   
 39  19  36  1   
 40  19  37  1   
 41  20  38  1   
 42  20  39  1   
 43  21  40  1   
 44  21  41  1   
@<TRIPOS>SUBSTRUCTURE
  1 ****  11 GROUP 4 **** **** 0

# MOE 2024.06 (io_trps.svl 2023.06)
