@<TRIPOS>MOLECULE
NONAME
28 28 1 0 0 
SMALL
USER_CHARGES


@<TRIPOS>ATOM
  1 S        0.1910    -0.2110     1.0850 S.o2  1 <1>   1.3330 
  2 O        1.5680    -0.5820     1.3070 O.2   1 <1>  -0.6500 
  3 O       -0.7000    -0.9920     0.2620 O.2   1 <1>  -0.6500 
  4 N        0.1230     1.4570     0.6210 N.am  1 <1>  -0.6930 
  5 C       -0.5420    -0.1170     2.7040 C.3   1 <1>  -0.1350 
  6 C       -1.1030     2.0910     0.4740 C.ar  1 <1>   0.1990 
  7 C        1.2490     1.9560    -0.2570 C.3   1 <1>   0.0900 
  8 C       -1.9650     1.7720    -0.5670 C.ar  1 <1>  -0.1500 
  9 C       -1.4880     3.0640     1.3860 C.ar  1 <1>  -0.1500 
 10 C        1.1830     1.6150    -1.7520 C.2   1 <1>   0.9060 
 11 C       -3.1980     2.3950    -0.7060 C.ar  1 <1>  -0.1440 
 12 C       -2.7110     3.6950     1.2680 C.ar  1 <1>  -0.1500 
 13 O        0.4010     2.2430    -2.4790 O.co2 1 <1>  -0.9000 
 14 O        1.9590     0.7690    -2.2100 O.co2 1 <1>  -0.9000 
 15 C       -3.5620     3.3620     0.2280 C.ar  1 <1>  -0.1500 
 16 C       -4.1460     2.0470    -1.8630 C.3   1 <1>   1.1640 
 17 F       -4.2040     3.0090    -2.7770 F     1 <1>  -0.3400 
 18 F       -3.8380     0.9290    -2.5080 F     1 <1>  -0.3400 
 19 F       -5.3940     1.8830    -1.4350 F     1 <1>  -0.3400 
 20 H       -0.5460    -1.0870     3.1580 H     1 <1>   0.0800 
 21 H       -1.5510     0.2360     2.6310 H     1 <1>   0.0800 
 22 H        0.0210     0.5540     3.3220 H     1 <1>   0.0800 
 23 H        2.1820     1.5760     0.1140 H     1 <1>   0.0800 
 24 H        1.2860     3.0260    -0.1900 H     1 <1>   0.0800 
 25 H       -1.6370     1.0310    -1.2810 H     1 <1>   0.1500 
 26 H       -0.8150     3.3210     2.1830 H     1 <1>   0.1500 
 27 H       -2.9990     4.4490     1.9800 H     1 <1>   0.1500 
 28 H       -4.5110     3.8650     0.1440 H     1 <1>   0.1500 
@<TRIPOS>BOND
  1   1   2  2   
  2   1   3  2   
  3   1   4  am  
  4   1   5  1   
  5   4   6  1   
  6   4   7  1   
  7   5  20  1   
  8   5  21  1   
  9   5  22  1   
 10   6   8  ar  
 11   6   9  ar  
 12   7  10  1   
 13   7  23  1   
 14   7  24  1   
 15   8  11  ar  
 16   8  25  1   
 17   9  12  ar  
 18   9  26  1   
 19  10  13  ar  
 20  10  14  ar  
 21  11  15  ar  
 22  11  16  1   
 23  12  15  ar  
 24  12  27  1   
 25  15  28  1   
 26  16  17  1   
 27  16  18  1   
 28  16  19  1   
@<TRIPOS>SUBSTRUCTURE
  1 ****   8 GROUP 4 **** **** 0

# MOE 2024.06 (io_trps.svl 2023.06)
