@<TRIPOS>MOLECULE
NONAME
45 46 1 0 0 
SMALL
USER_CHARGES


@<TRIPOS>ATOM
  1 S       -0.0740    -0.0390     0.0570 S.o2  1 <1>   1.3330 
  2 O        0.1920    -0.0960     1.4780 O.2   1 <1>  -0.6500 
  3 O        0.3460    -1.1300    -0.7930 O.2   1 <1>  -0.6500 
  4 N       -1.7470     0.1670    -0.1360 N.am  1 <1>  -0.8490 
  5 C        0.5960     1.4870    -0.6220 C.3   1 <1>  -0.0550 
  6 C       -2.3380     0.9510     0.9540 C.3   1 <1>   0.1960 
  7 C       -2.4340    -1.1170    -0.3020 C.3   1 <1>   0.1960 
  8 C        2.1320     1.5800    -0.5840 C.3   1 <1>  -0.2400 
  9 C       -3.8050     1.2580     0.6480 C.3   1 <1>  -0.1600 
 10 C       -3.9120    -0.8930    -0.6340 C.3   1 <1>  -0.1600 
 11 C       -4.6110    -0.0370     0.4350 C.3   1 <1>  -0.0190 
 12 C       -6.0760     0.2160     0.0770 C.2   1 <1>   0.6590 
 13 O       -6.4710     1.3060    -0.2520 O.2   1 <1>  -0.5700 
 14 O       -6.8570    -0.8610     0.1600 O.3   1 <1>  -0.2330 
 15 C       -8.2010    -0.9590    -0.0210 C.ar  1 <1>   0.0820 
 16 C       -9.0870     0.0810     0.2350 C.ar  1 <1>  -0.1500 
 17 C       -8.6900    -2.1750    -0.4650 C.ar  1 <1>  -0.1500 
 18 C      -10.4490    -0.0870     0.0380 C.ar  1 <1>  -0.1440 
 19 C      -10.0480    -2.3480    -0.6600 C.ar  1 <1>  -0.1500 
 20 C      -10.9340    -1.3100    -0.4130 C.ar  1 <1>  -0.1440 
 21 C      -11.3830     1.0810     0.3240 C.3   1 <1>  -0.0970 
 22 C      -12.4210    -1.5400    -0.6430 C.3   1 <1>  -0.0970 
 23 H        0.1920     2.3190    -0.0800 H     1 <1>   0.0800 
 24 H        0.2730     1.5770    -1.6410 H     1 <1>   0.0800 
 25 H       -1.8030     1.8780     1.0690 H     1 <1>   0.0800 
 26 H       -2.2640     0.4060     1.8820 H     1 <1>   0.0800 
 27 H       -2.3340    -1.7040     0.5970 H     1 <1>   0.0800 
 28 H       -1.9870    -1.6700    -1.1130 H     1 <1>   0.0800 
 29 H        2.4820     1.5160     0.4310 H     1 <1>   0.0800 
 30 H        2.4600     2.5130    -1.0070 H     1 <1>   0.0800 
 31 H        2.5650     0.7720    -1.1490 H     1 <1>   0.0800 
 32 H       -3.8530     1.8730    -0.2350 H     1 <1>   0.0800 
 33 H       -4.2290     1.8200     1.4610 H     1 <1>   0.0800 
 34 H       -4.4000    -1.8480    -0.7170 H     1 <1>   0.0800 
 35 H       -3.9790    -0.4070    -1.5920 H     1 <1>   0.0800 
 36 H       -4.6060    -0.5840     1.3610 H     1 <1>   0.0800 
 37 H       -8.7200     1.0240     0.5930 H     1 <1>   0.1500 
 38 H       -8.0110    -2.9850    -0.6580 H     1 <1>   0.1500 
 39 H      -10.4110    -3.2990    -1.0080 H     1 <1>   0.1500 
 40 H      -10.8330     1.9460     0.6470 H     1 <1>   0.0800 
 41 H      -12.0800     0.8150     1.0970 H     1 <1>   0.0800 
 42 H      -11.9260     1.3430    -0.5660 H     1 <1>   0.0800 
 43 H      -12.7870    -0.8570    -1.3890 H     1 <1>   0.0800 
 44 H      -12.9640    -1.3850     0.2720 H     1 <1>   0.0800 
 45 H      -12.6100    -2.5420    -0.9820 H     1 <1>   0.0800 
@<TRIPOS>BOND
  1   1   2  2   
  2   1   3  2   
  3   1   4  am  
  4   1   5  1   
  5   4   6  1   
  6   4   7  1   
  7   5   8  1   
  8   5  23  1   
  9   5  24  1   
 10   6   9  1   
 11   6  25  1   
 12   6  26  1   
 13   7  10  1   
 14   7  27  1   
 15   7  28  1   
 16   8  29  1   
 17   8  30  1   
 18   8  31  1   
 19   9  11  1   
 20   9  32  1   
 21   9  33  1   
 22  10  11  1   
 23  10  34  1   
 24  10  35  1   
 25  11  12  1   
 26  11  36  1   
 27  12  13  2   
 28  12  14  1   
 29  14  15  1   
 30  15  16  ar  
 31  15  17  ar  
 32  16  18  ar  
 33  16  37  1   
 34  17  19  ar  
 35  17  38  1   
 36  18  20  ar  
 37  18  21  1   
 38  19  20  ar  
 39  19  39  1   
 40  20  22  1   
 41  21  40  1   
 42  21  41  1   
 43  21  42  1   
 44  22  43  1   
 45  22  44  1   
 46  22  45  1   
@<TRIPOS>SUBSTRUCTURE
  1 ****  11 GROUP 4 **** **** 0

# MOE 2024.06 (io_trps.svl 2023.06)
