@<TRIPOS>MOLECULE
NONAME
43 45 1 0 0 
SMALL
USER_CHARGES


@<TRIPOS>ATOM
  1 S        0.0180     0.6460    -1.6390 S.o2  1 <1>   1.4470 
  2 O        0.3200    -0.7470    -1.8820 O.2   1 <1>  -0.6500 
  3 O        0.5740     1.6580    -2.5130 O.2   1 <1>  -0.6500 
  4 N        0.5340     1.0120    -0.0670 N.am  1 <1>  -0.8490 
  5 C       -1.7860     0.8410    -1.5260 C.ar  1 <1>  -0.0090 
  6 C        1.9000     0.5350     0.1710 C.3   1 <1>   0.1960 
  7 C        0.4230     2.4450     0.2280 C.3   1 <1>   0.1960 
  8 C       -2.4890     1.6510    -2.4080 C.ar  1 <1>  -0.1500 
  9 C       -2.5150     0.1780    -0.5480 C.ar  1 <1>  -0.1500 
 10 C        2.2860     0.7360     1.6400 C.3   1 <1>  -0.1600 
 11 C        0.7400     2.7080     1.7040 C.3   1 <1>  -0.1600 
 12 C       -3.8620     1.7960    -2.3110 C.ar  1 <1>  -0.1500 
 13 C       -3.8870     0.3210    -0.4490 C.ar  1 <1>  -0.1500 
 14 C        2.1400     2.2010     2.0680 C.3   1 <1>  -0.1600 
 15 C       -4.6020     1.1360    -1.3290 C.ar  1 <1>   0.0860 
 16 C       -6.0420     1.2990    -1.2370 C.2   1 <1>   0.6340 
 17 O       -6.6790     2.0180    -1.9790 O.2   1 <1>  -0.5700 
 18 O       -6.6910     0.6240    -0.2890 O.3   1 <1>  -0.4300 
 19 C       -8.0940     0.7400    -0.1490 C.3   1 <1>   0.3000 
 20 C       -8.5640    -0.1370     0.9990 C.2   1 <1>  -0.0400 
 21 O       -9.8520    -0.1550     1.2870 O.3   1 <1>  -0.2800 
 22 C       -7.8840    -0.9530     1.8350 C.2   1 <1>  -0.1500 
 23 C      -10.0220    -0.9750     2.3050 C.2   1 <1>  -0.0100 
 24 C       -8.8430    -1.5040     2.6940 C.2   1 <1>  -0.1500 
 25 H        2.5880     1.0610    -0.4710 H     1 <1>   0.0800 
 26 H        1.9650    -0.5170    -0.0590 H     1 <1>   0.0800 
 27 H       -0.5780     2.7850     0.0210 H     1 <1>   0.0800 
 28 H        1.1030     3.0040    -0.3950 H     1 <1>   0.0800 
 29 H       -1.9540     2.1760    -3.1830 H     1 <1>   0.1500 
 30 H       -1.9920    -0.4600     0.1480 H     1 <1>   0.1500 
 31 H        3.3020     0.4150     1.7880 H     1 <1>   0.0800 
 32 H        1.6540     0.1140     2.2500 H     1 <1>   0.0800 
 33 H        0.0020     2.2120     2.3110 H     1 <1>   0.0800 
 34 H        0.6740     3.7630     1.9010 H     1 <1>   0.0800 
 35 H       -4.3760     2.4330    -3.0120 H     1 <1>   0.1500 
 36 H       -4.4100    -0.2130     0.3270 H     1 <1>   0.1500 
 37 H        2.8790     2.7970     1.5600 H     1 <1>   0.0800 
 38 H        2.3030     2.2940     3.1280 H     1 <1>   0.0800 
 39 H       -8.5580     0.4290    -1.0680 H     1 <1>   0.0800 
 40 H       -8.3360     1.7700     0.0470 H     1 <1>   0.0800 
 41 H       -6.8290    -1.1590     1.8620 H     1 <1>   0.1500 
 42 H      -11.0160    -1.1250     2.6900 H     1 <1>   0.1500 
 43 H       -8.6460    -2.2020     3.4880 H     1 <1>   0.1500 
@<TRIPOS>BOND
  1   1   2  2   
  2   1   3  2   
  3   1   4  am  
  4   1   5  1   
  5   4   6  1   
  6   4   7  1   
  7   5   8  ar  
  8   5   9  ar  
  9   6  10  1   
 10   6  25  1   
 11   6  26  1   
 12   7  11  1   
 13   7  27  1   
 14   7  28  1   
 15   8  12  ar  
 16   8  29  1   
 17   9  13  ar  
 18   9  30  1   
 19  10  14  1   
 20  10  31  1   
 21  10  32  1   
 22  11  14  1   
 23  11  33  1   
 24  11  34  1   
 25  12  15  ar  
 26  12  35  1   
 27  13  15  ar  
 28  13  36  1   
 29  14  37  1   
 30  14  38  1   
 31  15  16  1   
 32  16  17  2   
 33  16  18  1   
 34  18  19  1   
 35  19  20  1   
 36  19  39  1   
 37  19  40  1   
 38  20  21  1   
 39  20  22  2   
 40  21  23  1   
 41  22  24  1   
 42  22  41  1   
 43  23  24  2   
 44  23  42  1   
 45  24  43  1   
@<TRIPOS>SUBSTRUCTURE
  1 ****  13 GROUP 4 **** **** 0

# MOE 2024.06 (io_trps.svl 2023.06)
