@<TRIPOS>MOLECULE
NONAME
35 35 1 0 0 
SMALL
USER_CHARGES


@<TRIPOS>ATOM
  1 S       -0.1230    -0.6800    -0.3940 S.o2  1 <1>   1.3330 
  2 O        1.1420    -1.3440    -0.1770 O.2   1 <1>  -0.6500 
  3 O       -1.3500    -1.3000     0.0470 O.2   1 <1>  -0.6500 
  4 N       -0.0300     0.9410     0.2060 N.am  1 <1>  -0.6930 
  5 C       -0.2720    -0.3720    -2.1400 C.3   1 <1>  -0.1350 
  6 C       -1.1630     1.7550     0.2870 C.ar  1 <1>   0.1990 
  7 C        1.3100     1.4550     0.6950 C.3   1 <1>   0.1700 
  8 C       -2.2570     1.3810     1.0600 C.ar  1 <1>  -0.1500 
  9 C       -1.2360     2.9500    -0.4190 C.ar  1 <1>  -0.1500 
 10 C        1.2850     2.7070     1.6170 C.2   1 <1>   0.9060 
 11 C        2.2400     1.6690    -0.5160 C.3   1 <1>  -0.2400 
 12 C       -3.4040     2.1530     1.1000 C.ar  1 <1>  -0.1500 
 13 C       -2.3780     3.7280    -0.3850 C.ar  1 <1>  -0.1500 
 14 O        1.2730     2.5460     2.8460 O.co2 1 <1>  -0.9000 
 15 O        1.3430     3.8420     1.1170 O.co2 1 <1>  -0.9000 
 16 C       -3.4730     3.3340     0.3680 C.ar  1 <1>   0.0820 
 17 O       -4.5620     4.1490     0.3460 O.3   1 <1>  -0.3630 
 18 C       -5.5840     3.9890     1.3000 C.3   1 <1>   0.1200 
 19 C       -6.5790     5.1320     1.1220 C.3   1 <1>  -0.2400 
 20 H       -0.3360    -1.3000    -2.6720 H     1 <1>   0.0800 
 21 H        0.5790     0.1740    -2.4940 H     1 <1>   0.0800 
 22 H       -1.1560     0.2020    -2.3350 H     1 <1>   0.0800 
 23 H        1.7430     0.6830     1.3040 H     1 <1>   0.0800 
 24 H       -2.1990     0.4760     1.6360 H     1 <1>   0.1500 
 25 H       -0.3820     3.2770    -0.9820 H     1 <1>   0.1500 
 26 H        1.8170     2.3970    -1.1830 H     1 <1>   0.0800 
 27 H        2.4300     0.7510    -1.0360 H     1 <1>   0.0800 
 28 H        3.1810     2.0530    -0.1650 H     1 <1>   0.0800 
 29 H       -4.2240     1.8170     1.7050 H     1 <1>   0.1500 
 30 H       -2.4200     4.6520    -0.9310 H     1 <1>   0.1500 
 31 H       -5.1410     4.0170     2.2810 H     1 <1>   0.0800 
 32 H       -6.0620     3.0390     1.1310 H     1 <1>   0.0800 
 33 H       -6.0850     6.0750     1.2760 H     1 <1>   0.0800 
 34 H       -7.3740     5.0380     1.8380 H     1 <1>   0.0800 
 35 H       -7.0000     5.1030     0.1330 H     1 <1>   0.0800 
@<TRIPOS>BOND
  1   1   2  2   
  2   1   3  2   
  3   1   4  am  
  4   1   5  1   
  5   4   6  1   
  6   4   7  1   
  7   5  20  1   
  8   5  21  1   
  9   5  22  1   
 10   6   8  ar  
 11   6   9  ar  
 12   7  10  1   
 13   7  11  1   
 14   7  23  1   
 15   8  12  ar  
 16   8  24  1   
 17   9  13  ar  
 18   9  25  1   
 19  10  14  ar  
 20  10  15  ar  
 21  11  26  1   
 22  11  27  1   
 23  11  28  1   
 24  12  16  ar  
 25  12  29  1   
 26  13  16  ar  
 27  13  30  1   
 28  16  17  1   
 29  17  18  1   
 30  18  19  1   
 31  18  31  1   
 32  18  32  1   
 33  19  33  1   
 34  19  34  1   
 35  19  35  1   
@<TRIPOS>SUBSTRUCTURE
  1 ****   6 GROUP 4 **** **** 0

# MOE 2024.06 (io_trps.svl 2023.06)
