@<TRIPOS>MOLECULE
NONAME
34 34 1 0 0 
SMALL
USER_CHARGES


@<TRIPOS>ATOM
  1 I        0.2710    -0.1050    -0.2910 I     1 <1>  -0.0810 
  2 C       -1.6900    -0.9580    -0.1980 C.ar  1 <1>   0.0810 
  3 C       -1.8790    -2.3320    -0.2680 C.ar  1 <1>  -0.1440 
  4 C       -2.7420    -0.0690    -0.0670 C.ar  1 <1>  -0.1500 
  5 C       -3.1830    -2.7960    -0.1980 C.ar  1 <1>  -0.1500 
  6 C       -0.7340    -3.3270    -0.4090 C.3   1 <1>  -0.0960 
  7 C       -4.0390    -0.5500    -0.0030 C.ar  1 <1>  -0.1430 
  8 C       -4.2640    -1.9290    -0.0640 C.ar  1 <1>   0.1170 
  9 C       -5.1820     0.4490     0.1310 C.3   1 <1>  -0.0960 
 10 N       -5.5500    -2.4830    -0.0220 N.am  1 <1>  -0.5470 
 11 C       -6.4530    -2.4490     1.0010 C.2   1 <1>   0.5690 
 12 O       -6.2400    -1.9140     2.0600 O.2   1 <1>  -0.5700 
 13 C       -7.7920    -3.1270     0.7820 C.3   1 <1>  -0.0990 
 14 C       -8.6990    -2.3240    -0.1650 C.3   1 <1>  -0.1600 
 15 C      -10.0500    -3.0200    -0.3660 C.3   1 <1>  -0.1600 
 16 C      -10.9480    -2.2150    -1.3090 C.3   1 <1>  -0.2400 
 17 H       -2.5450     0.9870    -0.0150 H     1 <1>   0.1500 
 18 H       -3.3760    -3.8520    -0.2400 H     1 <1>   0.1500 
 19 H       -0.1890    -3.1400    -1.3170 H     1 <1>   0.0800 
 20 H       -1.1020    -4.3360    -0.4410 H     1 <1>   0.0800 
 21 H       -0.0650    -3.2420     0.4290 H     1 <1>   0.0800 
 22 H       -4.8620     1.4380    -0.1400 H     1 <1>   0.0800 
 23 H       -5.5270     0.4690     1.1490 H     1 <1>   0.0800 
 24 H       -6.0010     0.1730    -0.5080 H     1 <1>   0.0800 
 25 H       -5.8160    -3.0300    -0.8370 H     1 <1>   0.3700 
 26 H       -8.2760    -3.2340     1.7370 H     1 <1>   0.0800 
 27 H       -7.6230    -4.1120     0.3890 H     1 <1>   0.0800 
 28 H       -8.2130    -2.2030    -1.1180 H     1 <1>   0.0800 
 29 H       -8.8590    -1.3440     0.2530 H     1 <1>   0.0800 
 30 H      -10.5460    -3.1300     0.5840 H     1 <1>   0.0800 
 31 H       -9.8970    -4.0030    -0.7780 H     1 <1>   0.0800 
 32 H      -11.1340    -1.2350    -0.9050 H     1 <1>   0.0800 
 33 H      -11.8910    -2.7160    -1.4360 H     1 <1>   0.0800 
 34 H      -10.4840    -2.1100    -2.2740 H     1 <1>   0.0800 
@<TRIPOS>BOND
  1   1   2  1   
  2   2   3  ar  
  3   2   4  ar  
  4   3   5  ar  
  5   3   6  1   
  6   4   7  ar  
  7   4  17  1   
  8   5   8  ar  
  9   5  18  1   
 10   6  19  1   
 11   6  20  1   
 12   6  21  1   
 13   7   8  ar  
 14   7   9  1   
 15   8  10  1   
 16   9  22  1   
 17   9  23  1   
 18   9  24  1   
 19  10  11  am  
 20  10  25  1   
 21  11  12  2   
 22  11  13  1   
 23  13  14  1   
 24  13  26  1   
 25  13  27  1   
 26  14  15  1   
 27  14  28  1   
 28  14  29  1   
 29  15  16  1   
 30  15  30  1   
 31  15  31  1   
 32  16  32  1   
 33  16  33  1   
 34  16  34  1   
@<TRIPOS>SUBSTRUCTURE
  1 ****   8 GROUP 4 **** **** 0

# MOE 2024.06 (io_trps.svl 2023.06)
