@<TRIPOS>MOLECULE
NONAME
43 45 1 0 0 
SMALL
USER_CHARGES


@<TRIPOS>ATOM
  1 BR      -1.1040     1.4200     2.5990 Br    1 <1>  -0.1110 
  2 C       -2.1500     1.4230     0.9860 C.ar  1 <1>   0.1110 
  3 C       -3.4240     0.8910     1.0230 C.ar  1 <1>  -0.1500 
  4 C       -1.6030     1.9560    -0.1640 C.ar  1 <1>  -0.1500 
  5 C       -4.1870     0.8980    -0.1360 C.ar  1 <1>  -0.1440 
  6 C       -2.3640     1.9520    -1.3200 C.ar  1 <1>  -0.1500 
  7 C       -3.6470     1.4250    -1.3050 C.ar  1 <1>  -0.1500 
  8 C       -5.5980     0.3410    -0.1290 C.3   1 <1>   0.4870 
  9 N       -6.4830     1.2990     0.5870 N.4   1 <1>  -0.9590 
 10 C       -7.8680     0.7400     0.7960 C.3   1 <1>   0.3430 
 11 C       -6.5420     2.6400    -0.1070 C.3   1 <1>   0.3430 
 12 C       -8.7920     1.7100     1.5630 C.3   1 <1>   0.2090 
 13 C       -7.4370     3.6560     0.6320 C.3   1 <1>   0.2090 
 14 N       -8.7700     3.0770     0.9690 N.pl3 1 <1>  -0.8380 
 15 C       -9.8640     3.4640     0.1960 C.ar  1 <1>   0.1000 
 16 C      -10.8330     4.3270     0.7100 C.ar  1 <1>  -0.1430 
 17 C      -10.0050     2.9900    -1.1050 C.ar  1 <1>  -0.1500 
 18 C      -11.9130     4.6960    -0.0750 C.ar  1 <1>  -0.1500 
 19 C      -10.7180     4.8710     2.1270 C.3   1 <1>  -0.0970 
 20 C      -11.0840     3.3620    -1.8830 C.ar  1 <1>  -0.1500 
 21 C      -12.0410     4.2170    -1.3670 C.ar  1 <1>  -0.1500 
 22 H       -3.7880     0.4820     1.9500 H     1 <1>   0.1500 
 23 H       -0.6050     2.3600    -0.1550 H     1 <1>   0.1500 
 24 H       -1.9530     2.3570    -2.2310 H     1 <1>   0.1500 
 25 H       -4.2130     1.4300    -2.2220 H     1 <1>   0.1500 
 26 H       -5.6000    -0.6140     0.3720 H     1 <1>   0.0800 
 27 H       -5.9440     0.1970    -1.1400 H     1 <1>   0.0800 
 28 H       -6.0640     1.4690     1.5100 H     1 <1>   0.4500 
 29 H       -7.8140    -0.1890     1.3390 H     1 <1>   0.0800 
 30 H       -8.3220     0.5370    -0.1600 H     1 <1>   0.0800 
 31 H       -6.9350     2.5140    -1.1020 H     1 <1>   0.0800 
 32 H       -5.5510     3.0540    -0.1960 H     1 <1>   0.0800 
 33 H       -8.4850     1.7700     2.5930 H     1 <1>   0.0800 
 34 H       -9.8000     1.3300     1.5480 H     1 <1>   0.0800 
 35 H       -7.5720     4.5290     0.0150 H     1 <1>   0.0800 
 36 H       -6.9540     3.9740     1.5400 H     1 <1>   0.0800 
 37 H       -9.2700     2.3280    -1.5140 H     1 <1>   0.1500 
 38 H      -12.6640     5.3600     0.3140 H     1 <1>   0.1500 
 39 H      -10.7250     4.0590     2.8310 H     1 <1>   0.0800 
 40 H      -11.5330     5.5320     2.3580 H     1 <1>   0.0800 
 41 H       -9.7960     5.4140     2.2350 H     1 <1>   0.0800 
 42 H      -11.1860     2.9920    -2.8880 H     1 <1>   0.1500 
 43 H      -12.8850     4.5110    -1.9670 H     1 <1>   0.1500 
@<TRIPOS>BOND
  1   1   2  1   
  2   2   3  ar  
  3   2   4  ar  
  4   3   5  ar  
  5   3  22  1   
  6   4   6  ar  
  7   4  23  1   
  8   5   7  ar  
  9   5   8  1   
 10   6   7  ar  
 11   6  24  1   
 12   7  25  1   
 13   8   9  1   
 14   8  26  1   
 15   8  27  1   
 16   9  10  1   
 17   9  11  1   
 18   9  28  1   
 19  10  12  1   
 20  10  29  1   
 21  10  30  1   
 22  11  13  1   
 23  11  31  1   
 24  11  32  1   
 25  12  14  1   
 26  12  33  1   
 27  12  34  1   
 28  13  14  1   
 29  13  35  1   
 30  13  36  1   
 31  14  15  1   
 32  15  16  ar  
 33  15  17  ar  
 34  16  18  ar  
 35  16  19  1   
 36  17  20  ar  
 37  17  37  1   
 38  18  21  ar  
 39  18  38  1   
 40  19  39  1   
 41  19  40  1   
 42  19  41  1   
 43  20  21  ar  
 44  20  42  1   
 45  21  43  1   
@<TRIPOS>SUBSTRUCTURE
  1 ****  11 GROUP 4 **** **** 0

# MOE 2024.06 (io_trps.svl 2023.06)
