@<TRIPOS>MOLECULE
NONAME
32 32 1 0 0 
SMALL
USER_CHARGES


@<TRIPOS>ATOM
  1 O        1.2770    -1.5460    -1.2450 O.2   1 <1>  -0.5700 
  2 C        0.5100    -1.6720    -0.3070 C.2   1 <1>   0.5440 
  3 N        0.9860    -1.2890     0.9140 N.am  1 <1>  -0.7300 
  4 C       -0.8260    -2.2290    -0.4890 C.ar  1 <1>   0.0860 
  5 C        2.1420    -0.3880     1.1930 C.3   1 <1>   0.1400 
  6 C       -1.7210    -2.5220     0.5590 C.ar  1 <1>   0.0820 
  7 C       -1.2770    -2.5000    -1.7860 C.ar  1 <1>  -0.1500 
  8 C        3.4760    -1.1570     1.2390 C.3   1 <1>   0.3430 
  9 O       -1.4100    -2.3080     1.8510 O.3   1 <1>  -0.5320 
 10 C       -2.9780    -3.0540     0.3070 C.ar  1 <1>  -0.1500 
 11 C       -2.5290    -3.0290    -2.0360 C.ar  1 <1>  -0.1500 
 12 N        3.7570    -1.8220    -0.0690 N.4   1 <1>  -0.9590 
 13 C       -3.3830    -3.3090    -0.9870 C.ar  1 <1>  -0.1500 
 14 C        4.4610    -3.1260     0.0840 C.3   1 <1>   0.2630 
 15 C        4.4400    -0.9210    -1.0420 C.3   1 <1>   0.2630 
 16 H        0.3150    -1.4200     1.6870 H     1 <1>   0.3700 
 17 H        1.9810     0.0970     2.1410 H     1 <1>   0.0800 
 18 H        2.1880     0.3780     0.4380 H     1 <1>   0.0800 
 19 H       -0.6340    -2.2900    -2.6230 H     1 <1>   0.1500 
 20 H        3.4060    -1.8990     2.0170 H     1 <1>   0.0800 
 21 H        4.2800    -0.4850     1.4900 H     1 <1>   0.0800 
 22 H       -2.1270    -2.5600     2.4660 H     1 <1>   0.4500 
 23 H       -3.6520    -3.2740     1.1150 H     1 <1>   0.1500 
 24 H       -2.8400    -3.2250    -3.0490 H     1 <1>   0.1500 
 25 H        2.8080    -2.0020    -0.4760 H     1 <1>   0.4500 
 26 H       -4.3590    -3.7210    -1.1820 H     1 <1>   0.1500 
 27 H        5.4400    -2.9770     0.5090 H     1 <1>   0.0800 
 28 H        4.5680    -3.6040    -0.8760 H     1 <1>   0.0800 
 29 H        3.8960    -3.7790     0.7290 H     1 <1>   0.0800 
 30 H        5.4160    -0.6420    -0.6790 H     1 <1>   0.0800 
 31 H        3.8530    -0.0290    -1.1950 H     1 <1>   0.0800 
 32 H        4.5490    -1.4180    -1.9920 H     1 <1>   0.0800 
@<TRIPOS>BOND
  1   1   2  2   
  2   2   3  am  
  3   2   4  1   
  4   3   5  1   
  5   3  16  1   
  6   4   6  ar  
  7   4   7  ar  
  8   5   8  1   
  9   5  17  1   
 10   5  18  1   
 11   6   9  1   
 12   6  10  ar  
 13   7  11  ar  
 14   7  19  1   
 15   8  12  1   
 16   8  20  1   
 17   8  21  1   
 18   9  22  1   
 19  10  13  ar  
 20  10  23  1   
 21  11  13  ar  
 22  11  24  1   
 23  12  14  1   
 24  12  15  1   
 25  12  25  1   
 26  13  26  1   
 27  14  27  1   
 28  14  28  1   
 29  14  29  1   
 30  15  30  1   
 31  15  31  1   
 32  15  32  1   
@<TRIPOS>SUBSTRUCTURE
  1 ****   2 GROUP 4 **** **** 0

# MOE 2024.06 (io_trps.svl 2023.06)
