@<TRIPOS>MOLECULE
NONAME
47 48 1 0 0 
SMALL
USER_CHARGES


@<TRIPOS>ATOM
  1 O       -0.0170    -0.5560    -1.4800 O.2   1 <1>  -0.5700 
  2 C       -0.0570    -1.5520    -0.7850 C.2   1 <1>   0.5440 
  3 N       -1.2590    -1.9360    -0.2600 N.am  1 <1>  -0.7300 
  4 C        1.1470    -2.3060    -0.4940 C.ar  1 <1>   0.0860 
  5 C       -2.5430    -1.2580    -0.5140 C.3   1 <1>   0.2200 
  6 C        1.1270    -3.6950    -0.3710 C.ar  1 <1>  -0.1500 
  7 C        2.3680    -1.6600    -0.3230 C.ar  1 <1>  -0.1500 
  8 C       -2.7330    -0.1300     0.5100 C.3   1 <1>  -0.0160 
  9 C       -3.6450    -2.3140    -0.4480 C.3   1 <1>  -0.2400 
 10 C        2.2790    -4.4180    -0.0810 C.ar  1 <1>   0.0820 
 11 C        3.5260    -2.3510    -0.0190 C.ar  1 <1>   0.0820 
 12 C       -4.0070     0.6620     0.2530 C.ar  1 <1>  -0.1430 
 13 O        2.2760    -5.7780     0.0400 O.3   1 <1>  -0.3630 
 14 C        3.4910    -3.7450     0.0900 C.ar  1 <1>   0.0820 
 15 O        4.6450    -1.5940     0.1440 O.3   1 <1>  -0.3630 
 16 C       -4.0560     1.5670    -0.7960 C.ar  1 <1>  -0.1500 
 17 C       -5.1250     0.4900     1.0550 C.ar  1 <1>  -0.1500 
 18 C        1.1080    -6.5470    -0.1430 C.3   1 <1>   0.0400 
 19 O        4.6190    -4.4530     0.3510 O.3   1 <1>  -0.3630 
 20 C        5.5120    -1.8650     1.2250 C.3   1 <1>   0.0400 
 21 C       -5.2110     2.2890    -1.0440 C.ar  1 <1>  -0.1500 
 22 C       -6.2800     1.2110     0.8080 C.ar  1 <1>  -0.1500 
 23 C        5.2520    -5.0270    -0.7690 C.3   1 <1>   0.0400 
 24 C       -6.3240     2.1120    -0.2420 C.ar  1 <1>  -0.1500 
 25 H       -1.2860    -2.6700     0.4460 H     1 <1>   0.3700 
 26 H       -2.5240    -0.8300    -1.5040 H     1 <1>   0.0800 
 27 H        0.1910    -4.1960    -0.5190 H     1 <1>   0.1500 
 28 H        2.4140    -0.5890    -0.4250 H     1 <1>   0.1500 
 29 H       -1.8960     0.5430     0.4440 H     1 <1>   0.0800 
 30 H       -2.7510    -0.5390     1.5040 H     1 <1>   0.0800 
 31 H       -3.7150    -2.7350     0.5380 H     1 <1>   0.0800 
 32 H       -3.4510    -3.0940    -1.1620 H     1 <1>   0.0800 
 33 H       -4.5920    -1.8680    -0.6960 H     1 <1>   0.0800 
 34 H       -3.1930     1.7120    -1.4240 H     1 <1>   0.1500 
 35 H       -5.1040    -0.2070     1.8740 H     1 <1>   0.1500 
 36 H        1.3670    -7.5820    -0.0060 H     1 <1>   0.0800 
 37 H        0.7400    -6.3930    -1.1420 H     1 <1>   0.0800 
 38 H        0.3790    -6.2550     0.5910 H     1 <1>   0.0800 
 39 H        6.0590    -0.9680     1.4490 H     1 <1>   0.0800 
 40 H        6.1950    -2.6440     0.9380 H     1 <1>   0.0800 
 41 H        4.9310    -2.1670     2.0790 H     1 <1>   0.0800 
 42 H       -5.2410     2.9890    -1.8600 H     1 <1>   0.1500 
 43 H       -7.1450     1.0730     1.4340 H     1 <1>   0.1500 
 44 H        6.1390    -5.5320    -0.4320 H     1 <1>   0.0800 
 45 H        5.5100    -4.2430    -1.4590 H     1 <1>   0.0800 
 46 H        4.5800    -5.7290    -1.2290 H     1 <1>   0.0800 
 47 H       -7.2220     2.6730    -0.4340 H     1 <1>   0.1500 
@<TRIPOS>BOND
  1   1   2  2   
  2   2   3  am  
  3   2   4  1   
  4   3   5  1   
  5   3  25  1   
  6   4   6  ar  
  7   4   7  ar  
  8   5   8  1   
  9   5   9  1   
 10   5  26  1   
 11   6  10  ar  
 12   6  27  1   
 13   7  11  ar  
 14   7  28  1   
 15   8  12  1   
 16   8  29  1   
 17   8  30  1   
 18   9  31  1   
 19   9  32  1   
 20   9  33  1   
 21  10  13  1   
 22  10  14  ar  
 23  11  14  ar  
 24  11  15  1   
 25  12  16  ar  
 26  12  17  ar  
 27  13  18  1   
 28  14  19  1   
 29  15  20  1   
 30  16  21  ar  
 31  16  34  1   
 32  17  22  ar  
 33  17  35  1   
 34  18  36  1   
 35  18  37  1   
 36  18  38  1   
 37  19  23  1   
 38  20  39  1   
 39  20  40  1   
 40  20  41  1   
 41  21  24  ar  
 42  21  42  1   
 43  22  24  ar  
 44  22  43  1   
 45  23  44  1   
 46  23  45  1   
 47  23  46  1   
 48  24  47  1   
@<TRIPOS>SUBSTRUCTURE
  1 ****   2 GROUP 4 **** **** 0

# MOE 2024.06 (io_trps.svl 2023.06)
