@<TRIPOS>MOLECULE
NONAME
46 47 1 0 0 
SMALL
USER_CHARGES


@<TRIPOS>ATOM
  1 O       -0.2370    -0.5970    -1.1310 O.2   1 <1>  -0.5700 
  2 C       -0.9100    -1.4590    -0.5870 C.2   1 <1>   0.5410 
  3 C       -2.2440    -1.3590    -0.1070 C.2   1 <1>   0.0290 
  4 C       -0.4810    -2.8180    -0.3580 C.2   1 <1>   0.1140 
  5 C       -2.5910    -2.5940     0.3750 C.2   1 <1>  -0.0380 
  6 C       -3.0000    -0.1520    -0.1710 C.2   1 <1>   0.7060 
  7 N       -1.5650    -3.4660     0.2330 N.pl3 1 <1>  -0.6000 
  8 C        0.7230    -3.3890    -0.6250 C.2   1 <1>  -0.1780 
  9 C       -3.8820    -3.0620     1.0220 C.3   1 <1>  -0.1020 
 10 O       -2.5310     0.9610    -0.0330 O.2   1 <1>  -0.5700 
 11 O       -4.3180    -0.2620    -0.3750 O.3   1 <1>  -0.4300 
 12 C        1.1200    -4.7530    -0.4370 C.ar  1 <1>   0.0280 
 13 C       -5.1480     0.8750    -0.4580 C.3   1 <1>   0.1200 
 14 C        0.2830    -5.8230    -0.7430 C.ar  1 <1>  -0.1500 
 15 C        2.3850    -5.0570     0.0560 C.ar  1 <1>  -0.1500 
 16 C       -6.5790     0.3980    -0.6830 C.3   1 <1>  -0.2400 
 17 C        0.6840    -7.1300    -0.5420 C.ar  1 <1>  -0.1500 
 18 C        2.7870    -6.3640     0.2570 C.ar  1 <1>  -0.1500 
 19 C        1.9430    -7.4320    -0.0340 C.ar  1 <1>  -0.1430 
 20 C        2.3450    -8.9090     0.1760 C.3   1 <1>   0.1430 
 21 C        1.3680    -9.5730     1.1580 C.3   1 <1>  -0.2400 
 22 C        3.7630    -9.0750     0.7500 C.3   1 <1>  -0.2400 
 23 C        2.3000    -9.6490    -1.1690 C.3   1 <1>  -0.2400 
 24 H       -1.5140    -4.4400     0.5590 H     1 <1>   0.4000 
 25 H        1.4960    -2.7550    -1.0210 H     1 <1>   0.1500 
 26 H       -3.6690    -3.5340     1.9640 H     1 <1>   0.0800 
 27 H       -4.3740    -3.7710     0.3820 H     1 <1>   0.0800 
 28 H       -4.5500    -2.2410     1.2030 H     1 <1>   0.0800 
 29 H       -5.0650     1.4280     0.4630 H     1 <1>   0.0800 
 30 H       -4.8100     1.4850    -1.2780 H     1 <1>   0.0800 
 31 H       -0.6890    -5.6290    -1.1590 H     1 <1>   0.1500 
 32 H        3.0600    -4.2540     0.2920 H     1 <1>   0.1500 
 33 H       -6.9000    -0.2160     0.1390 H     1 <1>   0.0800 
 34 H       -6.6440    -0.1620    -1.5990 H     1 <1>   0.0800 
 35 H       -7.2360     1.2460    -0.7530 H     1 <1>   0.0800 
 36 H       -0.0010    -7.9190    -0.7920 H     1 <1>   0.1500 
 37 H        3.7750    -6.5230     0.6460 H     1 <1>   0.1500 
 38 H        1.6530   -10.5930     1.3460 H     1 <1>   0.0800 
 39 H        0.3670    -9.5750     0.7690 H     1 <1>   0.0800 
 40 H        1.3670    -9.0400     2.0920 H     1 <1>   0.0800 
 41 H        3.9980   -10.1160     0.8820 H     1 <1>   0.0800 
 42 H        3.8410    -8.5920     1.7080 H     1 <1>   0.0800 
 43 H        4.4920    -8.6520     0.0830 H     1 <1>   0.0800 
 44 H        1.3080    -9.6490    -1.5790 H     1 <1>   0.0800 
 45 H        2.6120   -10.6710    -1.0510 H     1 <1>   0.0800 
 46 H        2.9560    -9.1700    -1.8740 H     1 <1>   0.0800 
@<TRIPOS>BOND
  1   1   2  2   
  2   2   3  1   
  3   2   4  1   
  4   3   5  2   
  5   3   6  1   
  6   4   7  1   
  7   4   8  2   
  8   5   7  1   
  9   5   9  1   
 10   6  10  2   
 11   6  11  1   
 12   7  24  1   
 13   8  12  1   
 14   8  25  1   
 15   9  26  1   
 16   9  27  1   
 17   9  28  1   
 18  11  13  1   
 19  12  14  ar  
 20  12  15  ar  
 21  13  16  1   
 22  13  29  1   
 23  13  30  1   
 24  14  17  ar  
 25  14  31  1   
 26  15  18  ar  
 27  15  32  1   
 28  16  33  1   
 29  16  34  1   
 30  16  35  1   
 31  17  19  ar  
 32  17  36  1   
 33  18  19  ar  
 34  18  37  1   
 35  19  20  1   
 36  20  21  1   
 37  20  22  1   
 38  20  23  1   
 39  21  38  1   
 40  21  39  1   
 41  21  40  1   
 42  22  41  1   
 43  22  42  1   
 44  22  43  1   
 45  23  44  1   
 46  23  45  1   
 47  23  46  1   
@<TRIPOS>SUBSTRUCTURE
  1 ****   7 GROUP 4 **** **** 0

# MOE 2024.06 (io_trps.svl 2023.06)
