@<TRIPOS>MOLECULE
NONAME
42 44 1 0 0 
SMALL
USER_CHARGES


@<TRIPOS>ATOM
  1 S       -0.2000    -0.1770     0.4100 S.3   1 <1>  -0.2860 
  2 C       -1.6790    -1.0330     0.9720 C.2   1 <1>   0.2420 
  3 C        1.1510    -0.9250     1.4510 C.3   1 <1>   0.1310 
  4 N       -1.6640    -1.9750     1.8320 N.2   1 <1>  -0.3380 
  5 N       -2.9040    -0.7790     0.5250 N.pl3 1 <1>   0.5930 
  6 C        2.4930    -0.2460     1.2130 C.2   1 <1>   0.5690 
  7 N       -2.9370    -2.3490     1.9310 N.2   1 <1>   0.0000 
  8 N       -3.6880    -1.6530     1.1500 N.2   1 <1>  -0.4180 
  9 C       -3.3470     0.1380    -0.4660 C.ar  1 <1>  -0.0230 
 10 O        3.4720    -0.7170     1.7390 O.2   1 <1>  -0.5700 
 11 N        2.5620     0.8610     0.4310 N.am  1 <1>  -0.7300 
 12 C       -3.2480     1.5130    -0.2520 C.ar  1 <1>   0.0830 
 13 C       -3.8840    -0.3290    -1.6600 C.ar  1 <1>  -0.1500 
 14 C        3.7770     1.6240     0.1090 C.3   1 <1>   0.2200 
 15 O       -2.7330     1.9260     0.9370 O.3   1 <1>  -0.3630 
 16 C       -3.6740     2.3980    -1.2380 C.ar  1 <1>  -0.1500 
 17 C       -4.3070     0.5560    -2.6360 C.ar  1 <1>  -0.1500 
 18 C        3.5530     3.0810     0.4910 C.3   1 <1>  -0.1600 
 19 C        3.9300     1.6800    -1.4060 C.3   1 <1>  -0.1600 
 20 C       -2.6170     3.2940     1.2630 C.3   1 <1>   0.0400 
 21 C       -4.2000     1.9180    -2.4250 C.ar  1 <1>  -0.1500 
 22 C        2.7470     3.6950    -0.6590 C.3   1 <1>  -0.1600 
 23 C        2.9920     2.7960    -1.8790 C.3   1 <1>  -0.1600 
 24 H        1.2110    -1.9670     1.1970 H     1 <1>   0.0800 
 25 H        0.8610    -0.8160     2.4790 H     1 <1>   0.0800 
 26 H        1.7100     1.2130    -0.0100 H     1 <1>   0.3700 
 27 H       -3.9750    -1.3890    -1.8300 H     1 <1>   0.1500 
 28 H        4.6390     1.1960     0.5960 H     1 <1>   0.0800 
 29 H       -3.6080     3.4610    -1.1040 H     1 <1>   0.1500 
 30 H       -4.7210     0.1850    -3.5580 H     1 <1>   0.1500 
 31 H        4.5110     3.5680     0.5450 H     1 <1>   0.0800 
 32 H        3.0640     3.1810     1.4450 H     1 <1>   0.0800 
 33 H        3.7200     0.7320    -1.8710 H     1 <1>   0.0800 
 34 H        4.9450     1.9560    -1.6340 H     1 <1>   0.0800 
 35 H       -2.1970     3.3670     2.2500 H     1 <1>   0.0800 
 36 H       -3.5950     3.7410     1.2490 H     1 <1>   0.0800 
 37 H       -1.9640     3.7690     0.5520 H     1 <1>   0.0800 
 38 H       -4.5300     2.6060    -3.1850 H     1 <1>   0.1500 
 39 H        3.0570     4.7080    -0.8480 H     1 <1>   0.0800 
 40 H        1.6980     3.6920    -0.4140 H     1 <1>   0.0800 
 41 H        2.0590     2.3740    -2.2120 H     1 <1>   0.0800 
 42 H        3.4330     3.3480    -2.6920 H     1 <1>   0.0800 
@<TRIPOS>BOND
  1   1   2  1   
  2   1   3  1   
  3   2   4  2   
  4   2   5  1   
  5   3   6  1   
  6   3  24  1   
  7   3  25  1   
  8   4   7  1   
  9   5   8  1   
 10   5   9  1   
 11   6  10  2   
 12   6  11  am  
 13   7   8  2   
 14   9  12  ar  
 15   9  13  ar  
 16  11  14  1   
 17  11  26  1   
 18  12  15  1   
 19  12  16  ar  
 20  13  17  ar  
 21  13  27  1   
 22  14  18  1   
 23  14  19  1   
 24  14  28  1   
 25  15  20  1   
 26  16  21  ar  
 27  16  29  1   
 28  17  21  ar  
 29  17  30  1   
 30  18  22  1   
 31  18  31  1   
 32  18  32  1   
 33  19  23  1   
 34  19  33  1   
 35  19  34  1   
 36  20  35  1   
 37  20  36  1   
 38  20  37  1   
 39  21  38  1   
 40  22  23  1   
 41  22  39  1   
 42  22  40  1   
 43  23  41  1   
 44  23  42  1   
@<TRIPOS>SUBSTRUCTURE
  1 ****   1 GROUP 4 **** **** 0

# MOE 2024.06 (io_trps.svl 2023.06)
