@<TRIPOS>MOLECULE
NONAME
32 35 1 0 0 
SMALL
USER_CHARGES


@<TRIPOS>ATOM
  1 S       -0.0100    -0.8440     0.3710 S.3   1 <1>  -0.0800 
  2 C        1.3720     0.2360     0.3180 C.2   1 <1>   0.1660 
  3 C       -1.1060     0.4990     0.0850 C.2   1 <1>  -0.1400 
  4 N        2.6410    -0.2150     0.4790 N.2   1 <1>  -0.5760 
  5 C        0.9850     1.5270     0.0990 C.2   1 <1>  -0.0860 
  6 C       -0.4430     1.6610    -0.0230 C.2   1 <1>  -0.1810 
  7 C       -2.5980     0.2690    -0.0090 C.3   1 <1>   0.0200 
  8 C        3.5190     0.7210     0.4020 C.2   1 <1>   0.6510 
  9 C        2.0240     2.5030     0.0260 C.2   1 <1>   0.7160 
 10 C       -1.1730     2.9740    -0.2600 C.3   1 <1>   0.0210 
 11 C       -3.2660     1.5240    -0.6080 C.3   1 <1>  -0.0800 
 12 S        5.2380     0.3930     0.5740 S.3   1 <1>  -0.3710 
 13 N        3.3090     2.0490     0.1880 N.am  1 <1>  -0.4200 
 14 O        1.8290     3.6950    -0.1690 O.2   1 <1>  -0.5700 
 15 C       -2.6860     2.8200     0.0030 C.3   1 <1>  -0.1600 
 16 C       -4.7880     1.4700    -0.4220 C.3   1 <1>  -0.2400 
 17 C        5.7850     2.1230     0.2910 C.3   1 <1>   0.0700 
 18 C        4.4930     2.9500     0.1700 C.3   1 <1>   0.1400 
 19 H       -2.9760     0.0720     0.9780 H     1 <1>   0.0800 
 20 H       -2.7980    -0.5850    -0.6310 H     1 <1>   0.0800 
 21 H       -1.0070     3.2820    -1.2770 H     1 <1>   0.0800 
 22 H       -0.7790     3.7370     0.3890 H     1 <1>   0.0800 
 23 H       -3.0570     1.5370    -1.6650 H     1 <1>   0.0800 
 24 H       -3.1970     3.6780    -0.3970 H     1 <1>   0.0800 
 25 H       -2.8500     2.8060     1.0660 H     1 <1>   0.0800 
 26 H       -5.0430     1.4730     0.6230 H     1 <1>   0.0800 
 27 H       -5.1880     0.5790    -0.8720 H     1 <1>   0.0800 
 28 H       -5.2510     2.3210    -0.8910 H     1 <1>   0.0800 
 29 H        6.3600     2.1390    -0.6170 H     1 <1>   0.0800 
 30 H        6.3890     2.4260     1.1280 H     1 <1>   0.0800 
 31 H        4.4210     3.6390     0.9940 H     1 <1>   0.0800 
 32 H        4.5000     3.5160    -0.7460 H     1 <1>   0.0800 
@<TRIPOS>BOND
  1   1   2  1   
  2   1   3  1   
  3   2   4  1   
  4   2   5  2   
  5   3   6  2   
  6   3   7  1   
  7   4   8  2   
  8   5   6  1   
  9   5   9  1   
 10   6  10  1   
 11   7  11  1   
 12   7  19  1   
 13   7  20  1   
 14   8  12  1   
 15   8  13  1   
 16   9  13  am  
 17   9  14  2   
 18  10  15  1   
 19  10  21  1   
 20  10  22  1   
 21  11  15  1   
 22  11  16  1   
 23  11  23  1   
 24  12  17  1   
 25  13  18  1   
 26  15  24  1   
 27  15  25  1   
 28  16  26  1   
 29  16  27  1   
 30  16  28  1   
 31  17  18  1   
 32  17  29  1   
 33  17  30  1   
 34  18  31  1   
 35  18  32  1   
@<TRIPOS>SUBSTRUCTURE
  1 ****   5 GROUP 4 **** **** 0

# MOE 2024.06 (io_trps.svl 2023.06)
