@<TRIPOS>MOLECULE
NONAME
55 58 1 0 0 
SMALL
USER_CHARGES


@<TRIPOS>ATOM
  1 O        0.0800     1.5610    -2.2290 O.2   1 <1>  -0.5700 
  2 C        0.4530     2.3300    -1.3750 C.2   1 <1>   0.5690 
  3 N       -0.3500     2.9350    -0.4460 N.am  1 <1>  -0.2370 
  4 C        1.9100     2.8050    -1.2500 C.3   1 <1>   0.2510 
  5 C       -1.7020     2.6100    -0.2090 C.ar  1 <1>   0.1170 
  6 C        0.3660     3.8990     0.2110 C.2   1 <1>   0.5690 
  7 N        2.8690     1.8120    -0.6840 N.3   1 <1>  -0.8100 
  8 C        1.7860     3.9910    -0.2850 C.3   1 <1>  -0.0990 
  9 C       -2.6690     3.5980    -0.0610 C.ar  1 <1>  -0.1500 
 10 C       -2.1110     1.2840    -0.1140 C.ar  1 <1>  -0.1500 
 11 O       -0.0450     4.6330     1.0710 O.2   1 <1>  -0.5700 
 12 C        2.7010     0.4600    -1.2700 C.3   1 <1>   0.1100 
 13 C        4.2680     2.2580    -0.8020 C.3   1 <1>   0.1100 
 14 C       -3.9910     3.2710     0.1710 C.ar  1 <1>  -0.1500 
 15 C       -3.4340     0.9590     0.1180 C.ar  1 <1>  -0.1500 
 16 C        3.8750    -0.4810    -0.9440 C.3   1 <1>  -0.1600 
 17 C        5.1640     1.4080     0.1110 C.3   1 <1>  -0.1600 
 18 C       -4.4150     1.9430     0.2680 C.ar  1 <1>   0.0860 
 19 C        4.6360    -0.0250     0.3060 C.3   1 <1>   0.0630 
 20 C       -5.8070     1.6170     0.5110 C.2   1 <1>   0.6340 
 21 C        5.7570    -0.9910     0.6820 C.ar  1 <1>  -0.1440 
 22 O       -6.6780     2.4560     0.6260 O.2   1 <1>  -0.5700 
 23 O       -6.1410     0.3270     0.6140 O.3   1 <1>  -0.4300 
 24 C        5.8100    -1.5790     1.9310 C.ar  1 <1>  -0.1500 
 25 C        6.7750    -1.3330    -0.1870 C.ar  1 <1>  -0.1500 
 26 C       -7.4720    -0.0750     0.8490 C.3   1 <1>   0.1200 
 27 C        6.8400    -2.4510     2.2390 C.ar  1 <1>   0.1600 
 28 C        7.7610    -2.2170     0.2200 C.ar  1 <1>   0.1600 
 29 C       -7.5030    -1.5990     0.9120 C.3   1 <1>  -0.2400 
 30 N        7.8180    -2.7850     1.4140 N.ar  1 <1>  -0.6200 
 31 H        2.2500     3.1300    -2.2190 H     1 <1>   0.0800 
 32 H        1.9170     4.9230    -0.8020 H     1 <1>   0.0800 
 33 H        2.4610     3.9300     0.5490 H     1 <1>   0.0800 
 34 H       -2.3860     4.6340    -0.1240 H     1 <1>   0.1500 
 35 H       -1.3860     0.4960    -0.2270 H     1 <1>   0.1500 
 36 H        2.5930     0.5270    -2.3410 H     1 <1>   0.0800 
 37 H        1.7980     0.0260    -0.8740 H     1 <1>   0.0800 
 38 H        4.3730     3.2930    -0.5250 H     1 <1>   0.0800 
 39 H        4.5890     2.1540    -1.8260 H     1 <1>   0.0800 
 40 H       -4.7170     4.0590     0.2830 H     1 <1>   0.1500 
 41 H       -3.7120    -0.0790     0.1820 H     1 <1>   0.1500 
 42 H        4.5410    -0.5030    -1.7870 H     1 <1>   0.0800 
 43 H        3.5020    -1.4800    -0.8060 H     1 <1>   0.0800 
 44 H        5.2390     1.8800     1.0740 H     1 <1>   0.0800 
 45 H        6.1520     1.3920    -0.3110 H     1 <1>   0.0800 
 46 H        3.9220     0.0000     1.1130 H     1 <1>   0.0800 
 47 H        5.0580    -1.3670     2.6690 H     1 <1>   0.1500 
 48 H        6.8150    -0.9220    -1.1780 H     1 <1>   0.1500 
 49 H       -8.0860     0.2930     0.0440 H     1 <1>   0.0800 
 50 H       -7.7990     0.3580     1.7800 H     1 <1>   0.0800 
 51 H        6.8610    -2.8970     3.2190 H     1 <1>   0.1500 
 52 H        8.5440    -2.4700    -0.4730 H     1 <1>   0.1500 
 53 H       -7.1650    -2.0140    -0.0200 H     1 <1>   0.0800 
 54 H       -8.5090    -1.9330     1.0910 H     1 <1>   0.0800 
 55 H       -6.8770    -1.9490     1.7120 H     1 <1>   0.0800 
@<TRIPOS>BOND
  1   1   2  2   
  2   2   3  am  
  3   2   4  1   
  4   3   5  1   
  5   3   6  am  
  6   4   7  1   
  7   4   8  1   
  8   4  31  1   
  9   5   9  ar  
 10   5  10  ar  
 11   6   8  1   
 12   6  11  2   
 13   7  12  1   
 14   7  13  1   
 15   8  32  1   
 16   8  33  1   
 17   9  14  ar  
 18   9  34  1   
 19  10  15  ar  
 20  10  35  1   
 21  12  16  1   
 22  12  36  1   
 23  12  37  1   
 24  13  17  1   
 25  13  38  1   
 26  13  39  1   
 27  14  18  ar  
 28  14  40  1   
 29  15  18  ar  
 30  15  41  1   
 31  16  19  1   
 32  16  42  1   
 33  16  43  1   
 34  17  19  1   
 35  17  44  1   
 36  17  45  1   
 37  18  20  1   
 38  19  21  1   
 39  19  46  1   
 40  20  22  2   
 41  20  23  1   
 42  21  24  ar  
 43  21  25  ar  
 44  23  26  1   
 45  24  27  ar  
 46  24  47  1   
 47  25  28  ar  
 48  25  48  1   
 49  26  29  1   
 50  26  49  1   
 51  26  50  1   
 52  27  30  ar  
 53  27  51  1   
 54  28  30  ar  
 55  28  52  1   
 56  29  53  1   
 57  29  54  1   
 58  29  55  1   
@<TRIPOS>SUBSTRUCTURE
  1 ****   2 GROUP 4 **** **** 0

# MOE 2024.06 (io_trps.svl 2023.06)
