@<TRIPOS>MOLECULE
NONAME
45 47 1 0 0 
SMALL
USER_CHARGES


@<TRIPOS>ATOM
  1 S       -0.7220    -0.2610     0.6380 S.3   1 <1>  -0.0800 
  2 C       -1.9200     0.6970    -0.2410 C.2   1 <1>  -0.0450 
  3 C        0.5170     0.9580     0.4290 C.2   1 <1>  -0.1100 
  4 C       -3.2500     0.1600    -0.4050 C.2   1 <1>   0.7150 
  5 C       -1.3330     1.8550    -0.6430 C.2   1 <1>  -0.1500 
  6 C        0.0340     2.0040    -0.2650 C.2   1 <1>  -0.1500 
  7 O       -3.4250    -1.0440    -0.4690 O.2   1 <1>  -0.5700 
  8 N       -4.3510     0.9850    -0.4980 N.am  1 <1>  -0.6600 
  9 C       -5.6640     0.4820    -1.0110 C.3   1 <1>   0.1400 
 10 C       -4.4610     2.2880     0.2300 C.3   1 <1>   0.1400 
 11 C       -6.6990     0.3910     0.1200 C.3   1 <1>   0.1400 
 12 C       -5.5010     2.1940     1.3580 C.3   1 <1>   0.1400 
 13 N       -6.8060     1.6950     0.8380 N.am  1 <1>  -0.6600 
 14 C       -7.8030     2.5800     0.5190 C.2   1 <1>   0.6900 
 15 O       -7.5150     3.7480     0.3140 O.2   1 <1>  -0.5700 
 16 N       -9.1070     2.1590     0.4150 N.am  1 <1>  -0.6600 
 17 C      -10.0910     2.9380    -0.3850 C.3   1 <1>   0.1400 
 18 C       -9.6710     1.1860     1.3870 C.3   1 <1>   0.1400 
 19 C      -10.5530     2.0990    -1.5790 C.3   1 <1>  -0.1600 
 20 C      -10.4690     0.0680     0.7020 C.3   1 <1>  -0.1600 
 21 C      -11.7210     1.1360    -1.2960 C.3   1 <1>  -0.1600 
 22 C      -11.8080     0.5490     0.1220 C.3   1 <1>  -0.1600 
 23 H        1.4860     0.7590     0.8500 H     1 <1>   0.1500 
 24 H       -1.8290     2.6210    -1.2120 H     1 <1>   0.1500 
 25 H        0.5930     2.8840    -0.5310 H     1 <1>   0.1500 
 26 H       -5.5470    -0.4850    -1.4680 H     1 <1>   0.0800 
 27 H       -6.0270     1.1580    -1.7650 H     1 <1>   0.0800 
 28 H       -4.7610     3.0580    -0.4600 H     1 <1>   0.0800 
 29 H       -3.5170     2.5710     0.6590 H     1 <1>   0.0800 
 30 H       -6.4070    -0.3780     0.8140 H     1 <1>   0.0800 
 31 H       -7.6490     0.1180    -0.3020 H     1 <1>   0.0800 
 32 H       -5.6310     3.1620     1.8100 H     1 <1>   0.0800 
 33 H       -5.1440     1.5210     2.1190 H     1 <1>   0.0800 
 34 H       -9.6270     3.8350    -0.7590 H     1 <1>   0.0800 
 35 H      -10.9240     3.2350     0.2280 H     1 <1>   0.0800 
 36 H      -10.3040     1.7140     2.0800 H     1 <1>   0.0800 
 37 H       -8.8750     0.7440     1.9600 H     1 <1>   0.0800 
 38 H       -9.7090     1.5470    -1.9560 H     1 <1>   0.0800 
 39 H      -10.8610     2.7680    -2.3630 H     1 <1>   0.0800 
 40 H      -10.6850    -0.6700     1.4540 H     1 <1>   0.0800 
 41 H       -9.8770    -0.4130    -0.0550 H     1 <1>   0.0800 
 42 H      -11.6630     0.3270    -2.0040 H     1 <1>   0.0800 
 43 H      -12.6450     1.6530    -1.4910 H     1 <1>   0.0800 
 44 H      -12.2450     1.2750     0.7870 H     1 <1>   0.0800 
 45 H      -12.4870    -0.2860     0.0880 H     1 <1>   0.0800 
@<TRIPOS>BOND
  1   1   2  1   
  2   1   3  1   
  3   2   4  1   
  4   2   5  2   
  5   3   6  2   
  6   3  23  1   
  7   4   7  2   
  8   4   8  am  
  9   5   6  1   
 10   5  24  1   
 11   6  25  1   
 12   8   9  1   
 13   8  10  1   
 14   9  11  1   
 15   9  26  1   
 16   9  27  1   
 17  10  12  1   
 18  10  28  1   
 19  10  29  1   
 20  11  13  1   
 21  11  30  1   
 22  11  31  1   
 23  12  13  1   
 24  12  32  1   
 25  12  33  1   
 26  13  14  am  
 27  14  15  2   
 28  14  16  am  
 29  16  17  1   
 30  16  18  1   
 31  17  19  1   
 32  17  34  1   
 33  17  35  1   
 34  18  20  1   
 35  18  36  1   
 36  18  37  1   
 37  19  21  1   
 38  19  38  1   
 39  19  39  1   
 40  20  22  1   
 41  20  40  1   
 42  20  41  1   
 43  21  22  1   
 44  21  42  1   
 45  21  43  1   
 46  22  44  1   
 47  22  45  1   
@<TRIPOS>SUBSTRUCTURE
  1 ****  11 GROUP 4 **** **** 0

# MOE 2024.06 (io_trps.svl 2023.06)
