@<TRIPOS>MOLECULE
NONAME
33 32 1 0 0 
SMALL
USER_CHARGES


@<TRIPOS>ATOM
  1 CL      -1.3800    -1.2590     1.3220 Cl    1 <1>  -0.2900 
  2 C        0.0360    -2.2900     1.1240 C.3   1 <1>   0.8700 
  3 CL       0.1090    -3.3150     2.5510 Cl    1 <1>  -0.2900 
  4 CL       1.4510    -1.2460     1.1810 Cl    1 <1>  -0.2900 
  5 C       -0.0270    -3.1350    -0.1980 C.3   1 <1>   0.5000 
  6 O       -0.0950    -2.3640    -1.3400 O.3   1 <1>  -0.6800 
  7 N       -1.2090    -3.9930    -0.3360 N.am  1 <1>  -0.7300 
  8 C       -1.2040    -5.3250    -0.0980 C.2   1 <1>   0.5690 
  9 O       -0.1680    -5.9040     0.1130 O.2   1 <1>  -0.5700 
 10 C       -2.5100    -6.1060    -0.0930 C.3   1 <1>   0.1310 
 11 S       -3.9760    -4.9570     0.0190 S.3   1 <1>  -0.3710 
 12 C       -5.4190    -5.9940     0.0180 C.2   1 <1>   0.5810 
 13 S       -5.1480    -7.5750    -0.1090 S.2   1 <1>  -0.3800 
 14 N       -6.6370    -5.4160     0.1150 N.am  1 <1>  -0.6600 
 15 C       -6.8520    -3.9490     0.2630 C.3   1 <1>   0.1400 
 16 C       -7.8960    -6.2120     0.0840 C.3   1 <1>   0.1400 
 17 C       -7.0020    -3.3110    -1.1170 C.3   1 <1>  -0.2400 
 18 C       -8.3170    -6.5620     1.5090 C.3   1 <1>  -0.2400 
 19 H        0.8690    -3.7300    -0.2580 H     1 <1>   0.0800 
 20 H       -0.1580    -2.9640    -2.1060 H     1 <1>   0.4000 
 21 H       -2.1020    -3.5010    -0.4400 H     1 <1>   0.3700 
 22 H       -2.5450    -6.7600     0.7590 H     1 <1>   0.0800 
 23 H       -2.6060    -6.6720    -1.0000 H     1 <1>   0.0800 
 24 H       -6.0300    -3.4960     0.7910 H     1 <1>   0.0800 
 25 H       -7.7400    -3.7690     0.8450 H     1 <1>   0.0800 
 26 H       -7.7550    -7.1150    -0.4850 H     1 <1>   0.0800 
 27 H       -8.6730    -5.6460    -0.4000 H     1 <1>   0.0800 
 28 H       -6.1130    -3.4700    -1.7000 H     1 <1>   0.0800 
 29 H       -7.1540    -2.2530    -1.0100 H     1 <1>   0.0800 
 30 H       -7.8470    -3.7260    -1.6360 H     1 <1>   0.0800 
 31 H       -7.5520    -7.1490     1.9870 H     1 <1>   0.0800 
 32 H       -9.2230    -7.1400     1.4860 H     1 <1>   0.0800 
 33 H       -8.4940    -5.6720     2.0840 H     1 <1>   0.0800 
@<TRIPOS>BOND
  1   1   2  1   
  2   2   3  1   
  3   2   4  1   
  4   2   5  1   
  5   5   6  1   
  6   5   7  1   
  7   5  19  1   
  8   6  20  1   
  9   7   8  am  
 10   7  21  1   
 11   8   9  2   
 12   8  10  1   
 13  10  11  1   
 14  10  22  1   
 15  10  23  1   
 16  11  12  1   
 17  12  13  2   
 18  12  14  am  
 19  14  15  1   
 20  14  16  1   
 21  15  17  1   
 22  15  24  1   
 23  15  25  1   
 24  16  18  1   
 25  16  26  1   
 26  16  27  1   
 27  17  28  1   
 28  17  29  1   
 29  17  30  1   
 30  18  31  1   
 31  18  32  1   
 32  18  33  1   
@<TRIPOS>SUBSTRUCTURE
  1 ****  11 GROUP 4 **** **** 0

# MOE 2024.06 (io_trps.svl 2023.06)
