@<TRIPOS>MOLECULE
NONAME
27 28 1 0 0 
SMALL
USER_CHARGES


@<TRIPOS>ATOM
  1 S        0.2060     0.2810     0.0050 S.3   1 <1>  -0.0800 
  2 C        1.3270    -1.0410    -0.0070 C.2   1 <1>   0.4420 
  3 C       -1.0680    -0.8890    -0.0270 C.2   1 <1>   0.1980 
  4 N        0.7320    -2.1780    -0.0320 N.2   1 <1>  -0.3380 
  5 N        2.6640    -0.7120     0.0110 N.am  1 <1>  -0.4940 
  6 N       -0.6320    -2.0830    -0.0430 N.2   1 <1>  -0.3380 
  7 C       -2.4970    -0.3660    -0.0310 C.3   1 <1>   0.0200 
  8 C        3.7680    -1.5160     0.0080 C.2   1 <1>   0.7150 
  9 C       -3.5450    -1.4860    -0.0600 C.3   1 <1>  -0.2400 
 10 O        3.6500    -2.7230    -0.0130 O.2   1 <1>  -0.5700 
 11 C        5.0600    -0.8880     0.0310 C.2   1 <1>  -0.2370 
 12 N        6.2520    -1.5490     0.0330 N.pl3 1 <1>   0.3140 
 13 C        5.3920     0.4370     0.0540 C.2   1 <1>  -0.1500 
 14 N        7.2960    -0.7080     0.0570 N.2   1 <1>  -0.7070 
 15 C        6.4930    -3.0030     0.0140 C.3   1 <1>   0.0160 
 16 C        6.7720     0.4780     0.0690 C.2   1 <1>   0.1390 
 17 H        2.8690     0.2780     0.0300 H     1 <1>   0.3700 
 18 H       -2.6300     0.2640    -0.8930 H     1 <1>   0.0800 
 19 H       -2.6460     0.2350     0.8480 H     1 <1>   0.0800 
 20 H       -3.4200    -2.0890    -0.9430 H     1 <1>   0.0800 
 21 H       -4.5360    -1.0700    -0.0620 H     1 <1>   0.0800 
 22 H       -3.4360    -2.1180     0.8040 H     1 <1>   0.0800 
 23 H        4.7570     1.3030     0.0610 H     1 <1>   0.1500 
 24 H        6.0420    -3.4490     0.8810 H     1 <1>   0.0800 
 25 H        7.5510    -3.1890     0.0230 H     1 <1>   0.0800 
 26 H        6.0610    -3.4230    -0.8750 H     1 <1>   0.0800 
 27 H        7.3640     1.3790     0.0890 H     1 <1>   0.1500 
@<TRIPOS>BOND
  1   1   2  1   
  2   1   3  1   
  3   2   4  2   
  4   2   5  1   
  5   3   6  2   
  6   3   7  1   
  7   4   6  1   
  8   5   8  am  
  9   5  17  1   
 10   7   9  1   
 11   7  18  1   
 12   7  19  1   
 13   8  10  2   
 14   8  11  1   
 15   9  20  1   
 16   9  21  1   
 17   9  22  1   
 18  11  12  1   
 19  11  13  2   
 20  12  14  1   
 21  12  15  1   
 22  13  16  1   
 23  13  23  1   
 24  14  16  2   
 25  15  24  1   
 26  15  25  1   
 27  15  26  1   
 28  16  27  1   
@<TRIPOS>SUBSTRUCTURE
  1 ****   5 GROUP 4 **** **** 0

# MOE 2024.06 (io_trps.svl 2023.06)
