@<TRIPOS>MOLECULE
NONAME
35 36 1 0 0 
SMALL
USER_CHARGES


@<TRIPOS>ATOM
  1 S       -0.3890     0.8040    -1.1880 S.o2  1 <1>   1.4470 
  2 O       -1.0980     1.7150    -2.0550 O.2   1 <1>  -0.6500 
  3 O       -0.4250    -0.6160    -1.4570 O.2   1 <1>  -0.6500 
  4 N       -1.0500     1.0220     0.3390 N.am  1 <1>  -0.9140 
  5 C        1.3290     1.3440    -0.9690 C.ar  1 <1>  -0.0090 
  6 C       -2.3220     0.3340     0.5430 C.3   1 <1>   0.1960 
  7 C        1.8170     2.4850    -1.6010 C.ar  1 <1>  -0.1500 
  8 C        2.1980     0.6290    -0.1500 C.ar  1 <1>  -0.1500 
  9 C       -3.4770     1.1250    -0.0990 C.3   1 <1>   0.2000 
 10 C        3.1270     2.8970    -1.4250 C.ar  1 <1>  -0.1500 
 11 C        3.5120     1.0300     0.0360 C.ar  1 <1>  -0.1500 
 12 O       -3.3610     2.4720     0.2400 O.3   1 <1>  -0.5600 
 13 C       -4.8680     0.7390     0.3850 C.3   1 <1>  -0.1600 
 14 C        3.9690     2.1670    -0.6080 C.ar  1 <1>   0.1010 
 15 C       -4.5810     3.1070     0.0370 C.3   1 <1>   0.1200 
 16 C       -5.6520     2.0360     0.2380 C.3   1 <1>  -0.1600 
 17 S        5.6580     2.7620    -0.4270 S.3   1 <1>  -0.3310 
 18 C        6.5210     1.5830     0.7020 C.3   1 <1>  -0.0100 
 19 H       -1.3300     2.0100     0.3470 H     1 <1>   0.4200 
 20 H       -2.5030     0.2690     1.6010 H     1 <1>   0.0800 
 21 H       -2.2900    -0.6720     0.1570 H     1 <1>   0.0800 
 22 H        1.1640     3.0570    -2.2390 H     1 <1>   0.1500 
 23 H        1.8360    -0.2540     0.3490 H     1 <1>   0.1500 
 24 H       -3.4320     1.0540    -1.1730 H     1 <1>   0.0800 
 25 H        3.4970     3.7780    -1.9180 H     1 <1>   0.1500 
 26 H        4.1520     0.4530     0.6740 H     1 <1>   0.1500 
 27 H       -4.8330     0.4460     1.4200 H     1 <1>   0.0800 
 28 H       -5.2820    -0.0630    -0.1990 H     1 <1>   0.0800 
 29 H       -4.5940     3.4890    -0.9700 H     1 <1>   0.0800 
 30 H       -4.6710     3.9150     0.7420 H     1 <1>   0.0800 
 31 H       -6.2400     2.2410     1.1150 H     1 <1>   0.0800 
 32 H       -6.3010     2.0060    -0.6200 H     1 <1>   0.0800 
 33 H        7.5340     1.9250     0.8140 H     1 <1>   0.0800 
 34 H        6.4970     0.6090     0.2470 H     1 <1>   0.0800 
 35 H        6.0090     1.5910     1.6470 H     1 <1>   0.0800 
@<TRIPOS>BOND
  1   1   2  2   
  2   1   3  2   
  3   1   4  am  
  4   1   5  1   
  5   4   6  1   
  6   4  19  1   
  7   5   7  ar  
  8   5   8  ar  
  9   6   9  1   
 10   6  20  1   
 11   6  21  1   
 12   7  10  ar  
 13   7  22  1   
 14   8  11  ar  
 15   8  23  1   
 16   9  12  1   
 17   9  13  1   
 18   9  24  1   
 19  10  14  ar  
 20  10  25  1   
 21  11  14  ar  
 22  11  26  1   
 23  12  15  1   
 24  13  16  1   
 25  13  27  1   
 26  13  28  1   
 27  14  17  1   
 28  15  16  1   
 29  15  29  1   
 30  15  30  1   
 31  16  31  1   
 32  16  32  1   
 33  17  18  1   
 34  18  33  1   
 35  18  34  1   
 36  18  35  1   
@<TRIPOS>SUBSTRUCTURE
  1 ****   1 GROUP 4 **** **** 0

# MOE 2024.06 (io_trps.svl 2023.06)
