@<TRIPOS>MOLECULE
NONAME
42 44 1 0 0 
SMALL
USER_CHARGES


@<TRIPOS>ATOM
  1 BR      -1.2930    -0.0430    -1.4050 Br    1 <1>  -0.1110 
  2 C       -1.2560     1.6070    -0.4080 C.ar  1 <1>   0.1110 
  3 C       -2.0010     1.7170     0.7530 C.ar  1 <1>  -0.1440 
  4 C       -0.4890     2.6410    -0.9050 C.ar  1 <1>  -0.1500 
  5 C       -1.9540     2.9240     1.4320 C.ar  1 <1>  -0.1500 
  6 C       -2.8470     0.5740     1.2740 C.3   1 <1>   0.4870 
  7 C       -0.4540     3.8560    -0.2250 C.ar  1 <1>   0.0820 
  8 C       -1.2010     3.9910     0.9630 C.ar  1 <1>   0.0820 
  9 N       -4.2680     0.8670     0.9740 N.4   1 <1>  -0.9060 
 10 O        0.2770     4.9020    -0.7030 O.3   1 <1>  -0.3620 
 11 O       -1.2870     5.0980     1.7550 O.3   1 <1>  -0.3620 
 12 C       -4.5750     0.9360    -0.4710 C.3   1 <1>   0.4860 
 13 C        1.1140     4.7950    -1.8370 C.3   1 <1>   0.0400 
 14 C       -0.4100     6.1990     1.6470 C.3   1 <1>   0.0400 
 15 C       -6.0450     1.2640    -0.5760 C.ar  1 <1>  -0.1430 
 16 C       -6.4600     2.5930    -0.5170 C.ar  1 <1>  -0.1500 
 17 C       -6.9850     0.2420    -0.7200 C.ar  1 <1>  -0.1500 
 18 C       -7.8120     2.8540    -0.5930 C.ar  1 <1>   0.0820 
 19 C       -8.3420     0.5300    -0.7980 C.ar  1 <1>  -0.1500 
 20 O       -8.4280     4.0390    -0.5510 O.3   1 <1>  -0.3620 
 21 C       -8.7280     1.8530    -0.7290 C.ar  1 <1>   0.0820 
 22 C       -9.8260     3.7790    -0.6830 C.3   1 <1>   0.4000 
 23 O       -9.9620     2.3620    -0.7790 O.3   1 <1>  -0.3620 
 24 H        0.0600     2.4780    -1.8130 H     1 <1>   0.1500 
 25 H       -2.5000     3.0690     2.3490 H     1 <1>   0.1500 
 26 H       -2.7060     0.4880     2.3400 H     1 <1>   0.0800 
 27 H       -2.5500    -0.3580     0.8210 H     1 <1>   0.0800 
 28 H       -4.5180     1.7770     1.3770 H     1 <1>   0.4500 
 29 H       -4.8920     0.1760     1.4040 H     1 <1>   0.4500 
 30 H       -4.3670    -0.0060    -0.9520 H     1 <1>   0.0800 
 31 H       -3.9920     1.7090    -0.9470 H     1 <1>   0.0800 
 32 H        1.6080     5.7400    -1.9760 H     1 <1>   0.0800 
 33 H        0.5110     4.5710    -2.6990 H     1 <1>   0.0800 
 34 H        1.8450     4.0260    -1.6630 H     1 <1>   0.0800 
 35 H       -0.5870     6.8520     2.4830 H     1 <1>   0.0800 
 36 H       -0.6150     6.7200     0.7300 H     1 <1>   0.0800 
 37 H        0.6050     5.8430     1.6690 H     1 <1>   0.0800 
 38 H       -5.7750     3.4180    -0.4180 H     1 <1>   0.1500 
 39 H       -6.6780    -0.7890    -0.7790 H     1 <1>   0.1500 
 40 H       -9.0840    -0.2420    -0.9110 H     1 <1>   0.1500 
 41 H      -10.1960     4.2400    -1.5810 H     1 <1>   0.0800 
 42 H      -10.3440     4.1340     0.1900 H     1 <1>   0.0800 
@<TRIPOS>BOND
  1   1   2  1   
  2   2   3  ar  
  3   2   4  ar  
  4   3   5  ar  
  5   3   6  1   
  6   4   7  ar  
  7   4  24  1   
  8   5   8  ar  
  9   5  25  1   
 10   6   9  1   
 11   6  26  1   
 12   6  27  1   
 13   7   8  ar  
 14   7  10  1   
 15   8  11  1   
 16   9  12  1   
 17   9  28  1   
 18   9  29  1   
 19  10  13  1   
 20  11  14  1   
 21  12  15  1   
 22  12  30  1   
 23  12  31  1   
 24  13  32  1   
 25  13  33  1   
 26  13  34  1   
 27  14  35  1   
 28  14  36  1   
 29  14  37  1   
 30  15  16  ar  
 31  15  17  ar  
 32  16  18  ar  
 33  16  38  1   
 34  17  19  ar  
 35  17  39  1   
 36  18  20  1   
 37  18  21  ar  
 38  19  21  ar  
 39  19  40  1   
 40  20  22  1   
 41  21  23  1   
 42  22  23  1   
 43  22  41  1   
 44  22  42  1   
@<TRIPOS>SUBSTRUCTURE
  1 ****  12 GROUP 4 **** **** 0

# MOE 2024.06 (io_trps.svl 2023.06)
