@<TRIPOS>MOLECULE
NONAME
46 48 1 0 0 
SMALL
USER_CHARGES


@<TRIPOS>ATOM
  1 O        0.5510     0.7470     0.8460 O.2   1 <1>  -0.5700 
  2 C        0.4350     1.8560     0.3590 C.2   1 <1>   0.5440 
  3 N        1.5520     2.6550     0.2620 N.am  1 <1>  -0.6600 
  4 C       -0.8690     2.3090    -0.0880 C.ar  1 <1>   0.0860 
  5 C        2.8850     2.1990     0.7140 C.3   1 <1>   0.1400 
  6 C        1.5320     4.1230     0.0740 C.3   1 <1>   0.1400 
  7 C       -1.0650     2.8760    -1.3450 C.ar  1 <1>  -0.1500 
  8 C       -1.9890     2.1830     0.7300 C.ar  1 <1>  -0.1500 
  9 C        3.7800     3.4290     0.6080 C.3   1 <1>  -0.1600 
 10 C        2.8230     4.6120     0.7200 C.3   1 <1>  -0.1600 
 11 C       -2.3110     3.3140    -1.7520 C.ar  1 <1>  -0.1500 
 12 C       -3.2360     2.6200     0.3230 C.ar  1 <1>  -0.1500 
 13 C       -3.4340     3.2070    -0.9290 C.ar  1 <1>   0.0860 
 14 C       -4.7340     3.6760    -1.3770 C.2   1 <1>   0.3980 
 15 O       -4.9420     3.8460    -2.5620 O.2   1 <1>  -0.5700 
 16 C       -5.8030     3.9350    -0.4430 C.ar  1 <1>   0.0860 
 17 C       -5.6590     4.8120     0.6400 C.ar  1 <1>   0.0830 
 18 C       -7.0340     3.2990    -0.6020 C.ar  1 <1>  -0.1500 
 19 O       -4.5140     5.4960     0.8350 O.3   1 <1>  -0.3630 
 20 C       -6.6860     4.9990     1.5510 C.ar  1 <1>  -0.1500 
 21 C       -8.0720     3.4950     0.2990 C.ar  1 <1>   0.0830 
 22 C       -4.3150     6.6410     0.0350 C.3   1 <1>   0.0400 
 23 C       -7.8880     4.3410     1.3820 C.ar  1 <1>  -0.1500 
 24 O       -9.2880     2.9000     0.1940 O.3   1 <1>  -0.3630 
 25 C       -9.6150     2.1050    -0.9250 C.3   1 <1>   0.0400 
 26 H        3.2390     1.3900     0.0970 H     1 <1>   0.0800 
 27 H        2.8150     1.8670     1.7360 H     1 <1>   0.0800 
 28 H        0.6670     4.5660     0.5370 H     1 <1>   0.0800 
 29 H        1.5380     4.3430    -0.9800 H     1 <1>   0.0800 
 30 H       -0.2250     2.9640    -2.0120 H     1 <1>   0.1500 
 31 H       -1.8680     1.7320     1.7000 H     1 <1>   0.1500 
 32 H        4.2560     3.4310    -0.3570 H     1 <1>   0.0800 
 33 H        4.5360     3.4380     1.3720 H     1 <1>   0.0800 
 34 H        2.6330     4.8310     1.7560 H     1 <1>   0.0800 
 35 H        3.2030     5.4960     0.2380 H     1 <1>   0.0800 
 36 H       -2.4250     3.7460    -2.7320 H     1 <1>   0.1500 
 37 H       -4.0670     2.4990     0.9950 H     1 <1>   0.1500 
 38 H       -7.1490     2.6490    -1.4490 H     1 <1>   0.1500 
 39 H       -6.5400     5.6610     2.3860 H     1 <1>   0.1500 
 40 H       -3.3820     7.0930     0.3210 H     1 <1>   0.0800 
 41 H       -5.1250     7.3280     0.2050 H     1 <1>   0.0800 
 42 H       -4.2810     6.3520    -1.0010 H     1 <1>   0.0800 
 43 H       -8.6930     4.4810     2.0810 H     1 <1>   0.1500 
 44 H      -10.6340     1.7790    -0.8170 H     1 <1>   0.0800 
 45 H       -8.9600     1.2520    -0.9520 H     1 <1>   0.0800 
 46 H       -9.5140     2.6980    -1.8170 H     1 <1>   0.0800 
@<TRIPOS>BOND
  1   1   2  2   
  2   2   3  am  
  3   2   4  1   
  4   3   5  1   
  5   3   6  1   
  6   4   7  ar  
  7   4   8  ar  
  8   5   9  1   
  9   5  26  1   
 10   5  27  1   
 11   6  10  1   
 12   6  28  1   
 13   6  29  1   
 14   7  11  ar  
 15   7  30  1   
 16   8  12  ar  
 17   8  31  1   
 18   9  10  1   
 19   9  32  1   
 20   9  33  1   
 21  10  34  1   
 22  10  35  1   
 23  11  13  ar  
 24  11  36  1   
 25  12  13  ar  
 26  12  37  1   
 27  13  14  1   
 28  14  15  2   
 29  14  16  1   
 30  16  17  ar  
 31  16  18  ar  
 32  17  19  1   
 33  17  20  ar  
 34  18  21  ar  
 35  18  38  1   
 36  19  22  1   
 37  20  23  ar  
 38  20  39  1   
 39  21  23  ar  
 40  21  24  1   
 41  22  40  1   
 42  22  41  1   
 43  22  42  1   
 44  23  43  1   
 45  24  25  1   
 46  25  44  1   
 47  25  45  1   
 48  25  46  1   
@<TRIPOS>SUBSTRUCTURE
  1 ****  12 GROUP 4 **** **** 0

# MOE 2024.06 (io_trps.svl 2023.06)
