@<TRIPOS>MOLECULE
NONAME
35 36 1 0 0 
SMALL
USER_CHARGES


@<TRIPOS>ATOM
  1 BR      -1.9570    -0.1700     2.7820 Br    1 <1>  -0.1110 
  2 C       -2.4900     0.8630     1.2510 C.ar  1 <1>   0.1110 
  3 C       -3.6630     0.5270     0.6020 C.ar  1 <1>  -0.1500 
  4 C       -1.6910     1.9120     0.8410 C.ar  1 <1>  -0.1500 
  5 C       -4.0570     1.2740    -0.5000 C.ar  1 <1>  -0.1440 
  6 C       -2.0840     2.6480    -0.2630 C.ar  1 <1>  -0.1500 
  7 C       -3.2580     2.3290    -0.9290 C.ar  1 <1>  -0.1500 
  8 C       -5.3480     0.9470    -1.2260 C.3   1 <1>   0.4870 
  9 N       -6.4910     1.3700    -0.3770 N.4   1 <1>  -0.9590 
 10 C       -7.8310     0.9870    -0.9240 C.3   1 <1>   0.3430 
 11 C       -6.4710     2.8360    -0.0310 C.3   1 <1>   0.3430 
 12 C       -8.9520     1.2730     0.1110 C.3   1 <1>   0.2000 
 13 C       -7.7880     3.3120     0.6390 C.3   1 <1>   0.2000 
 14 O       -8.5460     2.2130     1.0730 O.3   1 <1>  -0.5600 
 15 C       -9.3340     0.0160     0.8890 C.3   1 <1>  -0.2400 
 16 C       -8.6470     4.2050    -0.2640 C.3   1 <1>  -0.2400 
 17 H       -4.2380    -0.3060     0.9670 H     1 <1>   0.1500 
 18 H       -0.7840     2.1430     1.3720 H     1 <1>   0.1500 
 19 H       -1.4710     3.4670    -0.6040 H     1 <1>   0.1500 
 20 H       -3.5340     2.9170    -1.7890 H     1 <1>   0.1500 
 21 H       -5.3940    -0.1140    -1.4110 H     1 <1>   0.0800 
 22 H       -5.3760     1.4610    -2.1730 H     1 <1>   0.0800 
 23 H       -6.4110     0.8900     0.5300 H     1 <1>   0.4500 
 24 H       -7.8510    -0.0580    -1.1860 H     1 <1>   0.0800 
 25 H       -8.0320     1.5520    -1.8180 H     1 <1>   0.0800 
 26 H       -6.3050     3.4250    -0.9180 H     1 <1>   0.0800 
 27 H       -5.6510     3.0360     0.6400 H     1 <1>   0.0800 
 28 H       -9.8260     1.6550    -0.3900 H     1 <1>   0.0800 
 29 H       -7.5360     3.8770     1.5210 H     1 <1>   0.0800 
 30 H       -8.4900    -0.3730     1.4310 H     1 <1>   0.0800 
 31 H       -9.6980    -0.7450     0.2210 H     1 <1>   0.0800 
 32 H      -10.1190     0.2480     1.5880 H     1 <1>   0.0800 
 33 H       -8.8760     3.7330    -1.2020 H     1 <1>   0.0800 
 34 H       -8.1240     5.1220    -0.4720 H     1 <1>   0.0800 
 35 H       -9.5630     4.4570     0.2410 H     1 <1>   0.0800 
@<TRIPOS>BOND
  1   1   2  1   
  2   2   3  ar  
  3   2   4  ar  
  4   3   5  ar  
  5   3  17  1   
  6   4   6  ar  
  7   4  18  1   
  8   5   7  ar  
  9   5   8  1   
 10   6   7  ar  
 11   6  19  1   
 12   7  20  1   
 13   8   9  1   
 14   8  21  1   
 15   8  22  1   
 16   9  10  1   
 17   9  11  1   
 18   9  23  1   
 19  10  12  1   
 20  10  24  1   
 21  10  25  1   
 22  11  13  1   
 23  11  26  1   
 24  11  27  1   
 25  12  14  1   
 26  12  15  1   
 27  12  28  1   
 28  13  14  1   
 29  13  16  1   
 30  13  29  1   
 31  15  30  1   
 32  15  31  1   
 33  15  32  1   
 34  16  33  1   
 35  16  34  1   
 36  16  35  1   
@<TRIPOS>SUBSTRUCTURE
  1 ****   9 GROUP 4 **** **** 0

# MOE 2024.06 (io_trps.svl 2023.06)
