@<TRIPOS>MOLECULE
NONAME
40 41 1 0 0 
SMALL
USER_CHARGES


@<TRIPOS>ATOM
  1 S       -0.8090     0.5050     0.6750 S.3   1 <1>  -0.3320 
  2 C        0.9140     0.9540     0.6030 C.ar  1 <1>   0.7220 
  3 C       -1.5830     1.4460    -0.7340 C.3   1 <1>   0.1310 
  4 N        1.6700     0.3910     1.5290 N.ar  1 <1>  -0.6200 
  5 N        1.2510     1.7950    -0.3630 N.ar  1 <1>  -0.6200 
  6 C       -3.0790     1.1880    -0.8370 C.2   1 <1>   0.5690 
  7 C        2.9390     0.7210     1.4780 C.ar  1 <1>   0.1660 
  8 C        2.5280     2.1040    -0.3850 C.ar  1 <1>   0.1600 
  9 O       -3.6970     1.7520    -1.7070 O.2   1 <1>  -0.5700 
 10 N       -3.6810     0.3410     0.0380 N.am  1 <1>  -0.7300 
 11 C        3.4230     1.5870     0.5240 C.ar  1 <1>  -0.1500 
 12 C        3.8500     0.1030     2.5180 C.3   1 <1>  -0.0970 
 13 C       -5.1100    -0.0090     0.0670 C.3   1 <1>   0.2200 
 14 C       -5.6850     0.5110     1.3900 C.3   1 <1>  -0.1600 
 15 C       -5.2260    -1.5250    -0.1400 C.3   1 <1>  -0.1600 
 16 C       -7.1580     0.1530     1.6480 C.3   1 <1>  -0.1600 
 17 C       -6.6660    -1.9670    -0.4450 C.3   1 <1>  -0.1600 
 18 C       -7.3470    -1.3300     2.0000 C.3   1 <1>  -0.1600 
 19 C       -7.5280    -2.2630     0.7930 C.3   1 <1>  -0.1600 
 20 H       -1.0920     1.1330    -1.6360 H     1 <1>   0.0800 
 21 H       -1.4000     2.4890    -0.5610 H     1 <1>   0.0800 
 22 H        2.8700     2.7850    -1.1460 H     1 <1>   0.1500 
 23 H       -3.1030    -0.1040     0.7550 H     1 <1>   0.3700 
 24 H        4.4620     1.8550     0.4840 H     1 <1>   0.1500 
 25 H        3.8200    -0.9680     2.4320 H     1 <1>   0.0800 
 26 H        3.5130     0.3800     3.5010 H     1 <1>   0.0800 
 27 H        4.8640     0.4340     2.3920 H     1 <1>   0.0800 
 28 H       -5.6070     0.4920    -0.7480 H     1 <1>   0.0800 
 29 H       -5.6030     1.5840     1.3770 H     1 <1>   0.0800 
 30 H       -5.0880     0.1500     2.2080 H     1 <1>   0.0800 
 31 H       -4.8390    -2.0590     0.7100 H     1 <1>   0.0800 
 32 H       -4.6250    -1.7820    -0.9950 H     1 <1>   0.0800 
 33 H       -7.7730     0.4290     0.8080 H     1 <1>   0.0800 
 34 H       -7.4900     0.7360     2.4890 H     1 <1>   0.0800 
 35 H       -6.6320    -2.8620    -1.0420 H     1 <1>   0.0800 
 36 H       -7.1490    -1.2150    -1.0460 H     1 <1>   0.0800 
 37 H       -8.2210    -1.4260     2.6210 H     1 <1>   0.0800 
 38 H       -6.5130    -1.6670     2.5910 H     1 <1>   0.0800 
 39 H       -7.3260    -3.2680     1.1210 H     1 <1>   0.0800 
 40 H       -8.5600    -2.2370     0.4880 H     1 <1>   0.0800 
@<TRIPOS>BOND
  1   1   2  1   
  2   1   3  1   
  3   2   4  ar  
  4   2   5  ar  
  5   3   6  1   
  6   3  20  1   
  7   3  21  1   
  8   4   7  ar  
  9   5   8  ar  
 10   6   9  2   
 11   6  10  am  
 12   7  11  ar  
 13   7  12  1   
 14   8  11  ar  
 15   8  22  1   
 16  10  13  1   
 17  10  23  1   
 18  11  24  1   
 19  12  25  1   
 20  12  26  1   
 21  12  27  1   
 22  13  14  1   
 23  13  15  1   
 24  13  28  1   
 25  14  16  1   
 26  14  29  1   
 27  14  30  1   
 28  15  17  1   
 29  15  31  1   
 30  15  32  1   
 31  16  18  1   
 32  16  33  1   
 33  16  34  1   
 34  17  19  1   
 35  17  35  1   
 36  17  36  1   
 37  18  19  1   
 38  18  37  1   
 39  18  38  1   
 40  19  39  1   
 41  19  40  1   
@<TRIPOS>SUBSTRUCTURE
  1 ****   1 GROUP 4 **** **** 0

# MOE 2024.06 (io_trps.svl 2023.06)
