@<TRIPOS>MOLECULE
NONAME
39 40 1 0 0 
SMALL
USER_CHARGES


@<TRIPOS>ATOM
  1 S        0.4690    -0.1070    -1.6970 S.o2  1 <1>   1.4470 
  2 O       -0.0670    -1.3870    -2.0940 O.2   1 <1>  -0.6500 
  3 O        1.3870     0.5640    -2.5900 O.2   1 <1>  -0.6500 
  4 N        1.2580    -0.4500    -0.2540 N.am  1 <1>  -0.9140 
  5 C       -0.8910     0.9930    -1.2120 C.ar  1 <1>  -0.0090 
  6 C        2.2680     0.4170     0.2940 C.3   1 <1>   0.3560 
  7 C       -1.0780     2.2280    -1.8230 C.ar  1 <1>  -0.1500 
  8 C       -1.7820     0.6310    -0.2090 C.ar  1 <1>  -0.1500 
  9 C        1.8260     1.8820     0.3210 C.3   1 <1>  -0.2400 
 10 C        3.5920     0.2370    -0.4510 C.3   1 <1>  -0.2400 
 11 C        2.4550    -0.0600     1.7330 C.3   1 <1>  -0.2400 
 12 C       -2.1060     3.0710    -1.4400 C.ar  1 <1>  -0.1500 
 13 C       -2.8110     1.4710     0.1780 C.ar  1 <1>  -0.1500 
 14 C       -2.9900     2.7090    -0.4300 C.ar  1 <1>   0.1170 
 15 N       -4.0350     3.5740    -0.0320 N.am  1 <1>  -0.2370 
 16 C       -3.8950     4.9150     0.2180 C.2   1 <1>   0.5690 
 17 C       -5.3380     3.2010     0.1690 C.2   1 <1>   0.5690 
 18 O       -2.8820     5.5600     0.1380 O.2   1 <1>  -0.5700 
 19 C       -5.2070     5.5450     0.6260 C.3   1 <1>  -0.0990 
 20 O       -5.7970     2.0950     0.0460 O.2   1 <1>  -0.5700 
 21 C       -6.1960     4.3730     0.5870 C.3   1 <1>  -0.0990 
 22 H        1.6940    -1.3510    -0.4250 H     1 <1>   0.4200 
 23 H       -0.4060     2.5350    -2.6080 H     1 <1>   0.1500 
 24 H       -1.6640    -0.3240     0.2760 H     1 <1>   0.1500 
 25 H        0.8760     1.9840     0.8150 H     1 <1>   0.0800 
 26 H        1.7630     2.2920    -0.6700 H     1 <1>   0.0800 
 27 H        2.5450     2.4690     0.8610 H     1 <1>   0.0800 
 28 H        3.5450     0.6360    -1.4460 H     1 <1>   0.0800 
 29 H        3.8680    -0.8000    -0.5000 H     1 <1>   0.0800 
 30 H        4.3730     0.7670     0.0650 H     1 <1>   0.0800 
 31 H        1.5330     0.0330     2.2790 H     1 <1>   0.0800 
 32 H        3.2000     0.5330     2.2310 H     1 <1>   0.0800 
 33 H        2.7710    -1.0870     1.7580 H     1 <1>   0.0800 
 34 H       -2.2170     4.0230    -1.9300 H     1 <1>   0.1500 
 35 H       -3.4850     1.1570     0.9570 H     1 <1>   0.1500 
 36 H       -5.4770     6.3160    -0.0730 H     1 <1>   0.0800 
 37 H       -5.1220     5.9600     1.6150 H     1 <1>   0.0800 
 38 H       -6.6270     4.1850     1.5540 H     1 <1>   0.0800 
 39 H       -6.9740     4.5340    -0.1370 H     1 <1>   0.0800 
@<TRIPOS>BOND
  1   1   2  2   
  2   1   3  2   
  3   1   4  am  
  4   1   5  1   
  5   4   6  1   
  6   4  22  1   
  7   5   7  ar  
  8   5   8  ar  
  9   6   9  1   
 10   6  10  1   
 11   6  11  1   
 12   7  12  ar  
 13   7  23  1   
 14   8  13  ar  
 15   8  24  1   
 16   9  25  1   
 17   9  26  1   
 18   9  27  1   
 19  10  28  1   
 20  10  29  1   
 21  10  30  1   
 22  11  31  1   
 23  11  32  1   
 24  11  33  1   
 25  12  14  ar  
 26  12  34  1   
 27  13  14  ar  
 28  13  35  1   
 29  14  15  1   
 30  15  16  am  
 31  15  17  am  
 32  16  18  2   
 33  16  19  1   
 34  17  20  2   
 35  17  21  1   
 36  19  21  1   
 37  19  36  1   
 38  19  37  1   
 39  21  38  1   
 40  21  39  1   
@<TRIPOS>SUBSTRUCTURE
  1 ****   8 GROUP 4 **** **** 0

# MOE 2024.06 (io_trps.svl 2023.06)
