@<TRIPOS>MOLECULE
NONAME
49 51 1 0 0 
SMALL
USER_CHARGES


@<TRIPOS>ATOM
  1 S        0.4930    -0.5710     0.9780 S.o2  1 <1>   1.4470 
  2 O        0.9270    -0.8020     2.3400 O.2   1 <1>  -0.6500 
  3 O       -0.3650     0.5570     0.6860 O.2   1 <1>  -0.6500 
  4 N        1.8990    -0.3690     0.0540 N.am  1 <1>  -0.8490 
  5 C       -0.2350    -2.0820     0.2860 C.ar  1 <1>  -0.0090 
  6 C        2.4730     0.9750     0.2460 C.3   1 <1>   0.1960 
  7 C        2.9120    -1.3990     0.3500 C.3   1 <1>   0.1960 
  8 C       -0.5090    -2.1820    -1.0730 C.ar  1 <1>  -0.1500 
  9 C       -0.5260    -3.1780     1.0910 C.ar  1 <1>  -0.1500 
 10 C        3.7140     1.2020    -0.6340 C.3   1 <1>   0.1400 
 11 C        4.1610    -1.2480    -0.5320 C.3   1 <1>   0.1400 
 12 C       -1.0490    -3.3360    -1.6150 C.ar  1 <1>  -0.1500 
 13 C       -1.0660    -4.3370     0.5580 C.ar  1 <1>  -0.1500 
 14 N        4.7320     0.1300    -0.4170 N.am  1 <1>  -0.6600 
 15 C       -1.3270    -4.4160    -0.7970 C.ar  1 <1>  -0.1500 
 16 C        6.0510     0.4240    -0.1610 C.2   1 <1>   0.5690 
 17 O        6.4310     1.5700    -0.0800 O.2   1 <1>  -0.5700 
 18 C        7.0920    -0.6690     0.0760 C.3   1 <1>   0.1810 
 19 O        7.1690    -1.5700    -1.0190 O.3   1 <1>  -0.3630 
 20 C        7.9860    -2.6390    -0.8640 C.ar  1 <1>   0.0830 
 21 C        7.6870    -3.6860     0.0160 C.ar  1 <1>   0.0830 
 22 C        9.1390    -2.6750    -1.6290 C.ar  1 <1>  -0.1500 
 23 O        6.5240    -3.6300     0.7310 O.3   1 <1>  -0.3630 
 24 C        8.5810    -4.7490     0.1220 C.ar  1 <1>  -0.1500 
 25 C       10.0170    -3.7380    -1.5170 C.ar  1 <1>  -0.1500 
 26 C        6.1440    -4.6740     1.6010 C.3   1 <1>   0.0400 
 27 C        9.7390    -4.7710    -0.6400 C.ar  1 <1>  -0.1500 
 28 H        2.7420     1.1150     1.2800 H     1 <1>   0.0800 
 29 H        1.7390     1.7210    -0.0070 H     1 <1>   0.0800 
 30 H        2.4940    -2.3770     0.1830 H     1 <1>   0.0800 
 31 H        3.2100    -1.3390     1.3840 H     1 <1>   0.0800 
 32 H       -0.2960    -1.3430    -1.7140 H     1 <1>   0.1500 
 33 H       -0.3280    -3.1260     2.1490 H     1 <1>   0.1500 
 34 H        4.1300     2.1690    -0.4100 H     1 <1>   0.0800 
 35 H        3.4190     1.2020    -1.6680 H     1 <1>   0.0800 
 36 H        3.8970    -1.4340    -1.5580 H     1 <1>   0.0800 
 37 H        4.8770    -1.9910    -0.2380 H     1 <1>   0.0800 
 38 H       -1.2540    -3.3930    -2.6700 H     1 <1>   0.1500 
 39 H       -1.2840    -5.1740     1.1980 H     1 <1>   0.1500 
 40 H       -1.7470    -5.3150    -1.2150 H     1 <1>   0.1500 
 41 H        6.8380    -1.2110     0.9660 H     1 <1>   0.0800 
 42 H        8.0610    -0.2220     0.2010 H     1 <1>   0.0800 
 43 H        9.3440    -1.8680    -2.3110 H     1 <1>   0.1500 
 44 H        8.3990    -5.5710     0.7860 H     1 <1>   0.1500 
 45 H       10.9150    -3.7600    -2.1110 H     1 <1>   0.1500 
 46 H        5.1960    -4.4180     2.0380 H     1 <1>   0.0800 
 47 H        6.8870    -4.7740     2.3730 H     1 <1>   0.0800 
 48 H        6.0510    -5.5840     1.0340 H     1 <1>   0.0800 
 49 H       10.4240    -5.5970    -0.5520 H     1 <1>   0.1500 
@<TRIPOS>BOND
  1   1   2  2   
  2   1   3  2   
  3   1   4  am  
  4   1   5  1   
  5   4   6  1   
  6   4   7  1   
  7   5   8  ar  
  8   5   9  ar  
  9   6  10  1   
 10   6  28  1   
 11   6  29  1   
 12   7  11  1   
 13   7  30  1   
 14   7  31  1   
 15   8  12  ar  
 16   8  32  1   
 17   9  13  ar  
 18   9  33  1   
 19  10  14  1   
 20  10  34  1   
 21  10  35  1   
 22  11  14  1   
 23  11  36  1   
 24  11  37  1   
 25  12  15  ar  
 26  12  38  1   
 27  13  15  ar  
 28  13  39  1   
 29  14  16  am  
 30  15  40  1   
 31  16  17  2   
 32  16  18  1   
 33  18  19  1   
 34  18  41  1   
 35  18  42  1   
 36  19  20  1   
 37  20  21  ar  
 38  20  22  ar  
 39  21  23  1   
 40  21  24  ar  
 41  22  25  ar  
 42  22  43  1   
 43  23  26  1   
 44  24  27  ar  
 45  24  44  1   
 46  25  27  ar  
 47  25  45  1   
 48  26  46  1   
 49  26  47  1   
 50  26  48  1   
 51  27  49  1   
@<TRIPOS>SUBSTRUCTURE
  1 ****  11 GROUP 4 **** **** 0

# MOE 2024.06 (io_trps.svl 2023.06)
