@<TRIPOS>MOLECULE
NONAME
31 30 1 0 0 
SMALL
USER_CHARGES


@<TRIPOS>ATOM
  1 O        3.0810    -1.6940    -1.6740 O.co2 1 <1>  -0.9000 
  2 C        2.7710    -1.4400    -0.5010 C.2   1 <1>   0.9060 
  3 O        3.2870    -0.4540     0.0430 O.co2 1 <1>  -0.9000 
  4 C        2.0290    -2.4530     0.3590 C.3   1 <1>  -0.1860 
  5 C        2.9170    -3.6690     0.7450 C.3   1 <1>  -0.1600 
  6 C        0.7010    -2.8850    -0.3020 C.3   1 <1>  -0.1600 
  7 C        4.3980    -3.3230     1.0240 C.3   1 <1>  -0.1600 
  8 C       -0.1780    -3.7560     0.6080 C.3   1 <1>  -0.1600 
  9 C        5.2980    -3.4870    -0.2250 C.3   1 <1>  -0.1600 
 10 C       -1.5200    -4.0660    -0.0610 C.3   1 <1>  -0.2400 
 11 C        6.2890    -2.3420    -0.4690 C.3   1 <1>   0.3430 
 12 N        5.5860    -1.1660    -1.0030 N.4   1 <1>  -0.8530 
 13 H        1.7860    -1.9290     1.2660 H     1 <1>   0.0800 
 14 H        2.8610    -4.4180    -0.0270 H     1 <1>   0.0800 
 15 H        2.5010    -4.1080     1.6360 H     1 <1>   0.0800 
 16 H        0.9170    -3.4140    -1.2150 H     1 <1>   0.0800 
 17 H        0.1540    -1.9960    -0.5700 H     1 <1>   0.0800 
 18 H        4.7600    -3.9950     1.7830 H     1 <1>   0.0800 
 19 H        4.4690    -2.3320     1.4410 H     1 <1>   0.0800 
 20 H       -0.3550    -3.2410     1.5370 H     1 <1>   0.0800 
 21 H        0.3230    -4.6830     0.8270 H     1 <1>   0.0800 
 22 H        4.7060    -3.6260    -1.1130 H     1 <1>   0.0800 
 23 H        5.8650    -4.3930    -0.1000 H     1 <1>   0.0800 
 24 H       -2.0550    -3.1550    -0.2660 H     1 <1>   0.0800 
 25 H       -2.1210    -4.6790     0.5860 H     1 <1>   0.0800 
 26 H       -1.3640    -4.5920    -0.9860 H     1 <1>   0.0800 
 27 H        7.0210    -2.6680    -1.1900 H     1 <1>   0.0800 
 28 H        6.7980    -2.0880     0.4460 H     1 <1>   0.0800 
 29 H        4.8120    -1.4580    -1.6480 H     1 <1>   0.4500 
 30 H        6.1260    -0.4270    -1.4410 H     1 <1>   0.4500 
 31 H        4.9470    -0.7320    -0.2960 H     1 <1>   0.4500 
@<TRIPOS>BOND
  1   1   2  ar  
  2   2   3  ar  
  3   2   4  1   
  4   4   5  1   
  5   4   6  1   
  6   4  13  1   
  7   5   7  1   
  8   5  14  1   
  9   5  15  1   
 10   6   8  1   
 11   6  16  1   
 12   6  17  1   
 13   7   9  1   
 14   7  18  1   
 15   7  19  1   
 16   8  10  1   
 17   8  20  1   
 18   8  21  1   
 19   9  11  1   
 20   9  22  1   
 21   9  23  1   
 22  10  24  1   
 23  10  25  1   
 24  10  26  1   
 25  11  12  1   
 26  11  27  1   
 27  11  28  1   
 28  12  29  1   
 29  12  30  1   
 30  12  31  1   
@<TRIPOS>SUBSTRUCTURE
  1 ****   4 GROUP 4 **** **** 0

# MOE 2024.06 (io_trps.svl 2023.06)
