@<TRIPOS>MOLECULE
NONAME
40 42 1 0 0 
SMALL
USER_CHARGES


@<TRIPOS>ATOM
  1 O        1.7270    -1.6170    -0.6590 O.2   1 <1>  -0.5700 
  2 C        0.5250    -1.6380    -0.5240 C.2   1 <1>   0.5690 
  3 N       -0.2130    -2.7970    -0.5080 N.am  1 <1>  -0.2980 
  4 C       -0.1940    -0.3180    -0.3650 C.3   1 <1>  -0.1790 
  5 N       -1.5800    -2.9170    -0.3560 N.2   1 <1>  -0.5120 
  6 C        0.3510    -4.1550    -0.6480 C.3   1 <1>   0.5800 
  7 C       -1.8510    -4.1500    -0.3940 C.2   1 <1>   0.5390 
  8 O       -0.7990    -4.9660    -0.5660 O.3   1 <1>  -0.4300 
  9 C        1.3250    -4.5970     0.4400 C.3   1 <1>  -0.1600 
 10 C        1.0610    -4.4630    -1.9620 C.3   1 <1>  -0.1600 
 11 C       -3.2160    -4.8260    -0.2700 C.3   1 <1>  -0.0190 
 12 C        2.0500    -5.8140    -0.1510 C.3   1 <1>  -0.1600 
 13 C        1.8960    -5.7200    -1.6790 C.3   1 <1>  -0.1600 
 14 C       -4.3820    -3.8160    -0.3220 C.3   1 <1>  -0.1600 
 15 C       -3.2950    -5.6700     1.0170 C.3   1 <1>  -0.1600 
 16 C       -5.7420    -4.5140    -0.1850 C.3   1 <1>  -0.1600 
 17 C       -4.6560    -6.3650     1.1580 C.3   1 <1>  -0.1600 
 18 C       -5.8060    -5.3520     1.0980 C.3   1 <1>  -0.1600 
 19 H       -0.7100    -0.3020     0.5770 H     1 <1>   0.0800 
 20 H       -0.9050    -0.1980    -1.1600 H     1 <1>   0.0800 
 21 H        0.5100     0.4930    -0.3950 H     1 <1>   0.0800 
 22 H        0.8200    -4.8260     1.3610 H     1 <1>   0.0800 
 23 H        2.0470    -3.8210     0.6120 H     1 <1>   0.0800 
 24 H        1.7310    -3.6580    -2.2050 H     1 <1>   0.0800 
 25 H        0.3660    -4.6040    -2.7690 H     1 <1>   0.0800 
 26 H       -3.3130    -5.4870    -1.1130 H     1 <1>   0.0800 
 27 H        1.5840    -6.7200     0.2000 H     1 <1>   0.0800 
 28 H        3.0870    -5.8220     0.1400 H     1 <1>   0.0800 
 29 H        2.8550    -5.6590    -2.1660 H     1 <1>   0.0800 
 30 H        1.3780    -6.5910    -2.0410 H     1 <1>   0.0800 
 31 H       -4.3490    -3.2760    -1.2520 H     1 <1>   0.0800 
 32 H       -4.2710    -3.1010     0.4760 H     1 <1>   0.0800 
 33 H       -3.1320    -5.0320     1.8690 H     1 <1>   0.0800 
 34 H       -2.5170    -6.4140     1.0110 H     1 <1>   0.0800 
 35 H       -5.9040    -5.1530    -1.0370 H     1 <1>   0.0800 
 36 H       -6.5250    -3.7760    -0.1730 H     1 <1>   0.0800 
 37 H       -4.6940    -6.8970     2.0930 H     1 <1>   0.0800 
 38 H       -4.7730    -7.0840     0.3650 H     1 <1>   0.0800 
 39 H       -6.7480    -5.8720     1.1420 H     1 <1>   0.0800 
 40 H       -5.7510    -4.6990     1.9520 H     1 <1>   0.0800 
@<TRIPOS>BOND
  1   1   2  2   
  2   2   3  am  
  3   2   4  1   
  4   3   5  1   
  5   3   6  1   
  6   4  19  1   
  7   4  20  1   
  8   4  21  1   
  9   5   7  2   
 10   6   8  1   
 11   6   9  1   
 12   6  10  1   
 13   7   8  1   
 14   7  11  1   
 15   9  12  1   
 16   9  22  1   
 17   9  23  1   
 18  10  13  1   
 19  10  24  1   
 20  10  25  1   
 21  11  14  1   
 22  11  15  1   
 23  11  26  1   
 24  12  13  1   
 25  12  27  1   
 26  12  28  1   
 27  13  29  1   
 28  13  30  1   
 29  14  16  1   
 30  14  31  1   
 31  14  32  1   
 32  15  17  1   
 33  15  33  1   
 34  15  34  1   
 35  16  18  1   
 36  16  35  1   
 37  16  36  1   
 38  17  18  1   
 39  17  37  1   
 40  17  38  1   
 41  18  39  1   
 42  18  40  1   
@<TRIPOS>SUBSTRUCTURE
  1 ****   7 GROUP 4 **** **** 0

# MOE 2024.06 (io_trps.svl 2023.06)
