@<TRIPOS>MOLECULE
NONAME
48 49 1 0 0 
SMALL
USER_CHARGES


@<TRIPOS>ATOM
  1 O        4.8260     5.9000    -1.0340 O.3   1 <1>  -0.5600 
  2 C        3.9350     4.8160    -1.0460 C.3   1 <1>   0.2000 
  3 C        5.0260     6.5690     0.1850 C.3   1 <1>   0.2000 
  4 C        2.5180     5.2690    -0.6020 C.3   1 <1>   0.3430 
  5 C        4.5060     3.6710    -0.1990 C.3   1 <1>  -0.2400 
  6 C        3.7000     6.7350     0.9740 C.3   1 <1>   0.3430 
  7 C        5.6430     7.9200    -0.1740 C.3   1 <1>  -0.2400 
  8 N        2.5160     6.6250     0.0600 N.4   1 <1>  -0.9590 
  9 C        1.2340     6.9770     0.7280 C.3   1 <1>   0.3430 
 10 C        0.1240     7.1310    -0.3080 C.3   1 <1>  -0.1600 
 11 C       -1.1680     7.6060     0.3540 C.3   1 <1>   0.1200 
 12 O       -2.1420     7.6980    -0.6510 O.3   1 <1>  -0.3630 
 13 C       -3.3600     8.1210    -0.2460 C.ar  1 <1>   0.0820 
 14 C       -4.3090     7.1880     0.1700 C.ar  1 <1>  -0.1430 
 15 C       -3.6550     9.4820    -0.2540 C.ar  1 <1>  -0.1430 
 16 C       -5.5410     7.6360     0.6160 C.ar  1 <1>  -0.1500 
 17 C       -4.0300     5.6930     0.1370 C.3   1 <1>  -0.0970 
 18 C       -4.8940     9.9060     0.1960 C.ar  1 <1>  -0.1500 
 19 C       -2.6540    10.5150    -0.7540 C.3   1 <1>  -0.0970 
 20 C       -5.8320     8.9880     0.6330 C.ar  1 <1>  -0.1500 
 21 H        3.8810     4.4760    -2.0660 H     1 <1>   0.0800 
 22 H        5.7340     6.0050     0.7700 H     1 <1>   0.0800 
 23 H        2.1160     4.5290     0.0690 H     1 <1>   0.0800 
 24 H        1.8800     5.2920    -1.4700 H     1 <1>   0.0800 
 25 H        4.5210     3.9090     0.8490 H     1 <1>   0.0800 
 26 H        5.5060     3.4420    -0.5250 H     1 <1>   0.0800 
 27 H        3.9070     2.7880    -0.3310 H     1 <1>   0.0800 
 28 H        3.7050     7.6890     1.4750 H     1 <1>   0.0800 
 29 H        3.6470     5.9700     1.7300 H     1 <1>   0.0800 
 30 H        4.9750     8.4960    -0.7880 H     1 <1>   0.0800 
 31 H        6.5640     7.7660    -0.7100 H     1 <1>   0.0800 
 32 H        5.8660     8.4800     0.7160 H     1 <1>   0.0800 
 33 H        2.7030     7.2980    -0.6990 H     1 <1>   0.4500 
 34 H        1.3500     7.9090     1.2570 H     1 <1>   0.0800 
 35 H        0.9670     6.2140     1.4430 H     1 <1>   0.0800 
 36 H       -0.0740     6.1900    -0.7870 H     1 <1>   0.0800 
 37 H        0.4130     7.8590    -1.0460 H     1 <1>   0.0800 
 38 H       -1.0510     8.5790     0.8010 H     1 <1>   0.0800 
 39 H       -1.5160     6.9060     1.0950 H     1 <1>   0.0800 
 40 H       -6.2850     6.9340     0.9490 H     1 <1>   0.1500 
 41 H       -3.4760     5.4370    -0.7490 H     1 <1>   0.0800 
 42 H       -4.9490     5.1360     0.1270 H     1 <1>   0.0800 
 43 H       -3.4630     5.4050     1.0030 H     1 <1>   0.0800 
 44 H       -5.1390    10.9530     0.2060 H     1 <1>   0.1500 
 45 H       -1.9400    10.7390     0.0170 H     1 <1>   0.0800 
 46 H       -3.1550    11.4240    -1.0340 H     1 <1>   0.0800 
 47 H       -2.1350    10.1410    -1.6180 H     1 <1>   0.0800 
 48 H       -6.7920     9.3260     0.9820 H     1 <1>   0.1500 
@<TRIPOS>BOND
  1   1   2  1   
  2   1   3  1   
  3   2   4  1   
  4   2   5  1   
  5   2  21  1   
  6   3   6  1   
  7   3   7  1   
  8   3  22  1   
  9   4   8  1   
 10   4  23  1   
 11   4  24  1   
 12   5  25  1   
 13   5  26  1   
 14   5  27  1   
 15   6   8  1   
 16   6  28  1   
 17   6  29  1   
 18   7  30  1   
 19   7  31  1   
 20   7  32  1   
 21   8   9  1   
 22   8  33  1   
 23   9  10  1   
 24   9  34  1   
 25   9  35  1   
 26  10  11  1   
 27  10  36  1   
 28  10  37  1   
 29  11  12  1   
 30  11  38  1   
 31  11  39  1   
 32  12  13  1   
 33  13  14  ar  
 34  13  15  ar  
 35  14  16  ar  
 36  14  17  1   
 37  15  18  ar  
 38  15  19  1   
 39  16  20  ar  
 40  16  40  1   
 41  17  41  1   
 42  17  42  1   
 43  17  43  1   
 44  18  20  ar  
 45  18  44  1   
 46  19  45  1   
 47  19  46  1   
 48  19  47  1   
 49  20  48  1   
@<TRIPOS>SUBSTRUCTURE
  1 ****  10 GROUP 4 **** **** 0

# MOE 2024.06 (io_trps.svl 2023.06)
