@<TRIPOS>MOLECULE
NONAME
32 34 1 0 0 
SMALL
USER_CHARGES


@<TRIPOS>ATOM
  1 S        0.2150     0.7220    -0.4970 S.3   1 <1>  -0.0800 
  2 C        1.9270     0.5590    -0.6010 C.2   1 <1>   0.4340 
  3 C        0.5170     1.8510     0.7820 C.2   1 <1>   0.1980 
  4 S        2.5530    -0.5610    -1.8430 S.3   1 <1>  -0.2860 
  5 N        2.5780     1.2660     0.2330 N.2   1 <1>  -0.3380 
  6 N        1.7560     2.0180     1.0300 N.2   1 <1>  -0.3380 
  7 C       -0.6750     2.5000     1.4470 C.3   1 <1>  -0.0600 
  8 C        4.3900    -0.2930    -1.7890 C.3   1 <1>   0.1310 
  9 C        4.7280     1.1720    -2.0400 C.2   1 <1>   0.5690 
 10 O        4.2680     1.7100    -3.0200 O.2   1 <1>  -0.5700 
 11 N        5.5040     1.8660    -1.1440 N.am  1 <1>  -0.4770 
 12 C        6.3340     1.4000    -0.1220 C.ar  1 <1>   0.1170 
 13 C        5.1550     3.2810    -0.8490 C.3   1 <1>   0.1400 
 14 C        6.3840     2.2870     0.9300 C.ar  1 <1>  -0.1430 
 15 C        7.0880     0.2340    -0.0750 C.ar  1 <1>  -0.1500 
 16 C        5.5250     3.4900     0.6280 C.3   1 <1>  -0.0170 
 17 C        7.1410     2.0290     2.0560 C.ar  1 <1>  -0.1500 
 18 C        7.8520    -0.0370     1.0490 C.ar  1 <1>  -0.1500 
 19 C        7.8760     0.8540     2.1120 C.ar  1 <1>  -0.1500 
 20 H       -1.3020     1.7470     1.8880 H     1 <1>   0.0800 
 21 H       -1.2420     3.0540     0.7220 H     1 <1>   0.0800 
 22 H       -0.3420     3.1710     2.2180 H     1 <1>   0.0800 
 23 H        4.8250    -0.9140    -2.5490 H     1 <1>   0.0800 
 24 H        4.7060    -0.6130    -0.8150 H     1 <1>   0.0800 
 25 H        4.1050     3.4590    -1.0150 H     1 <1>   0.0800 
 26 H        5.7380     3.9240    -1.4850 H     1 <1>   0.0800 
 27 H        7.0880    -0.4470    -0.9040 H     1 <1>   0.1500 
 28 H        4.6380     3.4750     1.2380 H     1 <1>   0.0800 
 29 H        6.0550     4.4130     0.7720 H     1 <1>   0.0800 
 30 H        7.1620     2.7270     2.8740 H     1 <1>   0.1500 
 31 H        8.4350    -0.9410     1.0980 H     1 <1>   0.1500 
 32 H        8.4700     0.6360     2.9830 H     1 <1>   0.1500 
@<TRIPOS>BOND
  1   1   2  1   
  2   1   3  1   
  3   2   4  1   
  4   2   5  2   
  5   3   6  2   
  6   3   7  1   
  7   4   8  1   
  8   5   6  1   
  9   7  20  1   
 10   7  21  1   
 11   7  22  1   
 12   8   9  1   
 13   8  23  1   
 14   8  24  1   
 15   9  10  2   
 16   9  11  am  
 17  11  12  1   
 18  11  13  1   
 19  12  14  ar  
 20  12  15  ar  
 21  13  16  1   
 22  13  25  1   
 23  13  26  1   
 24  14  16  1   
 25  14  17  ar  
 26  15  18  ar  
 27  15  27  1   
 28  16  28  1   
 29  16  29  1   
 30  17  19  ar  
 31  17  30  1   
 32  18  19  ar  
 33  18  31  1   
 34  19  32  1   
@<TRIPOS>SUBSTRUCTURE
  1 ****  11 GROUP 4 **** **** 0

# MOE 2024.06 (io_trps.svl 2023.06)
