@<TRIPOS>MOLECULE
NONAME
51 53 1 0 0 
SMALL
USER_CHARGES


@<TRIPOS>ATOM
  1 O       -1.7380     0.8130    -0.1720 O.3   1 <1>  -0.3630 
  2 C       -0.7690     1.7550    -0.2610 C.ar  1 <1>   0.0830 
  3 C       -1.9640     0.1100     1.0280 C.3   1 <1>   0.2580 
  4 C       -0.9820     2.8150    -1.1380 C.ar  1 <1>  -0.1440 
  5 C        0.3990     1.6960     0.4900 C.ar  1 <1>  -0.1500 
  6 C       -3.4380    -0.2390     1.0350 C.2   1 <1>  -0.2880 
  7 C       -0.0270     3.8130    -1.2510 C.ar  1 <1>  -0.1500 
  8 C       -2.2610     2.8710    -1.9540 C.3   1 <1>   0.4870 
  9 C        1.3440     2.6990     0.3730 C.ar  1 <1>  -0.1500 
 10 C       -4.3450     0.2310     1.8970 C.2   1 <1>  -0.3000 
 11 C        1.1310     3.7550    -0.4950 C.ar  1 <1>  -0.1500 
 12 N       -3.4100     2.9000    -1.0170 N.4   1 <1>  -0.9590 
 13 C       -4.7080     2.5890    -1.6590 C.3   1 <1>   0.4860 
 14 C       -3.4840     4.1460    -0.2060 C.3   1 <1>   0.3430 
 15 C       -5.7950     2.5090    -0.6000 C.ar  1 <1>  -0.1430 
 16 C       -4.4130     3.9320     0.9910 C.3   1 <1>  -0.0170 
 17 C       -5.6690     3.1490     0.6300 C.ar  1 <1>  -0.1430 
 18 C       -6.9400     1.7730    -0.8720 C.ar  1 <1>  -0.1500 
 19 C       -6.6930     3.0600     1.5610 C.ar  1 <1>  -0.1500 
 20 C       -7.9540     1.6660     0.0620 C.ar  1 <1>   0.0830 
 21 C       -7.8400     2.3390     1.2830 C.ar  1 <1>   0.0830 
 22 O       -9.0180     0.8960    -0.2700 O.3   1 <1>  -0.3630 
 23 O       -8.8090     2.3250     2.2290 O.3   1 <1>  -0.3620 
 24 C       -9.2720    -0.2330     0.5400 C.3   1 <1>   0.0400 
 25 C      -10.0210     2.9690     1.8960 C.3   1 <1>   0.0400 
 26 H       -1.7210     0.7450     1.8640 H     1 <1>   0.0800 
 27 H       -1.3450    -0.7710     1.0380 H     1 <1>   0.0800 
 28 H        0.5910     0.8760     1.1590 H     1 <1>   0.1500 
 29 H       -3.6940    -0.9290     0.2480 H     1 <1>   0.1500 
 30 H       -0.1650     4.6420    -1.9260 H     1 <1>   0.1500 
 31 H       -2.3130     1.9900    -2.5730 H     1 <1>   0.0800 
 32 H       -2.2660     3.7430    -2.5880 H     1 <1>   0.0800 
 33 H        2.2510     2.6570     0.9530 H     1 <1>   0.1500 
 34 H       -5.3910    -0.0330     1.8720 H     1 <1>   0.1500 
 35 H       -4.1350     0.9140     2.7020 H     1 <1>   0.1500 
 36 H        1.8740     4.5310    -0.5840 H     1 <1>   0.1500 
 37 H       -3.2260     2.1190    -0.3620 H     1 <1>   0.4500 
 38 H       -4.6450     1.6440    -2.1740 H     1 <1>   0.0800 
 39 H       -4.9630     3.3550    -2.3740 H     1 <1>   0.0800 
 40 H       -3.8640     4.9500    -0.8150 H     1 <1>   0.0800 
 41 H       -2.5050     4.4220     0.1520 H     1 <1>   0.0800 
 42 H       -4.6840     4.8900     1.3980 H     1 <1>   0.0800 
 43 H       -3.8780     3.3970     1.7540 H     1 <1>   0.0800 
 44 H       -7.0650     1.2630    -1.8110 H     1 <1>   0.1500 
 45 H       -6.6160     3.5500     2.5150 H     1 <1>   0.1500 
 46 H      -10.0340    -0.8230     0.0640 H     1 <1>   0.0800 
 47 H       -9.6120     0.0880     1.5070 H     1 <1>   0.0800 
 48 H       -8.3660    -0.8060     0.6330 H     1 <1>   0.0800 
 49 H      -10.6620     2.9450     2.7590 H     1 <1>   0.0800 
 50 H      -10.4890     2.4510     1.0790 H     1 <1>   0.0800 
 51 H       -9.8100     3.9870     1.6210 H     1 <1>   0.0800 
@<TRIPOS>BOND
  1   1   2  1   
  2   1   3  1   
  3   2   4  ar  
  4   2   5  ar  
  5   3   6  1   
  6   3  26  1   
  7   3  27  1   
  8   4   7  ar  
  9   4   8  1   
 10   5   9  ar  
 11   5  28  1   
 12   6  10  2   
 13   6  29  1   
 14   7  11  ar  
 15   7  30  1   
 16   8  12  1   
 17   8  31  1   
 18   8  32  1   
 19   9  11  ar  
 20   9  33  1   
 21  10  34  1   
 22  10  35  1   
 23  11  36  1   
 24  12  13  1   
 25  12  14  1   
 26  12  37  1   
 27  13  15  1   
 28  13  38  1   
 29  13  39  1   
 30  14  16  1   
 31  14  40  1   
 32  14  41  1   
 33  15  17  ar  
 34  15  18  ar  
 35  16  17  1   
 36  16  42  1   
 37  16  43  1   
 38  17  19  ar  
 39  18  20  ar  
 40  18  44  1   
 41  19  21  ar  
 42  19  45  1   
 43  20  21  ar  
 44  20  22  1   
 45  21  23  1   
 46  22  24  1   
 47  23  25  1   
 48  24  46  1   
 49  24  47  1   
 50  24  48  1   
 51  25  49  1   
 52  25  50  1   
 53  25  51  1   
@<TRIPOS>SUBSTRUCTURE
  1 ****  12 GROUP 4 **** **** 0

# MOE 2024.06 (io_trps.svl 2023.06)
