@<TRIPOS>MOLECULE
NONAME
36 38 1 0 0 
SMALL
USER_CHARGES


@<TRIPOS>ATOM
  1 CL      -1.1350     1.9440     2.3220 Cl    1 <1>  -0.1770 
  2 C        0.0510     2.3330     1.0970 C.ar  1 <1>   0.1770 
  3 C       -0.3580     2.6840    -0.1910 C.ar  1 <1>   0.0530 
  4 C        1.3850     2.2740     1.4540 C.ar  1 <1>  -0.1500 
  5 C       -1.7430     2.7650    -0.5830 C.2   1 <1>   0.1330 
  6 C        0.6440     2.9580    -1.1210 C.ar  1 <1>  -0.1500 
  7 C        2.3580     2.5630     0.5130 C.ar  1 <1>  -0.1500 
  8 N       -2.2890     2.0440    -1.5250 N.2   1 <1>  -0.3380 
  9 N       -2.6500     3.6100    -0.0520 N.pl3 1 <1>   0.0480 
 10 C        1.9830     2.9020    -0.7760 C.ar  1 <1>  -0.1500 
 11 N       -3.5710     2.3930    -1.6190 N.2   1 <1>  -0.3380 
 12 C       -3.7470     3.3120    -0.7390 C.2   1 <1>   0.2430 
 13 C       -2.4830     4.6470     0.9880 C.3   1 <1>   0.0160 
 14 S       -5.3220     4.1240    -0.4590 S.3   1 <1>  -0.2860 
 15 C       -6.4240     3.3220    -1.7260 C.3   1 <1>   0.1310 
 16 C       -7.8640     3.7930    -1.5940 C.2   1 <1>   0.5690 
 17 O       -8.5890     3.6900    -2.5550 O.2   1 <1>  -0.5700 
 18 N       -8.2960     4.2990    -0.4070 N.am  1 <1>  -0.5790 
 19 C       -9.6510     4.7860    -0.1170 C.3   1 <1>   0.0490 
 20 C       -9.7920     5.9660     0.7860 C.3   1 <1>  -0.2000 
 21 C      -10.1810     4.6000     1.2650 C.3   1 <1>  -0.2000 
 22 H        1.6580     2.0010     2.4570 H     1 <1>   0.1500 
 23 H        0.3620     3.2130    -2.1280 H     1 <1>   0.1500 
 24 H        3.4010     2.5200     0.7800 H     1 <1>   0.1500 
 25 H        2.7370     3.1200    -1.5140 H     1 <1>   0.1500 
 26 H       -1.4400     4.8680     1.1220 H     1 <1>   0.0800 
 27 H       -2.8960     4.2900     1.9140 H     1 <1>   0.0800 
 28 H       -2.9970     5.5420     0.6890 H     1 <1>   0.0800 
 29 H       -6.3640     2.2600    -1.5780 H     1 <1>   0.0800 
 30 H       -6.0330     3.5750    -2.6940 H     1 <1>   0.0800 
 31 H       -7.6230     4.3970     0.3550 H     1 <1>   0.3700 
 32 H      -10.3280     4.6880    -0.9520 H     1 <1>   0.1000 
 33 H      -10.5740     6.6770     0.5840 H     1 <1>   0.1000 
 34 H       -8.9040     6.4280     1.1800 H     1 <1>   0.1000 
 35 H       -9.5670     4.1040     1.9960 H     1 <1>   0.1000 
 36 H      -11.2280     4.3840     1.3890 H     1 <1>   0.1000 
@<TRIPOS>BOND
  1   1   2  1   
  2   2   3  ar  
  3   2   4  ar  
  4   3   5  1   
  5   3   6  ar  
  6   4   7  ar  
  7   4  22  1   
  8   5   8  2   
  9   5   9  1   
 10   6  10  ar  
 11   6  23  1   
 12   7  10  ar  
 13   7  24  1   
 14   8  11  1   
 15   9  12  1   
 16   9  13  1   
 17  10  25  1   
 18  11  12  2   
 19  12  14  1   
 20  13  26  1   
 21  13  27  1   
 22  13  28  1   
 23  14  15  1   
 24  15  16  1   
 25  15  29  1   
 26  15  30  1   
 27  16  17  2   
 28  16  18  am  
 29  18  19  1   
 30  18  31  1   
 31  19  20  1   
 32  19  21  1   
 33  19  32  1   
 34  20  21  1   
 35  20  33  1   
 36  20  34  1   
 37  21  35  1   
 38  21  36  1   
@<TRIPOS>SUBSTRUCTURE
  1 ****  12 GROUP 4 **** **** 0

# MOE 2024.06 (io_trps.svl 2023.06)
