@<TRIPOS>MOLECULE
NONAME
26 26 1 0 0 
SMALL
USER_CHARGES


@<TRIPOS>ATOM
  1 I       -0.5660     0.9310     0.6970 I     1 <1>  -0.0810 
  2 C        1.4890     1.3990     0.3820 C.ar  1 <1>   0.0810 
  3 C        1.8460     2.6830     0.0160 C.ar  1 <1>   0.1600 
  4 C        2.4330     0.4110     0.5480 C.ar  1 <1>  -0.1500 
  5 N        3.0990     3.0590    -0.1990 N.ar  1 <1>  -0.6200 
  6 C        3.7350     0.8010     0.3250 C.ar  1 <1>  -0.1500 
  7 C        4.0270     2.1210    -0.0380 C.ar  1 <1>   0.4270 
  8 N        5.2960     2.5960    -0.2820 N.am  1 <1>  -0.5470 
  9 C        6.5350     2.0780    -0.0840 C.2   1 <1>   0.6900 
 10 O        6.7090     0.9960     0.4380 O.2   1 <1>  -0.5700 
 11 N        7.5930     2.8220    -0.4920 N.am  1 <1>  -0.7300 
 12 C        9.0110     2.4360    -0.3370 C.3   1 <1>   0.1400 
 13 C        9.8050     3.6440     0.1580 C.3   1 <1>  -0.1600 
 14 C       11.2880     3.3000     0.3360 C.3   1 <1>  -0.2400 
 15 H        1.0770     3.4260    -0.1040 H     1 <1>   0.1500 
 16 H        2.1710    -0.5940     0.8300 H     1 <1>   0.1500 
 17 H        4.5230     0.0800     0.4310 H     1 <1>   0.1500 
 18 H        5.2700     3.5600    -0.5850 H     1 <1>   0.3700 
 19 H        7.4280     3.6820    -1.0100 H     1 <1>   0.3700 
 20 H        9.3930     2.1000    -1.2860 H     1 <1>   0.0800 
 21 H        9.0970     1.6260     0.3700 H     1 <1>   0.0800 
 22 H        9.4040     3.9680     1.1030 H     1 <1>   0.0800 
 23 H        9.7160     4.4500    -0.5500 H     1 <1>   0.0800 
 24 H       11.4050     2.5080     1.0550 H     1 <1>   0.0800 
 25 H       11.8270     4.1620     0.6890 H     1 <1>   0.0800 
 26 H       11.7180     2.9860    -0.5990 H     1 <1>   0.0800 
@<TRIPOS>BOND
  1   1   2  1   
  2   2   3  ar  
  3   2   4  ar  
  4   3   5  ar  
  5   3  15  1   
  6   4   6  ar  
  7   4  16  1   
  8   5   7  ar  
  9   6   7  ar  
 10   6  17  1   
 11   7   8  1   
 12   8   9  am  
 13   8  18  1   
 14   9  10  2   
 15   9  11  am  
 16  11  12  1   
 17  11  19  1   
 18  12  13  1   
 19  12  20  1   
 20  12  21  1   
 21  13  14  1   
 22  13  22  1   
 23  13  23  1   
 24  14  24  1   
 25  14  25  1   
 26  14  26  1   
@<TRIPOS>SUBSTRUCTURE
  1 ****   8 GROUP 4 **** **** 0

# MOE 2024.06 (io_trps.svl 2023.06)
