@<TRIPOS>MOLECULE
NONAME
46 48 1 0 0 
SMALL
USER_CHARGES


@<TRIPOS>ATOM
  1 S        0.1270    -0.5930    -1.1890 S.o2  1 <1>   1.5010 
  2 O        0.7640    -1.5620    -2.0530 O.2   1 <1>  -0.6500 
  3 O        0.6230     0.7650    -1.1560 O.2   1 <1>  -0.6500 
  4 N        0.2180    -1.1970     0.3920 N.am  1 <1>  -0.8490 
  5 C       -1.6520    -0.5620    -1.5240 C.2   1 <1>  -0.0630 
  6 C        1.5290    -0.9210     1.0000 C.3   1 <1>   0.1960 
  7 C       -0.0590    -2.6420     0.4680 C.3   1 <1>   0.1960 
  8 C       -2.2310    -0.7920    -2.7200 C.2   1 <1>  -0.1100 
  9 C       -2.6180    -0.2500    -0.5130 C.2   1 <1>  -0.1500 
 10 C        1.6060    -1.4790     2.4330 C.3   1 <1>   0.1200 
 11 C        0.0460    -3.1470     1.9180 C.3   1 <1>   0.1200 
 12 S       -3.9710    -0.6460    -2.6300 S.3   1 <1>  -0.0800 
 13 C       -3.9160    -0.2490    -0.9110 C.2   1 <1>  -0.0450 
 14 O        1.3050    -2.8460     2.4490 O.3   1 <1>  -0.5600 
 15 C       -5.1380     0.0060    -0.1920 C.2   1 <1>   0.7150 
 16 O       -5.1010     0.1960     1.0080 O.2   1 <1>  -0.5700 
 17 N       -6.3340     0.0150    -0.8680 N.am  1 <1>  -0.5470 
 18 C       -7.6480     0.2610    -0.4410 C.ar  1 <1>   0.1170 
 19 C       -8.6980    -0.2650    -1.1860 C.ar  1 <1>  -0.1500 
 20 C       -7.9540     1.0230     0.6820 C.ar  1 <1>  -0.1500 
 21 C      -10.0160    -0.0450    -0.8230 C.ar  1 <1>  -0.1500 
 22 C       -9.2680     1.2460     1.0500 C.ar  1 <1>  -0.1500 
 23 C      -10.3080     0.7160     0.3050 C.ar  1 <1>   0.0830 
 24 O      -11.5690     0.9840     0.7360 O.3   1 <1>  -0.3630 
 25 C      -12.6920     0.4690     0.0610 C.3   1 <1>   0.1200 
 26 C      -13.9420     0.9380     0.8000 C.3   1 <1>  -0.2400 
 27 H        1.6960     0.1420     1.0350 H     1 <1>   0.0800 
 28 H        2.3120    -1.3620     0.4060 H     1 <1>   0.0800 
 29 H        0.6420    -3.1910    -0.1390 H     1 <1>   0.0800 
 30 H       -1.0500    -2.8420     0.0980 H     1 <1>   0.0800 
 31 H       -1.7980    -1.0410    -3.6750 H     1 <1>   0.1500 
 32 H       -2.3030    -0.0310     0.4940 H     1 <1>   0.1500 
 33 H        0.9120    -0.9660     3.0750 H     1 <1>   0.0800 
 34 H        2.5990    -1.3560     2.8270 H     1 <1>   0.0800 
 35 H       -0.0770    -4.2150     1.9520 H     1 <1>   0.0800 
 36 H       -0.7080    -2.6900     2.5350 H     1 <1>   0.0800 
 37 H       -6.2430    -0.2350    -1.8500 H     1 <1>   0.3700 
 38 H       -8.4880    -0.8570    -2.0580 H     1 <1>   0.1500 
 39 H       -7.1680     1.4530     1.2760 H     1 <1>   0.1500 
 40 H      -10.7950    -0.4710    -1.4250 H     1 <1>   0.1500 
 41 H       -9.4960     1.8340     1.9210 H     1 <1>   0.1500 
 42 H      -12.6290    -0.6050     0.0640 H     1 <1>   0.0800 
 43 H      -12.6850     0.8440    -0.9480 H     1 <1>   0.0800 
 44 H      -13.9300     0.5730     1.8110 H     1 <1>   0.0800 
 45 H      -14.8190     0.5600     0.3080 H     1 <1>   0.0800 
 46 H      -13.9860     2.0120     0.8060 H     1 <1>   0.0800 
@<TRIPOS>BOND
  1   1   2  2   
  2   1   3  2   
  3   1   4  am  
  4   1   5  1   
  5   4   6  1   
  6   4   7  1   
  7   5   8  2   
  8   5   9  1   
  9   6  10  1   
 10   6  27  1   
 11   6  28  1   
 12   7  11  1   
 13   7  29  1   
 14   7  30  1   
 15   8  12  1   
 16   8  31  1   
 17   9  13  2   
 18   9  32  1   
 19  10  14  1   
 20  10  33  1   
 21  10  34  1   
 22  11  14  1   
 23  11  35  1   
 24  11  36  1   
 25  12  13  1   
 26  13  15  1   
 27  15  16  2   
 28  15  17  am  
 29  17  18  1   
 30  17  37  1   
 31  18  19  ar  
 32  18  20  ar  
 33  19  21  ar  
 34  19  38  1   
 35  20  22  ar  
 36  20  39  1   
 37  21  23  ar  
 38  21  40  1   
 39  22  23  ar  
 40  22  41  1   
 41  23  24  1   
 42  24  25  1   
 43  25  26  1   
 44  25  42  1   
 45  25  43  1   
 46  26  44  1   
 47  26  45  1   
 48  26  46  1   
@<TRIPOS>SUBSTRUCTURE
  1 ****  15 GROUP 4 **** **** 0

# MOE 2024.06 (io_trps.svl 2023.06)
