@<TRIPOS>MOLECULE
NONAME
43 44 1 0 0 
SMALL
USER_CHARGES


@<TRIPOS>ATOM
  1 F       -0.2610    -0.1170     0.3210 F     1 <1>  -0.3400 
  2 C        0.1770     0.9930    -0.2630 C.3   1 <1>   1.1640 
  3 F        0.6210     0.6350    -1.4590 F     1 <1>  -0.3400 
  4 F        1.2340     1.3900     0.4340 F     1 <1>  -0.3400 
  5 C       -0.9310     2.0580    -0.3570 C.ar  1 <1>  -0.1440 
  6 C       -2.2400     1.6920    -0.6620 C.ar  1 <1>  -0.1500 
  7 C       -0.6510     3.4050    -0.1510 C.ar  1 <1>  -0.1500 
  8 C       -3.2490     2.6410    -0.7510 C.ar  1 <1>  -0.1440 
  9 C       -1.6490     4.3570    -0.2480 C.ar  1 <1>  -0.1500 
 10 C       -2.9440     3.9780    -0.5490 C.ar  1 <1>  -0.1500 
 11 C       -4.6750     2.2290    -1.0700 C.3   1 <1>   0.4870 
 12 N       -5.2970     1.6290     0.1540 N.4   1 <1>  -0.9590 
 13 C       -6.5720     0.9050    -0.1510 C.3   1 <1>   0.4230 
 14 C       -5.3680     2.6470     1.2630 C.3   1 <1>   0.2630 
 15 C       -7.7270     1.8590    -0.4920 C.3   1 <1>  -0.1600 
 16 C       -6.9640    -0.0020     1.0190 C.3   1 <1>  -0.1600 
 17 C       -9.0070     1.0750    -0.7910 C.3   1 <1>   0.3430 
 18 C       -8.2520    -0.7690     0.7080 C.3   1 <1>   0.3430 
 19 N       -9.3450     0.1850     0.3590 N.4   1 <1>  -0.9590 
 20 C      -10.6150    -0.5650     0.0770 C.3   1 <1>   0.2630 
 21 H       -2.4580     0.6500    -0.8380 H     1 <1>   0.1500 
 22 H        0.3520     3.7270     0.0820 H     1 <1>   0.1500 
 23 H       -1.4110     5.3970    -0.0920 H     1 <1>   0.1500 
 24 H       -3.6980     4.7440    -0.6270 H     1 <1>   0.1500 
 25 H       -4.6580     1.5100    -1.8730 H     1 <1>   0.0800 
 26 H       -5.2370     3.0900    -1.3940 H     1 <1>   0.0800 
 27 H       -4.6040     0.9310     0.4640 H     1 <1>   0.4500 
 28 H       -6.4010     0.2720    -1.0080 H     1 <1>   0.0800 
 29 H       -6.0040     3.4710     0.9830 H     1 <1>   0.0800 
 30 H       -4.3850     3.0370     1.4760 H     1 <1>   0.0800 
 31 H       -5.7510     2.2020     2.1660 H     1 <1>   0.0800 
 32 H       -7.4830     2.4390    -1.3630 H     1 <1>   0.0800 
 33 H       -7.9270     2.5360     0.3190 H     1 <1>   0.0800 
 34 H       -7.1150     0.5650     1.9200 H     1 <1>   0.0800 
 35 H       -6.1820    -0.7190     1.2000 H     1 <1>   0.0800 
 36 H       -8.8710     0.4810    -1.6810 H     1 <1>   0.0800 
 37 H       -9.8180     1.7640    -0.9720 H     1 <1>   0.0800 
 38 H       -8.5380    -1.3570     1.5680 H     1 <1>   0.0800 
 39 H       -8.0840    -1.4460    -0.1150 H     1 <1>   0.0800 
 40 H       -9.5340     0.7780     1.1850 H     1 <1>   0.4500 
 41 H      -10.4920    -1.2100    -0.7780 H     1 <1>   0.0800 
 42 H      -11.4210     0.1220    -0.1250 H     1 <1>   0.0800 
 43 H      -10.8910    -1.1700     0.9260 H     1 <1>   0.0800 
@<TRIPOS>BOND
  1   1   2  1   
  2   2   3  1   
  3   2   4  1   
  4   2   5  1   
  5   5   6  ar  
  6   5   7  ar  
  7   6   8  ar  
  8   6  21  1   
  9   7   9  ar  
 10   7  22  1   
 11   8  10  ar  
 12   8  11  1   
 13   9  10  ar  
 14   9  23  1   
 15  10  24  1   
 16  11  12  1   
 17  11  25  1   
 18  11  26  1   
 19  12  13  1   
 20  12  14  1   
 21  12  27  1   
 22  13  15  1   
 23  13  16  1   
 24  13  28  1   
 25  14  29  1   
 26  14  30  1   
 27  14  31  1   
 28  15  17  1   
 29  15  32  1   
 30  15  33  1   
 31  16  18  1   
 32  16  34  1   
 33  16  35  1   
 34  17  19  1   
 35  17  36  1   
 36  17  37  1   
 37  18  19  1   
 38  18  38  1   
 39  18  39  1   
 40  19  20  1   
 41  19  40  1   
 42  20  41  1   
 43  20  42  1   
 44  20  43  1   
@<TRIPOS>SUBSTRUCTURE
  1 ****  12 GROUP 4 **** **** 0

# MOE 2024.06 (io_trps.svl 2023.06)
