@<TRIPOS>MOLECULE
NONAME
40 41 1 0 0 
SMALL
USER_CHARGES


@<TRIPOS>ATOM
  1 S       -1.8420     1.9980     0.3000 S.3   1 <1>  -0.0800 
  2 C       -2.1960     1.0460    -1.1040 C.2   1 <1>   0.4420 
  3 C       -0.1650     1.7850    -0.0640 C.2   1 <1>   0.1980 
  4 N       -1.1330     0.6600    -1.7080 N.2   1 <1>  -0.3380 
  5 N       -3.5290     0.8340    -1.3820 N.am  1 <1>  -0.4940 
  6 N        0.0220     1.0850    -1.1100 N.2   1 <1>  -0.3380 
  7 C        0.8390     2.4350     0.8740 C.3   1 <1>   0.0200 
  8 C       -4.1180     0.1400    -2.4010 C.2   1 <1>   0.5690 
  9 C        2.2960     2.1800     0.4570 C.3   1 <1>  -0.1600 
 10 O       -3.5060    -0.4240    -3.2700 O.2   1 <1>  -0.5700 
 11 C       -5.6370     0.0740    -2.4420 C.3   1 <1>   0.0450 
 12 C        3.2860     2.8470     1.4220 C.3   1 <1>  -0.1600 
 13 C       -6.2900     0.8710    -1.3160 C.ar  1 <1>  -0.1440 
 14 C        4.7320     2.5820     0.9920 C.3   1 <1>  -0.2400 
 15 C       -6.5360     0.2720    -0.0890 C.ar  1 <1>  -0.1500 
 16 C       -6.6180     2.2060    -1.5010 C.ar  1 <1>  -0.1500 
 17 C       -7.0960     1.0050     0.9410 C.ar  1 <1>  -0.1500 
 18 C       -7.1810     2.9390    -0.4710 C.ar  1 <1>  -0.1500 
 19 C       -7.4210     2.3390     0.7620 C.ar  1 <1>   0.0820 
 20 O       -7.9630     2.9840     1.8240 O.3   1 <1>  -0.3620 
 21 C       -8.4050     4.3200     1.7260 C.3   1 <1>   0.0400 
 22 H       -4.1850     1.2590    -0.7270 H     1 <1>   0.3700 
 23 H        0.6790     2.0490     1.8650 H     1 <1>   0.0800 
 24 H        0.6540     3.4940     0.8910 H     1 <1>   0.0800 
 25 H        2.4500     2.5610    -0.5380 H     1 <1>   0.0800 
 26 H        2.4760     1.1180     0.4350 H     1 <1>   0.0800 
 27 H       -5.9330    -0.9570    -2.3810 H     1 <1>   0.0800 
 28 H       -5.9670     0.4470    -3.3940 H     1 <1>   0.0800 
 29 H        3.1390     2.4640     2.4170 H     1 <1>   0.0800 
 30 H        3.1140     3.9100     1.4420 H     1 <1>   0.0800 
 31 H        4.9350     1.5260     0.9840 H     1 <1>   0.0800 
 32 H        5.4130     3.0560     1.6770 H     1 <1>   0.0800 
 33 H        4.9090     2.9760     0.0070 H     1 <1>   0.0800 
 34 H       -6.2930    -0.7640     0.0730 H     1 <1>   0.1500 
 35 H       -6.4370     2.6840    -2.4490 H     1 <1>   0.1500 
 36 H       -7.2890     0.5460     1.8950 H     1 <1>   0.1500 
 37 H       -7.4240     3.9700    -0.6440 H     1 <1>   0.1500 
 38 H       -8.8240     4.6030     2.6740 H     1 <1>   0.0800 
 39 H       -9.1590     4.3830     0.9610 H     1 <1>   0.0800 
 40 H       -7.5650     4.9500     1.4940 H     1 <1>   0.0800 
@<TRIPOS>BOND
  1   1   2  1   
  2   1   3  1   
  3   2   4  2   
  4   2   5  1   
  5   3   6  2   
  6   3   7  1   
  7   4   6  1   
  8   5   8  am  
  9   5  22  1   
 10   7   9  1   
 11   7  23  1   
 12   7  24  1   
 13   8  10  2   
 14   8  11  1   
 15   9  12  1   
 16   9  25  1   
 17   9  26  1   
 18  11  13  1   
 19  11  27  1   
 20  11  28  1   
 21  12  14  1   
 22  12  29  1   
 23  12  30  1   
 24  13  15  ar  
 25  13  16  ar  
 26  14  31  1   
 27  14  32  1   
 28  14  33  1   
 29  15  17  ar  
 30  15  34  1   
 31  16  18  ar  
 32  16  35  1   
 33  17  19  ar  
 34  17  36  1   
 35  18  19  ar  
 36  18  37  1   
 37  19  20  1   
 38  20  21  1   
 39  21  38  1   
 40  21  39  1   
 41  21  40  1   
@<TRIPOS>SUBSTRUCTURE
  1 ****   5 GROUP 4 **** **** 0

# MOE 2024.06 (io_trps.svl 2023.06)
