@<TRIPOS>MOLECULE
NONAME
35 36 1 0 0 
SMALL
USER_CHARGES


@<TRIPOS>ATOM
  1 CL      -1.2990     0.6430     2.6960 Cl    1 <1>  -0.1770 
  2 C       -2.0280     1.3190     1.2600 C.ar  1 <1>   0.1770 
  3 C       -1.4710     2.4170     0.6260 C.ar  1 <1>   0.1770 
  4 C       -3.1830     0.7350     0.7690 C.ar  1 <1>  -0.1500 
  5 CL      -0.0160     3.1650     1.2380 Cl    1 <1>  -0.1770 
  6 C       -2.0660     2.9380    -0.5090 C.ar  1 <1>  -0.1500 
  7 C       -3.7930     1.2580    -0.3660 C.ar  1 <1>  -0.1440 
  8 C       -3.2250     2.3570    -1.0030 C.ar  1 <1>  -0.1500 
  9 C       -5.0670     0.6310    -0.9060 C.3   1 <1>   0.4870 
 10 N       -6.2000     0.9930    -0.0100 N.4   1 <1>  -0.9590 
 11 C       -7.4180     0.1900    -0.3550 C.3   1 <1>   0.3430 
 12 C       -6.4750     2.4610    -0.0380 C.3   1 <1>   0.3430 
 13 C       -8.5850     0.4880     0.5970 C.3   1 <1>  -0.0190 
 14 C       -7.5960     2.7960     0.9500 C.3   1 <1>  -0.1600 
 15 C       -9.7990    -0.2970     0.1260 C.2   1 <1>   0.5690 
 16 C       -8.8760     2.0000     0.6530 C.3   1 <1>  -0.1600 
 17 O       -9.8070    -0.7580    -0.9850 O.2   1 <1>  -0.5700 
 18 N      -10.8500    -0.4780     0.9440 N.am  1 <1>  -0.8000 
 19 H       -3.5800    -0.1230     1.2840 H     1 <1>   0.1500 
 20 H       -1.6200     3.7880    -0.9960 H     1 <1>   0.1500 
 21 H       -3.6710     2.7740    -1.8920 H     1 <1>   0.1500 
 22 H       -4.9480    -0.4400    -0.9370 H     1 <1>   0.0800 
 23 H       -5.2570     0.9800    -1.9080 H     1 <1>   0.0800 
 24 H       -5.9120     0.7580     0.9470 H     1 <1>   0.4500 
 25 H       -7.1950    -0.8640    -0.3160 H     1 <1>   0.0800 
 26 H       -7.7300     0.4210    -1.3620 H     1 <1>   0.0800 
 27 H       -6.7720     2.7600    -1.0310 H     1 <1>   0.0800 
 28 H       -5.5870     3.0120     0.2310 H     1 <1>   0.0800 
 29 H       -8.3250     0.1320     1.5770 H     1 <1>   0.0800 
 30 H       -7.8120     3.8490     0.8870 H     1 <1>   0.0800 
 31 H       -7.2600     2.5990     1.9530 H     1 <1>   0.0800 
 32 H       -9.6140     2.2050     1.4100 H     1 <1>   0.0800 
 33 H       -9.2830     2.3200    -0.2920 H     1 <1>   0.0800 
 34 H      -11.6590    -1.0030     0.6020 H     1 <1>   0.3700 
 35 H      -10.9370    -0.1060     1.8900 H     1 <1>   0.3700 
@<TRIPOS>BOND
  1   1   2  1   
  2   2   3  ar  
  3   2   4  ar  
  4   3   5  1   
  5   3   6  ar  
  6   4   7  ar  
  7   4  19  1   
  8   6   8  ar  
  9   6  20  1   
 10   7   8  ar  
 11   7   9  1   
 12   8  21  1   
 13   9  10  1   
 14   9  22  1   
 15   9  23  1   
 16  10  11  1   
 17  10  12  1   
 18  10  24  1   
 19  11  13  1   
 20  11  25  1   
 21  11  26  1   
 22  12  14  1   
 23  12  27  1   
 24  12  28  1   
 25  13  15  1   
 26  13  16  1   
 27  13  29  1   
 28  14  16  1   
 29  14  30  1   
 30  14  31  1   
 31  15  17  2   
 32  15  18  am  
 33  16  32  1   
 34  16  33  1   
 35  18  34  1   
 36  18  35  1   
@<TRIPOS>SUBSTRUCTURE
  1 ****  10 GROUP 4 **** **** 0

# MOE 2024.06 (io_trps.svl 2023.06)
