@<TRIPOS>MOLECULE
NONAME
44 45 1 0 0 
SMALL
USER_CHARGES


@<TRIPOS>ATOM
  1 O       -0.1110     0.2820    -1.1510 O.2   1 <1>  -0.5700 
  2 C        0.4830    -0.5710    -0.5220 C.2   1 <1>   0.6900 
  3 N        1.8200    -0.5050    -0.2780 N.am  1 <1>  -0.5470 
  4 N       -0.1800    -1.6470    -0.0320 N.am  1 <1>  -0.7300 
  5 C        2.8280     0.4240    -0.5950 C.ar  1 <1>   0.1170 
  6 C       -1.6210    -1.9060    -0.1870 C.3   1 <1>   0.2200 
  7 C        4.1470     0.0980    -0.2570 C.ar  1 <1>   0.0830 
  8 C        2.5810     1.6430    -1.2180 C.ar  1 <1>  -0.1500 
  9 C       -2.2430    -1.9660     1.2150 C.3   1 <1>  -0.1600 
 10 C       -1.7750    -3.1850    -1.0170 C.3   1 <1>  -0.1600 
 11 O        4.3510    -1.1080     0.3590 O.3   1 <1>  -0.3630 
 12 C        5.1830     0.9810    -0.5470 C.ar  1 <1>  -0.1500 
 13 C        3.6140     2.5180    -1.5040 C.ar  1 <1>  -0.1500 
 14 C       -3.7780    -1.9060     1.1780 C.3   1 <1>  -0.1600 
 15 C       -3.2220    -3.6660    -1.2130 C.3   1 <1>  -0.1600 
 16 C        5.6440    -1.5370     0.7170 C.3   1 <1>   0.1200 
 17 C        4.9150     2.1880    -1.1690 C.ar  1 <1>  -0.1500 
 18 C       -4.4760    -3.2650     1.0170 C.3   1 <1>  -0.1600 
 19 C       -3.8160    -4.2750     0.0660 C.3   1 <1>  -0.1600 
 20 C        5.5200    -2.9140     1.3630 C.3   1 <1>  -0.2400 
 21 H        2.2030    -1.3150     0.2010 H     1 <1>   0.3700 
 22 H        0.3250    -2.3380     0.5140 H     1 <1>   0.3700 
 23 H       -2.0700    -1.0880    -0.7280 H     1 <1>   0.0800 
 24 H        1.5800     1.9220    -1.4850 H     1 <1>   0.1500 
 25 H       -1.9030    -1.0990     1.7560 H     1 <1>   0.0800 
 26 H       -1.9110    -2.8400     1.7460 H     1 <1>   0.0800 
 27 H       -1.1990    -3.9760    -0.5720 H     1 <1>   0.0800 
 28 H       -1.3580    -2.9880    -1.9900 H     1 <1>   0.0800 
 29 H        6.2020     0.7560    -0.2990 H     1 <1>   0.1500 
 30 H        3.4020     3.4560    -1.9880 H     1 <1>   0.1500 
 31 H       -4.0890    -1.2480     0.3850 H     1 <1>   0.0800 
 32 H       -4.1270    -1.4650     2.0960 H     1 <1>   0.0800 
 33 H       -3.2080    -4.4330    -1.9680 H     1 <1>   0.0800 
 34 H       -3.8440    -2.8680    -1.5820 H     1 <1>   0.0800 
 35 H        6.0600    -0.8270     1.4120 H     1 <1>   0.0800 
 36 H        6.2460    -1.5880    -0.1740 H     1 <1>   0.0800 
 37 H        5.7160     2.8710    -1.3930 H     1 <1>   0.1500 
 38 H       -5.4820    -3.0800     0.6790 H     1 <1>   0.0800 
 39 H       -4.5560    -3.7290     1.9860 H     1 <1>   0.0800 
 40 H       -3.0500    -4.8160     0.5940 H     1 <1>   0.0800 
 41 H       -4.5640    -4.9970    -0.2140 H     1 <1>   0.0800 
 42 H        4.9060    -2.8560     2.2430 H     1 <1>   0.0800 
 43 H        6.4940    -3.2700     1.6480 H     1 <1>   0.0800 
 44 H        5.0900    -3.6120     0.6670 H     1 <1>   0.0800 
@<TRIPOS>BOND
  1   1   2  2   
  2   2   3  am  
  3   2   4  am  
  4   3   5  1   
  5   3  21  1   
  6   4   6  1   
  7   4  22  1   
  8   5   7  ar  
  9   5   8  ar  
 10   6   9  1   
 11   6  10  1   
 12   6  23  1   
 13   7  11  1   
 14   7  12  ar  
 15   8  13  ar  
 16   8  24  1   
 17   9  14  1   
 18   9  25  1   
 19   9  26  1   
 20  10  15  1   
 21  10  27  1   
 22  10  28  1   
 23  11  16  1   
 24  12  17  ar  
 25  12  29  1   
 26  13  17  ar  
 27  13  30  1   
 28  14  18  1   
 29  14  31  1   
 30  14  32  1   
 31  15  19  1   
 32  15  33  1   
 33  15  34  1   
 34  16  20  1   
 35  16  35  1   
 36  16  36  1   
 37  17  37  1   
 38  18  19  1   
 39  18  38  1   
 40  18  39  1   
 41  19  40  1   
 42  19  41  1   
 43  20  42  1   
 44  20  43  1   
 45  20  44  1   
@<TRIPOS>SUBSTRUCTURE
  1 ****   2 GROUP 4 **** **** 0

# MOE 2024.06 (io_trps.svl 2023.06)
