@<TRIPOS>MOLECULE
NONAME
29 31 1 0 0 
SMALL
USER_CHARGES


@<TRIPOS>ATOM
  1 O        0.1280     0.8270     1.3330 O.2   1 <1>  -0.5700 
  2 C       -0.2810     1.8210     0.7830 C.2   1 <1>   0.5690 
  3 N        0.1930     3.0890     0.9810 N.am  1 <1>  -0.4200 
  4 C       -1.4620     1.8040    -0.1930 C.3   1 <1>   0.0610 
  5 C       -0.5590     4.0530     0.3700 C.2   1 <1>   0.5690 
  6 C        1.6490     3.3200     1.2400 C.3   1 <1>   0.0340 
  7 C       -1.6820     3.4510    -0.4570 C.3   1 <1>  -0.0190 
  8 C       -2.8770     1.2290     0.4500 C.3   1 <1>   0.0580 
  9 C       -1.0720     1.0510    -1.4860 C.3   1 <1>  -0.2400 
 10 O       -0.4140     5.2450     0.4890 O.2   1 <1>  -0.5700 
 11 C        2.4990     3.2030    -0.0230 C.2   1 <1>   0.9060 
 12 C       -3.2110     3.8340     0.0440 C.3   1 <1>   0.0580 
 13 C       -4.3970     1.7240     0.7580 C.2   1 <1>  -0.2880 
 14 C       -3.0050     2.5390     0.2580 C.3   1 <1>  -0.1600 
 15 O        1.9560     2.9560    -1.1120 O.co2 1 <1>  -0.9000 
 16 O        3.7210     3.3600     0.0810 O.co2 1 <1>  -0.9000 
 17 C       -4.5730     3.0950     0.5440 C.2   1 <1>  -0.2880 
 18 H        2.0080     2.5990     1.9490 H     1 <1>   0.0800 
 19 H        1.7920     4.3030     1.6450 H     1 <1>   0.0800 
 20 H       -1.5260     3.7140    -1.4900 H     1 <1>   0.0800 
 21 H       -2.5700     0.8310     1.4070 H     1 <1>   0.0800 
 22 H       -0.1690     1.4730    -1.8970 H     1 <1>   0.0800 
 23 H       -1.8500     1.1150    -2.2240 H     1 <1>   0.0800 
 24 H       -0.8860     0.0160    -1.2630 H     1 <1>   0.0800 
 25 H       -3.0440     4.5620     0.8270 H     1 <1>   0.0800 
 26 H       -5.1180     0.9950     1.0880 H     1 <1>   0.1500 
 27 H       -3.3430     2.3160    -0.8900 H     1 <1>   0.0800 
 28 H       -2.6350     2.7560     1.3450 H     1 <1>   0.0800 
 29 H       -5.4640     3.6880     0.6680 H     1 <1>   0.1500 
@<TRIPOS>BOND
  1   1   2  2   
  2   2   3  am  
  3   2   4  1   
  4   3   5  am  
  5   3   6  1   
  6   4   7  1   
  7   4   8  1   
  8   4   9  1   
  9   5   7  1   
 10   5  10  2   
 11   6  11  1   
 12   6  18  1   
 13   6  19  1   
 14   7  12  1   
 15   7  20  1   
 16   8  13  1   
 17   8  14  1   
 18   8  21  1   
 19   9  22  1   
 20   9  23  1   
 21   9  24  1   
 22  11  15  ar  
 23  11  16  ar  
 24  12  14  1   
 25  12  17  1   
 26  12  25  1   
 27  13  17  2   
 28  13  26  1   
 29  14  27  1   
 30  14  28  1   
 31  17  29  1   
@<TRIPOS>SUBSTRUCTURE
  1 ****   2 GROUP 4 **** **** 0

# MOE 2024.06 (io_trps.svl 2023.06)
