@<TRIPOS>MOLECULE
NONAME
33 34 1 0 0 
SMALL
USER_CHARGES


@<TRIPOS>ATOM
  1 S        0.0560    -0.3230     1.6170 S.o2  1 <1>   1.4470 
  2 O       -0.0030     0.4550     2.8330 O.2   1 <1>  -0.6500 
  3 O       -0.1520    -1.7540     1.6550 O.2   1 <1>  -0.6500 
  4 N        1.6530    -0.1620     0.9520 N.am  1 <1>  -0.5780 
  5 C       -0.9800     0.4110     0.3230 C.ar  1 <1>  -0.0090 
  6 N        2.4040     0.9870     0.7350 N.2   1 <1>  -0.4300 
  7 C       -0.8620     1.7560    -0.0060 C.ar  1 <1>  -0.1500 
  8 C       -1.9130    -0.3450    -0.3780 C.ar  1 <1>  -0.1500 
  9 C        3.5570     0.9370     0.2070 C.2   1 <1>   0.3890 
 10 C       -1.6420     2.3270    -0.9960 C.ar  1 <1>  -0.1500 
 11 C       -2.6960     0.2190    -1.3700 C.ar  1 <1>  -0.1500 
 12 C        4.2600    -0.3340    -0.2760 C.3   1 <1>  -0.1000 
 13 C        4.3770     2.1980     0.0280 C.3   1 <1>  -0.1790 
 14 C       -2.5660     1.5610    -1.6840 C.ar  1 <1>  -0.1430 
 15 C        4.6660    -0.4910    -1.7130 C.3   1 <1>  -0.2000 
 16 C        3.5830    -1.3550    -1.1490 C.3   1 <1>  -0.2000 
 17 C       -3.4220     2.1820    -2.7720 C.3   1 <1>  -0.0970 
 18 H        2.0130    -1.0710     0.6610 H     1 <1>   0.4200 
 19 H       -0.1450     2.3630     0.5230 H     1 <1>   0.1500 
 20 H       -2.0290    -1.3910    -0.1470 H     1 <1>   0.1500 
 21 H       -1.5240     3.3720    -1.2280 H     1 <1>   0.1500 
 22 H       -3.4090    -0.3920    -1.8970 H     1 <1>   0.1500 
 23 H        4.9520    -0.6990     0.4620 H     1 <1>   0.1000 
 24 H        4.5560     2.3760    -1.0160 H     1 <1>   0.0800 
 25 H        5.3170     2.0970     0.5380 H     1 <1>   0.0800 
 26 H        3.8510     3.0420     0.4360 H     1 <1>   0.0800 
 27 H        4.3860     0.2620    -2.4300 H     1 <1>   0.1000 
 28 H        5.6200    -0.9360    -1.9360 H     1 <1>   0.1000 
 29 H        3.7910    -2.3990    -0.9900 H     1 <1>   0.1000 
 30 H        2.5820    -1.1830    -1.5090 H     1 <1>   0.1000 
 31 H       -2.9250     2.0950    -3.7210 H     1 <1>   0.0800 
 32 H       -3.5960     3.2230    -2.5650 H     1 <1>   0.0800 
 33 H       -4.3740     1.6860    -2.8320 H     1 <1>   0.0800 
@<TRIPOS>BOND
  1   1   2  2   
  2   1   3  2   
  3   1   4  am  
  4   1   5  1   
  5   4   6  1   
  6   4  18  1   
  7   5   7  ar  
  8   5   8  ar  
  9   6   9  2   
 10   7  10  ar  
 11   7  19  1   
 12   8  11  ar  
 13   8  20  1   
 14   9  12  1   
 15   9  13  1   
 16  10  14  ar  
 17  10  21  1   
 18  11  14  ar  
 19  11  22  1   
 20  12  15  1   
 21  12  16  1   
 22  12  23  1   
 23  13  24  1   
 24  13  25  1   
 25  13  26  1   
 26  14  17  1   
 27  15  16  1   
 28  15  27  1   
 29  15  28  1   
 30  16  29  1   
 31  16  30  1   
 32  17  31  1   
 33  17  32  1   
 34  17  33  1   
@<TRIPOS>SUBSTRUCTURE
  1 ****   4 GROUP 4 **** **** 0

# MOE 2024.06 (io_trps.svl 2023.06)
