@<TRIPOS>MOLECULE
NONAME
48 50 1 0 0 
SMALL
USER_CHARGES


@<TRIPOS>ATOM
  1 S       -0.1110    -0.8690     1.5140 S.o2  1 <1>   1.4470 
  2 O        0.7220    -1.4190     0.4720 O.2   1 <1>  -0.6500 
  3 O        0.0610    -1.2890     2.8820 O.2   1 <1>  -0.6500 
  4 N        0.2550     0.8080     1.5780 N.am  1 <1>  -0.7570 
  5 C       -1.8790    -0.9190     1.0650 C.ar  1 <1>  -0.0090 
  6 C        0.3570     1.7190     0.5350 C.ar  1 <1>   0.1990 
  7 C       -2.4730    -2.0480     0.4950 C.ar  1 <1>  -0.1440 
  8 C       -2.6920     0.1850     1.3030 C.ar  1 <1>  -0.1500 
  9 C        0.0210     1.4070    -0.7790 C.ar  1 <1>  -0.1500 
 10 C        0.7950     3.0080     0.8130 C.ar  1 <1>  -0.1500 
 11 C       -3.8190    -2.0360     0.1630 C.ar  1 <1>  -0.1500 
 12 C       -1.6780    -3.3210     0.2260 C.3   1 <1>  -0.0970 
 13 C       -4.0420     0.2240     0.9640 C.ar  1 <1>   0.0860 
 14 C        0.1150     2.3560    -1.7800 C.ar  1 <1>  -0.1500 
 15 C        0.8900     3.9590    -0.1860 C.ar  1 <1>  -0.1500 
 16 C       -4.5910    -0.9160     0.3940 C.ar  1 <1>  -0.1500 
 17 C       -4.8510     1.4030     1.2080 C.2   1 <1>   0.5440 
 18 C        0.5480     3.6400    -1.4890 C.ar  1 <1>  -0.1430 
 19 O       -5.8690     1.2940     1.8630 O.2   1 <1>  -0.5700 
 20 N       -4.5050     2.6450     0.7190 N.am  1 <1>  -0.6600 
 21 C        0.6540     4.6900    -2.5800 C.3   1 <1>  -0.0970 
 22 C       -3.5110     2.8940    -0.3700 C.3   1 <1>   0.1400 
 23 C       -5.2370     3.8810     1.1290 C.3   1 <1>   0.1400 
 24 C       -2.6250     4.1040    -0.0280 C.3   1 <1>   0.1200 
 25 C       -4.2530     5.0340     1.3850 C.3   1 <1>   0.1200 
 26 O       -3.4070     5.2210     0.2860 O.3   1 <1>  -0.5600 
 27 H        0.7160     1.0140     2.4580 H     1 <1>   0.4200 
 28 H       -2.2810     1.0610     1.7730 H     1 <1>   0.1500 
 29 H       -0.3080     0.4180    -1.0380 H     1 <1>   0.1500 
 30 H        1.0640     3.2720     1.8200 H     1 <1>   0.1500 
 31 H       -4.2790    -2.9050    -0.2770 H     1 <1>   0.1500 
 32 H       -1.1240    -3.6140     1.1010 H     1 <1>   0.0800 
 33 H       -0.9910    -3.1650    -0.5870 H     1 <1>   0.0800 
 34 H       -2.3290    -4.1350    -0.0380 H     1 <1>   0.0800 
 35 H       -0.1440     2.0900    -2.7900 H     1 <1>   0.1500 
 36 H        1.2320     4.9520     0.0530 H     1 <1>   0.1500 
 37 H       -5.6370    -0.9180     0.1380 H     1 <1>   0.1500 
 38 H        0.1080     4.3890    -3.4560 H     1 <1>   0.0800 
 39 H        1.6850     4.8330    -2.8490 H     1 <1>   0.0800 
 40 H        0.2510     5.6260    -2.2350 H     1 <1>   0.0800 
 41 H       -4.0390     3.1010    -1.2840 H     1 <1>   0.0800 
 42 H       -2.8910     2.0340    -0.5390 H     1 <1>   0.0800 
 43 H       -5.8090     3.7010     2.0230 H     1 <1>   0.0800 
 44 H       -5.9220     4.1620     0.3480 H     1 <1>   0.0800 
 45 H       -2.0130     4.3620    -0.8730 H     1 <1>   0.0800 
 46 H       -1.9850     3.8830     0.8080 H     1 <1>   0.0800 
 47 H       -3.6510     4.8290     2.2530 H     1 <1>   0.0800 
 48 H       -4.7910     5.9510     1.5460 H     1 <1>   0.0800 
@<TRIPOS>BOND
  1   1   2  2   
  2   1   3  2   
  3   1   4  am  
  4   1   5  1   
  5   4   6  1   
  6   4  27  1   
  7   5   7  ar  
  8   5   8  ar  
  9   6   9  ar  
 10   6  10  ar  
 11   7  11  ar  
 12   7  12  1   
 13   8  13  ar  
 14   8  28  1   
 15   9  14  ar  
 16   9  29  1   
 17  10  15  ar  
 18  10  30  1   
 19  11  16  ar  
 20  11  31  1   
 21  12  32  1   
 22  12  33  1   
 23  12  34  1   
 24  13  16  ar  
 25  13  17  1   
 26  14  18  ar  
 27  14  35  1   
 28  15  18  ar  
 29  15  36  1   
 30  16  37  1   
 31  17  19  2   
 32  17  20  am  
 33  18  21  1   
 34  20  22  1   
 35  20  23  1   
 36  21  38  1   
 37  21  39  1   
 38  21  40  1   
 39  22  24  1   
 40  22  41  1   
 41  22  42  1   
 42  23  25  1   
 43  23  43  1   
 44  23  44  1   
 45  24  26  1   
 46  24  45  1   
 47  24  46  1   
 48  25  26  1   
 49  25  47  1   
 50  25  48  1   
@<TRIPOS>SUBSTRUCTURE
  1 ****   8 GROUP 4 **** **** 0

# MOE 2024.06 (io_trps.svl 2023.06)
