@<TRIPOS>MOLECULE
NONAME
31 32 1 0 0 
SMALL
USER_CHARGES


@<TRIPOS>ATOM
  1 O       -0.0760     0.9450    -1.9260 O.2   1 <1>  -0.5700 
  2 C       -0.3330     1.7330    -1.0500 C.2   1 <1>   0.5690 
  3 N        0.5200     2.6370    -0.4770 N.am  1 <1>  -0.4200 
  4 C       -1.7030     1.8560    -0.3940 C.3   1 <1>   0.0610 
  5 C       -0.1700     3.5280     0.2960 C.2   1 <1>   0.5690 
  6 C        1.9940     2.6020    -0.6130 C.3   1 <1>   0.1400 
  7 C       -1.6440     3.3270     0.0480 C.3   1 <1>  -0.0190 
  8 C       -2.9650     1.6860    -1.2600 C.3   1 <1>  -0.0220 
  9 C       -1.7430     0.8560     0.7930 C.3   1 <1>  -0.2400 
 10 O        0.2770     4.3730     1.0280 O.2   1 <1>  -0.5700 
 11 C        2.5910     1.7010     0.4660 C.3   1 <1>  -0.2660 
 12 C       -2.7310     3.6770     1.0680 C.3   1 <1>  -0.0220 
 13 C       -4.1620     2.3160    -0.5330 C.2   1 <1>  -0.2880 
 14 C        4.0880     1.6060     0.3390 C.2   1 <1>   0.9060 
 15 C       -4.0600     3.1730     0.4970 C.2   1 <1>  -0.2880 
 16 O        4.6810     2.3470    -0.4520 O.co2 1 <1>  -0.9000 
 17 O        4.6710     0.7780     1.0410 O.co2 1 <1>  -0.9000 
 18 H        2.3920     3.5990    -0.5150 H     1 <1>   0.0800 
 19 H        2.2600     2.2270    -1.5870 H     1 <1>   0.0800 
 20 H       -1.8470     3.9390    -0.8140 H     1 <1>   0.0800 
 21 H       -3.1430     0.6390    -1.4360 H     1 <1>   0.0800 
 22 H       -2.8340     2.1640    -2.2150 H     1 <1>   0.0800 
 23 H       -0.9460     1.0500     1.4900 H     1 <1>   0.0800 
 24 H       -1.6220    -0.1470     0.4250 H     1 <1>   0.0800 
 25 H       -2.6770     0.9010     1.3240 H     1 <1>   0.0800 
 26 H        2.1980     0.7070     0.3810 H     1 <1>   0.0800 
 27 H        2.3750     2.0930     1.4400 H     1 <1>   0.0800 
 28 H       -2.7630     4.7450     1.1970 H     1 <1>   0.0800 
 29 H       -2.5320     3.2280     2.0250 H     1 <1>   0.0800 
 30 H       -5.1110     1.9980    -0.9320 H     1 <1>   0.1500 
 31 H       -4.9190     3.5800     1.0050 H     1 <1>   0.1500 
@<TRIPOS>BOND
  1   1   2  2   
  2   2   3  am  
  3   2   4  1   
  4   3   5  am  
  5   3   6  1   
  6   4   7  1   
  7   4   8  1   
  8   4   9  1   
  9   5   7  1   
 10   5  10  2   
 11   6  11  1   
 12   6  18  1   
 13   6  19  1   
 14   7  12  1   
 15   7  20  1   
 16   8  13  1   
 17   8  21  1   
 18   8  22  1   
 19   9  23  1   
 20   9  24  1   
 21   9  25  1   
 22  11  14  1   
 23  11  26  1   
 24  11  27  1   
 25  12  15  1   
 26  12  28  1   
 27  12  29  1   
 28  13  15  2   
 29  13  30  1   
 30  14  16  ar  
 31  14  17  ar  
 32  15  31  1   
@<TRIPOS>SUBSTRUCTURE
  1 ****   3 GROUP 4 **** **** 0

# MOE 2024.06 (io_trps.svl 2023.06)
