@<TRIPOS>MOLECULE
NONAME
44 46 1 0 0 
SMALL
USER_CHARGES


@<TRIPOS>ATOM
  1 CL      -1.7450     3.6630     2.7410 Cl    1 <1>  -0.1770 
  2 C       -0.8970     3.4830     1.2250 C.ar  1 <1>   0.1770 
  3 C       -1.4200     2.6500     0.2500 C.ar  1 <1>  -0.1440 
  4 C        0.2780     4.1890     1.0240 C.ar  1 <1>  -0.1500 
  5 C       -0.7230     2.5570    -0.9410 C.ar  1 <1>   0.1900 
  6 C       -2.6950     1.8670     0.4760 C.3   1 <1>   0.4860 
  7 C        0.9560     4.0710    -0.1800 C.ar  1 <1>  -0.1500 
  8 F       -1.2000     1.7950    -1.8870 F     1 <1>  -0.1900 
  9 C        0.4530     3.2480    -1.1760 C.ar  1 <1>  -0.1500 
 10 N       -3.8550     2.7950     0.4530 N.4   1 <1>  -0.9590 
 11 C       -5.1200     2.1180     0.9140 C.3   1 <1>   0.3430 
 12 C       -4.0540     3.4230    -0.9070 C.3   1 <1>   0.3430 
 13 C       -6.3310     3.0730     0.9060 C.3   1 <1>   0.2090 
 14 C       -5.2570     4.3860    -0.9380 C.3   1 <1>   0.2090 
 15 N       -6.4940     3.7220    -0.4290 N.pl3 1 <1>  -0.8380 
 16 C       -7.6570     4.4960    -0.5550 C.ar  1 <1>   0.1000 
 17 C       -7.8910     5.6860     0.1590 C.ar  1 <1>   0.0830 
 18 C       -8.6250     4.0470    -1.4420 C.ar  1 <1>  -0.1500 
 19 O       -6.9280     6.1210     1.0330 O.3   1 <1>  -0.3620 
 20 C       -9.0810     6.3810    -0.0380 C.ar  1 <1>  -0.1500 
 21 C       -9.8030     4.7440    -1.6310 C.ar  1 <1>  -0.1500 
 22 C       -7.1000     7.3090     1.7770 C.3   1 <1>   0.0400 
 23 C      -10.0310     5.9120    -0.9290 C.ar  1 <1>  -0.1500 
 24 H        0.6600     4.8270     1.8040 H     1 <1>   0.1500 
 25 H       -2.6380     1.3750     1.4340 H     1 <1>   0.0800 
 26 H       -2.8080     1.1120    -0.2860 H     1 <1>   0.0800 
 27 H        1.8720     4.6160    -0.3410 H     1 <1>   0.1500 
 28 H        0.9650     3.1430    -2.1170 H     1 <1>   0.1500 
 29 H       -3.6560     3.5570     1.1170 H     1 <1>   0.4500 
 30 H       -4.9900     1.7310     1.9110 H     1 <1>   0.0800 
 31 H       -5.3460     1.2900     0.2620 H     1 <1>   0.0800 
 32 H       -4.2250     2.6520    -1.6400 H     1 <1>   0.0800 
 33 H       -3.1690     3.9640    -1.1980 H     1 <1>   0.0800 
 34 H       -6.2030     3.8220     1.6670 H     1 <1>   0.0800 
 35 H       -7.2250     2.5200     1.1370 H     1 <1>   0.0800 
 36 H       -5.4270     4.7140    -1.9500 H     1 <1>   0.0800 
 37 H       -5.0360     5.2570    -0.3460 H     1 <1>   0.0800 
 38 H       -8.4470     3.1390    -1.9890 H     1 <1>   0.1500 
 39 H       -9.2960     7.2910     0.4880 H     1 <1>   0.1500 
 40 H      -10.5410     4.3790    -2.3240 H     1 <1>   0.1500 
 41 H       -6.2270     7.4530     2.3880 H     1 <1>   0.0800 
 42 H       -7.9690     7.2070     2.4030 H     1 <1>   0.0800 
 43 H       -7.2100     8.1360     1.0980 H     1 <1>   0.0800 
 44 H      -10.9490     6.4560    -1.0750 H     1 <1>   0.1500 
@<TRIPOS>BOND
  1   1   2  1   
  2   2   3  ar  
  3   2   4  ar  
  4   3   5  ar  
  5   3   6  1   
  6   4   7  ar  
  7   4  24  1   
  8   5   8  1   
  9   5   9  ar  
 10   6  10  1   
 11   6  25  1   
 12   6  26  1   
 13   7   9  ar  
 14   7  27  1   
 15   9  28  1   
 16  10  11  1   
 17  10  12  1   
 18  10  29  1   
 19  11  13  1   
 20  11  30  1   
 21  11  31  1   
 22  12  14  1   
 23  12  32  1   
 24  12  33  1   
 25  13  15  1   
 26  13  34  1   
 27  13  35  1   
 28  14  15  1   
 29  14  36  1   
 30  14  37  1   
 31  15  16  1   
 32  16  17  ar  
 33  16  18  ar  
 34  17  19  1   
 35  17  20  ar  
 36  18  21  ar  
 37  18  38  1   
 38  19  22  1   
 39  20  23  ar  
 40  20  39  1   
 41  21  23  ar  
 42  21  40  1   
 43  22  41  1   
 44  22  42  1   
 45  22  43  1   
 46  23  44  1   
@<TRIPOS>SUBSTRUCTURE
  1 ****  12 GROUP 4 **** **** 0

# MOE 2024.06 (io_trps.svl 2023.06)
