@<TRIPOS>MOLECULE
NONAME
30 30 1 0 0 
SMALL
USER_CHARGES


@<TRIPOS>ATOM
  1 S       -0.1510    -0.1620    -0.0360 S.o2  1 <1>   1.4470 
  2 O       -0.2920    -1.1910    -1.0400 O.2   1 <1>  -0.6500 
  3 O       -0.3330    -0.4750     1.3630 O.2   1 <1>  -0.6500 
  4 N       -1.3300     0.9550    -0.4500 N.am  1 <1>  -0.9140 
  5 C        1.3930     0.7610    -0.2740 C.ar  1 <1>  -0.0090 
  6 C       -2.6320     0.6230     0.0940 C.3   1 <1>   0.1960 
  7 C        2.3730     0.3160    -1.1570 C.ar  1 <1>  -0.1500 
  8 C        1.6290     1.9410     0.4250 C.ar  1 <1>  -0.1500 
  9 C       -3.6580     1.6120    -0.4560 C.3   1 <1>  -0.1600 
 10 C        3.5480     1.0250    -1.3380 C.ar  1 <1>  -0.1500 
 11 C        2.8000     2.6610     0.2540 C.ar  1 <1>  -0.1500 
 12 C       -5.0610     1.3250     0.0920 C.3   1 <1>  -0.2400 
 13 C        3.7560     2.1940    -0.6320 C.ar  1 <1>   0.1010 
 14 S        5.3070     3.0630    -0.9210 S.3   1 <1>  -0.3310 
 15 C        5.2900     4.5580     0.1630 C.3   1 <1>  -0.0100 
 16 H       -1.4010     0.8560    -1.4610 H     1 <1>   0.4200 
 17 H       -2.6030     0.6890     1.1700 H     1 <1>   0.0800 
 18 H       -2.9030    -0.3840    -0.1820 H     1 <1>   0.0800 
 19 H        2.2160    -0.5960    -1.7090 H     1 <1>   0.1500 
 20 H        0.8810     2.2990     1.1130 H     1 <1>   0.1500 
 21 H       -3.6830     1.5480    -1.5300 H     1 <1>   0.0800 
 22 H       -3.3710     2.6120    -0.1780 H     1 <1>   0.0800 
 23 H        4.3020     0.6760    -2.0220 H     1 <1>   0.1500 
 24 H        2.9470     3.5660     0.8090 H     1 <1>   0.1500 
 25 H       -5.3810     0.3360    -0.1860 H     1 <1>   0.0800 
 26 H       -5.7640     2.0360    -0.3060 H     1 <1>   0.0800 
 27 H       -5.0690     1.4030     1.1660 H     1 <1>   0.0800 
 28 H        6.2140     5.0850     0.0020 H     1 <1>   0.0800 
 29 H        5.2120     4.2290     1.1830 H     1 <1>   0.0800 
 30 H        4.4510     5.1660    -0.1220 H     1 <1>   0.0800 
@<TRIPOS>BOND
  1   1   2  2   
  2   1   3  2   
  3   1   4  am  
  4   1   5  1   
  5   4   6  1   
  6   4  16  1   
  7   5   7  ar  
  8   5   8  ar  
  9   6   9  1   
 10   6  17  1   
 11   6  18  1   
 12   7  10  ar  
 13   7  19  1   
 14   8  11  ar  
 15   8  20  1   
 16   9  12  1   
 17   9  21  1   
 18   9  22  1   
 19  10  13  ar  
 20  10  23  1   
 21  11  13  ar  
 22  11  24  1   
 23  12  25  1   
 24  12  26  1   
 25  12  27  1   
 26  13  14  1   
 27  14  15  1   
 28  15  28  1   
 29  15  29  1   
 30  15  30  1   
@<TRIPOS>SUBSTRUCTURE
  1 ****   5 GROUP 4 **** **** 0

# MOE 2024.06 (io_trps.svl 2023.06)
