@<TRIPOS>MOLECULE
NONAME
45 46 1 0 0 
SMALL
USER_CHARGES


@<TRIPOS>ATOM
  1 O       -0.0610     1.4090    -2.6450 O.2   1 <1>  -0.5700 
  2 C       -0.0530     2.0090    -1.5990 C.2   1 <1>   0.5690 
  3 N       -1.1360     2.0610    -0.7900 N.am  1 <1>  -0.7300 
  4 C        1.2050     2.7350    -1.1670 C.3   1 <1>  -0.0990 
  5 C       -2.4430     1.4850    -1.1100 C.3   1 <1>   0.3640 
  6 C        1.9550     1.9740    -0.0600 C.3   1 <1>  -0.1600 
  7 C       -3.5140     2.3480    -0.4510 C.ar  1 <1>  -0.1440 
  8 C       -2.4830     0.0400    -0.6190 C.3   1 <1>  -0.2400 
  9 C        3.2000     2.7300     0.4310 C.3   1 <1>  -0.0800 
 10 C       -4.4140     3.0480    -1.2420 C.ar  1 <1>  -0.1500 
 11 C       -3.6060     2.4600     0.9310 C.ar  1 <1>  -0.1500 
 12 C        4.2830     2.9090    -0.6320 C.3   1 <1>  -0.1600 
 13 C        3.9250     1.9930     1.5530 C.3   1 <1>  -0.1600 
 14 C       -5.3910     3.8440    -0.6690 C.ar  1 <1>  -0.1500 
 15 C       -4.5820     3.2540     1.5060 C.ar  1 <1>  -0.1500 
 16 C        5.5880     3.1070     0.1450 C.3   1 <1>  -0.1600 
 17 C        5.3310     2.5920     1.5660 C.3   1 <1>  -0.1600 
 18 C       -5.4790     3.9510     0.7150 C.ar  1 <1>   0.0820 
 19 O       -6.4040     4.7070     1.3590 O.3   1 <1>  -0.3620 
 20 C       -7.3670     5.4500     0.6460 C.3   1 <1>   0.0400 
 21 H       -1.1280     2.6310     0.0540 H     1 <1>   0.3700 
 22 H        0.9370     3.7170    -0.8240 H     1 <1>   0.0800 
 23 H        1.8380     2.8470    -2.0280 H     1 <1>   0.0800 
 24 H       -2.5780     1.4910    -2.1790 H     1 <1>   0.0800 
 25 H        2.2410     1.0050    -0.4330 H     1 <1>   0.0800 
 26 H        1.2930     1.8190     0.7740 H     1 <1>   0.0800 
 27 H       -2.2720    -0.0200     0.4320 H     1 <1>   0.0800 
 28 H       -1.7600    -0.5450    -1.1590 H     1 <1>   0.0800 
 29 H       -3.4580    -0.3740    -0.8000 H     1 <1>   0.0800 
 30 H        2.9130     3.7020     0.7970 H     1 <1>   0.0800 
 31 H       -4.3560     2.9780    -2.3150 H     1 <1>   0.1500 
 32 H       -2.9220     1.9290     1.5690 H     1 <1>   0.1500 
 33 H        4.0780     3.7420    -1.2810 H     1 <1>   0.0800 
 34 H        4.3620     2.0130    -1.2260 H     1 <1>   0.0800 
 35 H        3.9920     0.9440     1.3180 H     1 <1>   0.0800 
 36 H        3.4290     2.1110     2.5010 H     1 <1>   0.0800 
 37 H       -6.0690     4.3700    -1.3130 H     1 <1>   0.1500 
 38 H       -4.6550     3.3400     2.5750 H     1 <1>   0.1500 
 39 H        5.8450     4.1520     0.1790 H     1 <1>   0.0800 
 40 H        6.3920     2.5660    -0.3250 H     1 <1>   0.0800 
 41 H        6.0630     1.8600     1.8620 H     1 <1>   0.0800 
 42 H        5.3650     3.4180     2.2560 H     1 <1>   0.0800 
 43 H       -7.9850     5.9650     1.3590 H     1 <1>   0.0800 
 44 H       -7.9670     4.7750     0.0620 H     1 <1>   0.0800 
 45 H       -6.8630     6.1630     0.0180 H     1 <1>   0.0800 
@<TRIPOS>BOND
  1   1   2  2   
  2   2   3  am  
  3   2   4  1   
  4   3   5  1   
  5   3  21  1   
  6   4   6  1   
  7   4  22  1   
  8   4  23  1   
  9   5   7  1   
 10   5   8  1   
 11   5  24  1   
 12   6   9  1   
 13   6  25  1   
 14   6  26  1   
 15   7  10  ar  
 16   7  11  ar  
 17   8  27  1   
 18   8  28  1   
 19   8  29  1   
 20   9  12  1   
 21   9  13  1   
 22   9  30  1   
 23  10  14  ar  
 24  10  31  1   
 25  11  15  ar  
 26  11  32  1   
 27  12  16  1   
 28  12  33  1   
 29  12  34  1   
 30  13  17  1   
 31  13  35  1   
 32  13  36  1   
 33  14  18  ar  
 34  14  37  1   
 35  15  18  ar  
 36  15  38  1   
 37  16  17  1   
 38  16  39  1   
 39  16  40  1   
 40  17  41  1   
 41  17  42  1   
 42  18  19  1   
 43  19  20  1   
 44  20  43  1   
 45  20  44  1   
 46  20  45  1   
@<TRIPOS>SUBSTRUCTURE
  1 ****   3 GROUP 4 **** **** 0

# MOE 2024.06 (io_trps.svl 2023.06)
