@<TRIPOS>MOLECULE
NONAME
37 38 1 0 0 
SMALL
USER_CHARGES


@<TRIPOS>ATOM
  1 S       -0.0140     0.4320     0.4390 S.o2  1 <1>   1.4470 
  2 O        0.1160     0.9030     1.8020 O.2   1 <1>  -0.6500 
  3 O        0.1220     1.3550    -0.6660 O.2   1 <1>  -0.6500 
  4 N        1.2670    -0.6180     0.1630 N.am  1 <1>  -0.9140 
  5 C       -1.4870    -0.6100     0.2630 C.ar  1 <1>  -0.0090 
  6 C        2.4450    -0.3920     0.9740 C.3   1 <1>   0.2760 
  7 C       -2.7450    -0.0210     0.1840 C.ar  1 <1>   0.0830 
  8 C       -1.4090    -2.0000     0.2220 C.ar  1 <1>  -0.1500 
  9 C        3.1960     0.8540     0.5090 C.3   1 <1>  -0.1600 
 10 C        3.4350    -1.5070     0.6560 C.3   1 <1>  -0.1600 
 11 O       -2.8040     1.3320     0.2460 O.3   1 <1>  -0.3630 
 12 C       -3.8860    -0.8100     0.0510 C.ar  1 <1>  -0.1500 
 13 C       -2.5390    -2.7900     0.0890 C.ar  1 <1>  -0.1430 
 14 C        3.9690     0.4330    -0.7450 C.3   1 <1>  -0.1600 
 15 C        4.1420    -1.0880    -0.6390 C.3   1 <1>  -0.1600 
 16 C       -4.0180     2.0440     0.1570 C.3   1 <1>   0.0400 
 17 C       -3.7800    -2.1860     0.0030 C.ar  1 <1>  -0.1500 
 18 C       -2.4170    -4.3030     0.0460 C.3   1 <1>  -0.0970 
 19 H        1.5460    -0.3890    -0.7880 H     1 <1>   0.4200 
 20 H        2.1990    -0.3710     2.0240 H     1 <1>   0.0800 
 21 H       -0.4490    -2.4790     0.2990 H     1 <1>   0.1500 
 22 H        3.9030     1.1210     1.2750 H     1 <1>   0.0800 
 23 H        2.5600     1.7050     0.3400 H     1 <1>   0.0800 
 24 H        2.9560    -2.4670     0.5770 H     1 <1>   0.0800 
 25 H        4.1600    -1.5510     1.4500 H     1 <1>   0.0800 
 26 H       -4.8640    -0.3720    -0.0150 H     1 <1>   0.1500 
 27 H        4.9180     0.9370    -0.8000 H     1 <1>   0.0800 
 28 H        3.3970     0.6750    -1.6250 H     1 <1>   0.0800 
 29 H        3.6760    -1.5660    -1.4840 H     1 <1>   0.0800 
 30 H        5.1820    -1.3640    -0.6140 H     1 <1>   0.0800 
 31 H       -3.7930     3.0930     0.2240 H     1 <1>   0.0800 
 32 H       -4.6540     1.7540     0.9750 H     1 <1>   0.0800 
 33 H       -4.4800     1.8290    -0.7900 H     1 <1>   0.0800 
 34 H       -4.6680    -2.7860    -0.0980 H     1 <1>   0.1500 
 35 H       -1.4770    -4.5930    -0.3890 H     1 <1>   0.0800 
 36 H       -3.2080    -4.7280    -0.5460 H     1 <1>   0.0800 
 37 H       -2.4760    -4.7010     1.0430 H     1 <1>   0.0800 
@<TRIPOS>BOND
  1   1   2  2   
  2   1   3  2   
  3   1   4  am  
  4   1   5  1   
  5   4   6  1   
  6   4  19  1   
  7   5   7  ar  
  8   5   8  ar  
  9   6   9  1   
 10   6  10  1   
 11   6  20  1   
 12   7  11  1   
 13   7  12  ar  
 14   8  13  ar  
 15   8  21  1   
 16   9  14  1   
 17   9  22  1   
 18   9  23  1   
 19  10  15  1   
 20  10  24  1   
 21  10  25  1   
 22  11  16  1   
 23  12  17  ar  
 24  12  26  1   
 25  13  17  ar  
 26  13  18  1   
 27  14  15  1   
 28  14  27  1   
 29  14  28  1   
 30  15  29  1   
 31  15  30  1   
 32  16  31  1   
 33  16  32  1   
 34  16  33  1   
 35  17  34  1   
 36  18  35  1   
 37  18  36  1   
 38  18  37  1   
@<TRIPOS>SUBSTRUCTURE
  1 ****   1 GROUP 4 **** **** 0

# MOE 2024.06 (io_trps.svl 2023.06)
