@<TRIPOS>MOLECULE
NONAME
41 42 1 0 0 
SMALL
USER_CHARGES


@<TRIPOS>ATOM
  1 CL      -0.0670     0.8050    -0.8950 Cl    1 <1>  -0.1770 
  2 C        1.6310     1.0380    -0.5590 C.ar  1 <1>   0.1770 
  3 C        2.1380     0.6560     0.6680 C.ar  1 <1>  -0.1500 
  4 C        2.4400     1.6000    -1.5270 C.ar  1 <1>  -0.1500 
  5 C        3.4850     0.8370     0.9410 C.ar  1 <1>  -0.1440 
  6 C        3.7860     1.7840    -1.2610 C.ar  1 <1>  -0.1500 
  7 C        4.3150     1.4040    -0.0260 C.ar  1 <1>   0.0830 
  8 C        4.0400     0.4150     2.2940 C.3   1 <1>  -0.0960 
  9 O        5.6280     1.5610     0.2910 O.3   1 <1>  -0.3630 
 10 C        6.5490     2.1150    -0.6120 C.3   1 <1>   0.1200 
 11 C        7.9080     2.1330     0.0870 C.3   1 <1>  -0.1600 
 12 C        8.9780     2.7300    -0.8240 C.3   1 <1>   0.3430 
 13 N       10.3170     2.6450    -0.1780 N.4   1 <1>  -0.9590 
 14 C       10.4570     3.5890     0.9740 C.3   1 <1>   0.3430 
 15 C       11.3990     2.8560    -1.1850 C.3   1 <1>   0.3430 
 16 C       11.8020     3.3630     1.6670 C.3   1 <1>  -0.1600 
 17 C       12.7630     2.6120    -0.5380 C.3   1 <1>  -0.1600 
 18 C       12.9770     3.5050     0.6910 C.3   1 <1>  -0.1600 
 19 H        1.4760     0.2220     1.3940 H     1 <1>   0.1500 
 20 H        2.0170     1.8880    -2.4730 H     1 <1>   0.1500 
 21 H        4.3960     2.2230    -2.0260 H     1 <1>   0.1500 
 22 H        3.2710    -0.0050     2.9160 H     1 <1>   0.0800 
 23 H        4.4610     1.2670     2.7970 H     1 <1>   0.0800 
 24 H        4.8100    -0.3230     2.1580 H     1 <1>   0.0800 
 25 H        6.2220     3.1120    -0.8570 H     1 <1>   0.0800 
 26 H        6.5700     1.4970    -1.4930 H     1 <1>   0.0800 
 27 H        8.1700     1.1220     0.3420 H     1 <1>   0.0800 
 28 H        7.8110     2.7180     0.9840 H     1 <1>   0.0800 
 29 H        8.7410     3.7570    -1.0510 H     1 <1>   0.0800 
 30 H        8.9920     2.1750    -1.7490 H     1 <1>   0.0800 
 31 H       10.4360     1.6930     0.1950 H     1 <1>   0.4500 
 32 H        9.6630     3.4320     1.6860 H     1 <1>   0.0800 
 33 H       10.4000     4.6060     0.6220 H     1 <1>   0.0800 
 34 H       11.3560     3.8650    -1.5620 H     1 <1>   0.0800 
 35 H       11.2720     2.1780    -2.0140 H     1 <1>   0.0800 
 36 H       11.8130     2.3850     2.1170 H     1 <1>   0.0800 
 37 H       11.9130     4.0810     2.4620 H     1 <1>   0.0800 
 38 H       13.5360     2.8120    -1.2600 H     1 <1>   0.0800 
 39 H       12.8480     1.5760    -0.2580 H     1 <1>   0.0800 
 40 H       13.8970     3.2370     1.1840 H     1 <1>   0.0800 
 41 H       13.0620     4.5330     0.3780 H     1 <1>   0.0800 
@<TRIPOS>BOND
  1   1   2  1   
  2   2   3  ar  
  3   2   4  ar  
  4   3   5  ar  
  5   3  19  1   
  6   4   6  ar  
  7   4  20  1   
  8   5   7  ar  
  9   5   8  1   
 10   6   7  ar  
 11   6  21  1   
 12   7   9  1   
 13   8  22  1   
 14   8  23  1   
 15   8  24  1   
 16   9  10  1   
 17  10  11  1   
 18  10  25  1   
 19  10  26  1   
 20  11  12  1   
 21  11  27  1   
 22  11  28  1   
 23  12  13  1   
 24  12  29  1   
 25  12  30  1   
 26  13  14  1   
 27  13  15  1   
 28  13  31  1   
 29  14  16  1   
 30  14  32  1   
 31  14  33  1   
 32  15  17  1   
 33  15  34  1   
 34  15  35  1   
 35  16  18  1   
 36  16  36  1   
 37  16  37  1   
 38  17  18  1   
 39  17  38  1   
 40  17  39  1   
 41  18  40  1   
 42  18  41  1   
@<TRIPOS>SUBSTRUCTURE
  1 ****  10 GROUP 4 **** **** 0

# MOE 2024.06 (io_trps.svl 2023.06)
