@<TRIPOS>MOLECULE
NONAME
39 41 1 0 0 
SMALL
USER_CHARGES


@<TRIPOS>ATOM
  1 N        1.2700     0.8980    -1.3290 N.ar  1 <1>  -0.6200 
  2 C        1.4760     0.8950    -0.0190 C.ar  1 <1>   0.4100 
  3 C        0.1880     1.5460    -1.7340 C.ar  1 <1>   0.1600 
  4 N        2.6000     0.2260     0.4150 N.pl3 1 <1>  -0.8380 
  5 C        0.6380     1.5170     0.9000 C.ar  1 <1>  -0.1500 
  6 C       -0.7040     2.1950    -0.8980 C.ar  1 <1>  -0.1500 
  7 C        3.8800     0.8980     0.0400 C.3   1 <1>   0.2090 
  8 C        2.5820    -1.2390     0.1260 C.3   1 <1>   0.2090 
  9 C       -0.4810     2.1860     0.4640 C.ar  1 <1>  -0.1500 
 10 C        5.1000     0.1690     0.6360 C.3   1 <1>   0.3430 
 11 C        3.8110    -1.9520     0.7250 C.3   1 <1>   0.3430 
 12 N        5.1070    -1.3050     0.3110 N.4   1 <1>  -0.9590 
 13 C        6.2880    -1.9960     0.8930 C.3   1 <1>   0.4860 
 14 C        7.5440    -1.3870     0.3030 C.ar  1 <1>  -0.1430 
 15 C        8.3430    -0.5540     1.0740 C.ar  1 <1>  -0.1500 
 16 C        7.9020    -1.6500    -1.0120 C.ar  1 <1>  -0.1500 
 17 C        9.4800     0.0190     0.5320 C.ar  1 <1>  -0.1500 
 18 C        9.0390    -1.0760    -1.5530 C.ar  1 <1>  -0.1500 
 19 C        9.8270    -0.2400    -0.7820 C.ar  1 <1>  -0.1500 
 20 H        0.0010     1.5620    -2.7940 H     1 <1>   0.1500 
 21 H        0.8790     1.4660     1.9440 H     1 <1>   0.1500 
 22 H       -1.5610     2.6990    -1.3080 H     1 <1>   0.1500 
 23 H        3.8630     1.9140     0.3970 H     1 <1>   0.0800 
 24 H        3.9680     0.9320    -1.0330 H     1 <1>   0.0800 
 25 H        2.5560    -1.3960    -0.9390 H     1 <1>   0.0800 
 26 H        1.6840    -1.6670     0.5400 H     1 <1>   0.0800 
 27 H       -1.1520     2.6790     1.1480 H     1 <1>   0.1500 
 28 H        5.0820     0.3040     1.7050 H     1 <1>   0.0800 
 29 H        5.9980     0.6330     0.2600 H     1 <1>   0.0800 
 30 H        3.7990    -2.9840     0.4170 H     1 <1>   0.0800 
 31 H        3.7210    -1.9240     1.7980 H     1 <1>   0.0800 
 32 H        5.1910    -1.3730    -0.7110 H     1 <1>   0.4500 
 33 H        6.2590    -3.0470     0.6570 H     1 <1>   0.0800 
 34 H        6.2940    -1.8860     1.9650 H     1 <1>   0.0800 
 35 H        8.0980    -0.3420     2.1010 H     1 <1>   0.1500 
 36 H        7.3120    -2.3040    -1.6310 H     1 <1>   0.1500 
 37 H       10.1020     0.6640     1.1300 H     1 <1>   0.1500 
 38 H        9.3180    -1.2790    -2.5730 H     1 <1>   0.1500 
 39 H       10.7130     0.2050    -1.2030 H     1 <1>   0.1500 
@<TRIPOS>BOND
  1   1   2  ar  
  2   1   3  ar  
  3   2   4  1   
  4   2   5  ar  
  5   3   6  ar  
  6   3  20  1   
  7   4   7  1   
  8   4   8  1   
  9   5   9  ar  
 10   5  21  1   
 11   6   9  ar  
 12   6  22  1   
 13   7  10  1   
 14   7  23  1   
 15   7  24  1   
 16   8  11  1   
 17   8  25  1   
 18   8  26  1   
 19   9  27  1   
 20  10  12  1   
 21  10  28  1   
 22  10  29  1   
 23  11  12  1   
 24  11  30  1   
 25  11  31  1   
 26  12  13  1   
 27  12  32  1   
 28  13  14  1   
 29  13  33  1   
 30  13  34  1   
 31  14  15  ar  
 32  14  16  ar  
 33  15  17  ar  
 34  15  35  1   
 35  16  18  ar  
 36  16  36  1   
 37  17  19  ar  
 38  17  37  1   
 39  18  19  ar  
 40  18  38  1   
 41  19  39  1   
@<TRIPOS>SUBSTRUCTURE
  1 ****  10 GROUP 4 **** **** 0

# MOE 2024.06 (io_trps.svl 2023.06)
