@<TRIPOS>MOLECULE
NONAME
37 38 1 0 0 
SMALL
USER_CHARGES


@<TRIPOS>ATOM
  1 S       -0.5240    -0.0320     0.3370 S.3   1 <1>  -0.3320 
  2 C        1.2730    -0.0380     0.4030 C.ar  1 <1>   0.1020 
  3 C       -0.9160     1.4430    -0.7270 C.3   1 <1>   0.2110 
  4 C        1.9860     1.1330     0.1530 C.ar  1 <1>   0.1170 
  5 C        1.9040    -1.2260     0.7170 C.ar  1 <1>  -0.1500 
  6 C        0.0530     2.5950    -0.4290 C.2   1 <1>   0.5690 
  7 C       -2.3920     1.7960    -0.5030 C.3   1 <1>  -0.0990 
  8 N        1.3560     2.3550    -0.1230 N.am  1 <1>  -0.5470 
  9 C        3.3730     1.0730     0.2150 C.ar  1 <1>  -0.1500 
 10 C        3.2870    -1.2630     0.7750 C.ar  1 <1>  -0.1500 
 11 O       -0.3250     3.7380    -0.5000 O.2   1 <1>  -0.5700 
 12 C       -3.2850     0.7090    -1.0440 C.2   1 <1>   0.5690 
 13 C        4.0190    -0.1140     0.5220 C.ar  1 <1>  -0.1500 
 14 O       -3.4360     0.6330    -2.2380 O.2   1 <1>  -0.5700 
 15 N       -3.8810    -0.1460    -0.1760 N.am  1 <1>  -0.7300 
 16 C       -4.7790    -1.2570    -0.5620 C.3   1 <1>   0.1400 
 17 C       -6.0230    -1.2890     0.3410 C.3   1 <1>  -0.0800 
 18 C       -6.8880    -2.5100     0.0000 C.3   1 <1>  -0.2400 
 19 C       -6.8650    -0.0110     0.2040 C.3   1 <1>  -0.2400 
 20 H       -0.7650     1.1290    -1.7440 H     1 <1>   0.0800 
 21 H        1.3220    -2.1090     0.9110 H     1 <1>   0.1500 
 22 H       -2.6290     2.7010    -1.0320 H     1 <1>   0.0800 
 23 H       -2.5810     1.9620     0.5410 H     1 <1>   0.0800 
 24 H        1.9100     3.2050    -0.0230 H     1 <1>   0.3700 
 25 H        3.9550     1.9570     0.0250 H     1 <1>   0.1500 
 26 H        3.7920    -2.1840     1.0150 H     1 <1>   0.1500 
 27 H        5.0940    -0.1460     0.5660 H     1 <1>   0.1500 
 28 H       -3.6470    -0.0960     0.8160 H     1 <1>   0.3700 
 29 H       -4.2380    -2.1840    -0.4730 H     1 <1>   0.0800 
 30 H       -5.0780    -1.1440    -1.5910 H     1 <1>   0.0800 
 31 H       -5.7000    -1.3880     1.3640 H     1 <1>   0.0800 
 32 H       -7.2360    -2.4550    -1.0170 H     1 <1>   0.0800 
 33 H       -7.7420    -2.5570     0.6520 H     1 <1>   0.0800 
 34 H       -6.3220    -3.4170     0.1210 H     1 <1>   0.0800 
 35 H       -7.1780     0.1260    -0.8160 H     1 <1>   0.0800 
 36 H       -6.2970     0.8520     0.5020 H     1 <1>   0.0800 
 37 H       -7.7400    -0.0680     0.8280 H     1 <1>   0.0800 
@<TRIPOS>BOND
  1   1   2  1   
  2   1   3  1   
  3   2   4  ar  
  4   2   5  ar  
  5   3   6  1   
  6   3   7  1   
  7   3  20  1   
  8   4   8  1   
  9   4   9  ar  
 10   5  10  ar  
 11   5  21  1   
 12   6   8  am  
 13   6  11  2   
 14   7  12  1   
 15   7  22  1   
 16   7  23  1   
 17   8  24  1   
 18   9  13  ar  
 19   9  25  1   
 20  10  13  ar  
 21  10  26  1   
 22  12  14  2   
 23  12  15  am  
 24  13  27  1   
 25  15  16  1   
 26  15  28  1   
 27  16  17  1   
 28  16  29  1   
 29  16  30  1   
 30  17  18  1   
 31  17  19  1   
 32  17  31  1   
 33  18  32  1   
 34  18  33  1   
 35  18  34  1   
 36  19  35  1   
 37  19  36  1   
 38  19  37  1   
@<TRIPOS>SUBSTRUCTURE
  1 ****   1 GROUP 4 **** **** 0

# MOE 2024.06 (io_trps.svl 2023.06)
