@<TRIPOS>MOLECULE
NONAME
43 44 1 0 0 
SMALL
USER_CHARGES


@<TRIPOS>ATOM
  1 CL       0.1050    -0.3340    -0.6910 Cl    1 <1>  -0.1770 
  2 C       -1.5000    -1.0130    -0.5950 C.ar  1 <1>   0.1770 
  3 C       -1.6620    -2.3830    -0.6560 C.ar  1 <1>  -0.1500 
  4 C       -2.5850    -0.1700    -0.4590 C.ar  1 <1>  -0.1500 
  5 C       -2.9330    -2.9340    -0.5830 C.ar  1 <1>  -0.1440 
  6 C       -3.8560    -0.7100    -0.3810 C.ar  1 <1>  -0.1500 
  7 C       -4.0390    -2.0930    -0.4400 C.ar  1 <1>   0.0830 
  8 C       -3.0680    -4.4510    -0.6560 C.3   1 <1>   0.1220 
  9 O       -5.2680    -2.6690    -0.3620 O.3   1 <1>  -0.3620 
 10 C       -2.7160    -5.0730     0.6850 C.2   1 <1>  -0.2880 
 11 C       -6.4360    -1.9110    -0.1700 C.3   1 <1>   0.1200 
 12 C       -1.7490    -5.9720     0.8910 C.2   1 <1>  -0.3000 
 13 C       -7.6070    -2.8930    -0.1140 C.3   1 <1>  -0.1600 
 14 C       -8.9280    -2.1500     0.0750 C.3   1 <1>   0.3430 
 15 N      -10.0540    -3.1150     0.2200 N.4   1 <1>  -0.9590 
 16 C      -10.3520    -3.8550    -1.0600 C.3   1 <1>   0.3430 
 17 C      -11.2950    -2.4200     0.7150 C.3   1 <1>   0.3430 
 18 C      -11.6030    -4.7460    -0.9250 C.3   1 <1>   0.1200 
 19 C      -12.5010    -3.3780     0.7710 C.3   1 <1>   0.1200 
 20 O      -12.6870    -3.9900    -0.4710 O.3   1 <1>  -0.5600 
 21 H       -0.7950    -3.0110    -0.7560 H     1 <1>   0.1500 
 22 H       -2.4300     0.8930    -0.4140 H     1 <1>   0.1500 
 23 H       -4.6830    -0.0340    -0.2740 H     1 <1>   0.1500 
 24 H       -2.4070    -4.8300    -1.4160 H     1 <1>   0.0800 
 25 H       -4.0650    -4.7400    -0.9320 H     1 <1>   0.0800 
 26 H       -3.3420    -4.7030     1.4800 H     1 <1>   0.1500 
 27 H       -6.5350    -1.2320    -1.0010 H     1 <1>   0.0800 
 28 H       -6.3360    -1.3670     0.7540 H     1 <1>   0.0800 
 29 H       -1.5200    -6.3940     1.8550 H     1 <1>   0.1500 
 30 H       -1.1050    -6.3610     0.1210 H     1 <1>   0.1500 
 31 H       -7.4450    -3.5640     0.7110 H     1 <1>   0.0800 
 32 H       -7.6180    -3.4470    -1.0350 H     1 <1>   0.0800 
 33 H       -9.1070    -1.4980    -0.7650 H     1 <1>   0.0800 
 34 H       -8.8590    -1.5420     0.9640 H     1 <1>   0.0800 
 35 H       -9.7910    -3.8150     0.9270 H     1 <1>   0.4500 
 36 H       -9.5120    -4.4700    -1.3380 H     1 <1>   0.0800 
 37 H      -10.5250    -3.1500    -1.8570 H     1 <1>   0.0800 
 38 H      -11.5450    -1.6050     0.0550 H     1 <1>   0.0800 
 39 H      -11.1230    -2.0090     1.6970 H     1 <1>   0.0800 
 40 H      -11.4330    -5.5580    -0.2390 H     1 <1>   0.0800 
 41 H      -11.8700    -5.1570    -1.8830 H     1 <1>   0.0800 
 42 H      -13.3980    -2.8310     1.0030 H     1 <1>   0.0800 
 43 H      -12.3620    -4.1400     1.5180 H     1 <1>   0.0800 
@<TRIPOS>BOND
  1   1   2  1   
  2   2   3  ar  
  3   2   4  ar  
  4   3   5  ar  
  5   3  21  1   
  6   4   6  ar  
  7   4  22  1   
  8   5   7  ar  
  9   5   8  1   
 10   6   7  ar  
 11   6  23  1   
 12   7   9  1   
 13   8  10  1   
 14   8  24  1   
 15   8  25  1   
 16   9  11  1   
 17  10  12  2   
 18  10  26  1   
 19  11  13  1   
 20  11  27  1   
 21  11  28  1   
 22  12  29  1   
 23  12  30  1   
 24  13  14  1   
 25  13  31  1   
 26  13  32  1   
 27  14  15  1   
 28  14  33  1   
 29  14  34  1   
 30  15  16  1   
 31  15  17  1   
 32  15  35  1   
 33  16  18  1   
 34  16  36  1   
 35  16  37  1   
 36  17  19  1   
 37  17  38  1   
 38  17  39  1   
 39  18  20  1   
 40  18  40  1   
 41  18  41  1   
 42  19  20  1   
 43  19  42  1   
 44  19  43  1   
@<TRIPOS>SUBSTRUCTURE
  1 ****   9 GROUP 4 **** **** 0

# MOE 2024.06 (io_trps.svl 2023.06)
