@<TRIPOS>MOLECULE
NONAME
29 29 1 0 0 
SMALL
USER_CHARGES


@<TRIPOS>ATOM
  1 S        0.1410    -2.0290     0.3860 S.3   1 <1>  -0.4600 
  2 C        0.8300    -0.5380    -0.4330 C.3   1 <1>   0.1310 
  3 C       -1.6490    -1.7510     0.3200 C.3   1 <1>  -0.0100 
  4 C        2.3530    -0.5600    -0.4980 C.2   1 <1>   0.5690 
  5 O        2.9000     0.3470    -1.0770 O.2   1 <1>  -0.5700 
  6 N        3.0090    -1.6030     0.0970 N.am  1 <1>  -0.5470 
  7 C        4.3620    -1.9560     0.2310 C.ar  1 <1>   0.1170 
  8 C        4.6850    -3.2180     0.7360 C.ar  1 <1>  -0.1430 
  9 C        5.3970    -1.0900    -0.1120 C.ar  1 <1>  -0.1500 
 10 C        6.0140    -3.5830     0.8820 C.ar  1 <1>  -0.1500 
 11 C        3.6010    -4.2140     1.1320 C.3   1 <1>  -0.0970 
 12 C        6.7230    -1.4580     0.0320 C.ar  1 <1>  -0.1430 
 13 C        7.0280    -2.7100     0.5330 C.ar  1 <1>  -0.1500 
 14 C        7.8350    -0.4970    -0.3500 C.3   1 <1>  -0.0970 
 15 H        0.5020     0.3170     0.1280 H     1 <1>   0.0800 
 16 H        0.4240    -0.5000    -1.4260 H     1 <1>   0.0800 
 17 H       -2.1290    -2.5930     0.7860 H     1 <1>   0.0800 
 18 H       -1.9380    -1.6720    -0.7130 H     1 <1>   0.0800 
 19 H       -1.8670    -0.8440     0.8550 H     1 <1>   0.0800 
 20 H        2.3650    -2.2840     0.5040 H     1 <1>   0.3700 
 21 H        5.1690    -0.1140    -0.4940 H     1 <1>   0.1500 
 22 H        6.2720    -4.5530     1.2690 H     1 <1>   0.1500 
 23 H        2.9680    -4.4260     0.2880 H     1 <1>   0.0800 
 24 H        3.0030    -3.8110     1.9300 H     1 <1>   0.0800 
 25 H        4.0310    -5.1390     1.4690 H     1 <1>   0.0800 
 26 H        8.0540    -3.0100     0.6530 H     1 <1>   0.1500 
 27 H        7.4710     0.2510    -1.0310 H     1 <1>   0.0800 
 28 H        8.6380    -1.0290    -0.8280 H     1 <1>   0.0800 
 29 H        8.2130    -0.0100     0.5310 H     1 <1>   0.0800 
@<TRIPOS>BOND
  1   1   2  1   
  2   1   3  1   
  3   2   4  1   
  4   2  15  1   
  5   2  16  1   
  6   3  17  1   
  7   3  18  1   
  8   3  19  1   
  9   4   5  2   
 10   4   6  am  
 11   6   7  1   
 12   6  20  1   
 13   7   8  ar  
 14   7   9  ar  
 15   8  10  ar  
 16   8  11  1   
 17   9  12  ar  
 18   9  21  1   
 19  10  13  ar  
 20  10  22  1   
 21  11  23  1   
 22  11  24  1   
 23  11  25  1   
 24  12  13  ar  
 25  12  14  1   
 26  13  26  1   
 27  14  27  1   
 28  14  28  1   
 29  14  29  1   
@<TRIPOS>SUBSTRUCTURE
  1 ****   7 GROUP 4 **** **** 0

# MOE 2024.06 (io_trps.svl 2023.06)
