@<TRIPOS>MOLECULE
NONAME
53 55 1 0 0 
SMALL
USER_CHARGES


@<TRIPOS>ATOM
  1 CL       5.3750    -1.4810    -4.1940 Cl    1 <1>  -0.1770 
  2 C        4.6610    -1.4730    -2.6040 C.ar  1 <1>   0.1770 
  3 C        5.3280    -0.8390    -1.5720 C.ar  1 <1>  -0.1500 
  4 C        3.4480    -2.1000    -2.3980 C.ar  1 <1>  -0.1500 
  5 C        4.7750    -0.8360    -0.2980 C.ar  1 <1>  -0.1440 
  6 C        2.8910    -2.0910    -1.1310 C.ar  1 <1>  -0.1500 
  7 C        3.5520    -1.4610    -0.0870 C.ar  1 <1>  -0.1500 
  8 C        5.5040    -0.1650     0.8510 C.3   1 <1>   0.4870 
  9 N        6.7080    -0.9680     1.1850 N.4   1 <1>  -0.9590 
 10 C        6.4140    -2.3920     1.5630 C.3   1 <1>   0.3430 
 11 C        7.6190    -0.3260     2.1850 C.3   1 <1>   0.3430 
 12 C        7.7210    -3.1880     1.8090 C.3   1 <1>   0.1100 
 13 C        8.9310    -1.1340     2.3290 C.3   1 <1>   0.1100 
 14 N        8.9340    -2.3850     1.5200 N.3   1 <1>  -0.8100 
 15 C       10.1770    -3.1750     1.7730 C.3   1 <1>   0.1710 
 16 C       11.4820    -2.4280     1.4720 C.2   1 <1>   0.5690 
 17 O       12.0550    -1.8780     2.3820 O.2   1 <1>  -0.5700 
 18 N       11.9510    -2.3880     0.1960 N.am  1 <1>  -0.7300 
 19 C       13.1970    -1.7010    -0.2270 C.3   1 <1>   0.1400 
 20 C       14.3270    -2.7180    -0.3860 C.3   1 <1>  -0.0170 
 21 C       15.5920    -2.0240    -0.8640 C.ar  1 <1>  -0.1430 
 22 C       16.4360    -1.4110     0.0500 C.ar  1 <1>  -0.1500 
 23 C       15.9140    -1.9940    -2.2120 C.ar  1 <1>  -0.1500 
 24 C       17.5870    -0.7730    -0.3790 C.ar  1 <1>  -0.1500 
 25 C       17.0650    -1.3570    -2.6420 C.ar  1 <1>  -0.1500 
 26 C       17.9020    -0.7460    -1.7260 C.ar  1 <1>  -0.1500 
 27 H        6.2660    -0.3590    -1.7870 H     1 <1>   0.1500 
 28 H        2.9490    -2.5850    -3.2190 H     1 <1>   0.1500 
 29 H        1.9420    -2.5720    -0.9610 H     1 <1>   0.1500 
 30 H        3.0930    -1.4640     0.8880 H     1 <1>   0.1500 
 31 H        4.8540    -0.0950     1.7080 H     1 <1>   0.0800 
 32 H        5.7920     0.8310     0.5580 H     1 <1>   0.0800 
 33 H        7.2870    -1.0660     0.3390 H     1 <1>   0.4500 
 34 H        5.8610    -2.8730     0.7730 H     1 <1>   0.0800 
 35 H        5.8070    -2.4230     2.4530 H     1 <1>   0.0800 
 36 H        7.1330    -0.2680     3.1440 H     1 <1>   0.0800 
 37 H        7.8620     0.6780     1.8770 H     1 <1>   0.0800 
 38 H        7.7140    -4.0650     1.1830 H     1 <1>   0.0800 
 39 H        7.7390    -3.5230     2.8330 H     1 <1>   0.0800 
 40 H        9.0890    -1.3670     3.3690 H     1 <1>   0.0800 
 41 H        9.7500    -0.5050     2.0190 H     1 <1>   0.0800 
 42 H       10.1590    -4.0650     1.1700 H     1 <1>   0.0800 
 43 H       10.2060    -3.4820     2.8050 H     1 <1>   0.0800 
 44 H       11.4140    -2.8310    -0.5520 H     1 <1>   0.3700 
 45 H       13.4790    -0.9680     0.5110 H     1 <1>   0.0800 
 46 H       13.0280    -1.1900    -1.1590 H     1 <1>   0.0800 
 47 H       14.0410    -3.4740    -1.0940 H     1 <1>   0.0800 
 48 H       14.5160    -3.1930     0.5610 H     1 <1>   0.0800 
 49 H       16.1990    -1.4260     1.1000 H     1 <1>   0.1500 
 50 H       15.2710    -2.4650    -2.9350 H     1 <1>   0.1500 
 51 H       18.2370    -0.2990     0.3360 H     1 <1>   0.1500 
 52 H       17.3090    -1.3360    -3.6900 H     1 <1>   0.1500 
 53 H       18.7970    -0.2500    -2.0600 H     1 <1>   0.1500 
@<TRIPOS>BOND
  1   1   2  1   
  2   2   3  ar  
  3   2   4  ar  
  4   3   5  ar  
  5   3  27  1   
  6   4   6  ar  
  7   4  28  1   
  8   5   7  ar  
  9   5   8  1   
 10   6   7  ar  
 11   6  29  1   
 12   7  30  1   
 13   8   9  1   
 14   8  31  1   
 15   8  32  1   
 16   9  10  1   
 17   9  11  1   
 18   9  33  1   
 19  10  12  1   
 20  10  34  1   
 21  10  35  1   
 22  11  13  1   
 23  11  36  1   
 24  11  37  1   
 25  12  14  1   
 26  12  38  1   
 27  12  39  1   
 28  13  14  1   
 29  13  40  1   
 30  13  41  1   
 31  14  15  1   
 32  15  16  1   
 33  15  42  1   
 34  15  43  1   
 35  16  17  2   
 36  16  18  am  
 37  18  19  1   
 38  18  44  1   
 39  19  20  1   
 40  19  45  1   
 41  19  46  1   
 42  20  21  1   
 43  20  47  1   
 44  20  48  1   
 45  21  22  ar  
 46  21  23  ar  
 47  22  24  ar  
 48  22  49  1   
 49  23  25  ar  
 50  23  50  1   
 51  24  26  ar  
 52  24  51  1   
 53  25  26  ar  
 54  25  52  1   
 55  26  53  1   
@<TRIPOS>SUBSTRUCTURE
  1 ****  14 GROUP 4 **** **** 0

# MOE 2024.06 (io_trps.svl 2023.06)
