@<TRIPOS>MOLECULE
NONAME
40 41 1 0 0 
SMALL
USER_CHARGES


@<TRIPOS>ATOM
  1 O       -1.1150     0.5570     0.0590 O.2   1 <1>  -0.5700 
  2 C       -1.2300     1.5490    -0.6340 C.2   1 <1>   0.5440 
  3 N       -2.4130     1.7060    -1.3210 N.am  1 <1>  -0.6600 
  4 C       -0.1960     2.5690    -0.6600 C.ar  1 <1>   0.0860 
  5 C       -3.2670     0.5080    -1.5680 C.3   1 <1>   0.1400 
  6 C       -3.2080     2.9490    -1.1190 C.3   1 <1>   0.1400 
  7 C        0.5300     2.8790     0.4870 C.ar  1 <1>  -0.1500 
  8 C        0.0960     3.2850    -1.8220 C.ar  1 <1>  -0.1500 
  9 C       -4.1980     0.2900    -0.3610 C.3   1 <1>   0.3430 
 10 C       -4.1690     2.7580     0.0750 C.3   1 <1>   0.3430 
 11 C        1.4890     3.8750     0.4940 C.ar  1 <1>   0.0830 
 12 C        1.0570     4.2790    -1.8310 C.ar  1 <1>  -0.1500 
 13 N       -5.0220     1.5170    -0.0550 N.4   1 <1>  -0.9590 
 14 O        2.1190     4.1030     1.6710 O.3   1 <1>  -0.3620 
 15 C        1.7540     4.5810    -0.6750 C.ar  1 <1>  -0.1500 
 16 C       -5.8520     1.2950     1.1480 C.3   1 <1>   0.4810 
 17 C        3.1720     5.0360     1.7740 C.3   1 <1>   0.0400 
 18 C       -6.9360     2.3470     1.1430 C.2   1 <1>  -0.2880 
 19 C       -8.2130     2.1350     0.8070 C.2   1 <1>  -0.3000 
 20 H       -2.6440    -0.3610    -1.7030 H     1 <1>   0.0800 
 21 H       -3.8400     0.6460    -2.4680 H     1 <1>   0.0800 
 22 H       -3.7640     3.1730    -2.0130 H     1 <1>   0.0800 
 23 H       -2.5570     3.7830    -0.9200 H     1 <1>   0.0800 
 24 H        0.3460     2.3340     1.3950 H     1 <1>   0.1500 
 25 H       -0.4350     3.0550    -2.7300 H     1 <1>   0.1500 
 26 H       -3.5820     0.0420     0.4890 H     1 <1>   0.0800 
 27 H       -4.8430    -0.5500    -0.5600 H     1 <1>   0.0800 
 28 H       -4.7980     3.6290     0.1610 H     1 <1>   0.0800 
 29 H       -3.5750     2.6900     0.9720 H     1 <1>   0.0800 
 30 H        1.2670     4.8190    -2.7400 H     1 <1>   0.1500 
 31 H       -5.6830     1.6680    -0.8280 H     1 <1>   0.4500 
 32 H        2.4930     5.3590    -0.7040 H     1 <1>   0.1500 
 33 H       -5.2600     1.3530     2.0480 H     1 <1>   0.0800 
 34 H       -6.3100     0.3200     1.0990 H     1 <1>   0.0800 
 35 H        3.5350     5.0190     2.7860 H     1 <1>   0.0800 
 36 H        2.7970     6.0150     1.5360 H     1 <1>   0.0800 
 37 H        3.9600     4.7490     1.0990 H     1 <1>   0.0800 
 38 H       -6.5860     3.3170     1.4530 H     1 <1>   0.1500 
 39 H       -8.9710     2.9030     0.8180 H     1 <1>   0.1500 
 40 H       -8.6270     1.1880     0.4980 H     1 <1>   0.1500 
@<TRIPOS>BOND
  1   1   2  2   
  2   2   3  am  
  3   2   4  1   
  4   3   5  1   
  5   3   6  1   
  6   4   7  ar  
  7   4   8  ar  
  8   5   9  1   
  9   5  20  1   
 10   5  21  1   
 11   6  10  1   
 12   6  22  1   
 13   6  23  1   
 14   7  11  ar  
 15   7  24  1   
 16   8  12  ar  
 17   8  25  1   
 18   9  13  1   
 19   9  26  1   
 20   9  27  1   
 21  10  13  1   
 22  10  28  1   
 23  10  29  1   
 24  11  14  1   
 25  11  15  ar  
 26  12  15  ar  
 27  12  30  1   
 28  13  16  1   
 29  13  31  1   
 30  14  17  1   
 31  15  32  1   
 32  16  18  1   
 33  16  33  1   
 34  16  34  1   
 35  17  35  1   
 36  17  36  1   
 37  17  37  1   
 38  18  19  2   
 39  18  38  1   
 40  19  39  1   
 41  19  40  1   
@<TRIPOS>SUBSTRUCTURE
  1 ****   2 GROUP 4 **** **** 0

# MOE 2024.06 (io_trps.svl 2023.06)
