@<TRIPOS>MOLECULE
NONAME
44 46 1 0 0 
SMALL
USER_CHARGES


@<TRIPOS>ATOM
  1 F       -1.9050     2.9920    -2.0830 F     1 <1>  -0.1900 
  2 C       -2.3750     2.3090    -1.0720 C.ar  1 <1>   0.1900 
  3 C       -1.6990     2.2830     0.1350 C.ar  1 <1>   0.1900 
  4 C       -3.5610     1.6180    -1.2370 C.ar  1 <1>  -0.1500 
  5 F       -0.5790     2.9410     0.2850 F     1 <1>  -0.1900 
  6 C       -2.1980     1.5620     1.2040 C.ar  1 <1>  -0.1500 
  7 C       -4.0780     0.8950    -0.1650 C.ar  1 <1>  -0.1440 
  8 C       -3.3900     0.8680     1.0470 C.ar  1 <1>  -0.1500 
  9 C       -5.3870     0.1380    -0.3170 C.3   1 <1>   0.4870 
 10 N       -6.5080     1.1130    -0.3350 N.4   1 <1>  -0.9590 
 11 C       -6.6200     1.8760     0.9650 C.3   1 <1>   0.3430 
 12 C       -7.8210     0.4520    -0.6750 C.3   1 <1>   0.3430 
 13 C       -7.7830     2.8880     0.9550 C.3   1 <1>   0.2090 
 14 C       -8.9950     1.4520    -0.7010 C.3   1 <1>   0.2090 
 15 N       -9.0650     2.2270     0.5720 N.pl3 1 <1>  -0.8380 
 16 C      -10.1940     3.0520     0.6820 C.ar  1 <1>   0.1000 
 17 C      -10.4250     4.1800    -0.1270 C.ar  1 <1>   0.0830 
 18 C      -11.1300     2.7220     1.6520 C.ar  1 <1>  -0.1500 
 19 O       -9.4940     4.4980    -1.0830 O.3   1 <1>  -0.3620 
 20 C      -11.5800     4.9350     0.0610 C.ar  1 <1>  -0.1500 
 21 C      -12.2730     3.4780     1.8320 C.ar  1 <1>  -0.1500 
 22 C       -9.6560     5.6310    -1.9110 C.3   1 <1>   0.0400 
 23 C      -12.4980     4.5840     1.0360 C.ar  1 <1>  -0.1500 
 24 H       -4.0510     1.6550    -2.1950 H     1 <1>   0.1500 
 25 H       -1.6580     1.5470     2.1360 H     1 <1>   0.1500 
 26 H       -3.7690     0.3030     1.8840 H     1 <1>   0.1500 
 27 H       -5.5100    -0.5550     0.5000 H     1 <1>   0.0800 
 28 H       -5.3680    -0.4220    -1.2380 H     1 <1>   0.0800 
 29 H       -6.3100     1.8090    -1.0650 H     1 <1>   0.4500 
 30 H       -5.7030     2.4050     1.1620 H     1 <1>   0.0800 
 31 H       -6.7870     1.1870     1.7760 H     1 <1>   0.0800 
 32 H       -8.0470    -0.3030     0.0600 H     1 <1>   0.0800 
 33 H       -7.7550    -0.0300    -1.6360 H     1 <1>   0.0800 
 34 H       -7.5600     3.6870     0.2690 H     1 <1>   0.0800 
 35 H       -7.8900     3.3190     1.9360 H     1 <1>   0.0800 
 36 H       -9.9190     0.9160    -0.8350 H     1 <1>   0.0800 
 37 H       -8.8800     2.1220    -1.5350 H     1 <1>   0.0800 
 38 H      -10.9550     1.8620     2.2710 H     1 <1>   0.1500 
 39 H      -11.7920     5.8000    -0.5360 H     1 <1>   0.1500 
 40 H      -12.9860     3.2040     2.5910 H     1 <1>   0.1500 
 41 H       -8.8100     5.6900    -2.5710 H     1 <1>   0.0800 
 42 H       -9.7000     6.5120    -1.2940 H     1 <1>   0.0800 
 43 H      -10.5590     5.5180    -2.4860 H     1 <1>   0.0800 
 44 H      -13.3890     5.1730     1.1750 H     1 <1>   0.1500 
@<TRIPOS>BOND
  1   1   2  1   
  2   2   3  ar  
  3   2   4  ar  
  4   3   5  1   
  5   3   6  ar  
  6   4   7  ar  
  7   4  24  1   
  8   6   8  ar  
  9   6  25  1   
 10   7   8  ar  
 11   7   9  1   
 12   8  26  1   
 13   9  10  1   
 14   9  27  1   
 15   9  28  1   
 16  10  11  1   
 17  10  12  1   
 18  10  29  1   
 19  11  13  1   
 20  11  30  1   
 21  11  31  1   
 22  12  14  1   
 23  12  32  1   
 24  12  33  1   
 25  13  15  1   
 26  13  34  1   
 27  13  35  1   
 28  14  15  1   
 29  14  36  1   
 30  14  37  1   
 31  15  16  1   
 32  16  17  ar  
 33  16  18  ar  
 34  17  19  1   
 35  17  20  ar  
 36  18  21  ar  
 37  18  38  1   
 38  19  22  1   
 39  20  23  ar  
 40  20  39  1   
 41  21  23  ar  
 42  21  40  1   
 43  22  41  1   
 44  22  42  1   
 45  22  43  1   
 46  23  44  1   
@<TRIPOS>SUBSTRUCTURE
  1 ****  11 GROUP 4 **** **** 0

# MOE 2024.06 (io_trps.svl 2023.06)
