@<TRIPOS>MOLECULE
NONAME
42 43 1 0 0 
SMALL
USER_CHARGES


@<TRIPOS>ATOM
  1 O        4.1560    -5.9510     0.5340 O.3   1 <1>  -0.3630 
  2 C        2.9580    -5.3400     0.6880 C.ar  1 <1>   0.0830 
  3 C        5.2440    -5.3050    -0.0870 C.3   1 <1>   0.2580 
  4 C        1.9820    -6.0530     1.3640 C.ar  1 <1>  -0.1500 
  5 C        2.6660    -4.0640     0.2150 C.ar  1 <1>  -0.1500 
  6 C        6.4230    -6.2570    -0.0780 C.2   1 <1>  -0.2880 
  7 C        0.7270    -5.5100     1.5690 C.ar  1 <1>  -0.1500 
  8 C        1.4090    -3.5200     0.4180 C.ar  1 <1>  -0.1500 
  9 C        7.0920    -6.6760    -1.1580 C.2   1 <1>  -0.3000 
 10 C        0.4320    -4.2410     1.0910 C.ar  1 <1>  -0.1430 
 11 C       -0.9460    -3.6560     1.2960 C.3   1 <1>   0.4860 
 12 N       -1.7620    -4.1040     0.1490 N.4   1 <1>  -0.9060 
 13 C       -3.1740    -3.6900     0.1910 C.3   1 <1>   0.4230 
 14 C       -3.9290    -4.4660    -0.8920 C.3   1 <1>  -0.1600 
 15 C       -3.2890    -2.1750    -0.0330 C.3   1 <1>  -0.1600 
 16 C       -5.4010    -4.0350    -0.9600 C.3   1 <1>  -0.1600 
 17 C       -4.7600    -1.7370    -0.1030 C.3   1 <1>  -0.1600 
 18 C       -5.5250    -2.5220    -1.1760 C.3   1 <1>  -0.1600 
 19 H        5.4750    -4.4140     0.4700 H     1 <1>   0.0800 
 20 H        4.9630    -5.0540    -1.0950 H     1 <1>   0.0800 
 21 H        2.2210    -7.0370     1.7300 H     1 <1>   0.1500 
 22 H        3.4030    -3.4840    -0.3080 H     1 <1>   0.1500 
 23 H        6.6740    -6.5760     0.9190 H     1 <1>   0.1500 
 24 H       -0.0040    -6.0920     2.1050 H     1 <1>   0.1500 
 25 H        1.2100    -2.5290     0.0460 H     1 <1>   0.1500 
 26 H        7.9250    -7.3560    -1.1180 H     1 <1>   0.1500 
 27 H        6.8650    -6.3810    -2.1680 H     1 <1>   0.1500 
 28 H       -0.8890    -2.5800     1.3280 H     1 <1>   0.0800 
 29 H       -1.3640    -4.0140     2.2230 H     1 <1>   0.0800 
 30 H       -1.7000    -5.1260     0.1060 H     1 <1>   0.4500 
 31 H       -1.3250    -3.7640    -0.7140 H     1 <1>   0.4500 
 32 H       -3.6020    -3.9380     1.1500 H     1 <1>   0.0800 
 33 H       -3.8920    -5.5210    -0.6840 H     1 <1>   0.0800 
 34 H       -3.4800    -4.2900    -1.8550 H     1 <1>   0.0800 
 35 H       -2.8100    -1.9030    -0.9580 H     1 <1>   0.0800 
 36 H       -2.8190    -1.6370     0.7700 H     1 <1>   0.0800 
 37 H       -5.9040    -4.3060    -0.0460 H     1 <1>   0.0800 
 38 H       -5.8950    -4.5520    -1.7660 H     1 <1>   0.0800 
 39 H       -4.8150    -0.6840    -0.3250 H     1 <1>   0.0800 
 40 H       -5.2320    -1.8910     0.8540 H     1 <1>   0.0800 
 41 H       -6.5650    -2.2400    -1.1530 H     1 <1>   0.0800 
 42 H       -5.1430    -2.2650    -2.1500 H     1 <1>   0.0800 
@<TRIPOS>BOND
  1   1   2  1   
  2   1   3  1   
  3   2   4  ar  
  4   2   5  ar  
  5   3   6  1   
  6   3  19  1   
  7   3  20  1   
  8   4   7  ar  
  9   4  21  1   
 10   5   8  ar  
 11   5  22  1   
 12   6   9  2   
 13   6  23  1   
 14   7  10  ar  
 15   7  24  1   
 16   8  10  ar  
 17   8  25  1   
 18   9  26  1   
 19   9  27  1   
 20  10  11  1   
 21  11  12  1   
 22  11  28  1   
 23  11  29  1   
 24  12  13  1   
 25  12  30  1   
 26  12  31  1   
 27  13  14  1   
 28  13  15  1   
 29  13  32  1   
 30  14  16  1   
 31  14  33  1   
 32  14  34  1   
 33  15  17  1   
 34  15  35  1   
 35  15  36  1   
 36  16  18  1   
 37  16  37  1   
 38  16  38  1   
 39  17  18  1   
 40  17  39  1   
 41  17  40  1   
 42  18  41  1   
 43  18  42  1   
@<TRIPOS>SUBSTRUCTURE
  1 ****  10 GROUP 4 **** **** 0

# MOE 2024.06 (io_trps.svl 2023.06)
