@<TRIPOS>MOLECULE
NONAME
53 57 1 0 0 
SMALL
USER_CHARGES


@<TRIPOS>ATOM
  1 O       -2.7470    -1.8190    -0.9220 O.2   1 <1>  -0.5700 
  2 C       -1.5930    -1.5210    -0.6810 C.2   1 <1>   0.7160 
  3 N       -1.1370    -0.3140    -1.1640 N.am  1 <1>  -0.6600 
  4 C       -0.7770    -2.3560     0.1680 C.2   1 <1>  -0.0860 
  5 C       -1.8530     0.3390    -2.2970 C.3   1 <1>   0.1400 
  6 C       -0.5040     0.6600    -0.2340 C.3   1 <1>   0.1400 
  7 C        0.5700    -2.5740     0.1930 C.2   1 <1>  -0.0400 
  8 C       -1.2730    -3.1620     1.2140 C.2   1 <1>  -0.1500 
  9 C       -2.9330     1.2880    -1.7490 C.3   1 <1>   0.3430 
 10 C       -1.5650     1.6440     0.3020 C.3   1 <1>   0.3430 
 11 O        0.8950    -3.3940     1.1620 O.3   1 <1>  -0.2800 
 12 C        1.6930    -2.0660    -0.6890 C.3   1 <1>  -0.0600 
 13 C       -0.2070    -3.7600     1.7780 C.2   1 <1>  -0.0100 
 14 N       -2.3660     2.3210    -0.7940 N.4   1 <1>  -0.9590 
 15 C       -3.3960     3.2850    -0.2780 C.3   1 <1>   0.5030 
 16 C       -2.7090     4.3570     0.6020 C.3   1 <1>  -0.1600 
 17 C       -4.4850     2.5730     0.5590 C.3   1 <1>  -0.1600 
 18 C       -4.0720     4.0080    -1.4680 C.3   1 <1>  -0.1600 
 19 C       -3.7350     5.3840     1.1130 C.3   1 <1>  -0.0800 
 20 C       -5.5190     3.5970     1.0680 C.3   1 <1>  -0.0800 
 21 C       -5.1070     5.0330    -0.9690 C.3   1 <1>  -0.0800 
 22 C       -4.8100     4.6510     1.9380 C.3   1 <1>  -0.1600 
 23 C       -4.4020     6.0770    -0.0870 C.3   1 <1>  -0.1600 
 24 C       -6.1750     4.3020    -0.1350 C.3   1 <1>  -0.1600 
 25 H       -2.3160    -0.4100    -2.9190 H     1 <1>   0.0800 
 26 H       -1.1520     0.8810    -2.9070 H     1 <1>   0.0800 
 27 H        0.2740     1.1980    -0.7490 H     1 <1>   0.0800 
 28 H       -0.0500     0.1460     0.5960 H     1 <1>   0.0800 
 29 H       -2.3130    -3.2590     1.4740 H     1 <1>   0.1500 
 30 H       -3.6740     0.6900    -1.2440 H     1 <1>   0.0800 
 31 H       -3.4110     1.7710    -2.5830 H     1 <1>   0.0800 
 32 H       -1.0650     2.3830     0.9050 H     1 <1>   0.0800 
 33 H       -2.2330     1.0940     0.9450 H     1 <1>   0.0800 
 34 H        1.3130    -1.4820    -1.5050 H     1 <1>   0.0800 
 35 H        2.2330    -2.9040    -1.0940 H     1 <1>   0.0800 
 36 H        2.3730    -1.4690    -0.1090 H     1 <1>   0.0800 
 37 H       -0.1380    -4.4510     2.6000 H     1 <1>   0.1500 
 38 H       -1.7110     2.8960    -1.3340 H     1 <1>   0.4500 
 39 H       -1.9520     4.8730     0.0380 H     1 <1>   0.0800 
 40 H       -2.2490     3.9160     1.4660 H     1 <1>   0.0800 
 41 H       -4.0520     2.0810     1.4100 H     1 <1>   0.0800 
 42 H       -5.0010     1.8380    -0.0310 H     1 <1>   0.0800 
 43 H       -3.3350     4.5180    -2.0620 H     1 <1>   0.0800 
 44 H       -4.5970     3.3140    -2.0980 H     1 <1>   0.0800 
 45 H       -3.2460     6.1210     1.7290 H     1 <1>   0.0800 
 46 H       -6.2760     3.0970     1.6500 H     1 <1>   0.0800 
 47 H       -5.5750     5.5240    -1.8060 H     1 <1>   0.0800 
 48 H       -4.3630     4.1810     2.7970 H     1 <1>   0.0800 
 49 H       -5.5320     5.3630     2.3040 H     1 <1>   0.0800 
 50 H       -3.6650     6.6120    -0.6620 H     1 <1>   0.0800 
 51 H       -5.1200     6.8000     0.2640 H     1 <1>   0.0800 
 52 H       -6.9070     5.0100     0.2160 H     1 <1>   0.0800 
 53 H       -6.6950     3.5830    -0.7450 H     1 <1>   0.0800 
@<TRIPOS>BOND
  1   1   2  2   
  2   2   3  am  
  3   2   4  1   
  4   3   5  1   
  5   3   6  1   
  6   4   7  2   
  7   4   8  1   
  8   5   9  1   
  9   5  25  1   
 10   5  26  1   
 11   6  10  1   
 12   6  27  1   
 13   6  28  1   
 14   7  11  1   
 15   7  12  1   
 16   8  13  2   
 17   8  29  1   
 18   9  14  1   
 19   9  30  1   
 20   9  31  1   
 21  10  14  1   
 22  10  32  1   
 23  10  33  1   
 24  11  13  1   
 25  12  34  1   
 26  12  35  1   
 27  12  36  1   
 28  13  37  1   
 29  14  15  1   
 30  14  38  1   
 31  15  16  1   
 32  15  17  1   
 33  15  18  1   
 34  16  19  1   
 35  16  39  1   
 36  16  40  1   
 37  17  20  1   
 38  17  41  1   
 39  17  42  1   
 40  18  21  1   
 41  18  43  1   
 42  18  44  1   
 43  19  22  1   
 44  19  23  1   
 45  19  45  1   
 46  20  22  1   
 47  20  24  1   
 48  20  46  1   
 49  21  23  1   
 50  21  24  1   
 51  21  47  1   
 52  22  48  1   
 53  22  49  1   
 54  23  50  1   
 55  23  51  1   
 56  24  52  1   
 57  24  53  1   
@<TRIPOS>SUBSTRUCTURE
  1 ****  10 GROUP 4 **** **** 0

# MOE 2024.06 (io_trps.svl 2023.06)
