@<TRIPOS>MOLECULE
NONAME
50 53 1 0 0 
SMALL
USER_CHARGES


@<TRIPOS>ATOM
  1 BR       1.4220    -1.5500    -1.0940 Br    1 <1>  -0.1110 
  2 C       -0.1140    -2.1050    -0.0690 C.ar  1 <1>   0.1110 
  3 C       -0.3660    -1.5420     1.1750 C.ar  1 <1>   0.0820 
  4 C       -0.9440    -3.0630    -0.6190 C.ar  1 <1>  -0.1500 
  5 O        0.4320    -0.5910     1.7020 O.3   1 <1>  -0.3630 
  6 C       -1.4870    -1.9550     1.8760 C.ar  1 <1>  -0.1500 
  7 C       -2.0700    -3.4690     0.0880 C.ar  1 <1>  -0.1430 
  8 C        1.5470    -1.0470     2.4350 C.3   1 <1>   0.0400 
  9 C       -2.3300    -2.9140     1.3370 C.ar  1 <1>  -0.1500 
 10 C       -3.0150    -4.4960    -0.5080 C.3   1 <1>   0.4870 
 11 N       -4.2640    -3.8090    -0.9200 N.4   1 <1>  -0.9590 
 12 C       -5.3610    -4.7280    -1.3620 C.3   1 <1>   0.3430 
 13 C       -4.0700    -2.6890    -1.9030 C.3   1 <1>   0.3430 
 14 C       -6.6720    -3.9420    -1.6070 C.3   1 <1>   0.1100 
 15 C       -5.3990    -1.9310    -2.1480 C.3   1 <1>   0.1100 
 16 N       -6.5120    -2.4880    -1.3460 N.3   1 <1>  -0.8100 
 17 C       -7.7690    -1.7380    -1.5390 C.3   1 <1>   0.2530 
 18 C       -8.8240    -2.2230    -0.5560 C.ar  1 <1>  -0.1430 
 19 C       -8.5820    -2.1300     0.8110 C.ar  1 <1>  -0.1500 
 20 C      -10.0250    -2.7650    -1.0160 C.ar  1 <1>  -0.1500 
 21 C       -9.5500    -2.5910     1.6800 C.ar  1 <1>   0.0830 
 22 C      -10.9890    -3.2220    -0.1250 C.ar  1 <1>  -0.1500 
 23 O       -9.5250    -2.6060     3.0170 O.3   1 <1>  -0.3620 
 24 C      -10.7210    -3.1220     1.2250 C.ar  1 <1>   0.0830 
 25 C      -10.7690    -3.1630     3.4410 C.3   1 <1>   0.4000 
 26 O      -11.4890    -3.4940     2.2540 O.3   1 <1>  -0.3620 
 27 H       -0.7000    -3.4710    -1.5850 H     1 <1>   0.1500 
 28 H       -1.6920    -1.5190     2.8390 H     1 <1>   0.1500 
 29 H        2.0870    -0.1890     2.7930 H     1 <1>   0.0800 
 30 H        2.1770    -1.6330     1.7900 H     1 <1>   0.0800 
 31 H        1.2020    -1.6390     3.2640 H     1 <1>   0.0800 
 32 H       -3.1920    -3.2180     1.9080 H     1 <1>   0.1500 
 33 H       -3.2330    -5.2510     0.2300 H     1 <1>   0.0800 
 34 H       -2.5540    -4.9710    -1.3590 H     1 <1>   0.0800 
 35 H       -4.6620    -3.3240    -0.1000 H     1 <1>   0.4500 
 36 H       -5.5430    -5.4750    -0.6060 H     1 <1>   0.0800 
 37 H       -5.0780    -5.2380    -2.2680 H     1 <1>   0.0800 
 38 H       -3.7020    -3.0750    -2.8390 H     1 <1>   0.0800 
 39 H       -3.3400    -1.9910    -1.5260 H     1 <1>   0.0800 
 40 H       -7.4320    -4.3470    -0.9600 H     1 <1>   0.0800 
 41 H       -6.9990    -4.1000    -2.6220 H     1 <1>   0.0800 
 42 H       -5.6430    -1.9720    -3.1960 H     1 <1>   0.0800 
 43 H       -5.2560    -0.8950    -1.8890 H     1 <1>   0.0800 
 44 H       -8.1180    -1.8540    -2.5520 H     1 <1>   0.0800 
 45 H       -7.5940    -0.6900    -1.3620 H     1 <1>   0.0800 
 46 H       -7.6690    -1.7140     1.1950 H     1 <1>   0.1500 
 47 H      -10.2200    -2.8350    -2.0720 H     1 <1>   0.1500 
 48 H      -11.9200    -3.6410    -0.4620 H     1 <1>   0.1500 
 49 H      -11.3190    -2.4290     4.0030 H     1 <1>   0.0800 
 50 H      -10.5900    -4.0540     4.0150 H     1 <1>   0.0800 
@<TRIPOS>BOND
  1   1   2  1   
  2   2   3  ar  
  3   2   4  ar  
  4   3   5  1   
  5   3   6  ar  
  6   4   7  ar  
  7   4  27  1   
  8   5   8  1   
  9   6   9  ar  
 10   6  28  1   
 11   7   9  ar  
 12   7  10  1   
 13   8  29  1   
 14   8  30  1   
 15   8  31  1   
 16   9  32  1   
 17  10  11  1   
 18  10  33  1   
 19  10  34  1   
 20  11  12  1   
 21  11  13  1   
 22  11  35  1   
 23  12  14  1   
 24  12  36  1   
 25  12  37  1   
 26  13  15  1   
 27  13  38  1   
 28  13  39  1   
 29  14  16  1   
 30  14  40  1   
 31  14  41  1   
 32  15  16  1   
 33  15  42  1   
 34  15  43  1   
 35  16  17  1   
 36  17  18  1   
 37  17  44  1   
 38  17  45  1   
 39  18  19  ar  
 40  18  20  ar  
 41  19  21  ar  
 42  19  46  1   
 43  20  22  ar  
 44  20  47  1   
 45  21  23  1   
 46  21  24  ar  
 47  22  24  ar  
 48  22  48  1   
 49  23  25  1   
 50  24  26  1   
 51  25  26  1   
 52  25  49  1   
 53  25  50  1   
@<TRIPOS>SUBSTRUCTURE
  1 ****  11 GROUP 4 **** **** 0

# MOE 2024.06 (io_trps.svl 2023.06)
