@<TRIPOS>MOLECULE
NONAME
33 33 1 0 0 
SMALL
USER_CHARGES


@<TRIPOS>ATOM
  1 I        0.0450     0.2840    -1.6980 I     1 <1>  -0.0810 
  2 C       -1.7070    -0.8520    -1.2720 C.ar  1 <1>   0.0810 
  3 C       -2.7500    -0.2410    -0.6030 C.ar  1 <1>  -0.1500 
  4 C       -1.7560    -2.1730    -1.6750 C.ar  1 <1>  -0.1500 
  5 C       -3.8830    -0.9870    -0.3310 C.ar  1 <1>  -0.1500 
  6 C       -2.8990    -2.9030    -1.3940 C.ar  1 <1>  -0.1500 
  7 C       -3.9740    -2.3230    -0.7240 C.ar  1 <1>   0.1170 
  8 N       -5.1000    -3.1140    -0.4510 N.am  1 <1>  -0.5470 
  9 C       -6.4030    -2.7570    -0.2740 C.2   1 <1>   0.6900 
 10 O       -6.7950    -1.6300    -0.4660 O.2   1 <1>  -0.5700 
 11 N       -7.2720    -3.7220     0.1090 N.am  1 <1>  -0.7300 
 12 C       -8.7590    -3.5500     0.4960 C.3   1 <1>   0.3000 
 13 C       -9.2420    -4.8790     1.1600 C.3   1 <1>   1.0200 
 14 C       -9.0120    -2.4410     1.5820 C.3   1 <1>   1.0200 
 15 C       -9.4940    -3.2690    -0.8590 C.3   1 <1>  -0.1600 
 16 F      -10.5420    -4.9870     1.4070 F     1 <1>  -0.3400 
 17 F       -8.6270    -5.1410     2.3070 F     1 <1>  -0.3400 
 18 F       -8.9540    -5.9210     0.3840 F     1 <1>  -0.3400 
 19 F       -8.0800    -2.4320     2.5300 F     1 <1>  -0.3400 
 20 F      -10.1670    -2.5480     2.2280 F     1 <1>  -0.3400 
 21 F       -9.0310    -1.2080     1.0910 F     1 <1>  -0.3400 
 22 C      -11.0180    -3.0380    -0.8290 C.3   1 <1>  -0.2400 
 23 H       -2.6830     0.7900    -0.3020 H     1 <1>   0.1500 
 24 H       -0.9260    -2.6190    -2.1940 H     1 <1>   0.1500 
 25 H       -4.7000    -0.5250     0.1940 H     1 <1>   0.1500 
 26 H       -2.9540    -3.9300    -1.7030 H     1 <1>   0.1500 
 27 H       -4.9340    -4.1130    -0.4830 H     1 <1>   0.3700 
 28 H       -6.8820    -4.6400     0.3310 H     1 <1>   0.3700 
 29 H       -9.2980    -4.0820    -1.5370 H     1 <1>   0.0800 
 30 H       -9.0640    -2.3880    -1.3030 H     1 <1>   0.0800 
 31 H      -11.5560    -3.9270    -0.5510 H     1 <1>   0.0800 
 32 H      -11.3510    -2.7600    -1.8140 H     1 <1>   0.0800 
 33 H      -11.2860    -2.2390    -0.1610 H     1 <1>   0.0800 
@<TRIPOS>BOND
  1   1   2  1   
  2   2   3  ar  
  3   2   4  ar  
  4   3   5  ar  
  5   3  23  1   
  6   4   6  ar  
  7   4  24  1   
  8   5   7  ar  
  9   5  25  1   
 10   6   7  ar  
 11   6  26  1   
 12   7   8  1   
 13   8   9  am  
 14   8  27  1   
 15   9  10  2   
 16   9  11  am  
 17  11  12  1   
 18  11  28  1   
 19  12  13  1   
 20  12  14  1   
 21  12  15  1   
 22  13  16  1   
 23  13  17  1   
 24  13  18  1   
 25  14  19  1   
 26  14  20  1   
 27  14  21  1   
 28  15  22  1   
 29  15  29  1   
 30  15  30  1   
 31  22  31  1   
 32  22  32  1   
 33  22  33  1   
@<TRIPOS>SUBSTRUCTURE
  1 ****   9 GROUP 4 **** **** 0

# MOE 2024.06 (io_trps.svl 2023.06)
