@<TRIPOS>MOLECULE
NONAME
35 36 1 0 0 
SMALL
USER_CHARGES


@<TRIPOS>ATOM
  1 S       -0.2550     0.1180     0.6290 S.o2  1 <1>   1.6260 
  2 O       -1.5880     0.2510     1.1650 O.2   1 <1>  -0.6500 
  3 O        0.6030    -1.0190     0.8590 O.2   1 <1>  -0.6500 
  4 N       -0.2700     0.5120    -0.9940 N.2   1 <1>  -0.6380 
  5 N        0.6190     1.4320     1.1620 N.am  1 <1>  -0.9140 
  6 C        0.0320     1.7150    -1.1220 C.2   1 <1>   0.4390 
  7 C        0.3980     2.4530     0.1760 C.3   1 <1>   0.4800 
  8 N        0.0580     2.3130    -2.3480 N.pl3 1 <1>  -0.8500 
  9 C        1.6650     3.2940     0.0600 C.ar  1 <1>  -0.1430 
 10 C        2.8070     2.7980    -0.5560 C.ar  1 <1>  -0.1500 
 11 C        1.6900     4.5800     0.5750 C.ar  1 <1>  -0.1500 
 12 C        3.9580     3.5620    -0.6580 C.ar  1 <1>   0.0830 
 13 C        2.8270     5.3650     0.4830 C.ar  1 <1>   0.0830 
 14 O        4.9990     2.9590    -1.2950 O.3   1 <1>  -0.3620 
 15 C        3.9860     4.8510    -0.1100 C.ar  1 <1>   0.0830 
 16 O        2.7330     6.6170     1.0050 O.3   1 <1>  -0.3620 
 17 C        5.8530     3.7090    -2.1340 C.3   1 <1>   0.0400 
 18 O        5.1340     5.5810    -0.1120 O.3   1 <1>  -0.3630 
 19 C        3.1400     7.7120     0.2120 C.3   1 <1>   0.0400 
 20 C        5.8710     5.5220     1.0880 C.3   1 <1>   0.0400 
 21 H        1.5760     1.1180     1.0390 H     1 <1>   0.4200 
 22 H       -0.4410     3.0600     0.4730 H     1 <1>   0.0800 
 23 H       -0.1490     1.7550    -3.1800 H     1 <1>   0.4000 
 24 H        0.4410     3.2480    -2.5150 H     1 <1>   0.4000 
 25 H        2.8250     1.8050    -0.9720 H     1 <1>   0.1500 
 26 H        0.8250     4.9950     1.0630 H     1 <1>   0.1500 
 27 H        6.3180     3.0330    -2.8280 H     1 <1>   0.0800 
 28 H        6.6060     4.1830    -1.5320 H     1 <1>   0.0800 
 29 H        5.2730     4.4430    -2.6650 H     1 <1>   0.0800 
 30 H        2.6520     8.5950     0.5840 H     1 <1>   0.0800 
 31 H        2.8550     7.5350    -0.8100 H     1 <1>   0.0800 
 32 H        4.2050     7.8300     0.2920 H     1 <1>   0.0800 
 33 H        6.7540     6.1230     0.9720 H     1 <1>   0.0800 
 34 H        6.1420     4.4980     1.2790 H     1 <1>   0.0800 
 35 H        5.2650     5.9060     1.8900 H     1 <1>   0.0800 
@<TRIPOS>BOND
  1   1   2  2   
  2   1   3  2   
  3   1   4  1   
  4   1   5  am  
  5   4   6  2   
  6   5   7  1   
  7   5  21  1   
  8   6   7  1   
  9   6   8  1   
 10   7   9  1   
 11   7  22  1   
 12   8  23  1   
 13   8  24  1   
 14   9  10  ar  
 15   9  11  ar  
 16  10  12  ar  
 17  10  25  1   
 18  11  13  ar  
 19  11  26  1   
 20  12  14  1   
 21  12  15  ar  
 22  13  15  ar  
 23  13  16  1   
 24  14  17  1   
 25  15  18  1   
 26  16  19  1   
 27  17  27  1   
 28  17  28  1   
 29  17  29  1   
 30  18  20  1   
 31  19  30  1   
 32  19  31  1   
 33  19  32  1   
 34  20  33  1   
 35  20  34  1   
 36  20  35  1   
@<TRIPOS>SUBSTRUCTURE
  1 ****   9 GROUP 4 **** **** 0

# MOE 2024.06 (io_trps.svl 2023.06)
