@<TRIPOS>MOLECULE
NONAME
38 40 1 0 0 
SMALL
USER_CHARGES


@<TRIPOS>ATOM
  1 O       -1.1490    -0.2560    -1.3160 O.3   1 <1>  -0.6800 
  2 C       -1.7080    -0.6890    -0.1180 C.3   1 <1>   0.2000 
  3 C       -1.2510    -2.1240     0.2110 C.3   1 <1>   0.0000 
  4 C       -3.2260    -0.6660    -0.2690 C.3   1 <1>  -0.0800 
  5 C       -1.6730    -3.0460    -0.9540 C.3   1 <1>   0.3430 
  6 C       -1.9320    -2.5480     1.5320 C.3   1 <1>   0.1100 
  7 C        0.2930    -2.1620     0.3800 C.3   1 <1>  -0.1600 
  8 C       -3.6450    -1.5610    -1.4410 C.3   1 <1>   0.3430 
  9 C       -3.8740    -1.0790     1.0560 C.3   1 <1>   0.1100 
 10 N       -3.1240    -2.9690    -1.3530 N.4   1 <1>  -0.9590 
 11 N       -3.3950    -2.3920     1.5020 N.3   1 <1>  -0.8100 
 12 C        0.8820    -3.5360     0.7530 C.3   1 <1>  -0.1600 
 13 C       -4.0020    -3.8670    -0.5280 C.3   1 <1>   0.3430 
 14 C       -4.1430    -3.5470     0.9780 C.3   1 <1>   0.1100 
 15 C        2.4090    -3.4640     0.8270 C.3   1 <1>  -0.2400 
 16 H       -0.2480     0.0990    -1.1680 H     1 <1>   0.4000 
 17 H       -1.4070    -0.0030     0.6580 H     1 <1>   0.0800 
 18 H       -3.5360     0.3410    -0.4830 H     1 <1>   0.0800 
 19 H       -1.4220    -4.0630    -0.7070 H     1 <1>   0.0800 
 20 H       -1.0770    -2.7640    -1.8060 H     1 <1>   0.0800 
 21 H       -1.5520    -1.9330     2.3310 H     1 <1>   0.0800 
 22 H       -1.6920    -3.5680     1.7770 H     1 <1>   0.0800 
 23 H        0.5780    -1.4550     1.1420 H     1 <1>   0.0800 
 24 H        0.7590    -1.8420    -0.5360 H     1 <1>   0.0800 
 25 H       -3.2570    -1.1100    -2.3400 H     1 <1>   0.0800 
 26 H       -4.7200    -1.5710    -1.5190 H     1 <1>   0.0800 
 27 H       -4.9480    -1.0850     0.9700 H     1 <1>   0.0800 
 28 H       -3.6190    -0.3540     1.8110 H     1 <1>   0.0800 
 29 H       -3.1660    -3.3370    -2.3110 H     1 <1>   0.4500 
 30 H        0.6130    -4.2800     0.0240 H     1 <1>   0.0800 
 31 H        0.5160    -3.8570     1.7140 H     1 <1>   0.0800 
 32 H       -3.6380    -4.8780    -0.6110 H     1 <1>   0.0800 
 33 H       -4.9920    -3.8680    -0.9520 H     1 <1>   0.0800 
 34 H       -5.1880    -3.4010     1.1930 H     1 <1>   0.0800 
 35 H       -3.8510    -4.4210     1.5350 H     1 <1>   0.0800 
 36 H        2.8250    -3.1780    -0.1240 H     1 <1>   0.0800 
 37 H        2.8110    -4.4260     1.0960 H     1 <1>   0.0800 
 38 H        2.7200    -2.7490     1.5690 H     1 <1>   0.0800 
@<TRIPOS>BOND
  1   1   2  1   
  2   1  16  1   
  3   2   3  1   
  4   2   4  1   
  5   2  17  1   
  6   3   5  1   
  7   3   6  1   
  8   3   7  1   
  9   4   8  1   
 10   4   9  1   
 11   4  18  1   
 12   5  10  1   
 13   5  19  1   
 14   5  20  1   
 15   6  11  1   
 16   6  21  1   
 17   6  22  1   
 18   7  12  1   
 19   7  23  1   
 20   7  24  1   
 21   8  10  1   
 22   8  25  1   
 23   8  26  1   
 24   9  11  1   
 25   9  27  1   
 26   9  28  1   
 27  10  13  1   
 28  10  29  1   
 29  11  14  1   
 30  12  15  1   
 31  12  30  1   
 32  12  31  1   
 33  13  14  1   
 34  13  32  1   
 35  13  33  1   
 36  14  34  1   
 37  14  35  1   
 38  15  36  1   
 39  15  37  1   
 40  15  38  1   
@<TRIPOS>SUBSTRUCTURE
  1 ****   3 GROUP 4 **** **** 0

# MOE 2024.06 (io_trps.svl 2023.06)
