@<TRIPOS>MOLECULE
NONAME
47 49 1 0 0 
SMALL
USER_CHARGES


@<TRIPOS>ATOM
  1 CL      -2.7010     2.0160     2.0860 Cl    1 <1>  -0.1770 
  2 C       -3.3230     0.9960     0.8120 C.ar  1 <1>   0.1770 
  3 C       -2.7650     1.0420    -0.4570 C.ar  1 <1>  -0.1440 
  4 C       -4.3770     0.1540     1.1070 C.ar  1 <1>  -0.1500 
  5 C       -3.2950     0.2180    -1.4360 C.ar  1 <1>  -0.1500 
  6 C       -1.6020     1.9710    -0.7740 C.3   1 <1>  -0.0960 
  7 C       -4.9180    -0.6820     0.1330 C.ar  1 <1>   0.0860 
  8 C       -4.3540    -0.6260    -1.1450 C.ar  1 <1>  -0.1500 
  9 C       -6.0290    -1.5600     0.4470 C.2   1 <1>   0.5440 
 10 O       -6.8840    -1.1890     1.2280 O.2   1 <1>  -0.5700 
 11 N       -6.0990    -2.7910    -0.1580 N.am  1 <1>  -0.5470 
 12 C       -6.9170    -3.9360     0.0080 C.ar  1 <1>   0.1170 
 13 C       -8.3320    -3.9860     0.0800 C.ar  1 <1>   0.1000 
 14 C       -6.2140    -5.1350     0.0580 C.ar  1 <1>  -0.1500 
 15 N       -9.2120    -2.8910     0.0870 N.pl3 1 <1>  -0.8380 
 16 C       -8.9490    -5.2260     0.1790 C.ar  1 <1>  -0.1500 
 17 C       -6.8510    -6.3570     0.1650 C.ar  1 <1>  -0.1500 
 18 C       -9.1130    -1.8910    -1.0330 C.3   1 <1>   0.2090 
 19 C       -9.6140    -2.4750     1.4770 C.3   1 <1>   0.2090 
 20 C       -8.2280    -6.4030     0.2220 C.ar  1 <1>  -0.1500 
 21 C       -9.6430    -0.4790    -0.7020 C.3   1 <1>   0.3430 
 22 C      -10.1490    -1.0360     1.6040 C.3   1 <1>   0.3430 
 23 N       -9.3940    -0.0990     0.7230 N.4   1 <1>  -0.9590 
 24 C       -9.6600     1.3350     1.0190 C.3   1 <1>   0.2630 
 25 H       -4.7770     0.1480     2.1060 H     1 <1>   0.1500 
 26 H       -2.8840     0.2320    -2.4320 H     1 <1>   0.1500 
 27 H       -0.7610     1.7360    -0.1470 H     1 <1>   0.0800 
 28 H       -1.8880     2.9930    -0.5970 H     1 <1>   0.0800 
 29 H       -1.2980     1.8760    -1.8010 H     1 <1>   0.0800 
 30 H       -4.7470    -1.2440    -1.9330 H     1 <1>   0.1500 
 31 H       -5.2560    -3.0120    -0.6850 H     1 <1>   0.3700 
 32 H       -5.1400    -5.1260     0.0160 H     1 <1>   0.1500 
 33 H      -10.0220    -5.2690     0.2210 H     1 <1>   0.1500 
 34 H       -6.2780    -7.2680     0.2030 H     1 <1>   0.1500 
 35 H       -9.6600    -2.2740    -1.8770 H     1 <1>   0.0800 
 36 H       -8.0920    -1.8020    -1.3500 H     1 <1>   0.0800 
 37 H       -8.7630    -2.5800     2.1290 H     1 <1>   0.0800 
 38 H      -10.3650    -3.1560     1.8380 H     1 <1>   0.0800 
 39 H       -8.7370    -7.3490     0.3010 H     1 <1>   0.1500 
 40 H      -10.7020    -0.4560    -0.8970 H     1 <1>   0.0800 
 41 H       -9.1720     0.2300    -1.3620 H     1 <1>   0.0800 
 42 H      -10.0650    -0.7280     2.6330 H     1 <1>   0.0800 
 43 H      -11.1920    -1.0260     1.3370 H     1 <1>   0.0800 
 44 H       -8.3920    -0.3310     0.9130 H     1 <1>   0.4500 
 45 H      -10.6970     1.5690     0.8440 H     1 <1>   0.0800 
 46 H       -9.0500     1.9630     0.3900 H     1 <1>   0.0800 
 47 H       -9.4230     1.5510     2.0480 H     1 <1>   0.0800 
@<TRIPOS>BOND
  1   1   2  1   
  2   2   3  ar  
  3   2   4  ar  
  4   3   5  ar  
  5   3   6  1   
  6   4   7  ar  
  7   4  25  1   
  8   5   8  ar  
  9   5  26  1   
 10   6  27  1   
 11   6  28  1   
 12   6  29  1   
 13   7   8  ar  
 14   7   9  1   
 15   8  30  1   
 16   9  10  2   
 17   9  11  am  
 18  11  12  1   
 19  11  31  1   
 20  12  13  ar  
 21  12  14  ar  
 22  13  15  1   
 23  13  16  ar  
 24  14  17  ar  
 25  14  32  1   
 26  15  18  1   
 27  15  19  1   
 28  16  20  ar  
 29  16  33  1   
 30  17  20  ar  
 31  17  34  1   
 32  18  21  1   
 33  18  35  1   
 34  18  36  1   
 35  19  22  1   
 36  19  37  1   
 37  19  38  1   
 38  20  39  1   
 39  21  23  1   
 40  21  40  1   
 41  21  41  1   
 42  22  23  1   
 43  22  42  1   
 44  22  43  1   
 45  23  24  1   
 46  23  44  1   
 47  24  45  1   
 48  24  46  1   
 49  24  47  1   
@<TRIPOS>SUBSTRUCTURE
  1 ****   9 GROUP 4 **** **** 0

# MOE 2024.06 (io_trps.svl 2023.06)
