@<TRIPOS>MOLECULE
NONAME
42 43 1 0 0 
SMALL
USER_CHARGES


@<TRIPOS>ATOM
  1 BR      -0.0240     0.6660     0.1180 Br    1 <1>  -0.1110 
  2 C        1.8080     1.2480    -0.0040 C.ar  1 <1>   0.1110 
  3 C        2.0700     2.5480    -0.3910 C.ar  1 <1>  -0.1500 
  4 C        2.8130     0.3490     0.3000 C.ar  1 <1>  -0.1500 
  5 C        3.3900     2.9570    -0.4760 C.ar  1 <1>  -0.1500 
  6 C        4.1300     0.7680     0.2120 C.ar  1 <1>  -0.1500 
  7 C        4.4220     2.0770    -0.1770 C.ar  1 <1>   0.0830 
  8 O        5.6830     2.5650    -0.2870 O.3   1 <1>  -0.3630 
  9 C        6.8060     1.7640    -0.0110 C.3   1 <1>   0.1200 
 10 C        8.0560     2.6170    -0.2330 C.3   1 <1>  -0.1600 
 11 C        9.3400     1.8250     0.0500 C.3   1 <1>  -0.1600 
 12 C       10.5820     2.6970    -0.1810 C.3   1 <1>  -0.1600 
 13 C       11.8630     1.9090     0.1000 C.3   1 <1>   0.3430 
 14 N       13.0630     2.7270    -0.2310 N.4   1 <1>  -0.9590 
 15 C       14.2960     1.8650    -0.2780 C.3   1 <1>   0.3430 
 16 C       13.2680     3.8700     0.7310 C.3   1 <1>   0.3430 
 17 C       15.5670     2.7040    -0.5140 C.3   1 <1>   0.1200 
 18 C       14.5860     4.6180     0.4520 C.3   1 <1>   0.1200 
 19 O       15.6590     3.7220     0.4400 O.3   1 <1>  -0.5600 
 20 H        1.2630     3.2210    -0.6200 H     1 <1>   0.1500 
 21 H        2.5670    -0.6550     0.5970 H     1 <1>   0.1500 
 22 H        3.6290     3.9620    -0.7740 H     1 <1>   0.1500 
 23 H        4.9080     0.0670     0.4480 H     1 <1>   0.1500 
 24 H        6.7930     0.9200    -0.6800 H     1 <1>   0.0800 
 25 H        6.7430     1.4340     1.0120 H     1 <1>   0.0800 
 26 H        8.0060     3.4730     0.4180 H     1 <1>   0.0800 
 27 H        8.0590     2.9610    -1.2530 H     1 <1>   0.0800 
 28 H        9.3730     0.9640    -0.5980 H     1 <1>   0.0800 
 29 H        9.3220     1.4770     1.0700 H     1 <1>   0.0800 
 30 H       10.5220     3.5530     0.4680 H     1 <1>   0.0800 
 31 H       10.5820     3.0350    -1.2030 H     1 <1>   0.0800 
 32 H       11.8570     1.0170    -0.5050 H     1 <1>   0.0800 
 33 H       11.8910     1.6110     1.1360 H     1 <1>   0.0800 
 34 H       12.9310     3.1280    -1.1690 H     1 <1>   0.4500 
 35 H       14.2050     1.1310    -1.0620 H     1 <1>   0.0800 
 36 H       14.4100     1.3400     0.6560 H     1 <1>   0.0800 
 37 H       13.3000     3.4940     1.7410 H     1 <1>   0.0800 
 38 H       12.4480     4.5650     0.6620 H     1 <1>   0.0800 
 39 H       15.5680     3.1470    -1.4960 H     1 <1>   0.0800 
 40 H       16.4430     2.0860    -0.4170 H     1 <1>   0.0800 
 41 H       14.7740     5.3400     1.2270 H     1 <1>   0.0800 
 42 H       14.5520     5.1320    -0.4930 H     1 <1>   0.0800 
@<TRIPOS>BOND
  1   1   2  1   
  2   2   3  ar  
  3   2   4  ar  
  4   3   5  ar  
  5   3  20  1   
  6   4   6  ar  
  7   4  21  1   
  8   5   7  ar  
  9   5  22  1   
 10   6   7  ar  
 11   6  23  1   
 12   7   8  1   
 13   8   9  1   
 14   9  10  1   
 15   9  24  1   
 16   9  25  1   
 17  10  11  1   
 18  10  26  1   
 19  10  27  1   
 20  11  12  1   
 21  11  28  1   
 22  11  29  1   
 23  12  13  1   
 24  12  30  1   
 25  12  31  1   
 26  13  14  1   
 27  13  32  1   
 28  13  33  1   
 29  14  15  1   
 30  14  16  1   
 31  14  34  1   
 32  15  17  1   
 33  15  35  1   
 34  15  36  1   
 35  16  18  1   
 36  16  37  1   
 37  16  38  1   
 38  17  19  1   
 39  17  39  1   
 40  17  40  1   
 41  18  19  1   
 42  18  41  1   
 43  18  42  1   
@<TRIPOS>SUBSTRUCTURE
  1 ****  10 GROUP 4 **** **** 0

# MOE 2024.06 (io_trps.svl 2023.06)
