@<TRIPOS>MOLECULE
NONAME
49 50 1 0 0 
SMALL
USER_CHARGES


@<TRIPOS>ATOM
  1 O       -5.7550    -1.4770     2.3110 O.3   1 <1>  -0.6800 
  2 C       -5.8800    -2.0570     1.0700 C.3   1 <1>   0.7670 
  3 C       -4.5070    -2.5330     0.7130 C.1   1 <1>  -0.2000 
  4 C       -6.2940    -0.9990     0.0290 C.ar  1 <1>  -0.1440 
  5 C       -6.9140    -3.1840     1.2480 C.ar  1 <1>  -0.1440 
  6 C       -3.3890    -2.8260     0.4250 C.1   1 <1>  -0.2000 
  7 C       -6.3320     0.3660     0.3080 C.ar  1 <1>  -0.1500 
  8 C       -6.6300    -1.4160    -1.2550 C.ar  1 <1>  -0.1500 
  9 C       -6.5330    -4.4660     1.6350 C.ar  1 <1>  -0.1500 
 10 C       -8.2700    -2.9350     1.0500 C.ar  1 <1>  -0.1500 
 11 C       -1.9570    -3.0570     0.0780 C.3   1 <1>   0.6230 
 12 C       -6.7010     1.2790    -0.6650 C.ar  1 <1>  -0.1500 
 13 C       -6.9990    -0.5050    -2.2290 C.ar  1 <1>  -0.1500 
 14 C       -7.4730    -5.4690     1.8020 C.ar  1 <1>  -0.1500 
 15 C       -9.2110    -3.9360     1.2170 C.ar  1 <1>  -0.1500 
 16 N       -1.3800    -1.6760    -0.0380 N.4   1 <1>  -0.9590 
 17 C       -1.7890    -3.9160    -1.2180 C.3   1 <1>  -0.0800 
 18 C       -7.0360     0.8450    -1.9340 C.ar  1 <1>  -0.1500 
 19 C       -8.8130    -5.2050     1.5910 C.ar  1 <1>  -0.1500 
 20 C       -0.0150    -1.5760    -0.6370 C.3   1 <1>   0.2630 
 21 C       -1.4040    -0.9620     1.2820 C.3   1 <1>   0.2630 
 22 C       -2.9220    -4.9420    -1.4530 C.3   1 <1>  -0.2400 
 23 C       -0.4660    -4.7130    -1.2150 C.3   1 <1>  -0.2400 
 24 H       -6.6470    -1.4830     2.7020 H     1 <1>   0.4000 
 25 H       -6.0740     0.7400     1.2840 H     1 <1>   0.1500 
 26 H       -6.6120    -2.4640    -1.5060 H     1 <1>   0.1500 
 27 H       -5.5000    -4.7030     1.8200 H     1 <1>   0.1500 
 28 H       -8.6160    -1.9560     0.7610 H     1 <1>   0.1500 
 29 H       -1.4910    -3.5800     0.8960 H     1 <1>   0.0800 
 30 H       -6.7300     2.3300    -0.4340 H     1 <1>   0.1500 
 31 H       -7.2610    -0.8460    -3.2160 H     1 <1>   0.1500 
 32 H       -7.1610    -6.4550     2.0990 H     1 <1>   0.1500 
 33 H      -10.2550    -3.7270     1.0550 H     1 <1>   0.1500 
 34 H       -2.0470    -1.1880    -0.6540 H     1 <1>   0.4500 
 35 H       -1.8010    -3.2570    -2.0690 H     1 <1>   0.0800 
 36 H       -7.3250     1.5550    -2.6890 H     1 <1>   0.1500 
 37 H       -9.5440    -5.9850     1.7200 H     1 <1>   0.1500 
 38 H        0.6980    -2.1160    -0.0360 H     1 <1>   0.0800 
 39 H        0.2930    -0.5440    -0.6930 H     1 <1>   0.0800 
 40 H       -0.0090    -1.9840    -1.6350 H     1 <1>   0.0800 
 41 H       -0.7780    -1.4700     1.9970 H     1 <1>   0.0800 
 42 H       -2.4090    -0.9200     1.6750 H     1 <1>   0.0800 
 43 H       -1.0470     0.0490     1.1680 H     1 <1>   0.0800 
 44 H       -3.0280    -5.6020    -0.6080 H     1 <1>   0.0800 
 45 H       -2.7140    -5.5420    -2.3230 H     1 <1>   0.0800 
 46 H       -3.8650    -4.4530    -1.6270 H     1 <1>   0.0800 
 47 H       -0.4560    -5.4230    -0.4060 H     1 <1>   0.0800 
 48 H        0.4010    -4.0890    -1.1220 H     1 <1>   0.0800 
 49 H       -0.3640    -5.2630    -2.1360 H     1 <1>   0.0800 
@<TRIPOS>BOND
  1   1   2  1   
  2   1  24  1   
  3   2   3  1   
  4   2   4  1   
  5   2   5  1   
  6   3   6  3   
  7   4   7  ar  
  8   4   8  ar  
  9   5   9  ar  
 10   5  10  ar  
 11   6  11  1   
 12   7  12  ar  
 13   7  25  1   
 14   8  13  ar  
 15   8  26  1   
 16   9  14  ar  
 17   9  27  1   
 18  10  15  ar  
 19  10  28  1   
 20  11  16  1   
 21  11  17  1   
 22  11  29  1   
 23  12  18  ar  
 24  12  30  1   
 25  13  18  ar  
 26  13  31  1   
 27  14  19  ar  
 28  14  32  1   
 29  15  19  ar  
 30  15  33  1   
 31  16  20  1   
 32  16  21  1   
 33  16  34  1   
 34  17  22  1   
 35  17  23  1   
 36  17  35  1   
 37  18  36  1   
 38  19  37  1   
 39  20  38  1   
 40  20  39  1   
 41  20  40  1   
 42  21  41  1   
 43  21  42  1   
 44  21  43  1   
 45  22  44  1   
 46  22  45  1   
 47  22  46  1   
 48  23  47  1   
 49  23  48  1   
 50  23  49  1   
@<TRIPOS>SUBSTRUCTURE
  1 ****   3 GROUP 4 **** **** 0

# MOE 2024.06 (io_trps.svl 2023.06)
