@<TRIPOS>MOLECULE
NONAME
43 45 1 0 0 
SMALL
USER_CHARGES


@<TRIPOS>ATOM
  1 N       -0.8690     0.4820     0.3070 N.ar  1 <1>  -0.6200 
  2 C       -2.1120     0.1740     0.6240 C.ar  1 <1>   0.1600 
  3 C       -0.6480     0.7280    -0.9740 C.ar  1 <1>   0.1600 
  4 C       -3.1680     0.1170    -0.2750 C.ar  1 <1>  -0.1440 
  5 C       -1.6220     0.6840    -1.9570 C.ar  1 <1>  -0.1500 
  6 C       -2.9200     0.3720    -1.6110 C.ar  1 <1>  -0.1500 
  7 C       -4.5600    -0.2160     0.2150 C.3   1 <1>   0.4870 
  8 N       -5.1620     1.0020     0.8260 N.4   1 <1>  -0.9590 
  9 C       -6.5010     0.8390     1.4460 C.3   1 <1>   0.4230 
 10 C       -5.2500     2.2010    -0.0680 C.3   1 <1>   0.3430 
 11 C       -7.5300     0.1390     0.5310 C.3   1 <1>  -0.1600 
 12 C       -6.9240     2.2820     1.6430 C.3   1 <1>  -0.1600 
 13 C       -6.5920     2.8690     0.2750 C.3   1 <1>   0.0000 
 14 C       -7.9300     0.8810    -0.7820 C.3   1 <1>   0.0000 
 15 C       -7.6990     2.4180    -0.7050 C.3   1 <1>  -0.1600 
 16 C       -6.4900     4.4000     0.3180 C.3   1 <1>  -0.2400 
 17 C       -7.1980     0.2890    -2.0030 C.3   1 <1>  -0.2400 
 18 C       -9.4280     0.6300    -1.0400 C.3   1 <1>  -0.2400 
 19 H       -2.2880    -0.0410     1.6650 H     1 <1>   0.1500 
 20 H        0.3630     0.9740    -1.2550 H     1 <1>   0.1500 
 21 H       -1.3590     0.8920    -2.9790 H     1 <1>   0.1500 
 22 H       -3.6880     0.3300    -2.3650 H     1 <1>   0.1500 
 23 H       -4.5030    -1.0050     0.9470 H     1 <1>   0.0800 
 24 H       -5.1620    -0.5660    -0.6050 H     1 <1>   0.0800 
 25 H       -4.5320     1.2850     1.5840 H     1 <1>   0.4500 
 26 H       -6.4310     0.3210     2.3900 H     1 <1>   0.0800 
 27 H       -5.2150     1.9350    -1.1100 H     1 <1>   0.0800 
 28 H       -4.4330     2.8730     0.1410 H     1 <1>   0.0800 
 29 H       -8.4150     0.0430     1.1360 H     1 <1>   0.0800 
 30 H       -7.2270    -0.8700     0.3230 H     1 <1>   0.0800 
 31 H       -6.3370     2.7360     2.4220 H     1 <1>   0.0800 
 32 H       -7.9660     2.3750     1.8980 H     1 <1>   0.0800 
 33 H       -7.4950     2.8060    -1.6890 H     1 <1>   0.0800 
 34 H       -8.6140     2.8920    -0.3880 H     1 <1>   0.0800 
 35 H       -5.7310     4.7170     1.0110 H     1 <1>   0.0800 
 36 H       -7.4270     4.8310     0.6270 H     1 <1>   0.0800 
 37 H       -6.2450     4.7910    -0.6550 H     1 <1>   0.0800 
 38 H       -6.1470     0.4730    -1.9930 H     1 <1>   0.0800 
 39 H       -7.5850     0.7190    -2.9110 H     1 <1>   0.0800 
 40 H       -7.3560    -0.7750    -2.0610 H     1 <1>   0.0800 
 41 H       -9.7450     1.1120    -1.9490 H     1 <1>   0.0800 
 42 H      -10.0310     1.0150    -0.2360 H     1 <1>   0.0800 
 43 H       -9.6300    -0.4240    -1.1330 H     1 <1>   0.0800 
@<TRIPOS>BOND
  1   1   2  ar  
  2   1   3  ar  
  3   2   4  ar  
  4   2  19  1   
  5   3   5  ar  
  6   3  20  1   
  7   4   6  ar  
  8   4   7  1   
  9   5   6  ar  
 10   5  21  1   
 11   6  22  1   
 12   7   8  1   
 13   7  23  1   
 14   7  24  1   
 15   8   9  1   
 16   8  10  1   
 17   8  25  1   
 18   9  11  1   
 19   9  12  1   
 20   9  26  1   
 21  10  13  1   
 22  10  27  1   
 23  10  28  1   
 24  11  14  1   
 25  11  29  1   
 26  11  30  1   
 27  12  13  1   
 28  12  31  1   
 29  12  32  1   
 30  13  15  1   
 31  13  16  1   
 32  14  15  1   
 33  14  17  1   
 34  14  18  1   
 35  15  33  1   
 36  15  34  1   
 37  16  35  1   
 38  16  36  1   
 39  16  37  1   
 40  17  38  1   
 41  17  39  1   
 42  17  40  1   
 43  18  41  1   
 44  18  42  1   
 45  18  43  1   
@<TRIPOS>SUBSTRUCTURE
  1 ****   8 GROUP 4 **** **** 0

# MOE 2024.06 (io_trps.svl 2023.06)
