@<TRIPOS>MOLECULE
NONAME
40 41 1 0 0 
SMALL
USER_CHARGES


@<TRIPOS>ATOM
  1 O       -0.9420    -0.2110     1.4100 O.2   1 <1>  -0.5700 
  2 C       -1.3740    -0.2480     0.2750 C.2   1 <1>   0.6340 
  3 O       -0.5330    -0.5420    -0.7230 O.3   1 <1>  -0.4300 
  4 C       -2.7620     0.0080    -0.0530 C.ar  1 <1>   0.0860 
  5 C        0.8370    -0.8050    -0.4900 C.3   1 <1>   0.0400 
  6 C       -3.6850     0.3220     0.9490 C.ar  1 <1>  -0.1500 
  7 C       -3.2340    -0.0450    -1.3680 C.ar  1 <1>  -0.1500 
  8 C       -5.0230     0.5690     0.6670 C.ar  1 <1>   0.0830 
  9 C       -4.5610     0.1930    -1.6670 C.ar  1 <1>  -0.1500 
 10 O       -5.9290     0.8990     1.6320 O.3   1 <1>  -0.3630 
 11 C       -5.4600     0.4860    -0.6580 C.ar  1 <1>   0.0830 
 12 C       -5.5400     1.1040     2.9730 C.3   1 <1>   0.0400 
 13 O       -6.7440     0.7020    -1.0090 O.3   1 <1>  -0.3630 
 14 C       -7.6950    -0.2740    -0.6080 C.3   1 <1>   0.1810 
 15 C       -9.1190     0.1940    -0.8880 C.2   1 <1>   0.5690 
 16 O       -9.7920    -0.4660    -1.6480 O.2   1 <1>  -0.5700 
 17 N       -9.6250     1.3060    -0.2690 N.am  1 <1>  -0.6600 
 18 C      -10.9770     1.8310    -0.5440 C.3   1 <1>   0.1400 
 19 C       -8.8700     2.2100     0.6270 C.3   1 <1>   0.1400 
 20 C      -10.9570     3.2550    -0.0010 C.3   1 <1>  -0.1600 
 21 C       -9.8970     3.2340     1.0990 C.3   1 <1>  -0.1600 
 22 H        1.3090    -1.0140    -1.4330 H     1 <1>   0.0800 
 23 H        0.9210    -1.6560     0.1640 H     1 <1>   0.0800 
 24 H        1.2850     0.0600    -0.0340 H     1 <1>   0.0800 
 25 H       -3.3200     0.3690     1.9580 H     1 <1>   0.1500 
 26 H       -2.5530    -0.2750    -2.1690 H     1 <1>   0.1500 
 27 H       -4.9100     0.1500    -2.6840 H     1 <1>   0.1500 
 28 H       -6.4100     1.3930     3.5340 H     1 <1>   0.0800 
 29 H       -4.8050     1.8890     3.0090 H     1 <1>   0.0800 
 30 H       -5.1420     0.1850     3.3670 H     1 <1>   0.0800 
 31 H       -7.5870    -0.4690     0.4410 H     1 <1>   0.0800 
 32 H       -7.4960    -1.1740    -1.1580 H     1 <1>   0.0800 
 33 H      -11.6980     1.2310    -0.0150 H     1 <1>   0.0800 
 34 H      -11.1920     1.8070    -1.5990 H     1 <1>   0.0800 
 35 H       -8.0870     2.6930     0.0660 H     1 <1>   0.0800 
 36 H       -8.4450     1.6690     1.4540 H     1 <1>   0.0800 
 37 H      -11.9220     3.5580     0.3630 H     1 <1>   0.0800 
 38 H      -10.6520     3.9220    -0.7890 H     1 <1>   0.0800 
 39 H       -9.4530     4.2000     1.2590 H     1 <1>   0.0800 
 40 H      -10.3340     2.8900     2.0200 H     1 <1>   0.0800 
@<TRIPOS>BOND
  1   1   2  2   
  2   2   3  1   
  3   2   4  1   
  4   3   5  1   
  5   4   6  ar  
  6   4   7  ar  
  7   5  22  1   
  8   5  23  1   
  9   5  24  1   
 10   6   8  ar  
 11   6  25  1   
 12   7   9  ar  
 13   7  26  1   
 14   8  10  1   
 15   8  11  ar  
 16   9  11  ar  
 17   9  27  1   
 18  10  12  1   
 19  11  13  1   
 20  12  28  1   
 21  12  29  1   
 22  12  30  1   
 23  13  14  1   
 24  14  15  1   
 25  14  31  1   
 26  14  32  1   
 27  15  16  2   
 28  15  17  am  
 29  17  18  1   
 30  17  19  1   
 31  18  20  1   
 32  18  33  1   
 33  18  34  1   
 34  19  21  1   
 35  19  35  1   
 36  19  36  1   
 37  20  21  1   
 38  20  37  1   
 39  20  38  1   
 40  21  39  1   
 41  21  40  1   
@<TRIPOS>SUBSTRUCTURE
  1 ****  11 GROUP 4 **** **** 0

# MOE 2024.06 (io_trps.svl 2023.06)
