@<TRIPOS>MOLECULE
NONAME
54 56 1 0 0 
SMALL
USER_CHARGES


@<TRIPOS>ATOM
  1 S       -1.7500     0.1270    -1.1330 S.o2  1 <1>   1.4470 
  2 O       -0.9190     0.5980    -2.2210 O.2   1 <1>  -0.6500 
  3 O       -2.1840    -1.2540    -1.1210 O.2   1 <1>  -0.6500 
  4 N       -0.8750     0.3900     0.2950 N.am  1 <1>  -0.8490 
  5 C       -3.1980     1.2020    -0.9340 C.ar  1 <1>  -0.0090 
  6 C       -0.2820     1.7310     0.3360 C.3   1 <1>   0.1960 
  7 C        0.1490    -0.6410     0.4870 C.3   1 <1>   0.1960 
  8 C       -3.9930     1.1220     0.2020 C.ar  1 <1>  -0.1500 
  9 C       -3.5530     2.1320    -1.9040 C.ar  1 <1>  -0.1500 
 10 C        0.3610     1.9850     1.7030 C.3   1 <1>  -0.1600 
 11 C        0.8230    -0.4740     1.8540 C.3   1 <1>  -0.1600 
 12 C       -5.0980     1.9380     0.3630 C.ar  1 <1>  -0.1500 
 13 C       -4.6580     2.9500    -1.7460 C.ar  1 <1>  -0.1500 
 14 C        1.4230     0.9260     2.0210 C.3   1 <1>  -0.1600 
 15 C       -5.4530     2.8630    -0.6080 C.ar  1 <1>   0.1170 
 16 N       -6.5850     3.6580    -0.3860 N.am  1 <1>  -0.5470 
 17 C       -7.3290     4.4510    -1.2170 C.2   1 <1>   0.5690 
 18 O       -7.1220     4.5670    -2.3990 O.2   1 <1>  -0.5700 
 19 C       -8.5000     5.2230    -0.6260 C.3   1 <1>   0.1310 
 20 S       -9.1460     4.4510     0.9040 S.3   1 <1>  -0.4600 
 21 C       -9.9180     2.9040     0.3300 C.3   1 <1>   0.2130 
 22 C       -9.0320     1.7340     0.7450 C.ar  1 <1>  -0.1430 
 23 C       -8.4700     0.8490    -0.1720 C.ar  1 <1>  -0.1430 
 24 C       -8.7990     1.5450     2.1010 C.ar  1 <1>  -0.1500 
 25 C       -7.6860    -0.2000     0.2860 C.ar  1 <1>  -0.1500 
 26 C       -8.6840     0.9840    -1.6740 C.3   1 <1>  -0.0970 
 27 C       -8.0180     0.4960     2.5490 C.ar  1 <1>  -0.1500 
 28 C       -7.4610    -0.3800     1.6380 C.ar  1 <1>  -0.1500 
 29 H       -1.0450     2.4740     0.1680 H     1 <1>   0.0800 
 30 H        0.4600     1.8310    -0.4400 H     1 <1>   0.0800 
 31 H        0.8840    -0.5770    -0.2990 H     1 <1>   0.0800 
 32 H       -0.3030    -1.6180     0.4450 H     1 <1>   0.0800 
 33 H       -3.7420     0.4080     0.9690 H     1 <1>   0.1500 
 34 H       -2.9570     2.2180    -2.7980 H     1 <1>   0.1500 
 35 H       -0.4080     1.9680     2.4560 H     1 <1>   0.0800 
 36 H        0.8100     2.9620     1.7110 H     1 <1>   0.0800 
 37 H        1.5950    -1.2150     1.9640 H     1 <1>   0.0800 
 38 H        0.0890    -0.6490     2.6220 H     1 <1>   0.0800 
 39 H       -5.6970     1.8480     1.2520 H     1 <1>   0.1500 
 40 H       -4.8950     3.6590    -2.5170 H     1 <1>   0.1500 
 41 H        1.7850     1.0560     3.0260 H     1 <1>   0.0800 
 42 H        2.2550     1.0410     1.3470 H     1 <1>   0.0800 
 43 H       -7.0170     3.5300     0.5340 H     1 <1>   0.3700 
 44 H       -9.3100     5.2730    -1.3300 H     1 <1>   0.0800 
 45 H       -8.1880     6.2180    -0.3670 H     1 <1>   0.0800 
 46 H      -10.0540     2.9810    -0.7330 H     1 <1>   0.0800 
 47 H      -10.8780     2.8380     0.8090 H     1 <1>   0.0800 
 48 H       -9.2310     2.2200     2.8210 H     1 <1>   0.1500 
 49 H       -7.2410    -0.8890    -0.4110 H     1 <1>   0.1500 
 50 H       -8.2830     1.9160    -2.0280 H     1 <1>   0.0800 
 51 H       -9.7330     0.9390    -1.9060 H     1 <1>   0.0800 
 52 H       -8.1910     0.1920    -2.2070 H     1 <1>   0.0800 
 53 H       -7.8480     0.3600     3.6020 H     1 <1>   0.1500 
 54 H       -6.8520    -1.2000     1.9780 H     1 <1>   0.1500 
@<TRIPOS>BOND
  1   1   2  2   
  2   1   3  2   
  3   1   4  am  
  4   1   5  1   
  5   4   6  1   
  6   4   7  1   
  7   5   8  ar  
  8   5   9  ar  
  9   6  10  1   
 10   6  29  1   
 11   6  30  1   
 12   7  11  1   
 13   7  31  1   
 14   7  32  1   
 15   8  12  ar  
 16   8  33  1   
 17   9  13  ar  
 18   9  34  1   
 19  10  14  1   
 20  10  35  1   
 21  10  36  1   
 22  11  14  1   
 23  11  37  1   
 24  11  38  1   
 25  12  15  ar  
 26  12  39  1   
 27  13  15  ar  
 28  13  40  1   
 29  14  41  1   
 30  14  42  1   
 31  15  16  1   
 32  16  17  am  
 33  16  43  1   
 34  17  18  2   
 35  17  19  1   
 36  19  20  1   
 37  19  44  1   
 38  19  45  1   
 39  20  21  1   
 40  21  22  1   
 41  21  46  1   
 42  21  47  1   
 43  22  23  ar  
 44  22  24  ar  
 45  23  25  ar  
 46  23  26  1   
 47  24  27  ar  
 48  24  48  1   
 49  25  28  ar  
 50  25  49  1   
 51  26  50  1   
 52  26  51  1   
 53  26  52  1   
 54  27  28  ar  
 55  27  53  1   
 56  28  54  1   
@<TRIPOS>SUBSTRUCTURE
  1 ****  12 GROUP 4 **** **** 0

# MOE 2024.06 (io_trps.svl 2023.06)
