@<TRIPOS>MOLECULE
NONAME
46 48 1 0 0 
SMALL
USER_CHARGES


@<TRIPOS>ATOM
  1 O       -1.5800    -1.6320    -2.4380 O.2   1 <1>  -0.5700 
  2 C       -1.5720    -1.1950    -1.3100 C.2   1 <1>   0.5690 
  3 N       -0.5110    -1.4180    -0.4920 N.am  1 <1>  -0.7300 
  4 C       -2.7640    -0.3710    -0.7750 C.3   1 <1>   0.0610 
  5 C        0.6740    -2.2050    -0.8450 C.3   1 <1>   0.2780 
  6 C       -3.3780    -1.0610     0.4680 C.3   1 <1>  -0.1600 
  7 C       -2.2960     1.0490    -0.3700 C.3   1 <1>  -0.1600 
  8 C       -3.8810    -0.2200    -1.8400 C.3   1 <1>  -0.1600 
  9 C        1.1300    -2.9100     0.4140 C.2   1 <1>  -0.2880 
 10 C       -4.5570    -0.2450     1.0350 C.3   1 <1>   0.0000 
 11 C       -3.4640     1.8850     0.1890 C.3   1 <1>   0.0000 
 12 C       -5.0670     0.6030    -1.3000 C.3   1 <1>   0.0000 
 13 C        2.2840    -2.6910     1.0520 C.2   1 <1>  -0.3000 
 14 C       -4.0520     1.1600     1.4180 C.3   1 <1>  -0.1600 
 15 C       -5.6370    -0.1060    -0.0560 C.3   1 <1>  -0.1600 
 16 C       -5.1400    -0.9500     2.2660 C.3   1 <1>  -0.2400 
 17 C       -4.5580     1.9980    -0.8910 C.3   1 <1>  -0.1600 
 18 C       -2.9700     3.2810     0.5870 C.3   1 <1>  -0.2400 
 19 C       -6.1520     0.7320    -2.3770 C.3   1 <1>  -0.2400 
 20 H       -0.5050    -1.0410     0.4550 H     1 <1>   0.3700 
 21 H        1.4430    -1.5450    -1.2100 H     1 <1>   0.0800 
 22 H        0.4360    -2.9210    -1.6140 H     1 <1>   0.0800 
 23 H       -2.6290    -1.1770     1.2310 H     1 <1>   0.0800 
 24 H       -3.7160    -2.0460     0.1940 H     1 <1>   0.0800 
 25 H       -1.8760     1.5410    -1.2300 H     1 <1>   0.0800 
 26 H       -1.5220     0.9820     0.3740 H     1 <1>   0.0800 
 27 H       -4.2230    -1.1960    -2.1380 H     1 <1>   0.0800 
 28 H       -3.4770     0.2580    -2.7150 H     1 <1>   0.0800 
 29 H        0.4060    -3.6320     0.7540 H     1 <1>   0.1500 
 30 H        2.5820    -3.2110     1.9470 H     1 <1>   0.1500 
 31 H        3.0270    -1.9780     0.7380 H     1 <1>   0.1500 
 32 H       -4.8660     1.7380     1.8200 H     1 <1>   0.0800 
 33 H       -3.3010     1.0800     2.1840 H     1 <1>   0.0800 
 34 H       -6.4700     0.4560     0.3290 H     1 <1>   0.0800 
 35 H       -6.0010    -1.0810    -0.3310 H     1 <1>   0.0800 
 36 H       -4.3930    -1.0500     3.0330 H     1 <1>   0.0800 
 37 H       -5.4940    -1.9310     2.0060 H     1 <1>   0.0800 
 38 H       -5.9640    -0.3860     2.6660 H     1 <1>   0.0800 
 39 H       -4.1620     2.5050    -1.7540 H     1 <1>   0.0800 
 40 H       -5.3770     2.5860    -0.5160 H     1 <1>   0.0800 
 41 H       -2.2080     3.2110     1.3430 H     1 <1>   0.0800 
 42 H       -3.7820     3.8700     0.9760 H     1 <1>   0.0800 
 43 H       -2.5580     3.7910    -0.2660 H     1 <1>   0.0800 
 44 H       -6.5100    -0.2400    -2.6680 H     1 <1>   0.0800 
 45 H       -5.7590     1.2240    -3.2490 H     1 <1>   0.0800 
 46 H       -6.9840     1.3050    -2.0070 H     1 <1>   0.0800 
@<TRIPOS>BOND
  1   1   2  2   
  2   2   3  am  
  3   2   4  1   
  4   3   5  1   
  5   3  20  1   
  6   4   6  1   
  7   4   7  1   
  8   4   8  1   
  9   5   9  1   
 10   5  21  1   
 11   5  22  1   
 12   6  10  1   
 13   6  23  1   
 14   6  24  1   
 15   7  11  1   
 16   7  25  1   
 17   7  26  1   
 18   8  12  1   
 19   8  27  1   
 20   8  28  1   
 21   9  13  2   
 22   9  29  1   
 23  10  14  1   
 24  10  15  1   
 25  10  16  1   
 26  11  14  1   
 27  11  17  1   
 28  11  18  1   
 29  12  15  1   
 30  12  17  1   
 31  12  19  1   
 32  13  30  1   
 33  13  31  1   
 34  14  32  1   
 35  14  33  1   
 36  15  34  1   
 37  15  35  1   
 38  16  36  1   
 39  16  37  1   
 40  16  38  1   
 41  17  39  1   
 42  17  40  1   
 43  18  41  1   
 44  18  42  1   
 45  18  43  1   
 46  19  44  1   
 47  19  45  1   
 48  19  46  1   
@<TRIPOS>SUBSTRUCTURE
  1 ****   4 GROUP 4 **** **** 0

# MOE 2024.06 (io_trps.svl 2023.06)
