@<TRIPOS>MOLECULE
NONAME
60 64 1 0 0 
SMALL
USER_CHARGES


@<TRIPOS>ATOM
  1 F        3.0490    -2.5910     3.5390 F     1 <1>  -0.1900 
  2 C        3.8590    -2.3710     2.5420 C.ar  1 <1>   0.1900 
  3 C        5.1280    -1.8950     2.8040 C.ar  1 <1>  -0.1500 
  4 C        3.4230    -2.6240     1.2560 C.ar  1 <1>  -0.1500 
  5 C        5.9830    -1.6640     1.7410 C.ar  1 <1>  -0.1500 
  6 C        4.2910    -2.3880     0.2050 C.ar  1 <1>  -0.1500 
  7 C        5.5830    -1.8990     0.4200 C.ar  1 <1>   0.0860 
  8 C        6.4800    -1.6650    -0.6950 C.2   1 <1>   0.5440 
  9 O        6.4780    -2.4050    -1.6570 O.2   1 <1>  -0.5700 
 10 N        7.3530    -0.6170    -0.6870 N.am  1 <1>  -0.7300 
 11 C        8.4530    -0.4290    -1.7000 C.3   1 <1>   0.2810 
 12 C        9.5700    -1.4790    -1.4970 C.2   1 <1>   0.5690 
 13 C        8.9590     1.0460    -1.6770 C.3   1 <1>   0.0000 
 14 O       10.2160    -1.8760    -2.4390 O.2   1 <1>  -0.5700 
 15 N        9.7750    -1.9690    -0.2470 N.am  1 <1>  -0.7300 
 16 C        7.7840     2.0190    -1.9690 C.3   1 <1>  -0.1600 
 17 C       10.0340     1.2720    -2.7720 C.3   1 <1>  -0.1600 
 18 C        9.5840     1.4310    -0.3090 C.3   1 <1>  -0.1600 
 19 C       10.3780    -3.2700     0.0520 C.3   1 <1>   0.2840 
 20 C        8.2590     3.4830    -1.9760 C.3   1 <1>  -0.0800 
 21 C       10.5200     2.7320    -2.7890 C.3   1 <1>  -0.0800 
 22 C       10.0640     2.8950    -0.3140 C.3   1 <1>  -0.0800 
 23 C        9.4780    -3.9150     1.0910 C.ar  1 <1>  -0.1430 
 24 C        9.3270     3.6620    -3.0680 C.3   1 <1>  -0.1600 
 25 C        8.8690     3.8220    -0.6040 C.3   1 <1>  -0.1600 
 26 C       11.1240     3.0770    -1.4150 C.3   1 <1>  -0.1600 
 27 C        8.2330    -4.3970     0.7150 C.ar  1 <1>  -0.1500 
 28 C        9.8680    -4.0000     2.4190 C.ar  1 <1>  -0.1500 
 29 C        7.3840    -4.9520     1.6560 C.ar  1 <1>  -0.1500 
 30 C        9.0200    -4.5580     3.3610 C.ar  1 <1>  -0.1500 
 31 C        7.7770    -5.0330     2.9800 C.ar  1 <1>  -0.1500 
 32 H        5.4360    -1.7180     3.8200 H     1 <1>   0.1500 
 33 H        2.4290    -2.9990     1.0880 H     1 <1>   0.1500 
 34 H        6.9790    -1.3120     1.9400 H     1 <1>   0.1500 
 35 H        3.9740    -2.5860    -0.8060 H     1 <1>   0.1500 
 36 H        7.2520     0.1360    -0.0080 H     1 <1>   0.3700 
 37 H        8.0360    -0.6190    -2.6730 H     1 <1>   0.0800 
 38 H        9.1060    -1.6840     0.4670 H     1 <1>   0.3700 
 39 H        7.0100     1.9180    -1.2300 H     1 <1>   0.0800 
 40 H        7.3460     1.7840    -2.9240 H     1 <1>   0.0800 
 41 H        9.6330     1.0170    -3.7380 H     1 <1>   0.0800 
 42 H       10.8850     0.6350    -2.6010 H     1 <1>   0.0800 
 43 H       10.4240     0.7930    -0.0950 H     1 <1>   0.0800 
 44 H        8.8690     1.3040     0.4840 H     1 <1>   0.0800 
 45 H       11.3750    -3.1300     0.4330 H     1 <1>   0.0800 
 46 H       10.4240    -3.8770    -0.8370 H     1 <1>   0.0800 
 47 H        7.4260     4.1360    -2.1750 H     1 <1>   0.0800 
 48 H       11.2660     2.8580    -3.5550 H     1 <1>   0.0800 
 49 H       10.4910     3.1420     0.6430 H     1 <1>   0.0800 
 50 H        9.6600     4.6850    -3.0890 H     1 <1>   0.0800 
 51 H        8.9060     3.4360    -4.0320 H     1 <1>   0.0800 
 52 H        8.1250     3.7120     0.1650 H     1 <1>   0.0800 
 53 H        9.1960     4.8480    -0.5960 H     1 <1>   0.0800 
 54 H       11.9680     2.4390    -1.2190 H     1 <1>   0.0800 
 55 H       11.4770     4.0930    -1.4180 H     1 <1>   0.0800 
 56 H        7.9180    -4.3340    -0.3150 H     1 <1>   0.1500 
 57 H       10.8300    -3.6300     2.7270 H     1 <1>   0.1500 
 58 H        6.4180    -5.3200     1.3550 H     1 <1>   0.1500 
 59 H        9.3270    -4.6240     4.3900 H     1 <1>   0.1500 
 60 H        7.1170    -5.4660     3.7110 H     1 <1>   0.1500 
@<TRIPOS>BOND
  1   1   2  1   
  2   2   3  ar  
  3   2   4  ar  
  4   3   5  ar  
  5   3  32  1   
  6   4   6  ar  
  7   4  33  1   
  8   5   7  ar  
  9   5  34  1   
 10   6   7  ar  
 11   6  35  1   
 12   7   8  1   
 13   8   9  2   
 14   8  10  am  
 15  10  11  1   
 16  10  36  1   
 17  11  12  1   
 18  11  13  1   
 19  11  37  1   
 20  12  14  2   
 21  12  15  am  
 22  13  16  1   
 23  13  17  1   
 24  13  18  1   
 25  15  19  1   
 26  15  38  1   
 27  16  20  1   
 28  16  39  1   
 29  16  40  1   
 30  17  21  1   
 31  17  41  1   
 32  17  42  1   
 33  18  22  1   
 34  18  43  1   
 35  18  44  1   
 36  19  23  1   
 37  19  45  1   
 38  19  46  1   
 39  20  24  1   
 40  20  25  1   
 41  20  47  1   
 42  21  24  1   
 43  21  26  1   
 44  21  48  1   
 45  22  25  1   
 46  22  26  1   
 47  22  49  1   
 48  23  27  ar  
 49  23  28  ar  
 50  24  50  1   
 51  24  51  1   
 52  25  52  1   
 53  25  53  1   
 54  26  54  1   
 55  26  55  1   
 56  27  29  ar  
 57  27  56  1   
 58  28  30  ar  
 59  28  57  1   
 60  29  31  ar  
 61  29  58  1   
 62  30  31  ar  
 63  30  59  1   
 64  31  60  1   
@<TRIPOS>SUBSTRUCTURE
  1 ****  10 GROUP 4 **** **** 0

# MOE 2024.06 (io_trps.svl 2023.06)
