@<TRIPOS>MOLECULE
NONAME
35 36 1 0 0 
SMALL
USER_CHARGES


@<TRIPOS>ATOM
  1 F        1.9760    -2.8380    -1.6050 F     1 <1>  -0.1900 
  2 C        1.0160    -2.8780    -0.7140 C.ar  1 <1>   0.1900 
  3 C       -0.1960    -3.4530    -1.0520 C.ar  1 <1>   0.1900 
  4 C        1.2460    -2.3550     0.5540 C.ar  1 <1>   0.0860 
  5 F       -0.3570    -3.9500    -2.2530 F     1 <1>  -0.1900 
  6 C       -1.2410    -3.5240    -0.1440 C.ar  1 <1>  -0.1440 
  7 C        2.5080    -1.7520     0.9240 C.2   1 <1>   0.5440 
  8 C        0.1850    -2.4210     1.4600 C.ar  1 <1>  -0.1500 
  9 C       -1.0320    -2.9950     1.1220 C.ar  1 <1>  -0.1500 
 10 C       -2.5770    -4.1540    -0.5150 C.3   1 <1>  -0.0960 
 11 O        2.5300    -0.5700     1.1940 O.2   1 <1>  -0.5700 
 12 N        3.6960    -2.4600     0.9850 N.am  1 <1>  -0.6600 
 13 C        3.8460    -3.9110     0.6630 C.3   1 <1>   0.1400 
 14 C        5.0020    -1.7620     1.1970 C.3   1 <1>   0.1400 
 15 C        4.7560    -4.0900    -0.5710 C.3   1 <1>   0.3430 
 16 C        5.8960    -1.9330    -0.0440 C.3   1 <1>   0.3430 
 17 N        6.0820    -3.3850    -0.4160 N.4   1 <1>  -0.9590 
 18 C        6.8970    -3.5100    -1.6630 C.3   1 <1>   0.2630 
 19 H        0.3210    -2.0060     2.4460 H     1 <1>   0.1500 
 20 H       -1.8220    -3.0230     1.8550 H     1 <1>   0.1500 
 21 H       -3.0120    -3.6280    -1.3460 H     1 <1>   0.0800 
 22 H       -3.2650    -4.1190     0.3100 H     1 <1>   0.0800 
 23 H       -2.4330    -5.1830    -0.7960 H     1 <1>   0.0800 
 24 H        2.8910    -4.3670     0.4740 H     1 <1>   0.0800 
 25 H        4.2790    -4.4170     1.5080 H     1 <1>   0.0800 
 26 H        5.4900    -2.1700     2.0650 H     1 <1>   0.0800 
 27 H        4.8560    -0.7100     1.3770 H     1 <1>   0.0800 
 28 H        4.2400    -3.6970    -1.4320 H     1 <1>   0.0800 
 29 H        4.9180    -5.1420    -0.7400 H     1 <1>   0.0800 
 30 H        6.8530    -1.4760     0.1460 H     1 <1>   0.0800 
 31 H        5.4350    -1.4050    -0.8630 H     1 <1>   0.0800 
 32 H        6.5890    -3.8390     0.3580 H     1 <1>   0.4500 
 33 H        6.3890    -3.0410    -2.4900 H     1 <1>   0.0800 
 34 H        7.0580    -4.5490    -1.9030 H     1 <1>   0.0800 
 35 H        7.8560    -3.0360    -1.5340 H     1 <1>   0.0800 
@<TRIPOS>BOND
  1   1   2  1   
  2   2   3  ar  
  3   2   4  ar  
  4   3   5  1   
  5   3   6  ar  
  6   4   7  1   
  7   4   8  ar  
  8   6   9  ar  
  9   6  10  1   
 10   7  11  2   
 11   7  12  am  
 12   8   9  ar  
 13   8  19  1   
 14   9  20  1   
 15  10  21  1   
 16  10  22  1   
 17  10  23  1   
 18  12  13  1   
 19  12  14  1   
 20  13  15  1   
 21  13  24  1   
 22  13  25  1   
 23  14  16  1   
 24  14  26  1   
 25  14  27  1   
 26  15  17  1   
 27  15  28  1   
 28  15  29  1   
 29  16  17  1   
 30  16  30  1   
 31  16  31  1   
 32  17  18  1   
 33  17  32  1   
 34  18  33  1   
 35  18  34  1   
 36  18  35  1   
@<TRIPOS>SUBSTRUCTURE
  1 ****   4 GROUP 4 **** **** 0

# MOE 2024.06 (io_trps.svl 2023.06)
