@<TRIPOS>MOLECULE
NONAME
33 34 1 0 0 
SMALL
USER_CHARGES


@<TRIPOS>ATOM
  1 BR      -0.0630    -0.0710    -0.0610 Br    1 <1>  -0.1110 
  2 C        1.6570     0.7900    -0.1110 C.ar  1 <1>   0.1110 
  3 C        1.9540     1.6210    -1.1770 C.ar  1 <1>  -0.1500 
  4 C        2.5480     0.5550     0.9200 C.ar  1 <1>  -0.1500 
  5 C        3.1930     2.2380    -1.2070 C.ar  1 <1>  -0.1500 
  6 C        3.7870     1.1740     0.8850 C.ar  1 <1>  -0.1500 
  7 C        4.0980     2.0100    -0.1820 C.ar  1 <1>   0.1020 
  8 S        5.6870     2.8500    -0.3080 S.3   1 <1>  -0.3320 
  9 C        6.7090     2.2790     1.1380 C.3   1 <1>   0.1310 
 10 C        8.0950     2.9100     1.1170 C.2   1 <1>   0.5690 
 11 O        8.3370     3.7100     1.9910 O.2   1 <1>  -0.5700 
 12 N        9.0360     2.5610     0.1740 N.am  1 <1>  -0.6600 
 13 C       10.3880     3.1890     0.1680 C.3   1 <1>   0.1400 
 14 C        8.8170     1.5990    -0.9440 C.3   1 <1>   0.1400 
 15 C       11.4650     2.1010     0.2300 C.3   1 <1>  -0.1600 
 16 C        9.8780     0.4940    -0.8920 C.3   1 <1>  -0.1600 
 17 C       11.2990     1.0740    -0.8980 C.3   1 <1>  -0.1600 
 18 H        1.2330     1.7800    -1.9590 H     1 <1>   0.1500 
 19 H        2.2750    -0.0970     1.7310 H     1 <1>   0.1500 
 20 H        3.4610     2.8920    -2.0180 H     1 <1>   0.1500 
 21 H        4.4810     0.9990     1.6830 H     1 <1>   0.1500 
 22 H        6.7790     1.2090     1.0910 H     1 <1>   0.0800 
 23 H        6.1870     2.5770     2.0280 H     1 <1>   0.0800 
 24 H       10.5040     3.8570     1.0050 H     1 <1>   0.0800 
 25 H       10.5000     3.7660    -0.7340 H     1 <1>   0.0800 
 26 H        8.8910     2.1310    -1.8770 H     1 <1>   0.0800 
 27 H        7.8400     1.1530    -0.8960 H     1 <1>   0.0800 
 28 H       11.4010     1.6080     1.1850 H     1 <1>   0.0800 
 29 H       12.4350     2.5590     0.1630 H     1 <1>   0.0800 
 30 H        9.7520    -0.1590    -1.7370 H     1 <1>   0.0800 
 31 H        9.7290    -0.0900     0.0000 H     1 <1>   0.0800 
 32 H       12.0170     0.2810    -0.7780 H     1 <1>   0.0800 
 33 H       11.4850     1.5520    -1.8450 H     1 <1>   0.0800 
@<TRIPOS>BOND
  1   1   2  1   
  2   2   3  ar  
  3   2   4  ar  
  4   3   5  ar  
  5   3  18  1   
  6   4   6  ar  
  7   4  19  1   
  8   5   7  ar  
  9   5  20  1   
 10   6   7  ar  
 11   6  21  1   
 12   7   8  1   
 13   8   9  1   
 14   9  10  1   
 15   9  22  1   
 16   9  23  1   
 17  10  11  2   
 18  10  12  am  
 19  12  13  1   
 20  12  14  1   
 21  13  15  1   
 22  13  24  1   
 23  13  25  1   
 24  14  16  1   
 25  14  26  1   
 26  14  27  1   
 27  15  17  1   
 28  15  28  1   
 29  15  29  1   
 30  16  17  1   
 31  16  30  1   
 32  16  31  1   
 33  17  32  1   
 34  17  33  1   
@<TRIPOS>SUBSTRUCTURE
  1 ****   8 GROUP 4 **** **** 0

# MOE 2024.06 (io_trps.svl 2023.06)
