@<TRIPOS>MOLECULE
NONAME
42 45 1 0 0 
SMALL
USER_CHARGES


@<TRIPOS>ATOM
  1 F        1.0750     0.2020    -1.9010 F     1 <1>  -0.3400 
  2 C        2.2720     0.3180    -1.3380 C.3   1 <1>   1.1580 
  3 F        2.1360     1.2470    -0.4020 F     1 <1>  -0.3400 
  4 F        3.0610     0.8130    -2.2820 F     1 <1>  -0.3400 
  5 C        2.7440    -1.0140    -0.8000 C.2   1 <1>  -0.1690 
  6 N        3.9810    -1.0120    -0.1990 N.pl3 1 <1>   0.6010 
  7 C        2.0680    -2.1980    -0.8550 C.2   1 <1>  -0.1360 
  8 N        4.8460    -0.0030    -0.0150 N.2   1 <1>  -0.7070 
  9 C        4.4780    -2.1910     0.3040 C.2   1 <1>  -0.0260 
 10 C        2.6390    -3.3810    -0.3060 C.2   1 <1>   0.4360 
 11 C        5.8930    -0.5320     0.6060 C.2   1 <1>   0.2030 
 12 N        3.8030    -3.3920     0.2520 N.2   1 <1>  -0.5760 
 13 C        5.6930    -1.8970     0.8180 C.2   1 <1>  -0.1500 
 14 C        1.8390    -4.6710    -0.3970 C.3   1 <1>  -0.1000 
 15 C        7.1060     0.1710     1.0140 C.2   1 <1>   0.7160 
 16 C        0.4680    -4.7710     0.2090 C.3   1 <1>  -0.2000 
 17 C        1.6090    -5.5210     0.8190 C.3   1 <1>  -0.2000 
 18 O        7.1060     1.3520     1.3180 O.2   1 <1>  -0.5700 
 19 N        8.2980    -0.5000     1.0600 N.am  1 <1>  -0.7300 
 20 C        9.6350     0.1040     1.2680 C.3   1 <1>   0.1400 
 21 C       10.5150    -0.1620     0.0380 C.3   1 <1>   0.2000 
 22 O       10.4310    -1.5040    -0.3310 O.3   1 <1>  -0.5600 
 23 C       12.0020     0.0750     0.2580 C.3   1 <1>  -0.1600 
 24 C       11.5360    -1.8570    -1.1020 C.3   1 <1>   0.1200 
 25 C       12.6440    -0.8650    -0.7500 C.3   1 <1>  -0.1600 
 26 H        1.0950    -2.2880    -1.3070 H     1 <1>   0.1500 
 27 H        6.3680    -2.5790     1.3010 H     1 <1>   0.1500 
 28 H        2.0230    -5.1920    -1.3200 H     1 <1>   0.1000 
 29 H       -0.2920    -5.3290    -0.3130 H     1 <1>   0.1000 
 30 H        0.0630    -3.9400     0.7600 H     1 <1>   0.1000 
 31 H        2.0150    -5.1860     1.7590 H     1 <1>   0.1000 
 32 H        1.6490    -6.5910     0.7130 H     1 <1>   0.1000 
 33 H        8.3650    -1.4110     0.5960 H     1 <1>   0.3700 
 34 H       10.0850    -0.3380     2.1390 H     1 <1>   0.0800 
 35 H        9.5530     1.1650     1.4350 H     1 <1>   0.0800 
 36 H       10.1670     0.4250    -0.7950 H     1 <1>   0.0800 
 37 H       12.2770    -0.2140     1.2570 H     1 <1>   0.0800 
 38 H       12.2720     1.1040     0.0970 H     1 <1>   0.0800 
 39 H       11.2590    -1.7840    -2.1400 H     1 <1>   0.0800 
 40 H       11.8070    -2.8710    -0.8620 H     1 <1>   0.0800 
 41 H       13.5000    -1.3680    -0.3370 H     1 <1>   0.0800 
 42 H       12.9450    -0.3340    -1.6360 H     1 <1>   0.0800 
@<TRIPOS>BOND
  1   1   2  1   
  2   2   3  1   
  3   2   4  1   
  4   2   5  1   
  5   5   6  1   
  6   5   7  2   
  7   6   8  1   
  8   6   9  1   
  9   7  10  1   
 10   7  26  1   
 11   8  11  2   
 12   9  12  1   
 13   9  13  2   
 14  10  12  2   
 15  10  14  1   
 16  11  13  1   
 17  11  15  1   
 18  13  27  1   
 19  14  16  1   
 20  14  17  1   
 21  14  28  1   
 22  15  18  2   
 23  15  19  am  
 24  16  17  1   
 25  16  29  1   
 26  16  30  1   
 27  17  31  1   
 28  17  32  1   
 29  19  20  1   
 30  19  33  1   
 31  20  21  1   
 32  20  34  1   
 33  20  35  1   
 34  21  22  1   
 35  21  23  1   
 36  21  36  1   
 37  22  24  1   
 38  23  25  1   
 39  23  37  1   
 40  23  38  1   
 41  24  25  1   
 42  24  39  1   
 43  24  40  1   
 44  25  41  1   
 45  25  42  1   
@<TRIPOS>SUBSTRUCTURE
  1 ****  11 GROUP 4 **** **** 0

# MOE 2024.06 (io_trps.svl 2023.06)
