@<TRIPOS>MOLECULE
NONAME
53 55 1 0 0 
SMALL
USER_CHARGES


@<TRIPOS>ATOM
  1 O       -0.9170     1.5540     3.1890 O.2   1 <1>  -0.5700 
  2 C       -0.9100     2.0010     2.0670 C.2   1 <1>   0.5690 
  3 N       -1.5070     1.3510     1.0390 N.am  1 <1>  -0.7300 
  4 C       -0.1820     3.3230     1.8000 C.3   1 <1>   0.1710 
  5 C       -2.2600     0.0960     1.1720 C.3   1 <1>   0.2840 
  6 N        1.1340     3.1790     1.1050 N.3   1 <1>  -0.8100 
  7 C       -2.9140    -0.1950    -0.1660 C.ar  1 <1>  -0.1430 
  8 C        1.7600     4.4990     0.8650 C.3   1 <1>   0.1100 
  9 C        2.0490     2.3040     1.8890 C.3   1 <1>   0.1100 
 10 C       -4.1200     0.4050    -0.4970 C.ar  1 <1>  -0.1500 
 11 C       -2.3100    -1.0540    -1.0720 C.ar  1 <1>  -0.1500 
 12 C        3.1060     4.3810     0.1060 C.3   1 <1>   0.3430 
 13 C        3.4840     2.2530     1.3130 C.3   1 <1>   0.3430 
 14 C       -4.7160     0.1480    -1.7200 C.ar  1 <1>  -0.1500 
 15 C       -2.9050    -1.3110    -2.2950 C.ar  1 <1>  -0.1500 
 16 N        3.5500     2.9550    -0.0120 N.4   1 <1>  -0.9590 
 17 C       -4.1090    -0.7100    -2.6190 C.ar  1 <1>  -0.1500 
 18 C        4.8390     2.7750    -0.7280 C.3   1 <1>   0.4860 
 19 C        5.0900     1.2920    -0.9150 C.ar  1 <1>  -0.1430 
 20 C        4.3330     0.5590    -1.8180 C.ar  1 <1>  -0.1500 
 21 C        6.0730     0.6520    -0.1750 C.ar  1 <1>  -0.1500 
 22 C        4.5500    -0.7990    -1.9670 C.ar  1 <1>  -0.1500 
 23 C        6.2870    -0.7060    -0.3280 C.ar  1 <1>  -0.1500 
 24 C        5.5250    -1.4390    -1.2210 C.ar  1 <1>  -0.1430 
 25 C        5.7650    -2.9290    -1.3880 C.3   1 <1>  -0.0970 
 26 H       -1.4480     1.7060     0.0830 H     1 <1>   0.3700 
 27 H       -0.0400     3.8180     2.7450 H     1 <1>   0.0800 
 28 H       -0.8310     3.9390     1.2040 H     1 <1>   0.0800 
 29 H       -3.0060     0.1990     1.9420 H     1 <1>   0.0800 
 30 H       -1.5900    -0.7000     1.4490 H     1 <1>   0.0800 
 31 H        1.9310     4.9960     1.8060 H     1 <1>   0.0800 
 32 H        1.0910     5.1180     0.2910 H     1 <1>   0.0800 
 33 H        1.6560     1.3010     1.9030 H     1 <1>   0.0800 
 34 H        2.0950     2.6380     2.9130 H     1 <1>   0.0800 
 35 H       -4.5980     1.0750     0.1960 H     1 <1>   0.1500 
 36 H       -1.3740    -1.5270    -0.8310 H     1 <1>   0.1500 
 37 H        3.8520     4.9620     0.6220 H     1 <1>   0.0800 
 38 H        2.9850     4.8040    -0.8780 H     1 <1>   0.0800 
 39 H        3.7760     1.2200     1.2050 H     1 <1>   0.0800 
 40 H        4.1640     2.7150     2.0090 H     1 <1>   0.0800 
 41 H       -5.6530     0.6150    -1.9700 H     1 <1>   0.1500 
 42 H       -2.4330    -1.9790    -2.9950 H     1 <1>   0.1500 
 43 H        2.8100     2.4880    -0.5550 H     1 <1>   0.4500 
 44 H       -4.5730    -0.9110    -3.5690 H     1 <1>   0.1500 
 45 H        5.6440     3.2130    -0.1620 H     1 <1>   0.0800 
 46 H        4.7980     3.2530    -1.6930 H     1 <1>   0.0800 
 47 H        3.5710     1.0290    -2.4160 H     1 <1>   0.1500 
 48 H        6.6850     1.1960     0.5250 H     1 <1>   0.1500 
 49 H        3.9580    -1.3600    -2.6710 H     1 <1>   0.1500 
 50 H        7.0550    -1.1950     0.2480 H     1 <1>   0.1500 
 51 H        6.5410    -3.0930    -2.1140 H     1 <1>   0.0800 
 52 H        4.8700    -3.4230    -1.7200 H     1 <1>   0.0800 
 53 H        6.0660    -3.3680    -0.4540 H     1 <1>   0.0800 
@<TRIPOS>BOND
  1   1   2  2   
  2   2   3  am  
  3   2   4  1   
  4   3   5  1   
  5   3  26  1   
  6   4   6  1   
  7   4  27  1   
  8   4  28  1   
  9   5   7  1   
 10   5  29  1   
 11   5  30  1   
 12   6   8  1   
 13   6   9  1   
 14   7  10  ar  
 15   7  11  ar  
 16   8  12  1   
 17   8  31  1   
 18   8  32  1   
 19   9  13  1   
 20   9  33  1   
 21   9  34  1   
 22  10  14  ar  
 23  10  35  1   
 24  11  15  ar  
 25  11  36  1   
 26  12  16  1   
 27  12  37  1   
 28  12  38  1   
 29  13  16  1   
 30  13  39  1   
 31  13  40  1   
 32  14  17  ar  
 33  14  41  1   
 34  15  17  ar  
 35  15  42  1   
 36  16  18  1   
 37  16  43  1   
 38  17  44  1   
 39  18  19  1   
 40  18  45  1   
 41  18  46  1   
 42  19  20  ar  
 43  19  21  ar  
 44  20  22  ar  
 45  20  47  1   
 46  21  23  ar  
 47  21  48  1   
 48  22  24  ar  
 49  22  49  1   
 50  23  24  ar  
 51  23  50  1   
 52  24  25  1   
 53  25  51  1   
 54  25  52  1   
 55  25  53  1   
@<TRIPOS>SUBSTRUCTURE
  1 ****   6 GROUP 4 **** **** 0

# MOE 2024.06 (io_trps.svl 2023.06)
