@<TRIPOS>MOLECULE
NONAME
48 49 1 0 0 
SMALL
USER_CHARGES


@<TRIPOS>ATOM
  1 S        0.2420     0.0630     0.2840 S.o2  1 <1>   1.4470 
  2 O        0.2240     1.3240    -0.4210 O.2   1 <1>  -0.6500 
  3 O        0.7030    -0.0050     1.6530 O.2   1 <1>  -0.6500 
  4 N        1.3600    -0.7960    -0.6290 N.am  1 <1>  -0.9140 
  5 C       -1.3010    -0.8670     0.0790 C.ar  1 <1>  -0.0090 
  6 C        2.7340    -0.5410    -0.2160 C.3   1 <1>   0.1960 
  7 C       -2.5190    -0.2730     0.3950 C.ar  1 <1>   0.0830 
  8 C       -1.3100    -2.1860    -0.3670 C.ar  1 <1>  -0.1500 
  9 C        3.6960    -1.2660    -1.1560 C.3   1 <1>  -0.0160 
 10 O       -2.4880     1.0020     0.8570 O.3   1 <1>  -0.3630 
 11 C       -3.7090    -0.9810     0.2430 C.ar  1 <1>  -0.1500 
 12 C       -2.4890    -2.8960    -0.5210 C.ar  1 <1>  -0.1430 
 13 C        5.1350    -1.0010    -0.7460 C.ar  1 <1>  -0.1430 
 14 C       -3.6570     1.7110     1.2020 C.3   1 <1>   0.0400 
 15 C       -3.6910    -2.2840    -0.2150 C.ar  1 <1>  -0.1500 
 16 C       -2.4610    -4.3320    -1.0140 C.3   1 <1>  -0.0970 
 17 C        5.7430    -1.7910     0.2170 C.ar  1 <1>  -0.1500 
 18 C        5.8490     0.0330    -1.3280 C.ar  1 <1>  -0.1500 
 19 C        7.0600    -1.5560     0.6030 C.ar  1 <1>   0.0830 
 20 C        7.1580     0.2780    -0.9550 C.ar  1 <1>  -0.1500 
 21 O        7.6930    -2.3110     1.5490 O.3   1 <1>  -0.3620 
 22 C        7.7760    -0.5120     0.0110 C.ar  1 <1>   0.0830 
 23 C        7.0340    -3.3510     2.2350 C.3   1 <1>   0.0400 
 24 O        9.0650    -0.3070     0.4100 O.3   1 <1>  -0.3630 
 25 C        9.8560     0.7250    -0.1320 C.3   1 <1>   0.0400 
 26 H        1.2470    -0.3680    -1.5470 H     1 <1>   0.4200 
 27 H        2.8850    -0.8990     0.7900 H     1 <1>   0.0800 
 28 H        2.9350     0.5180    -0.2320 H     1 <1>   0.0800 
 29 H       -0.3780    -2.6740    -0.5950 H     1 <1>   0.1500 
 30 H        3.5420    -0.9290    -2.1650 H     1 <1>   0.0800 
 31 H        3.5010    -2.3240    -1.1200 H     1 <1>   0.0800 
 32 H       -4.6580    -0.5370     0.4760 H     1 <1>   0.1500 
 33 H       -3.3650     2.6920     1.5310 H     1 <1>   0.0800 
 34 H       -4.1590     1.1920     1.9990 H     1 <1>   0.0800 
 35 H       -4.2870     1.7900     0.3330 H     1 <1>   0.0800 
 36 H       -4.6160    -2.8220    -0.3280 H     1 <1>   0.1500 
 37 H       -2.3300    -4.9990    -0.1810 H     1 <1>   0.0800 
 38 H       -1.6510    -4.4770    -1.7060 H     1 <1>   0.0800 
 39 H       -3.3810    -4.5780    -1.5130 H     1 <1>   0.0800 
 40 H        5.1760    -2.5870     0.6590 H     1 <1>   0.1500 
 41 H        5.3900     0.6560    -2.0760 H     1 <1>   0.1500 
 42 H        7.6780     1.0880    -1.4280 H     1 <1>   0.1500 
 43 H        7.7290    -3.7800     2.9340 H     1 <1>   0.0800 
 44 H        6.7250    -4.0970     1.5240 H     1 <1>   0.0800 
 45 H        6.1900    -2.9420     2.7620 H     1 <1>   0.0800 
 46 H       10.8220     0.6850     0.3370 H     1 <1>   0.0800 
 47 H        9.3870     1.6700     0.0770 H     1 <1>   0.0800 
 48 H        9.9570     0.5670    -1.1910 H     1 <1>   0.0800 
@<TRIPOS>BOND
  1   1   2  2   
  2   1   3  2   
  3   1   4  am  
  4   1   5  1   
  5   4   6  1   
  6   4  26  1   
  7   5   7  ar  
  8   5   8  ar  
  9   6   9  1   
 10   6  27  1   
 11   6  28  1   
 12   7  10  1   
 13   7  11  ar  
 14   8  12  ar  
 15   8  29  1   
 16   9  13  1   
 17   9  30  1   
 18   9  31  1   
 19  10  14  1   
 20  11  15  ar  
 21  11  32  1   
 22  12  15  ar  
 23  12  16  1   
 24  13  17  ar  
 25  13  18  ar  
 26  14  33  1   
 27  14  34  1   
 28  14  35  1   
 29  15  36  1   
 30  16  37  1   
 31  16  38  1   
 32  16  39  1   
 33  17  19  ar  
 34  17  40  1   
 35  18  20  ar  
 36  18  41  1   
 37  19  21  1   
 38  19  22  ar  
 39  20  22  ar  
 40  20  42  1   
 41  21  23  1   
 42  22  24  1   
 43  23  43  1   
 44  23  44  1   
 45  23  45  1   
 46  24  25  1   
 47  25  46  1   
 48  25  47  1   
 49  25  48  1   
@<TRIPOS>SUBSTRUCTURE
  1 ****   6 GROUP 4 **** **** 0

# MOE 2024.06 (io_trps.svl 2023.06)
