@<TRIPOS>MOLECULE
NONAME
42 44 1 0 0 
SMALL
USER_CHARGES


@<TRIPOS>ATOM
  1 O        0.4250     0.6810     0.2660 O.co2 1 <1>  -0.9000 
  2 C       -0.0430     1.6140    -0.3960 C.2   1 <1>   0.9060 
  3 O       -0.1070     1.5700    -1.6260 O.co2 1 <1>  -0.9000 
  4 C       -0.6080     2.7920     0.3800 C.3   1 <1>  -0.1860 
  5 C       -2.2100     2.5820     0.9760 C.3   1 <1>  -0.0190 
  6 C       -0.5890     4.2360    -0.4370 C.3   1 <1>   0.0580 
  7 C       -2.9420     1.2490     0.7370 C.2   1 <1>   0.5690 
  8 C       -3.0640     3.9120     0.4610 C.3   1 <1>   0.0580 
  9 C       -1.5280     5.5270    -0.6900 C.2   1 <1>  -0.2880 
 10 C       -1.8000     3.9560     0.0440 C.3   1 <1>  -0.1600 
 11 O       -4.1510     1.2510     0.6640 O.2   1 <1>  -0.5700 
 12 N       -2.2580     0.0810     0.6930 N.am  1 <1>  -0.7300 
 13 C       -2.8240     5.3580    -0.2190 C.2   1 <1>  -0.2880 
 14 C       -2.8320    -1.2170     0.2970 C.3   1 <1>   0.1400 
 15 C       -1.7240    -2.1710    -0.1740 C.3   1 <1>  -0.0800 
 16 C       -2.3450    -3.4370    -0.7930 C.3   1 <1>  -0.1600 
 17 C       -0.7670    -2.5490     0.9730 C.3   1 <1>  -0.1600 
 18 C       -1.2660    -4.4220    -1.2630 C.3   1 <1>  -0.1600 
 19 C        0.3090    -3.5380     0.5050 C.3   1 <1>  -0.1600 
 20 C       -0.3180    -4.7930    -0.1150 C.3   1 <1>  -0.1600 
 21 H        0.0510     2.8850     1.2300 H     1 <1>   0.0800 
 22 H       -2.1490     2.6340     2.0530 H     1 <1>   0.0800 
 23 H       -0.3150     3.9660    -1.4480 H     1 <1>   0.0800 
 24 H       -3.8310     3.5030    -0.1820 H     1 <1>   0.0800 
 25 H       -1.0970     6.3780    -1.1880 H     1 <1>   0.1500 
 26 H       -2.1050     3.4780    -0.9760 H     1 <1>   0.0800 
 27 H       -1.4910     4.5080     1.0850 H     1 <1>   0.0800 
 28 H       -1.2180     0.1190     0.6270 H     1 <1>   0.3700 
 29 H       -3.6510     6.0470    -0.2580 H     1 <1>   0.1500 
 30 H       -3.5330    -1.0510    -0.5030 H     1 <1>   0.0800 
 31 H       -3.3610    -1.6390     1.1320 H     1 <1>   0.0800 
 32 H       -1.1580    -1.6650    -0.9410 H     1 <1>   0.0800 
 33 H       -2.9590    -3.1600    -1.6330 H     1 <1>   0.0800 
 34 H       -2.9730    -3.9210    -0.0650 H     1 <1>   0.0800 
 35 H       -1.3260    -2.9830     1.7830 H     1 <1>   0.0800 
 36 H       -0.2800    -1.6640     1.3450 H     1 <1>   0.0800 
 37 H       -0.6980    -3.9690    -2.0580 H     1 <1>   0.0800 
 38 H       -1.7310    -5.3110    -1.6510 H     1 <1>   0.0800 
 39 H        0.9310    -3.8130     1.3380 H     1 <1>   0.0800 
 40 H        0.9330    -3.0490    -0.2240 H     1 <1>   0.0800 
 41 H        0.4610    -5.4370    -0.4850 H     1 <1>   0.0800 
 42 H       -0.8640    -5.3290     0.6410 H     1 <1>   0.0800 
@<TRIPOS>BOND
  1   1   2  ar  
  2   2   3  ar  
  3   2   4  1   
  4   4   5  1   
  5   4   6  1   
  6   4  21  1   
  7   5   7  1   
  8   5   8  1   
  9   5  22  1   
 10   6   9  1   
 11   6  10  1   
 12   6  23  1   
 13   7  11  2   
 14   7  12  am  
 15   8  10  1   
 16   8  13  1   
 17   8  24  1   
 18   9  13  2   
 19   9  25  1   
 20  10  26  1   
 21  10  27  1   
 22  12  14  1   
 23  12  28  1   
 24  13  29  1   
 25  14  15  1   
 26  14  30  1   
 27  14  31  1   
 28  15  16  1   
 29  15  17  1   
 30  15  32  1   
 31  16  18  1   
 32  16  33  1   
 33  16  34  1   
 34  17  19  1   
 35  17  35  1   
 36  17  36  1   
 37  18  20  1   
 38  18  37  1   
 39  18  38  1   
 40  19  20  1   
 41  19  39  1   
 42  19  40  1   
 43  20  41  1   
 44  20  42  1   
@<TRIPOS>SUBSTRUCTURE
  1 ****  12 GROUP 4 **** **** 0

# MOE 2024.06 (io_trps.svl 2023.06)
