@<TRIPOS>MOLECULE
NONAME
37 39 1 0 0 
SMALL
USER_CHARGES


@<TRIPOS>ATOM
  1 F        0.2870    -1.6290    -0.1770 F     1 <1>  -0.1900 
  2 C        1.5680    -1.5870     0.0870 C.ar  1 <1>   0.1900 
  3 C        2.1080    -2.5450     0.9260 C.ar  1 <1>  -0.1500 
  4 C        2.3340    -0.5870    -0.4810 C.ar  1 <1>  -0.1500 
  5 C        3.4640    -2.4960     1.1990 C.ar  1 <1>  -0.1500 
  6 C        3.6880    -0.5510    -0.1980 C.ar  1 <1>  -0.1500 
  7 C        4.2640    -1.5060     0.6360 C.ar  1 <1>   0.1000 
  8 N        5.6220    -1.4790     0.9120 N.pl3 1 <1>  -0.8690 
  9 C        6.5370    -1.8220    -0.2200 C.3   1 <1>   0.3500 
 10 C        7.7640    -2.6330     0.2070 C.2   1 <1>   0.5690 
 11 C        7.1430    -0.5500    -0.8180 C.3   1 <1>  -0.0990 
 12 O        7.6960    -3.6830     0.7990 O.2   1 <1>  -0.5700 
 13 N        8.9100    -2.0020    -0.1620 N.am  1 <1>  -0.4200 
 14 C        8.6270    -0.8130    -0.7680 C.2   1 <1>   0.5690 
 15 C       10.2590    -2.5640     0.1130 C.3   1 <1>   0.2200 
 16 O        9.4200    -0.0380    -1.2330 O.2   1 <1>  -0.5700 
 17 C       11.0550    -1.6810     1.0850 C.3   1 <1>  -0.1600 
 18 C       11.1120    -2.6960    -1.1570 C.3   1 <1>  -0.1600 
 19 C       12.4770    -1.6350     0.5300 C.3   1 <1>  -0.1600 
 20 C       12.2940    -1.7430    -0.9800 C.3   1 <1>  -0.1600 
 21 H        1.4780    -3.3050     1.3510 H     1 <1>   0.1500 
 22 H        1.8760     0.1430    -1.1230 H     1 <1>   0.1500 
 23 H        3.9050    -3.2310     1.8470 H     1 <1>   0.1500 
 24 H        4.3030     0.2240    -0.6160 H     1 <1>   0.1500 
 25 H        5.8610    -2.0830     1.7120 H     1 <1>   0.4000 
 26 H        6.0040    -2.3760    -0.9730 H     1 <1>   0.0800 
 27 H        6.9140     0.3200    -0.2290 H     1 <1>   0.0800 
 28 H        6.8290    -0.4090    -1.8340 H     1 <1>   0.0800 
 29 H       10.1530    -3.5440     0.5470 H     1 <1>   0.0800 
 30 H       11.0390    -2.0830     2.0820 H     1 <1>   0.0800 
 31 H       10.6600    -0.6800     1.1020 H     1 <1>   0.0800 
 32 H       10.5630    -2.4770    -2.0570 H     1 <1>   0.0800 
 33 H       11.4850    -3.7030    -1.2170 H     1 <1>   0.0800 
 34 H       13.0340    -2.4850     0.8860 H     1 <1>   0.0800 
 35 H       12.9910    -0.7310     0.8090 H     1 <1>   0.0800 
 36 H       12.0350    -0.7750    -1.3760 H     1 <1>   0.0800 
 37 H       13.1820    -2.0990    -1.4730 H     1 <1>   0.0800 
@<TRIPOS>BOND
  1   1   2  1   
  2   2   3  ar  
  3   2   4  ar  
  4   3   5  ar  
  5   3  21  1   
  6   4   6  ar  
  7   4  22  1   
  8   5   7  ar  
  9   5  23  1   
 10   6   7  ar  
 11   6  24  1   
 12   7   8  1   
 13   8   9  1   
 14   8  25  1   
 15   9  10  1   
 16   9  11  1   
 17   9  26  1   
 18  10  12  2   
 19  10  13  am  
 20  11  14  1   
 21  11  27  1   
 22  11  28  1   
 23  13  14  am  
 24  13  15  1   
 25  14  16  2   
 26  15  17  1   
 27  15  18  1   
 28  15  29  1   
 29  17  19  1   
 30  17  30  1   
 31  17  31  1   
 32  18  20  1   
 33  18  32  1   
 34  18  33  1   
 35  19  20  1   
 36  19  34  1   
 37  19  35  1   
 38  20  36  1   
 39  20  37  1   
@<TRIPOS>SUBSTRUCTURE
  1 ****   9 GROUP 4 **** **** 0

# MOE 2024.06 (io_trps.svl 2023.06)
