@<TRIPOS>MOLECULE
NONAME
38 40 1 0 0 
SMALL
USER_CHARGES


@<TRIPOS>ATOM
  1 S       -0.5870     0.1600     0.9410 S.3   1 <1>  -0.0800 
  2 C        0.8720     1.0210     0.4280 C.2   1 <1>   0.1040 
  3 C       -1.5270     1.6210     0.8010 C.2   1 <1>  -0.1400 
  4 N        2.0890     0.3590     0.3270 N.am  1 <1>  -0.4940 
  5 C        0.6040     2.3500     0.1970 C.2   1 <1>  -0.0860 
  6 C       -0.7890     2.6470     0.4150 C.2   1 <1>  -0.1810 
  7 C       -2.9810     1.8700     1.0380 C.3   1 <1>   0.0200 
  8 C        2.5190    -0.9400     0.3400 C.2   1 <1>   0.5690 
  9 C        1.5820     3.3230    -0.2040 C.2   1 <1>   0.8060 
 10 C       -1.6480     3.8840     0.3050 C.3   1 <1>   0.0210 
 11 C       -3.0630     3.3840     0.7160 C.3   1 <1>  -0.1600 
 12 O        3.7050    -1.1530     0.3350 O.2   1 <1>  -0.5700 
 13 C        1.5840    -2.1390     0.3540 C.3   1 <1>   0.1310 
 14 O        2.7700     3.0690    -0.3050 O.2   1 <1>  -0.5700 
 15 O        1.1750     4.5710    -0.4750 O.3   1 <1>  -0.4300 
 16 S        0.6850    -2.2810    -1.2650 S.3   1 <1>  -0.3310 
 17 C        2.0810     5.5810    -0.8750 C.3   1 <1>   0.0400 
 18 C       -0.5540    -3.5280    -0.9680 C.ar  1 <1>   0.7220 
 19 N       -0.5470    -4.0740     0.2400 N.ar  1 <1>  -0.6200 
 20 N       -1.3500    -3.7740    -1.9940 N.ar  1 <1>  -0.6200 
 21 C       -1.4740    -4.9880     0.4270 C.ar  1 <1>   0.1600 
 22 C       -2.2620    -4.6920    -1.7690 C.ar  1 <1>   0.1600 
 23 C       -2.3670    -5.3370    -0.5590 C.ar  1 <1>  -0.1500 
 24 H        2.8830     0.9900     0.1680 H     1 <1>   0.3700 
 25 H       -3.2430     1.6620     2.0600 H     1 <1>   0.0800 
 26 H       -3.5820     1.2840     0.3650 H     1 <1>   0.0800 
 27 H       -1.6460     4.2540    -0.7050 H     1 <1>   0.0800 
 28 H       -1.2960     4.6490     0.9750 H     1 <1>   0.0800 
 29 H       -3.4040     3.9230     1.5820 H     1 <1>   0.0800 
 30 H       -3.7590     3.5500    -0.0880 H     1 <1>   0.0800 
 31 H        0.8630    -2.0650     1.1430 H     1 <1>   0.0800 
 32 H        2.1460    -3.0470     0.4730 H     1 <1>   0.0800 
 33 H        1.5290     6.4900    -1.0350 H     1 <1>   0.0800 
 34 H        2.5640     5.2750    -1.7870 H     1 <1>   0.0800 
 35 H        2.8120     5.7230    -0.0970 H     1 <1>   0.0800 
 36 H       -1.5210    -5.4690     1.3900 H     1 <1>   0.1500 
 37 H       -2.9410    -4.9330    -2.5710 H     1 <1>   0.1500 
 38 H       -3.1190    -6.0850    -0.3910 H     1 <1>   0.1500 
@<TRIPOS>BOND
  1   1   2  1   
  2   1   3  1   
  3   2   4  1   
  4   2   5  2   
  5   3   6  2   
  6   3   7  1   
  7   4   8  am  
  8   4  24  1   
  9   5   6  1   
 10   5   9  1   
 11   6  10  1   
 12   7  11  1   
 13   7  25  1   
 14   7  26  1   
 15   8  12  2   
 16   8  13  1   
 17   9  14  2   
 18   9  15  1   
 19  10  11  1   
 20  10  27  1   
 21  10  28  1   
 22  11  29  1   
 23  11  30  1   
 24  13  16  1   
 25  13  31  1   
 26  13  32  1   
 27  15  17  1   
 28  16  18  1   
 29  17  33  1   
 30  17  34  1   
 31  17  35  1   
 32  18  19  ar  
 33  18  20  ar  
 34  19  21  ar  
 35  20  22  ar  
 36  21  23  ar  
 37  21  36  1   
 38  22  23  ar  
 39  22  37  1   
 40  23  38  1   
@<TRIPOS>SUBSTRUCTURE
  1 ****   1 GROUP 4 **** **** 0

# MOE 2024.06 (io_trps.svl 2023.06)
