@<TRIPOS>MOLECULE
NONAME
38 39 1 0 0 
SMALL
USER_CHARGES


@<TRIPOS>ATOM
  1 O       -8.1370     2.7600     0.0940 O.3   1 <1>  -0.3630 
  2 C       -9.3390     2.1350     0.0210 C.ar  1 <1>   0.0830 
  3 C       -6.9370     2.0620    -0.1160 C.3   1 <1>   0.1200 
  4 C      -10.4620     2.9210     0.2430 C.ar  1 <1>  -0.1500 
  5 C       -9.4920     0.7750    -0.2590 C.ar  1 <1>  -0.1500 
  6 C       -5.7990     3.0690     0.0360 C.3   1 <1>  -0.1600 
  7 C      -11.7170     2.3460     0.1830 C.ar  1 <1>  -0.1440 
  8 C      -10.7560     0.2100    -0.3170 C.ar  1 <1>  -0.1500 
  9 C       -4.4470     2.3960    -0.1860 C.3   1 <1>   0.3430 
 10 C      -11.8620     1.0100    -0.0930 C.ar  1 <1>  -0.1440 
 11 C      -13.0530     3.0120     0.3910 C.3   1 <1>  -0.0160 
 12 N       -3.3360     3.3610     0.0650 N.4   1 <1>  -0.9590 
 13 C      -13.3160     0.6080    -0.1060 C.3   1 <1>  -0.0170 
 14 C      -14.0590     1.9560    -0.1010 C.3   1 <1>  -0.1600 
 15 C       -3.2500     4.4190    -0.9920 C.3   1 <1>   0.2630 
 16 C       -2.0300     2.6420     0.1840 C.3   1 <1>   0.2630 
 17 H       -6.9620     1.6440    -1.1090 H     1 <1>   0.0800 
 18 H       -6.8710     1.2790     0.6210 H     1 <1>   0.0800 
 19 H      -10.3470     3.9670     0.4600 H     1 <1>   0.1500 
 20 H       -8.6470     0.1400    -0.4350 H     1 <1>   0.1500 
 21 H       -5.8420     3.4800     1.0300 H     1 <1>   0.0800 
 22 H       -5.9500     3.8520    -0.6840 H     1 <1>   0.0800 
 23 H      -10.8790    -0.8360    -0.5320 H     1 <1>   0.1500 
 24 H       -4.3860     2.0150    -1.1940 H     1 <1>   0.0800 
 25 H       -4.3590     1.5630     0.4940 H     1 <1>   0.0800 
 26 H      -13.1320     3.9250    -0.1720 H     1 <1>   0.0800 
 27 H      -13.1930     3.2130     1.4380 H     1 <1>   0.0800 
 28 H       -3.5280     3.8250     0.9680 H     1 <1>   0.4500 
 29 H      -13.5390     0.0470     0.7840 H     1 <1>   0.0800 
 30 H      -13.5570     0.0260    -0.9780 H     1 <1>   0.0800 
 31 H      -14.3450     2.1960    -1.1100 H     1 <1>   0.0800 
 32 H      -14.9400     1.9240     0.5160 H     1 <1>   0.0800 
 33 H       -3.0810     3.9720    -1.9590 H     1 <1>   0.0800 
 34 H       -2.4370     5.0950    -0.7790 H     1 <1>   0.0800 
 35 H       -4.1630     4.9900    -1.0310 H     1 <1>   0.0800 
 36 H       -1.7920     2.1380    -0.7390 H     1 <1>   0.0800 
 37 H       -2.0750     1.9100     0.9750 H     1 <1>   0.0800 
 38 H       -1.2380     3.3380     0.4100 H     1 <1>   0.0800 
@<TRIPOS>BOND
  1   1   2  1   
  2   1   3  1   
  3   2   4  ar  
  4   2   5  ar  
  5   3   6  1   
  6   3  17  1   
  7   3  18  1   
  8   4   7  ar  
  9   4  19  1   
 10   5   8  ar  
 11   5  20  1   
 12   6   9  1   
 13   6  21  1   
 14   6  22  1   
 15   7  10  ar  
 16   7  11  1   
 17   8  10  ar  
 18   8  23  1   
 19   9  12  1   
 20   9  24  1   
 21   9  25  1   
 22  10  13  1   
 23  11  14  1   
 24  11  26  1   
 25  11  27  1   
 26  12  15  1   
 27  12  16  1   
 28  12  28  1   
 29  13  14  1   
 30  13  29  1   
 31  13  30  1   
 32  14  31  1   
 33  14  32  1   
 34  15  33  1   
 35  15  34  1   
 36  15  35  1   
 37  16  36  1   
 38  16  37  1   
 39  16  38  1   
@<TRIPOS>SUBSTRUCTURE
  1 ****   2 GROUP 4 **** **** 0

# MOE 2024.06 (io_trps.svl 2023.06)
