@<TRIPOS>MOLECULE
NONAME
49 51 1 0 0 
SMALL
USER_CHARGES


@<TRIPOS>ATOM
  1 O        0.2650     0.5060    -0.7970 O.2   1 <1>  -0.5700 
  2 C        0.1480     1.7130    -0.8700 C.2   1 <1>   0.5440 
  3 N        1.2760     2.4850    -0.8590 N.am  1 <1>  -0.7300 
  4 C       -1.1700     2.3150    -0.9690 C.ar  1 <1>   0.0860 
  5 C        2.6610     1.9540    -0.8080 C.3   1 <1>   0.1400 
  6 C       -2.2010     1.6590    -1.6410 C.ar  1 <1>  -0.1500 
  7 C       -1.4690     3.5530    -0.3980 C.ar  1 <1>  -0.1500 
  8 C        3.1360     1.8670     0.6420 C.3   1 <1>  -0.0160 
  9 C       -3.4670     2.2030    -1.7380 C.ar  1 <1>  -0.1500 
 10 C       -2.7340     4.1050    -0.4890 C.ar  1 <1>  -0.1500 
 11 C        4.5690     1.3630     0.6940 C.ar  1 <1>  -0.1430 
 12 C       -3.7470     3.4290    -1.1530 C.ar  1 <1>  -0.1430 
 13 C        4.8280     0.0030     0.6240 C.ar  1 <1>  -0.1500 
 14 C        5.6280     2.2520     0.8060 C.ar  1 <1>  -0.1500 
 15 C       -5.1480     4.0080    -1.2290 C.3   1 <1>   0.4860 
 16 C        6.1300    -0.4650     0.6650 C.ar  1 <1>  -0.1500 
 17 C        6.9310     1.7850     0.8480 C.ar  1 <1>  -0.1500 
 18 N       -5.8170     3.8030     0.0840 N.4   1 <1>  -0.9590 
 19 C        7.1820     0.4260     0.7770 C.ar  1 <1>  -0.1500 
 20 C       -5.9430     2.3400     0.4270 C.3   1 <1>   0.3430 
 21 C       -7.1570     4.4810     0.1440 C.3   1 <1>   0.3430 
 22 C       -6.7330     2.1320     1.7330 C.3   1 <1>   0.1200 
 23 C       -7.8900     4.1690     1.4640 C.3   1 <1>   0.1200 
 24 O       -7.9660     2.7870     1.6600 O.3   1 <1>  -0.5600 
 25 H        1.1990     3.4910    -1.0140 H     1 <1>   0.3700 
 26 H        3.3140     2.5970    -1.3720 H     1 <1>   0.0800 
 27 H        2.6910     0.9730    -1.2540 H     1 <1>   0.0800 
 28 H       -1.9920     0.7020    -2.0920 H     1 <1>   0.1500 
 29 H       -0.6970     4.0840     0.1320 H     1 <1>   0.1500 
 30 H        2.5000     1.1900     1.1840 H     1 <1>   0.0800 
 31 H        3.0740     2.8350     1.1040 H     1 <1>   0.0800 
 32 H       -4.2250     1.6560    -2.2750 H     1 <1>   0.1500 
 33 H       -2.9140     5.0660    -0.0360 H     1 <1>   0.1500 
 34 H        4.0140    -0.6970     0.5360 H     1 <1>   0.1500 
 35 H        5.4450     3.3100     0.8620 H     1 <1>   0.1500 
 36 H       -5.7050     3.5200    -2.0130 H     1 <1>   0.0800 
 37 H       -5.0870     5.0600    -1.4570 H     1 <1>   0.0800 
 38 H        6.3230    -1.5220     0.6100 H     1 <1>   0.1500 
 39 H        7.7480     2.4790     0.9350 H     1 <1>   0.1500 
 40 H       -5.2090     4.2200     0.7990 H     1 <1>   0.4500 
 41 H        8.1950     0.0630     0.8090 H     1 <1>   0.1500 
 42 H       -4.9650     1.8980     0.5310 H     1 <1>   0.0800 
 43 H       -6.4570     1.8210    -0.3650 H     1 <1>   0.0800 
 44 H       -7.7760     4.1400    -0.6700 H     1 <1>   0.0800 
 45 H       -7.0390     5.5480     0.0470 H     1 <1>   0.0800 
 46 H       -6.1880     2.5050     2.5830 H     1 <1>   0.0800 
 47 H       -6.9270     1.0840     1.8850 H     1 <1>   0.0800 
 48 H       -8.8970     4.5490     1.4280 H     1 <1>   0.0800 
 49 H       -7.3870     4.6130     2.3060 H     1 <1>   0.0800 
@<TRIPOS>BOND
  1   1   2  2   
  2   2   3  am  
  3   2   4  1   
  4   3   5  1   
  5   3  25  1   
  6   4   6  ar  
  7   4   7  ar  
  8   5   8  1   
  9   5  26  1   
 10   5  27  1   
 11   6   9  ar  
 12   6  28  1   
 13   7  10  ar  
 14   7  29  1   
 15   8  11  1   
 16   8  30  1   
 17   8  31  1   
 18   9  12  ar  
 19   9  32  1   
 20  10  12  ar  
 21  10  33  1   
 22  11  13  ar  
 23  11  14  ar  
 24  12  15  1   
 25  13  16  ar  
 26  13  34  1   
 27  14  17  ar  
 28  14  35  1   
 29  15  18  1   
 30  15  36  1   
 31  15  37  1   
 32  16  19  ar  
 33  16  38  1   
 34  17  19  ar  
 35  17  39  1   
 36  18  20  1   
 37  18  21  1   
 38  18  40  1   
 39  19  41  1   
 40  20  22  1   
 41  20  42  1   
 42  20  43  1   
 43  21  23  1   
 44  21  44  1   
 45  21  45  1   
 46  22  24  1   
 47  22  46  1   
 48  22  47  1   
 49  23  24  1   
 50  23  48  1   
 51  23  49  1   
@<TRIPOS>SUBSTRUCTURE
  1 ****   4 GROUP 4 **** **** 0

# MOE 2024.06 (io_trps.svl 2023.06)
