@<TRIPOS>MOLECULE
NONAME
23 24 1 0 0 
SMALL
USER_CHARGES


@<TRIPOS>ATOM
  1 CL       0.8040    -1.2580     1.6980 Cl    1 <1>  -0.1770 
  2 C       -0.4230    -2.1400     0.8180 C.ar  1 <1>   0.1770 
  3 C       -0.0910    -3.0210    -0.2230 C.ar  1 <1>   0.0860 
  4 C       -1.7310    -1.9090     1.2030 C.ar  1 <1>  -0.1500 
  5 C        1.2660    -3.3000    -0.6550 C.2   1 <1>   0.5440 
  6 C       -1.1570    -3.6570    -0.8740 C.ar  1 <1>  -0.1500 
  7 C       -2.7370    -2.5690     0.5310 C.ar  1 <1>   0.1900 
  8 O        1.4860    -3.5300    -1.8280 O.2   1 <1>  -0.5700 
  9 N        2.3080    -3.3520     0.2300 N.am  1 <1>  -0.5790 
 10 C       -2.4730    -3.4410    -0.5070 C.ar  1 <1>  -0.1500 
 11 F       -3.9740    -2.3620     0.8840 F     1 <1>  -0.1900 
 12 C        3.7130    -3.6340    -0.0990 C.3   1 <1>   0.0490 
 13 C        4.5600    -4.2810     0.9460 C.3   1 <1>  -0.2000 
 14 C        4.7640    -2.8370     0.5980 C.3   1 <1>  -0.2000 
 15 H       -1.9620    -1.2310     2.0040 H     1 <1>   0.1500 
 16 H       -0.9400    -4.3330    -1.6860 H     1 <1>   0.1500 
 17 H        2.1510    -3.0580     1.1950 H     1 <1>   0.3700 
 18 H       -3.2830    -3.9360    -1.0140 H     1 <1>   0.1500 
 19 H        3.8670    -3.9030    -1.1320 H     1 <1>   0.1000 
 20 H        5.3070    -4.9890     0.6350 H     1 <1>   0.1000 
 21 H        4.1160    -4.5350     1.8920 H     1 <1>   0.1000 
 22 H        4.4610    -2.0780     1.2980 H     1 <1>   0.1000 
 23 H        5.6490    -2.5650     0.0500 H     1 <1>   0.1000 
@<TRIPOS>BOND
  1   1   2  1   
  2   2   3  ar  
  3   2   4  ar  
  4   3   5  1   
  5   3   6  ar  
  6   4   7  ar  
  7   4  15  1   
  8   5   8  2   
  9   5   9  am  
 10   6  10  ar  
 11   6  16  1   
 12   7  10  ar  
 13   7  11  1   
 14   9  12  1   
 15   9  17  1   
 16  10  18  1   
 17  12  13  1   
 18  12  14  1   
 19  12  19  1   
 20  13  14  1   
 21  13  20  1   
 22  13  21  1   
 23  14  22  1   
 24  14  23  1   
@<TRIPOS>SUBSTRUCTURE
  1 ****   3 GROUP 4 **** **** 0

# MOE 2024.06 (io_trps.svl 2023.06)
