@<TRIPOS>MOLECULE
NONAME
38 38 1 0 0 
SMALL
USER_CHARGES


@<TRIPOS>ATOM
  1 BR       0.2110    -1.5770     0.1150 Br    1 <1>  -0.1110 
  2 C       -1.7130    -1.6070     0.1720 C.ar  1 <1>   0.1110 
  3 C       -2.3940    -0.4060     0.2340 C.ar  1 <1>  -0.1500 
  4 C       -2.3580    -2.8290     0.1530 C.ar  1 <1>  -0.1500 
  5 C       -3.7790    -0.4230     0.2720 C.ar  1 <1>  -0.1440 
  6 C       -3.7430    -2.8560     0.1930 C.ar  1 <1>  -0.1440 
  7 C       -4.4430    -1.6490     0.2390 C.ar  1 <1>   0.0830 
  8 C       -4.5490     0.8870     0.3520 C.3   1 <1>  -0.0960 
  9 C       -4.4660    -4.1970     0.1900 C.3   1 <1>  -0.0960 
 10 O       -5.7940    -1.6650     0.2630 O.3   1 <1>  -0.3630 
 11 C       -6.4390    -1.8060    -0.9940 C.3   1 <1>   0.1810 
 12 C       -7.6850    -2.6810    -0.8810 C.2   1 <1>   0.5690 
 13 O       -7.6350    -3.7720    -1.4060 O.2   1 <1>  -0.5700 
 14 N       -8.8210    -2.2430    -0.2360 N.am  1 <1>  -0.6600 
 15 C       -8.9290    -0.9380     0.4680 C.3   1 <1>   0.1400 
 16 C      -10.0240    -3.1120    -0.1540 C.3   1 <1>   0.1400 
 17 C       -9.5170     0.1050    -0.4790 C.3   1 <1>  -0.2400 
 18 C       -9.9720    -3.9370     1.1300 C.3   1 <1>  -0.2400 
 19 H       -1.8430     0.5160     0.2520 H     1 <1>   0.1500 
 20 H       -1.7820    -3.7350     0.1110 H     1 <1>   0.1500 
 21 H       -3.8880     1.7110     0.5480 H     1 <1>   0.0800 
 22 H       -5.2730     0.8370     1.1450 H     1 <1>   0.0800 
 23 H       -5.0600     1.0680    -0.5760 H     1 <1>   0.0800 
 24 H       -3.8020    -4.9920     0.4780 H     1 <1>   0.0800 
 25 H       -4.8510    -4.4080    -0.7910 H     1 <1>   0.0800 
 26 H       -5.2880    -4.1790     0.8840 H     1 <1>   0.0800 
 27 H       -5.7550    -2.2560    -1.6900 H     1 <1>   0.0800 
 28 H       -6.7010    -0.8280    -1.3470 H     1 <1>   0.0800 
 29 H       -7.9640    -0.6150     0.8170 H     1 <1>   0.0800 
 30 H       -9.5620    -1.0450     1.3320 H     1 <1>   0.0800 
 31 H      -10.0560    -3.7730    -1.0050 H     1 <1>   0.0800 
 32 H      -10.9150    -2.5080    -0.1730 H     1 <1>   0.0800 
 33 H       -8.8900     0.2280    -1.3430 H     1 <1>   0.0800 
 34 H       -9.5900     1.0510     0.0270 H     1 <1>   0.0800 
 35 H      -10.5020    -0.1870    -0.7940 H     1 <1>   0.0800 
 36 H       -9.0880    -4.5500     1.1330 H     1 <1>   0.0800 
 37 H      -10.8310    -4.5800     1.1810 H     1 <1>   0.0800 
 38 H       -9.9680    -3.2990     1.9940 H     1 <1>   0.0800 
@<TRIPOS>BOND
  1   1   2  1   
  2   2   3  ar  
  3   2   4  ar  
  4   3   5  ar  
  5   3  19  1   
  6   4   6  ar  
  7   4  20  1   
  8   5   7  ar  
  9   5   8  1   
 10   6   7  ar  
 11   6   9  1   
 12   7  10  1   
 13   8  21  1   
 14   8  22  1   
 15   8  23  1   
 16   9  24  1   
 17   9  25  1   
 18   9  26  1   
 19  10  11  1   
 20  11  12  1   
 21  11  27  1   
 22  11  28  1   
 23  12  13  2   
 24  12  14  am  
 25  14  15  1   
 26  14  16  1   
 27  15  17  1   
 28  15  29  1   
 29  15  30  1   
 30  16  18  1   
 31  16  31  1   
 32  16  32  1   
 33  17  33  1   
 34  17  34  1   
 35  17  35  1   
 36  18  36  1   
 37  18  37  1   
 38  18  38  1   
@<TRIPOS>SUBSTRUCTURE
  1 ****  10 GROUP 4 **** **** 0

# MOE 2024.06 (io_trps.svl 2023.06)
