@<TRIPOS>MOLECULE
NONAME
39 41 1 0 0 
SMALL
USER_CHARGES


@<TRIPOS>ATOM
  1 O       -0.4990     1.3040     0.1620 O.3   1 <1>  -0.5600 
  2 C       -1.6410     0.6980     0.7040 C.3   1 <1>   0.1200 
  3 C       -0.7450     2.5620    -0.4160 C.3   1 <1>   0.1200 
  4 C       -2.7260     0.4880    -0.3700 C.3   1 <1>   0.2090 
  5 C       -1.7750     2.4470    -1.5520 C.3   1 <1>   0.2090 
  6 N       -3.0240     1.7790    -1.0550 N.pl3 1 <1>  -0.8380 
  7 C       -4.1410     2.5030    -0.7190 C.ar  1 <1>   0.7200 
  8 N       -3.9930     3.7940    -0.6020 N.ar  1 <1>  -0.6200 
  9 N       -5.2580     1.8530    -0.5210 N.ar  1 <1>  -0.6200 
 10 C       -5.0790     4.4450    -0.2770 C.ar  1 <1>   0.7030 
 11 C       -6.2630     2.6150    -0.2020 C.ar  1 <1>   0.7200 
 12 O       -5.0100     5.7770    -0.1290 O.3   1 <1>  -0.1650 
 13 N       -6.2510     3.9150    -0.0620 N.ar  1 <1>  -0.6200 
 14 N       -7.4270     1.9600    -0.0030 N.pl3 1 <1>  -0.8690 
 15 C       -3.8080     6.4090    -0.1240 C.ar  1 <1>   0.3930 
 16 C       -8.7530     2.5960     0.0240 C.3   1 <1>   0.2090 
 17 N       -3.5430     7.1900    -1.1650 N.ar  1 <1>  -0.3100 
 18 C       -2.9470     6.2100     0.9450 C.ar  1 <1>  -0.1500 
 19 C       -9.7890     1.5290     0.3520 C.3   1 <1>  -0.2400 
 20 N       -2.3760     7.7920    -1.2270 N.ar  1 <1>  -0.3100 
 21 C       -1.7360     6.8350     0.8850 C.ar  1 <1>  -0.1500 
 22 C       -1.4700     7.6180    -0.2340 C.ar  1 <1>   0.1390 
 23 O       -0.3510     8.1760    -0.3210 O.3   1 <1>  -0.8290 
 24 H       -2.0170     1.3220     1.4960 H     1 <1>   0.0800 
 25 H       -1.3440    -0.2480     1.1200 H     1 <1>   0.0800 
 26 H        0.1860     2.9420    -0.7970 H     1 <1>   0.0800 
 27 H       -1.1030     3.2350     0.3450 H     1 <1>   0.0800 
 28 H       -3.6100     0.0840     0.0920 H     1 <1>   0.0800 
 29 H       -2.3780    -0.2260    -1.0950 H     1 <1>   0.0800 
 30 H       -1.3550     1.8610    -2.3500 H     1 <1>   0.0800 
 31 H       -1.9840     3.4250    -1.9510 H     1 <1>   0.0800 
 32 H       -7.3970     0.9850    -0.2950 H     1 <1>   0.4000 
 33 H       -8.9600     3.0390    -0.9360 H     1 <1>   0.0800 
 34 H       -8.7670     3.3710     0.7740 H     1 <1>   0.0800 
 35 H       -3.2220     5.5840     1.7700 H     1 <1>   0.1500 
 36 H       -9.7950     0.7670    -0.4060 H     1 <1>   0.0800 
 37 H      -10.7650     1.9770     0.3930 H     1 <1>   0.0800 
 38 H       -9.5760     1.0880     1.3090 H     1 <1>   0.0800 
 39 H       -0.9810     6.7550     1.6420 H     1 <1>   0.1500 
@<TRIPOS>BOND
  1   1   2  1   
  2   1   3  1   
  3   2   4  1   
  4   2  24  1   
  5   2  25  1   
  6   3   5  1   
  7   3  26  1   
  8   3  27  1   
  9   4   6  1   
 10   4  28  1   
 11   4  29  1   
 12   5   6  1   
 13   5  30  1   
 14   5  31  1   
 15   6   7  1   
 16   7   8  ar  
 17   7   9  ar  
 18   8  10  ar  
 19   9  11  ar  
 20  10  12  1   
 21  10  13  ar  
 22  11  13  ar  
 23  11  14  1   
 24  12  15  1   
 25  14  16  1   
 26  14  32  1   
 27  15  17  ar  
 28  15  18  ar  
 29  16  19  1   
 30  16  33  1   
 31  16  34  1   
 32  17  20  ar  
 33  18  21  ar  
 34  18  35  1   
 35  19  36  1   
 36  19  37  1   
 37  19  38  1   
 38  20  22  ar  
 39  21  22  ar  
 40  21  39  1   
 41  22  23  1   
@<TRIPOS>SUBSTRUCTURE
  1 ****   8 GROUP 4 **** **** 0

# MOE 2024.06 (io_trps.svl 2023.06)
