@<TRIPOS>MOLECULE
NONAME
45 46 1 0 0 
SMALL
USER_CHARGES


@<TRIPOS>ATOM
  1 O       -0.5460    -0.0740     1.5050 O.2   1 <1>  -0.5700 
  2 C       -1.2040    -0.0020     0.4900 C.2   1 <1>   0.7800 
  3 O       -2.0790     0.9920     0.3350 O.3   1 <1>  -0.4300 
  4 N       -1.1220    -0.8770    -0.5370 N.am  1 <1>  -0.7300 
  5 C       -2.2500     1.9720     1.3510 C.3   1 <1>   0.2000 
  6 C       -0.2520    -2.0660    -0.6580 C.3   1 <1>   0.2200 
  7 C       -3.6500     2.5870     1.1840 C.3   1 <1>   0.3430 
  8 C       -1.1770     3.0670     1.1890 C.3   1 <1>  -0.1600 
  9 C       -0.5770    -3.0980     0.4300 C.3   1 <1>  -0.1600 
 10 C        1.2300    -1.6670    -0.6360 C.3   1 <1>  -0.1600 
 11 N       -3.8630     3.1630    -0.2010 N.4   1 <1>  -0.9590 
 12 C       -1.6170     4.2030     0.2400 C.3   1 <1>  -0.1600 
 13 C        0.3250    -4.3350     0.2990 C.3   1 <1>  -0.1600 
 14 C        2.1320    -2.9040    -0.7680 C.3   1 <1>  -0.1600 
 15 C       -2.6130     3.7240    -0.8220 C.3   1 <1>   0.3430 
 16 C       -4.9710     4.1520    -0.2350 C.3   1 <1>   0.3430 
 17 C        1.8090    -3.9420     0.3170 C.3   1 <1>  -0.1600 
 18 C       -6.3010     3.4490     0.0120 C.3   1 <1>  -0.2400 
 19 H       -1.7430    -0.7250    -1.3270 H     1 <1>   0.3700 
 20 H       -2.1720     1.4950     2.3150 H     1 <1>   0.0800 
 21 H       -0.4530    -2.5230    -1.6120 H     1 <1>   0.0800 
 22 H       -3.7550     3.3700     1.9160 H     1 <1>   0.0800 
 23 H       -4.3950     1.8390     1.3950 H     1 <1>   0.0800 
 24 H       -0.2590     2.6230     0.8430 H     1 <1>   0.0800 
 25 H       -0.9690     3.4950     2.1540 H     1 <1>   0.0800 
 26 H       -1.6060    -3.3970     0.3510 H     1 <1>   0.0800 
 27 H       -0.4210    -2.6640     1.4020 H     1 <1>   0.0800 
 28 H        1.4610    -1.1740     0.2920 H     1 <1>   0.0800 
 29 H        1.4350    -0.9890    -1.4440 H     1 <1>   0.0800 
 30 H       -4.1360     2.3700    -0.7970 H     1 <1>   0.4500 
 31 H       -0.7470     4.6110    -0.2470 H     1 <1>   0.0800 
 32 H       -2.0670     5.0020     0.8030 H     1 <1>   0.0800 
 33 H        0.1030    -4.8460    -0.6220 H     1 <1>   0.0800 
 34 H        0.1240    -5.0140     1.1090 H     1 <1>   0.0800 
 35 H        3.1630    -2.6070    -0.6850 H     1 <1>   0.0800 
 36 H        1.9930    -3.3480    -1.7390 H     1 <1>   0.0800 
 37 H       -2.8570     4.5330    -1.4920 H     1 <1>   0.0800 
 38 H       -2.1330     2.9500    -1.4020 H     1 <1>   0.0800 
 39 H       -5.0040     4.6260    -1.2040 H     1 <1>   0.0800 
 40 H       -4.8110     4.9180     0.5080 H     1 <1>   0.0800 
 41 H        2.4160    -4.8180     0.1690 H     1 <1>   0.0800 
 42 H        2.0550    -3.5320     1.2830 H     1 <1>   0.0800 
 43 H       -6.4630     2.6690    -0.7110 H     1 <1>   0.0800 
 44 H       -7.0990     4.1630    -0.0900 H     1 <1>   0.0800 
 45 H       -6.3550     3.0420     1.0050 H     1 <1>   0.0800 
@<TRIPOS>BOND
  1   1   2  2   
  2   2   3  1   
  3   2   4  am  
  4   3   5  1   
  5   4   6  1   
  6   4  19  1   
  7   5   7  1   
  8   5   8  1   
  9   5  20  1   
 10   6   9  1   
 11   6  10  1   
 12   6  21  1   
 13   7  11  1   
 14   7  22  1   
 15   7  23  1   
 16   8  12  1   
 17   8  24  1   
 18   8  25  1   
 19   9  13  1   
 20   9  26  1   
 21   9  27  1   
 22  10  14  1   
 23  10  28  1   
 24  10  29  1   
 25  11  15  1   
 26  11  16  1   
 27  11  30  1   
 28  12  15  1   
 29  12  31  1   
 30  12  32  1   
 31  13  17  1   
 32  13  33  1   
 33  13  34  1   
 34  14  17  1   
 35  14  35  1   
 36  14  36  1   
 37  15  37  1   
 38  15  38  1   
 39  16  18  1   
 40  16  39  1   
 41  16  40  1   
 42  17  41  1   
 43  17  42  1   
 44  18  43  1   
 45  18  44  1   
 46  18  45  1   
@<TRIPOS>SUBSTRUCTURE
  1 ****   2 GROUP 4 **** **** 0

# MOE 2024.06 (io_trps.svl 2023.06)
