@<TRIPOS>MOLECULE
NONAME
32 32 1 0 0 
SMALL
USER_CHARGES


@<TRIPOS>ATOM
  1 BR       0.0310    -0.3910     1.0640 Br    1 <1>  -0.1110 
  2 C        0.8630     1.3100     0.6750 C.ar  1 <1>   0.1110 
  3 C        0.0860     2.4560     0.5860 C.ar  1 <1>   0.0820 
  4 C        2.2280     1.3390     0.4960 C.ar  1 <1>  -0.1500 
  5 O       -1.2520     2.4300     0.7630 O.3   1 <1>  -0.3630 
  6 C        0.7140     3.6590     0.3270 C.ar  1 <1>  -0.1500 
  7 C        2.8830     2.5430     0.2250 C.ar  1 <1>   0.0280 
  8 C       -2.0260     2.1040    -0.3660 C.3   1 <1>   0.1200 
  9 C        2.0960     3.7100     0.1450 C.ar  1 <1>   0.0820 
 10 C        4.3170     2.5660     0.0370 C.2   1 <1>  -0.1780 
 11 C       -3.4930     2.0910     0.0540 C.3   1 <1>  -0.2400 
 12 O        2.7290     4.8850    -0.1130 O.3   1 <1>  -0.3630 
 13 C        5.2260     1.5800     0.2510 C.2   1 <1>  -0.4000 
 14 C        2.0780     6.1310    -0.0700 C.3   1 <1>   0.1200 
 15 C        6.6460     1.6200     0.0540 C.2   1 <1>   1.0500 
 16 C        3.1230     7.2130    -0.3220 C.3   1 <1>  -0.2400 
 17 O        7.2100     2.6420    -0.3680 O.co2 1 <1>  -0.9000 
 18 O        7.3200     0.6090     0.3090 O.co2 1 <1>  -0.9000 
 19 H        2.7830     0.4240     0.5660 H     1 <1>   0.1500 
 20 H        0.1020     4.5370     0.2740 H     1 <1>   0.1500 
 21 H       -1.8490     2.8460    -1.1260 H     1 <1>   0.0800 
 22 H       -1.7230     1.1360    -0.7250 H     1 <1>   0.0800 
 23 H        4.7070     3.5050    -0.3230 H     1 <1>   0.1500 
 24 H       -3.7810     3.0600     0.4220 H     1 <1>   0.0800 
 25 H       -3.6490     1.3540     0.8210 H     1 <1>   0.0800 
 26 H       -4.1110     1.8450    -0.7900 H     1 <1>   0.0800 
 27 H        4.9330     0.6210     0.6160 H     1 <1>   0.1500 
 28 H        1.3220     6.1480    -0.8360 H     1 <1>   0.0800 
 29 H        1.6330     6.2500     0.9020 H     1 <1>   0.0800 
 30 H        3.5750     7.0710    -1.2870 H     1 <1>   0.0800 
 31 H        3.8850     7.1710     0.4370 H     1 <1>   0.0800 
 32 H        2.6620     8.1830    -0.2950 H     1 <1>   0.0800 
@<TRIPOS>BOND
  1   1   2  1   
  2   2   3  ar  
  3   2   4  ar  
  4   3   5  1   
  5   3   6  ar  
  6   4   7  ar  
  7   4  19  1   
  8   5   8  1   
  9   6   9  ar  
 10   6  20  1   
 11   7   9  ar  
 12   7  10  1   
 13   8  11  1   
 14   8  21  1   
 15   8  22  1   
 16   9  12  1   
 17  10  13  2   
 18  10  23  1   
 19  11  24  1   
 20  11  25  1   
 21  11  26  1   
 22  12  14  1   
 23  13  15  1   
 24  13  27  1   
 25  14  16  1   
 26  14  28  1   
 27  14  29  1   
 28  15  17  ar  
 29  15  18  ar  
 30  16  30  1   
 31  16  31  1   
 32  16  32  1   
@<TRIPOS>SUBSTRUCTURE
  1 ****   7 GROUP 4 **** **** 0

# MOE 2024.06 (io_trps.svl 2023.06)
