@<TRIPOS>MOLECULE
NONAME
41 44 1 0 0 
SMALL
USER_CHARGES


@<TRIPOS>ATOM
  1 F       -0.7460    -0.0010    -0.0180 F     1 <1>  -0.1990 
  2 C       -1.9360    -0.5280     0.0870 C.ar  1 <1>   0.1810 
  3 C       -2.6080    -0.8910    -1.0650 C.ar  1 <1>  -0.1590 
  4 C       -2.4800    -0.7020     1.3450 C.ar  1 <1>  -0.1590 
  5 C       -3.8720    -1.4460    -0.9470 C.ar  1 <1>  -0.1590 
  6 C       -3.7450    -1.2580     1.4490 C.ar  1 <1>  -0.1590 
  7 C       -4.4500    -1.6290     0.3070 C.ar  1 <1>   0.3030 
  8 N       -5.7320    -2.1760     0.4170 N.pl3 1 <1>  -0.5810 
  9 C       -6.8600    -1.4620     0.2360 C.cat 1 <1>   1.0680 
 10 C       -5.8300    -3.6070     0.8190 C.3   1 <1>   0.1590 
 11 N       -6.9490    -0.1630    -0.0400 N.pl3 1 <1>  -0.7050 
 12 N       -8.0750    -1.9890     0.3220 N.pl3 1 <1>  -0.7680 
 13 C       -7.1200    -4.2360     0.2730 C.3   1 <1>  -0.1690 
 14 C       -8.2730     0.1550    -0.1280 C.2   1 <1>   0.4190 
 15 C       -9.0010    -0.9600     0.0960 C.2   1 <1>   0.2690 
 16 C       -8.3620    -3.4070     0.6140 C.3   1 <1>   0.3470 
 17 N       -8.8350     1.3900    -0.3900 N.am  1 <1>  -0.4430 
 18 C      -10.4300    -0.8790     0.0680 C.2   1 <1>   0.6980 
 19 C      -10.2210     1.4900    -0.3950 C.2   1 <1>   0.6850 
 20 C       -7.9820     2.5920    -0.6240 C.3   1 <1>   0.0500 
 21 O      -11.1180    -1.8640     0.2770 O.2   1 <1>  -0.5760 
 22 N      -11.0060     0.3570    -0.1980 N.am  1 <1>  -0.4270 
 23 O      -10.7480     2.5710    -0.5630 O.2   1 <1>  -0.5760 
 24 C      -12.4960     0.4920    -0.2320 C.3   1 <1>   0.0500 
 25 H       -2.1430    -0.7440    -2.0250 H     1 <1>   0.1410 
 26 H       -1.9190    -0.4100     2.2170 H     1 <1>   0.1410 
 27 H       -4.4040    -1.7440    -1.8330 H     1 <1>   0.1410 
 28 H       -4.1810    -1.4040     2.4220 H     1 <1>   0.1410 
 29 H       -5.8180    -3.6700     1.8940 H     1 <1>   0.0700 
 30 H       -4.9780    -4.1490     0.4410 H     1 <1>   0.0700 
 31 H       -6.1530     0.4600    -0.1450 H     1 <1>   0.4430 
 32 H       -7.2340    -5.2280     0.6750 H     1 <1>   0.0700 
 33 H       -7.0430    -4.3370    -0.7960 H     1 <1>   0.0700 
 34 H       -9.2040    -3.7450     0.0310 H     1 <1>   0.0700 
 35 H       -8.6060    -3.5120     1.6590 H     1 <1>   0.0700 
 36 H       -7.1050     2.3280    -1.1880 H     1 <1>   0.0700 
 37 H       -7.6890     3.0180     0.3190 H     1 <1>   0.0700 
 38 H       -8.5240     3.3370    -1.1840 H     1 <1>   0.0700 
 39 H      -12.9650    -0.4510    -0.4530 H     1 <1>   0.0700 
 40 H      -12.7870     1.1970    -0.9930 H     1 <1>   0.0700 
 41 H      -12.8470     0.8450     0.7210 H     1 <1>   0.0700 
@<TRIPOS>BOND
  1   1   2  1   
  2   2   3  ar  
  3   2   4  ar  
  4   3   5  ar  
  5   3  25  1   
  6   4   6  ar  
  7   4  26  1   
  8   5   7  ar  
  9   5  27  1   
 10   6   7  ar  
 11   6  28  1   
 12   7   8  1   
 13   8   9  ar  
 14   8  10  1   
 15   9  11  ar  
 16   9  12  ar  
 17  10  13  1   
 18  10  29  1   
 19  10  30  1   
 20  11  14  1   
 21  11  31  1   
 22  12  15  1   
 23  12  16  1   
 24  13  16  1   
 25  13  32  1   
 26  13  33  1   
 27  14  15  2   
 28  14  17  1   
 29  15  18  1   
 30  16  34  1   
 31  16  35  1   
 32  17  19  am  
 33  17  20  1   
 34  18  21  2   
 35  18  22  am  
 36  19  22  am  
 37  19  23  2   
 38  20  36  1   
 39  20  37  1   
 40  20  38  1   
 41  22  24  1   
 42  24  39  1   
 43  24  40  1   
 44  24  41  1   
@<TRIPOS>SUBSTRUCTURE
  1 ****  11 GROUP 4 **** **** 0

# MOE 2024.06 (io_trps.svl 2023.06)
