@<TRIPOS>MOLECULE
NONAME
37 38 1 0 0 
SMALL
USER_CHARGES


@<TRIPOS>ATOM
  1 CL      -1.7960     1.4330    -0.7400 Cl    1 <1>  -0.1770 
  2 C       -2.6570    -0.0400    -0.3740 C.ar  1 <1>   0.1770 
  3 C       -3.1390    -0.8190    -1.4080 C.ar  1 <1>  -0.1500 
  4 C       -2.8460    -0.4040     0.9460 C.ar  1 <1>  -0.1500 
  5 C       -3.8240    -1.9870    -1.1150 C.ar  1 <1>  -0.1500 
  6 C       -3.5320    -1.5730     1.2330 C.ar  1 <1>  -0.1500 
  7 C       -4.0220    -2.3670     0.2060 C.ar  1 <1>  -0.1430 
  8 C       -4.7830    -3.6450     0.5380 C.3   1 <1>   0.0440 
  9 C       -6.1890    -3.3330     1.0070 C.2   1 <1>   0.6590 
 10 O       -6.5330    -3.5030     2.1480 O.2   1 <1>  -0.5700 
 11 O       -7.0190    -2.8380     0.0930 O.3   1 <1>  -0.4300 
 12 C       -8.3180    -2.4130     0.4210 C.3   1 <1>   0.2000 
 13 C       -9.1390    -2.3880    -0.8680 C.3   1 <1>  -0.1600 
 14 C       -8.2330    -1.0180     1.0480 C.3   1 <1>  -0.1600 
 15 C      -10.5160    -1.7790    -0.6200 C.3   1 <1>   0.3430 
 16 C       -9.6260    -0.4360     1.2620 C.3   1 <1>   0.3430 
 17 N      -10.3680    -0.4130    -0.0340 N.4   1 <1>  -0.9590 
 18 C      -11.7000     0.2440     0.1300 C.3   1 <1>   0.2630 
 19 H       -2.9760    -0.5140    -2.4260 H     1 <1>   0.1500 
 20 H       -2.4610     0.2190     1.7330 H     1 <1>   0.1500 
 21 H       -4.1980    -2.5930    -1.9220 H     1 <1>   0.1500 
 22 H       -3.6800    -1.8590     2.2620 H     1 <1>   0.1500 
 23 H       -4.2670    -4.1800     1.3140 H     1 <1>   0.0800 
 24 H       -4.8390    -4.2850    -0.3220 H     1 <1>   0.0800 
 25 H       -8.7480    -3.1190     1.1150 H     1 <1>   0.0800 
 26 H       -9.2610    -3.3930    -1.2300 H     1 <1>   0.0800 
 27 H       -8.6260    -1.8180    -1.6230 H     1 <1>   0.0800 
 28 H       -7.6610    -0.3600     0.4170 H     1 <1>   0.0800 
 29 H       -7.7390    -1.0810     2.0010 H     1 <1>   0.0800 
 30 H      -11.0720    -2.4080     0.0560 H     1 <1>   0.0800 
 31 H      -11.0560    -1.7240    -1.5520 H     1 <1>   0.0800 
 32 H       -9.5390     0.5640     1.6570 H     1 <1>   0.0800 
 33 H      -10.1610    -1.0380     1.9800 H     1 <1>   0.0800 
 34 H       -9.8090     0.1470    -0.6960 H     1 <1>   0.4500 
 35 H      -12.3130    -0.3150     0.8190 H     1 <1>   0.0800 
 36 H      -12.2100     0.2990    -0.8190 H     1 <1>   0.0800 
 37 H      -11.5790     1.2450     0.5110 H     1 <1>   0.0800 
@<TRIPOS>BOND
  1   1   2  1   
  2   2   3  ar  
  3   2   4  ar  
  4   3   5  ar  
  5   3  19  1   
  6   4   6  ar  
  7   4  20  1   
  8   5   7  ar  
  9   5  21  1   
 10   6   7  ar  
 11   6  22  1   
 12   7   8  1   
 13   8   9  1   
 14   8  23  1   
 15   8  24  1   
 16   9  10  2   
 17   9  11  1   
 18  11  12  1   
 19  12  13  1   
 20  12  14  1   
 21  12  25  1   
 22  13  15  1   
 23  13  26  1   
 24  13  27  1   
 25  14  16  1   
 26  14  28  1   
 27  14  29  1   
 28  15  17  1   
 29  15  30  1   
 30  15  31  1   
 31  16  17  1   
 32  16  32  1   
 33  16  33  1   
 34  17  18  1   
 35  17  34  1   
 36  18  35  1   
 37  18  36  1   
 38  18  37  1   
@<TRIPOS>SUBSTRUCTURE
  1 ****  11 GROUP 4 **** **** 0

# MOE 2024.06 (io_trps.svl 2023.06)
