@<TRIPOS>MOLECULE
NONAME
45 46 1 0 0 
SMALL
USER_CHARGES


@<TRIPOS>ATOM
  1 O        1.2550     1.0530    -2.8100 O.2   1 <1>  -0.5700 
  2 C        2.1790     0.6990    -2.1140 C.2   1 <1>   0.6900 
  3 N        1.9570    -0.0810    -1.0280 N.am  1 <1>  -0.5390 
  4 N        3.4360     1.0750    -2.3960 N.am  1 <1>  -0.7300 
  5 C        2.9210    -0.4210    -0.1020 C.2   1 <1>  -0.0290 
  6 C        4.5680     0.8680    -1.4710 C.3   1 <1>   0.5020 
  7 C        4.2050     0.0140    -0.2470 C.2   1 <1>  -0.1240 
  8 C        2.3850    -1.2860     1.0290 C.3   1 <1>  -0.1020 
  9 C        5.1470     2.2420    -1.1220 C.ar  1 <1>  -0.1440 
 10 C        5.3180    -0.2140     0.6250 C.2   1 <1>   0.7060 
 11 C        4.4710     3.1420    -0.3000 C.ar  1 <1>   0.0830 
 12 C        6.3830     2.6010    -1.6430 C.ar  1 <1>  -0.1500 
 13 O        5.2170    -0.5120     1.8000 O.2   1 <1>  -0.5700 
 14 O        6.5510    -0.1030     0.1140 O.3   1 <1>  -0.4300 
 15 O        3.2640     2.7680     0.1900 O.3   1 <1>  -0.3630 
 16 C        5.0400     4.3800    -0.0090 C.ar  1 <1>  -0.1500 
 17 C        6.9440     3.8320    -1.3530 C.ar  1 <1>  -0.1500 
 18 C        7.7010    -0.2400     0.9180 C.3   1 <1>   0.1200 
 19 C        2.4030     3.6600     0.8540 C.3   1 <1>   0.1200 
 20 C        6.2720     4.7210    -0.5350 C.ar  1 <1>  -0.1500 
 21 C        8.9210     0.0320     0.0450 C.3   1 <1>  -0.2400 
 22 C        1.0900     2.9250     1.1200 C.3   1 <1>  -0.1600 
 23 C        0.0840     3.8200     1.8520 C.3   1 <1>  -0.2400 
 24 H        0.9790    -0.3360    -0.9030 H     1 <1>   0.3700 
 25 H        3.5320     1.8570    -3.0380 H     1 <1>   0.3700 
 26 H        5.3110     0.3210    -2.0250 H     1 <1>   0.0800 
 27 H        1.8290    -0.6770     1.7180 H     1 <1>   0.0800 
 28 H        3.1680    -1.7830     1.5680 H     1 <1>   0.0800 
 29 H        1.7350    -2.0470     0.6360 H     1 <1>   0.0800 
 30 H        6.9250     1.9210    -2.2780 H     1 <1>   0.1500 
 31 H        4.5410     5.0860     0.6250 H     1 <1>   0.1500 
 32 H        7.9040     4.0980    -1.7620 H     1 <1>   0.1500 
 33 H        7.7210    -1.2410     1.3180 H     1 <1>   0.0800 
 34 H        7.6390     0.4710     1.7260 H     1 <1>   0.0800 
 35 H        2.2410     4.5130     0.2190 H     1 <1>   0.0800 
 36 H        2.8690     3.9580     1.7770 H     1 <1>   0.0800 
 37 H        6.7090     5.6780    -0.3080 H     1 <1>   0.1500 
 38 H        8.9620    -0.6720    -0.7660 H     1 <1>   0.0800 
 39 H        9.8150    -0.0690     0.6330 H     1 <1>   0.0800 
 40 H        8.8800     1.0340    -0.3440 H     1 <1>   0.0800 
 41 H        1.2900     2.0520     1.7160 H     1 <1>   0.0800 
 42 H        0.6680     2.6100     0.1800 H     1 <1>   0.0800 
 43 H        0.4800     4.1340     2.8020 H     1 <1>   0.0800 
 44 H       -0.8300     3.2790     2.0240 H     1 <1>   0.0800 
 45 H       -0.1410     4.6920     1.2630 H     1 <1>   0.0800 
@<TRIPOS>BOND
  1   1   2  2   
  2   2   3  am  
  3   2   4  am  
  4   3   5  1   
  5   3  24  1   
  6   4   6  1   
  7   4  25  1   
  8   5   7  2   
  9   5   8  1   
 10   6   7  1   
 11   6   9  1   
 12   6  26  1   
 13   7  10  1   
 14   8  27  1   
 15   8  28  1   
 16   8  29  1   
 17   9  11  ar  
 18   9  12  ar  
 19  10  13  2   
 20  10  14  1   
 21  11  15  1   
 22  11  16  ar  
 23  12  17  ar  
 24  12  30  1   
 25  14  18  1   
 26  15  19  1   
 27  16  20  ar  
 28  16  31  1   
 29  17  20  ar  
 30  17  32  1   
 31  18  21  1   
 32  18  33  1   
 33  18  34  1   
 34  19  22  1   
 35  19  35  1   
 36  19  36  1   
 37  20  37  1   
 38  21  38  1   
 39  21  39  1   
 40  21  40  1   
 41  22  23  1   
 42  22  41  1   
 43  22  42  1   
 44  23  43  1   
 45  23  44  1   
 46  23  45  1   
@<TRIPOS>SUBSTRUCTURE
  1 ****   6 GROUP 4 **** **** 0

# MOE 2024.06 (io_trps.svl 2023.06)
