@<TRIPOS>MOLECULE
NONAME
29 30 1 0 0 
SMALL
USER_CHARGES


@<TRIPOS>ATOM
  1 O       -0.9090    -3.1650     1.5470 O.2   1 <1>  -0.5700 
  2 C       -1.0540    -2.6370     0.4690 C.2   1 <1>   0.5690 
  3 N       -0.0190    -2.1980    -0.3030 N.am  1 <1>  -0.5470 
  4 C       -2.4760    -2.4380    -0.0750 C.3   1 <1>   0.2610 
  5 C        1.3500    -2.1790    -0.1550 C.ar  1 <1>   0.4270 
  6 O       -2.4790    -1.9490    -1.3910 O.3   1 <1>  -0.5600 
  7 C       -3.2940    -1.4100     0.6970 C.3   1 <1>  -0.1600 
  8 N        1.9720    -1.6350    -1.1890 N.ar  1 <1>  -0.6200 
  9 C        2.0180    -2.6750     0.9630 C.ar  1 <1>  -0.1500 
 10 C       -3.6980    -1.3390    -1.6760 C.3   1 <1>   0.1200 
 11 C       -4.2950    -0.9150    -0.3350 C.3   1 <1>  -0.1600 
 12 C        3.2920    -1.5840    -1.1120 C.ar  1 <1>   0.1600 
 13 C        3.3910    -2.6140     1.0280 C.ar  1 <1>  -0.1500 
 14 C        4.0480    -2.0500    -0.0460 C.ar  1 <1>  -0.1430 
 15 C        5.5630    -1.9500    -0.0420 C.3   1 <1>  -0.0970 
 16 H       -0.3160    -1.8030    -1.1960 H     1 <1>   0.3700 
 17 H       -2.9850    -3.3860    -0.0830 H     1 <1>   0.0800 
 18 H       -2.6520    -0.6050     1.0110 H     1 <1>   0.0800 
 19 H       -3.7620    -1.8460     1.5620 H     1 <1>   0.0800 
 20 H        1.4700    -3.1060     1.7770 H     1 <1>   0.1500 
 21 H       -4.3260    -2.0580    -2.1740 H     1 <1>   0.0800 
 22 H       -3.5160    -0.4980    -2.3230 H     1 <1>   0.0800 
 23 H       -4.4200     0.1520    -0.2840 H     1 <1>   0.0800 
 24 H       -5.2530    -1.3860    -0.2010 H     1 <1>   0.0800 
 25 H        3.8010    -1.1440    -1.9510 H     1 <1>   0.1500 
 26 H        3.9260    -2.9920     1.8830 H     1 <1>   0.1500 
 27 H        5.9220    -1.4870    -0.9430 H     1 <1>   0.0800 
 28 H        5.9940    -2.9330     0.0330 H     1 <1>   0.0800 
 29 H        5.8890    -1.3630     0.7990 H     1 <1>   0.0800 
@<TRIPOS>BOND
  1   1   2  2   
  2   2   3  am  
  3   2   4  1   
  4   3   5  1   
  5   3  16  1   
  6   4   6  1   
  7   4   7  1   
  8   4  17  1   
  9   5   8  ar  
 10   5   9  ar  
 11   6  10  1   
 12   7  11  1   
 13   7  18  1   
 14   7  19  1   
 15   8  12  ar  
 16   9  13  ar  
 17   9  20  1   
 18  10  11  1   
 19  10  21  1   
 20  10  22  1   
 21  11  23  1   
 22  11  24  1   
 23  12  14  ar  
 24  12  25  1   
 25  13  14  ar  
 26  13  26  1   
 27  14  15  1   
 28  15  27  1   
 29  15  28  1   
 30  15  29  1   
@<TRIPOS>SUBSTRUCTURE
  1 ****   3 GROUP 4 **** **** 0

# MOE 2024.06 (io_trps.svl 2023.06)
