@<TRIPOS>MOLECULE
NONAME
44 45 1 0 0 
SMALL
USER_CHARGES


@<TRIPOS>ATOM
  1 O        0.2410    -1.2900    -0.0260 O.3   1 <1>  -0.3630 
  2 C       -1.0750    -1.5190     0.2320 C.ar  1 <1>   0.0830 
  3 C        1.0460    -0.5130     0.8220 C.3   1 <1>   0.1200 
  4 C       -1.7900    -2.3280    -0.6550 C.ar  1 <1>  -0.1440 
  5 C       -1.7140    -0.9770     1.3450 C.ar  1 <1>  -0.1500 
  6 C        2.4480    -0.4940     0.2150 C.3   1 <1>  -0.1600 
  7 C       -3.1350    -2.5970    -0.4070 C.ar  1 <1>  -0.1440 
  8 C       -1.1070    -2.9250    -1.8870 C.3   1 <1>  -0.0960 
  9 C       -3.0490    -1.2420     1.5770 C.ar  1 <1>  -0.1500 
 10 C        3.3970     0.3390     1.0740 C.3   1 <1>   0.3430 
 11 C       -3.7540    -2.0490     0.7050 C.ar  1 <1>  -0.1500 
 12 C       -3.9630    -3.4860    -1.3270 C.3   1 <1>  -0.0970 
 13 N        4.7840     0.2640     0.5370 N.4   1 <1>  -0.9590 
 14 C        5.7680     0.7340     1.5570 C.3   1 <1>   0.3430 
 15 C        4.9390     1.0080    -0.7510 C.3   1 <1>   0.3430 
 16 C        7.1920     0.5030     1.0470 C.3   1 <1>  -0.1600 
 17 C        6.3460     0.7860    -1.3100 C.3   1 <1>  -0.1600 
 18 C        7.4300     1.1910    -0.3030 C.3   1 <1>  -0.1600 
 19 H        1.0460    -0.9700     1.7970 H     1 <1>   0.0800 
 20 H        0.6250     0.4780     0.8680 H     1 <1>   0.0800 
 21 H       -1.1990    -0.3500     2.0440 H     1 <1>   0.1500 
 22 H        2.3760    -0.0800    -0.7740 H     1 <1>   0.0800 
 23 H        2.8050    -1.5070     0.1580 H     1 <1>   0.0800 
 24 H       -1.7410    -2.8360    -2.7490 H     1 <1>   0.0800 
 25 H       -0.1860    -2.4260    -2.1200 H     1 <1>   0.0800 
 26 H       -0.8960    -3.9640    -1.7130 H     1 <1>   0.0800 
 27 H       -3.5420    -0.8230     2.4360 H     1 <1>   0.1500 
 28 H        3.3800    -0.0480     2.0800 H     1 <1>   0.0800 
 29 H        3.0660     1.3650     1.1020 H     1 <1>   0.0800 
 30 H       -4.7930    -2.2480     0.9010 H     1 <1>   0.1500 
 31 H       -4.1180    -2.9940    -2.2690 H     1 <1>   0.0800 
 32 H       -4.9230    -3.7000    -0.8940 H     1 <1>   0.0800 
 33 H       -3.4580    -4.4200    -1.4950 H     1 <1>   0.0800 
 34 H        5.0000    -0.7230     0.3440 H     1 <1>   0.4500 
 35 H        5.6290     0.1970     2.4820 H     1 <1>   0.0800 
 36 H        5.6210     1.7850     1.7490 H     1 <1>   0.0800 
 37 H        4.7810     2.0620    -0.5860 H     1 <1>   0.0800 
 38 H        4.2150     0.6650    -1.4720 H     1 <1>   0.0800 
 39 H        7.3740    -0.5540     0.9580 H     1 <1>   0.0800 
 40 H        7.8900     0.8890     1.7690 H     1 <1>   0.0800 
 41 H        6.4620     1.3660    -2.2090 H     1 <1>   0.0800 
 42 H        6.4640    -0.2490    -1.5800 H     1 <1>   0.0800 
 43 H        8.4020     0.9240    -0.6840 H     1 <1>   0.0800 
 44 H        7.4140     2.2600    -0.1690 H     1 <1>   0.0800 
@<TRIPOS>BOND
  1   1   2  1   
  2   1   3  1   
  3   2   4  ar  
  4   2   5  ar  
  5   3   6  1   
  6   3  19  1   
  7   3  20  1   
  8   4   7  ar  
  9   4   8  1   
 10   5   9  ar  
 11   5  21  1   
 12   6  10  1   
 13   6  22  1   
 14   6  23  1   
 15   7  11  ar  
 16   7  12  1   
 17   8  24  1   
 18   8  25  1   
 19   8  26  1   
 20   9  11  ar  
 21   9  27  1   
 22  10  13  1   
 23  10  28  1   
 24  10  29  1   
 25  11  30  1   
 26  12  31  1   
 27  12  32  1   
 28  12  33  1   
 29  13  14  1   
 30  13  15  1   
 31  13  34  1   
 32  14  16  1   
 33  14  35  1   
 34  14  36  1   
 35  15  17  1   
 36  15  37  1   
 37  15  38  1   
 38  16  18  1   
 39  16  39  1   
 40  16  40  1   
 41  17  18  1   
 42  17  41  1   
 43  17  42  1   
 44  18  43  1   
 45  18  44  1   
@<TRIPOS>SUBSTRUCTURE
  1 ****   3 GROUP 4 **** **** 0

# MOE 2024.06 (io_trps.svl 2023.06)
