@<TRIPOS>MOLECULE
NONAME
44 46 1 0 0 
SMALL
USER_CHARGES


@<TRIPOS>ATOM
  1 O        0.1550     1.1600     1.2040 O.2   1 <1>  -0.5700 
  2 C        1.2240     1.5120     0.7630 C.2   1 <1>   0.6900 
  3 N        2.3680     0.9180     1.1790 N.am  1 <1>  -0.5390 
  4 N        1.3060     2.5080    -0.1300 N.am  1 <1>  -0.7300 
  5 C        3.6370     1.2710     0.7600 C.2   1 <1>  -0.0290 
  6 C        2.5810     3.1190    -0.5520 C.3   1 <1>   0.5020 
  7 C        3.8060     2.3220    -0.0950 C.2   1 <1>  -0.1240 
  8 C        4.7280     0.3630     1.3250 C.3   1 <1>  -0.0220 
  9 C        2.6240     4.5380     0.0120 C.ar  1 <1>  -0.1430 
 10 C        5.0040     2.8360    -0.6860 C.2   1 <1>   0.7060 
 11 C        4.8370    -0.9600     0.5510 C.3   1 <1>  -0.1600 
 12 C        2.8000     5.6190    -0.8490 C.ar  1 <1>  -0.1500 
 13 C        2.5000     4.7610     1.3860 C.ar  1 <1>  -0.1500 
 14 O        5.0130     3.4100    -1.7590 O.2   1 <1>  -0.5700 
 15 O        6.1650     2.6930    -0.0430 O.3   1 <1>  -0.4300 
 16 C        5.2800    -0.7540    -0.9030 C.3   1 <1>  -0.2400 
 17 C        2.8420     6.8880    -0.3070 C.ar  1 <1>   0.0820 
 18 C        2.5460     6.0450     1.9130 C.ar  1 <1>  -0.1500 
 19 C        7.3720     3.1990    -0.5690 C.3   1 <1>   0.1200 
 20 O        3.0000     8.0540    -0.9410 O.3   1 <1>  -0.3630 
 21 C        2.7180     7.0960     1.0350 C.ar  1 <1>   0.0820 
 22 C        8.4930     2.8430     0.4020 C.3   1 <1>  -0.2400 
 23 C        2.9810     9.0690     0.0610 C.3   1 <1>   0.4000 
 24 O        2.7940     8.4020     1.3080 O.3   1 <1>  -0.3620 
 25 H        2.2130     0.1420     1.8210 H     1 <1>   0.3700 
 26 H        0.4640     3.0560    -0.2890 H     1 <1>   0.3700 
 27 H        2.5710     3.1600    -1.6290 H     1 <1>   0.0800 
 28 H        4.4990     0.1460     2.3540 H     1 <1>   0.0800 
 29 H        5.6870     0.8400     1.3350 H     1 <1>   0.0800 
 30 H        3.8890    -1.4680     0.5660 H     1 <1>   0.0800 
 31 H        5.5550    -1.5920     1.0460 H     1 <1>   0.0800 
 32 H        2.9120     5.4920    -1.9110 H     1 <1>   0.1500 
 33 H        2.3670     3.9280     2.0550 H     1 <1>   0.1500 
 34 H        4.5410    -0.1970    -1.4520 H     1 <1>   0.0800 
 35 H        5.4080    -1.7070    -1.3850 H     1 <1>   0.0800 
 36 H        6.2150    -0.2240    -0.9430 H     1 <1>   0.0800 
 37 H        2.4510     6.2280     2.9680 H     1 <1>   0.1500 
 38 H        7.2760     4.2670    -0.6760 H     1 <1>   0.0800 
 39 H        7.5390     2.7510    -1.5340 H     1 <1>   0.0800 
 40 H        8.3060     3.2870     1.3630 H     1 <1>   0.0800 
 41 H        9.4290     3.2170     0.0270 H     1 <1>   0.0800 
 42 H        8.5680     1.7750     0.5060 H     1 <1>   0.0800 
 43 H        2.1580     9.7370    -0.1180 H     1 <1>   0.0800 
 44 H        3.9230     9.5870     0.0670 H     1 <1>   0.0800 
@<TRIPOS>BOND
  1   1   2  2   
  2   2   3  am  
  3   2   4  am  
  4   3   5  1   
  5   3  25  1   
  6   4   6  1   
  7   4  26  1   
  8   5   7  2   
  9   5   8  1   
 10   6   7  1   
 11   6   9  1   
 12   6  27  1   
 13   7  10  1   
 14   8  11  1   
 15   8  28  1   
 16   8  29  1   
 17   9  12  ar  
 18   9  13  ar  
 19  10  14  2   
 20  10  15  1   
 21  11  16  1   
 22  11  30  1   
 23  11  31  1   
 24  12  17  ar  
 25  12  32  1   
 26  13  18  ar  
 27  13  33  1   
 28  15  19  1   
 29  16  34  1   
 30  16  35  1   
 31  16  36  1   
 32  17  20  1   
 33  17  21  ar  
 34  18  21  ar  
 35  18  37  1   
 36  19  22  1   
 37  19  38  1   
 38  19  39  1   
 39  20  23  1   
 40  21  24  1   
 41  22  40  1   
 42  22  41  1   
 43  22  42  1   
 44  23  24  1   
 45  23  43  1   
 46  23  44  1   
@<TRIPOS>SUBSTRUCTURE
  1 ****   7 GROUP 4 **** **** 0

# MOE 2024.06 (io_trps.svl 2023.06)
