@<TRIPOS>MOLECULE
NONAME
49 50 1 0 0 
SMALL
USER_CHARGES


@<TRIPOS>ATOM
  1 CL       0.6340    -0.2720    -0.8620 Cl    1 <1>  -0.1770 
  2 C        1.0680     1.3680    -0.4580 C.ar  1 <1>   0.1770 
  3 C        0.4800     1.9750     0.6350 C.ar  1 <1>  -0.1500 
  4 C        1.9930     2.0370    -1.2370 C.ar  1 <1>  -0.1500 
  5 C        0.8230     3.2790     0.9500 C.ar  1 <1>  -0.1500 
  6 C        2.3350     3.3400    -0.9170 C.ar  1 <1>  -0.1500 
  7 C        1.7490     3.9670     0.1760 C.ar  1 <1>  -0.1430 
  8 C        2.1080     5.4030     0.5360 C.3   1 <1>   0.3390 
  9 N        0.9920     6.3070     0.2310 N.am  1 <1>  -0.8490 
 10 S        1.2180     7.8660     0.8680 S.o2  1 <1>   1.3330 
 11 C        0.5810     6.2390    -1.2040 C.3   1 <1>   0.2570 
 12 O        1.9620     7.7170     2.0950 O.2   1 <1>  -0.6500 
 13 O       -0.0710     8.5180     0.9180 O.2   1 <1>  -0.6500 
 14 C        2.2680     8.7190    -0.2950 C.3   1 <1>  -0.1350 
 15 C       -0.5710     7.1620    -1.6360 C.2   1 <1>   0.5690 
 16 O       -0.3190     7.9770    -2.4920 O.2   1 <1>  -0.5700 
 17 N       -1.8200     7.0950    -1.0610 N.am  1 <1>  -0.6600 
 18 C       -2.6930     8.3090    -1.1840 C.3   1 <1>   0.1400 
 19 C       -2.1020     6.1650     0.0850 C.3   1 <1>   0.1400 
 20 C       -4.1630     8.0560    -0.8150 C.3   1 <1>   0.3430 
 21 C       -3.6020     6.0040     0.3890 C.3   1 <1>   0.3430 
 22 N       -4.2880     7.3350     0.4930 N.4   1 <1>  -0.9590 
 23 C       -5.7080     7.2280     0.9160 C.3   1 <1>   0.3430 
 24 C       -5.7760     6.8400     2.3880 C.3   1 <1>  -0.2400 
 25 H       -0.2310     1.4290     1.2290 H     1 <1>   0.1500 
 26 H        2.4380     1.5380    -2.0800 H     1 <1>   0.1500 
 27 H        0.3730     3.7600     1.8030 H     1 <1>   0.1500 
 28 H        3.0590     3.8560    -1.5230 H     1 <1>   0.1500 
 29 H        2.9950     5.7130     0.0100 H     1 <1>   0.0800 
 30 H        2.3260     5.4260     1.5920 H     1 <1>   0.0800 
 31 H        0.2760     5.2370    -1.4440 H     1 <1>   0.0800 
 32 H        1.4300     6.4650    -1.8250 H     1 <1>   0.0800 
 33 H        3.1850     8.1830    -0.4400 H     1 <1>   0.0800 
 34 H        2.5040     9.6950     0.0830 H     1 <1>   0.0800 
 35 H        1.7770     8.8400    -1.2400 H     1 <1>   0.0800 
 36 H       -2.6540     8.6800    -2.1940 H     1 <1>   0.0800 
 37 H       -2.2950     9.0800    -0.5450 H     1 <1>   0.0800 
 38 H       -1.6150     6.5380     0.9690 H     1 <1>   0.0800 
 39 H       -1.6880     5.1940    -0.1250 H     1 <1>   0.0800 
 40 H       -4.6200     7.4740    -1.5980 H     1 <1>   0.0800 
 41 H       -4.6750     9.0030    -0.7640 H     1 <1>   0.0800 
 42 H       -3.7080     5.4590     1.3110 H     1 <1>   0.0800 
 43 H       -4.0550     5.4210    -0.3950 H     1 <1>   0.0800 
 44 H       -3.7760     7.8910     1.1950 H     1 <1>   0.4500 
 45 H       -6.2250     6.4990     0.3130 H     1 <1>   0.0800 
 46 H       -6.1960     8.1820     0.7860 H     1 <1>   0.0800 
 47 H       -5.3880     5.8520     2.5560 H     1 <1>   0.0800 
 48 H       -6.8040     6.8420     2.7040 H     1 <1>   0.0800 
 49 H       -5.2430     7.5490     2.9970 H     1 <1>   0.0800 
@<TRIPOS>BOND
  1   1   2  1   
  2   2   3  ar  
  3   2   4  ar  
  4   3   5  ar  
  5   3  25  1   
  6   4   6  ar  
  7   4  26  1   
  8   5   7  ar  
  9   5  27  1   
 10   6   7  ar  
 11   6  28  1   
 12   7   8  1   
 13   8   9  1   
 14   8  29  1   
 15   8  30  1   
 16   9  10  am  
 17   9  11  1   
 18  10  12  2   
 19  10  13  2   
 20  10  14  1   
 21  11  15  1   
 22  11  31  1   
 23  11  32  1   
 24  14  33  1   
 25  14  34  1   
 26  14  35  1   
 27  15  16  2   
 28  15  17  am  
 29  17  18  1   
 30  17  19  1   
 31  18  20  1   
 32  18  36  1   
 33  18  37  1   
 34  19  21  1   
 35  19  38  1   
 36  19  39  1   
 37  20  22  1   
 38  20  40  1   
 39  20  41  1   
 40  21  22  1   
 41  21  42  1   
 42  21  43  1   
 43  22  23  1   
 44  22  44  1   
 45  23  24  1   
 46  23  45  1   
 47  23  46  1   
 48  24  47  1   
 49  24  48  1   
 50  24  49  1   
@<TRIPOS>SUBSTRUCTURE
  1 ****  19 GROUP 4 **** **** 0

# MOE 2024.06 (io_trps.svl 2023.06)
