@<TRIPOS>MOLECULE
NONAME
42 43 1 0 0 
SMALL
USER_CHARGES


@<TRIPOS>ATOM
  1 CL       1.4780     2.0860     2.4690 Cl    1 <1>  -0.1770 
  2 C        2.4080     2.0920     0.9860 C.ar  1 <1>   0.1770 
  3 C        2.1570     3.0340    -0.0040 C.ar  1 <1>   0.0820 
  4 C        3.3900     1.1290     0.8410 C.ar  1 <1>  -0.1500 
  5 O        1.1690     3.9440     0.1840 O.3   1 <1>  -0.3630 
  6 C        2.9410     3.0100    -1.1660 C.ar  1 <1>   0.0820 
  7 C        4.1530     1.0940    -0.3170 C.ar  1 <1>  -0.1440 
  8 C       -0.1210     3.5400    -0.2110 C.3   1 <1>   0.1200 
  9 O        2.8390     3.8790    -2.2060 O.3   1 <1>  -0.3630 
 10 C        3.9150     2.0330    -1.3110 C.ar  1 <1>  -0.1500 
 11 C        5.2420     0.0600    -0.4960 C.3   1 <1>   0.4860 
 12 C       -1.0830     4.6900     0.0690 C.3   1 <1>  -0.2400 
 13 C        2.4710     5.2270    -1.9950 C.3   1 <1>   0.0400 
 14 N        6.4990     0.6880    -0.0490 N.4   1 <1>  -0.9060 
 15 C        7.6980    -0.1580    -0.1850 C.3   1 <1>   0.4860 
 16 C        8.8540     0.6660     0.3280 C.ar  1 <1>  -0.1440 
 17 C        9.2160     0.6030     1.6670 C.ar  1 <1>  -0.1500 
 18 C        9.5540     1.5000    -0.5320 C.ar  1 <1>  -0.1500 
 19 C       10.2620     1.3750     2.1410 C.ar  1 <1>  -0.1500 
 20 C       10.5990     2.2710    -0.0550 C.ar  1 <1>  -0.1500 
 21 C       10.9530     2.2090     1.2810 C.ar  1 <1>  -0.1500 
 22 H        3.5330     0.4220     1.6400 H     1 <1>   0.1500 
 23 H       -0.3970     2.6670     0.3550 H     1 <1>   0.0800 
 24 H       -0.0990     3.3030    -1.2610 H     1 <1>   0.0800 
 25 H        4.4820     2.0330    -2.2270 H     1 <1>   0.1500 
 26 H        5.3090    -0.2260    -1.5340 H     1 <1>   0.0800 
 27 H        5.0230    -0.8150     0.0950 H     1 <1>   0.0800 
 28 H       -1.0840     4.9220     1.1190 H     1 <1>   0.0800 
 29 H       -2.0790     4.4100    -0.2210 H     1 <1>   0.0800 
 30 H       -0.7950     5.5610    -0.4920 H     1 <1>   0.0800 
 31 H        2.8070     5.8030    -2.8380 H     1 <1>   0.0800 
 32 H        2.9370     5.5860    -1.0940 H     1 <1>   0.0800 
 33 H        1.4010     5.2900    -1.9200 H     1 <1>   0.0800 
 34 H        6.4110     0.9820     0.9300 H     1 <1>   0.4500 
 35 H        6.6490     1.5600    -0.5690 H     1 <1>   0.4500 
 36 H        7.8650    -0.4230    -1.2170 H     1 <1>   0.0800 
 37 H        7.6000    -1.0590     0.3990 H     1 <1>   0.0800 
 38 H        8.6990    -0.0420     2.3580 H     1 <1>   0.1500 
 39 H        9.3040     1.5640    -1.5780 H     1 <1>   0.1500 
 40 H       10.5460     1.3270     3.1790 H     1 <1>   0.1500 
 41 H       11.1450     2.9190    -0.7210 H     1 <1>   0.1500 
 42 H       11.7680     2.8090     1.6500 H     1 <1>   0.1500 
@<TRIPOS>BOND
  1   1   2  1   
  2   2   3  ar  
  3   2   4  ar  
  4   3   5  1   
  5   3   6  ar  
  6   4   7  ar  
  7   4  22  1   
  8   5   8  1   
  9   6   9  1   
 10   6  10  ar  
 11   7  10  ar  
 12   7  11  1   
 13   8  12  1   
 14   8  23  1   
 15   8  24  1   
 16   9  13  1   
 17  10  25  1   
 18  11  14  1   
 19  11  26  1   
 20  11  27  1   
 21  12  28  1   
 22  12  29  1   
 23  12  30  1   
 24  13  31  1   
 25  13  32  1   
 26  13  33  1   
 27  14  15  1   
 28  14  34  1   
 29  14  35  1   
 30  15  16  1   
 31  15  36  1   
 32  15  37  1   
 33  16  17  ar  
 34  16  18  ar  
 35  17  19  ar  
 36  17  38  1   
 37  18  20  ar  
 38  18  39  1   
 39  19  21  ar  
 40  19  40  1   
 41  20  21  ar  
 42  20  41  1   
 43  21  42  1   
@<TRIPOS>SUBSTRUCTURE
  1 ****   7 GROUP 4 **** **** 0

# MOE 2024.06 (io_trps.svl 2023.06)
