@<TRIPOS>MOLECULE
NONAME
32 32 1 0 0 
SMALL
USER_CHARGES


@<TRIPOS>ATOM
  1 CL      -2.2050     0.3870    -3.3900 Cl    1 <1>  -0.1770 
  2 C       -2.5590     1.0520    -1.8140 C.ar  1 <1>   0.1770 
  3 C       -1.7640     2.0430    -1.2630 C.ar  1 <1>   0.1770 
  4 C       -3.6570     0.5680    -1.1250 C.ar  1 <1>  -0.1500 
  5 CL      -0.3780     2.6640    -2.1250 Cl    1 <1>  -0.1770 
  6 C       -2.0620     2.5570    -0.0140 C.ar  1 <1>  -0.1500 
  7 C       -3.9700     1.0860     0.1270 C.ar  1 <1>  -0.1440 
  8 C       -3.1630     2.0760     0.6790 C.ar  1 <1>  -0.1500 
  9 C       -5.1830     0.5710     0.8840 C.3   1 <1>   0.4870 
 10 N       -6.4120     1.1510     0.2700 N.4   1 <1>  -0.9590 
 11 C       -6.4760     2.6290     0.5530 C.3   1 <1>   0.3430 
 12 C       -7.6250     0.4120     0.7570 C.3   1 <1>   0.3430 
 13 C       -7.6060     3.3600    -0.1870 C.3   1 <1>   0.1200 
 14 C       -8.6180     0.1010    -0.3730 C.3   1 <1>   0.1200 
 15 O       -7.4650     4.7080     0.0780 O.3   1 <1>  -0.6800 
 16 O       -9.7110    -0.5190     0.2000 O.3   1 <1>  -0.6800 
 17 H       -4.2440    -0.2100    -1.5830 H     1 <1>   0.1500 
 18 H       -1.4340     3.3240     0.4060 H     1 <1>   0.1500 
 19 H       -3.3760     2.4870     1.6530 H     1 <1>   0.1500 
 20 H       -5.1170     0.8450     1.9250 H     1 <1>   0.0800 
 21 H       -5.2060    -0.5050     0.8170 H     1 <1>   0.0800 
 22 H       -6.3060     1.0220    -0.7440 H     1 <1>   0.4500 
 23 H       -5.5480     3.0880     0.2540 H     1 <1>   0.0800 
 24 H       -6.6010     2.7900     1.6110 H     1 <1>   0.0800 
 25 H       -8.1260     0.9890     1.5160 H     1 <1>   0.0800 
 26 H       -7.3300    -0.5280     1.1950 H     1 <1>   0.0800 
 27 H       -8.5740     3.0540     0.1700 H     1 <1>   0.0800 
 28 H       -7.5280     3.2210    -1.2510 H     1 <1>   0.0800 
 29 H       -8.1890    -0.5770    -1.0910 H     1 <1>   0.0800 
 30 H       -8.9650     0.9950    -0.8600 H     1 <1>   0.0800 
 31 H       -8.1560     5.2450    -0.3670 H     1 <1>   0.4000 
 32 H      -10.3830    -0.7750    -0.4690 H     1 <1>   0.4000 
@<TRIPOS>BOND
  1   1   2  1   
  2   2   3  ar  
  3   2   4  ar  
  4   3   5  1   
  5   3   6  ar  
  6   4   7  ar  
  7   4  17  1   
  8   6   8  ar  
  9   6  18  1   
 10   7   8  ar  
 11   7   9  1   
 12   8  19  1   
 13   9  10  1   
 14   9  20  1   
 15   9  21  1   
 16  10  11  1   
 17  10  12  1   
 18  10  22  1   
 19  11  13  1   
 20  11  23  1   
 21  11  24  1   
 22  12  14  1   
 23  12  25  1   
 24  12  26  1   
 25  13  15  1   
 26  13  27  1   
 27  13  28  1   
 28  14  16  1   
 29  14  29  1   
 30  14  30  1   
 31  15  31  1   
 32  16  32  1   
@<TRIPOS>SUBSTRUCTURE
  1 ****   7 GROUP 4 **** **** 0

# MOE 2024.06 (io_trps.svl 2023.06)
