@<TRIPOS>MOLECULE
NONAME
27 28 1 0 0 
SMALL
USER_CHARGES


@<TRIPOS>ATOM
  1 BR       0.0930     0.3050    -1.0820 Br    1 <1>  -0.1110 
  2 C       -1.8270     0.2500    -0.9290 C.ar  1 <1>   0.1110 
  3 C       -2.4790     1.3010    -0.3180 C.ar  1 <1>  -0.1500 
  4 C       -2.5070    -0.8360    -1.4390 C.ar  1 <1>  -0.1500 
  5 C       -3.8590     1.2590    -0.2060 C.ar  1 <1>  -0.1440 
  6 C       -3.8850    -0.8680    -1.3190 C.ar  1 <1>  -0.1500 
  7 C       -4.5890     0.1610    -0.6850 C.ar  1 <1>   0.1990 
  8 C       -4.5830     2.4330     0.4280 C.3   1 <1>  -0.0160 
  9 N       -5.9880     0.1160    -0.5160 N.am  1 <1>  -0.6930 
 10 C       -5.9210     2.6180    -0.2840 C.3   1 <1>  -0.1600 
 11 S       -6.8970    -1.3540    -0.3330 S.o2  1 <1>   1.3330 
 12 C       -6.7600     1.3440    -0.1780 C.3   1 <1>   0.1960 
 13 O       -8.2320    -0.9810     0.0720 O.2   1 <1>  -0.6500 
 14 O       -6.6970    -2.1890    -1.4910 O.2   1 <1>  -0.6500 
 15 C       -6.1060    -2.0990     1.0770 C.3   1 <1>  -0.1350 
 16 H       -1.9090     2.1340     0.0540 H     1 <1>   0.1500 
 17 H       -1.9720    -1.6330    -1.9240 H     1 <1>   0.1500 
 18 H       -4.4010    -1.7060    -1.7420 H     1 <1>   0.1500 
 19 H       -3.9990     3.3310     0.3340 H     1 <1>   0.0800 
 20 H       -4.7420     2.2350     1.4740 H     1 <1>   0.0800 
 21 H       -5.7510     2.8410    -1.3230 H     1 <1>   0.0800 
 22 H       -6.4610     3.4410     0.1490 H     1 <1>   0.0800 
 23 H       -7.1290     1.2510     0.8300 H     1 <1>   0.0800 
 24 H       -7.6090     1.4190    -0.8360 H     1 <1>   0.0800 
 25 H       -6.1490    -1.4370     1.9180 H     1 <1>   0.0800 
 26 H       -5.0790    -2.3160     0.8590 H     1 <1>   0.0800 
 27 H       -6.6030    -3.0140     1.3330 H     1 <1>   0.0800 
@<TRIPOS>BOND
  1   1   2  1   
  2   2   3  ar  
  3   2   4  ar  
  4   3   5  ar  
  5   3  16  1   
  6   4   6  ar  
  7   4  17  1   
  8   5   7  ar  
  9   5   8  1   
 10   6   7  ar  
 11   6  18  1   
 12   7   9  1   
 13   8  10  1   
 14   8  19  1   
 15   8  20  1   
 16   9  11  am  
 17   9  12  1   
 18  10  12  1   
 19  10  21  1   
 20  10  22  1   
 21  11  13  2   
 22  11  14  2   
 23  11  15  1   
 24  12  23  1   
 25  12  24  1   
 26  15  25  1   
 27  15  26  1   
 28  15  27  1   
@<TRIPOS>SUBSTRUCTURE
  1 ****   7 GROUP 4 **** **** 0

# MOE 2024.06 (io_trps.svl 2023.06)
