@<TRIPOS>MOLECULE
NONAME
52 55 1 0 0 
SMALL
USER_CHARGES


@<TRIPOS>ATOM
  1 O        0.8650     2.6670     2.0510 O.2   1 <1>  -0.5700 
  2 C        0.3920     2.3880     0.9640 C.2   1 <1>   0.5440 
  3 N        1.1790     1.7350     0.0570 N.am  1 <1>  -0.7300 
  4 C       -0.9760     2.7670     0.6420 C.ar  1 <1>   0.0860 
  5 C        2.5550     1.2280     0.1820 C.3   1 <1>   0.3000 
  6 C       -1.7590     2.1600    -0.3600 C.ar  1 <1>   0.0830 
  7 C       -1.5700     3.8060     1.3630 C.ar  1 <1>  -0.1500 
  8 C        2.9180     0.5570    -1.1570 C.3   1 <1>  -0.1600 
  9 C        2.6540     0.1790     1.3050 C.3   1 <1>  -0.1600 
 10 C        3.5470     2.3760     0.4460 C.3   1 <1>  -0.1600 
 11 O       -1.2240     1.1350    -1.0800 O.3   1 <1>  -0.3630 
 12 C       -3.0600     2.5960    -0.6060 C.ar  1 <1>  -0.1500 
 13 C       -2.8540     4.2460     1.1190 C.ar  1 <1>   0.0830 
 14 C        4.3520    -0.0050    -1.1040 C.3   1 <1>  -0.0800 
 15 C        4.0890    -0.3800     1.3790 C.3   1 <1>  -0.0800 
 16 C        4.9850     1.8240     0.5170 C.3   1 <1>  -0.0800 
 17 C       -1.9880     0.3030    -1.9280 C.3   1 <1>   0.0400 
 18 C       -3.6260     3.6310     0.1280 C.ar  1 <1>   0.0830 
 19 O       -3.2960     5.2730     1.8960 O.3   1 <1>  -0.3630 
 20 C        4.4460    -1.0400     0.0330 C.3   1 <1>  -0.1600 
 21 C        5.3350     1.1470    -0.8220 C.3   1 <1>  -0.1600 
 22 C        5.0690     0.7800     1.6480 C.3   1 <1>  -0.1600 
 23 O       -4.9050     4.0500    -0.0770 O.3   1 <1>  -0.3620 
 24 C       -3.8570     6.4040     1.2660 C.3   1 <1>   0.0400 
 25 C       -5.8110     3.3540    -0.9050 C.3   1 <1>   0.0400 
 26 H        0.6920     1.4000    -0.7770 H     1 <1>   0.3700 
 27 H       -1.0080     4.2910     2.1420 H     1 <1>   0.1500 
 28 H        2.8470     1.2760    -1.9530 H     1 <1>   0.0800 
 29 H        2.2310    -0.2450    -1.3600 H     1 <1>   0.0800 
 30 H        1.9600    -0.6210     1.1210 H     1 <1>   0.0800 
 31 H        2.4050     0.6290     2.2490 H     1 <1>   0.0800 
 32 H        3.3110     2.8580     1.3770 H     1 <1>   0.0800 
 33 H        3.4740     3.1080    -0.3380 H     1 <1>   0.0800 
 34 H       -3.6370     2.1310    -1.3760 H     1 <1>   0.1500 
 35 H        4.5970    -0.4720    -2.0430 H     1 <1>   0.0800 
 36 H        4.1560    -1.1050     2.1720 H     1 <1>   0.0800 
 37 H        5.6730     2.6280     0.7110 H     1 <1>   0.0800 
 38 H       -1.3530    -0.4880    -2.2820 H     1 <1>   0.0800 
 39 H       -2.3440     0.8830    -2.7610 H     1 <1>   0.0800 
 40 H       -2.8070    -0.1120    -1.3660 H     1 <1>   0.0800 
 41 H        5.4430    -1.4420     0.0790 H     1 <1>   0.0800 
 42 H        3.7740    -1.8580    -0.1600 H     1 <1>   0.0800 
 43 H        5.2880     1.8700    -1.6180 H     1 <1>   0.0800 
 44 H        6.3410     0.7680    -0.7860 H     1 <1>   0.0800 
 45 H        6.0730     0.3990     1.7190 H     1 <1>   0.0800 
 46 H        4.8290     1.2450     2.5890 H     1 <1>   0.0800 
 47 H       -3.7590     7.2410     1.9330 H     1 <1>   0.0800 
 48 H       -4.8970     6.2160     1.0730 H     1 <1>   0.0800 
 49 H       -3.3290     6.5970     0.3490 H     1 <1>   0.0800 
 50 H       -6.7690     3.8350    -0.8260 H     1 <1>   0.0800 
 51 H       -5.8850     2.3370    -0.5640 H     1 <1>   0.0800 
 52 H       -5.4630     3.4000    -1.9210 H     1 <1>   0.0800 
@<TRIPOS>BOND
  1   1   2  2   
  2   2   3  am  
  3   2   4  1   
  4   3   5  1   
  5   3  26  1   
  6   4   6  ar  
  7   4   7  ar  
  8   5   8  1   
  9   5   9  1   
 10   5  10  1   
 11   6  11  1   
 12   6  12  ar  
 13   7  13  ar  
 14   7  27  1   
 15   8  14  1   
 16   8  28  1   
 17   8  29  1   
 18   9  15  1   
 19   9  30  1   
 20   9  31  1   
 21  10  16  1   
 22  10  32  1   
 23  10  33  1   
 24  11  17  1   
 25  12  18  ar  
 26  12  34  1   
 27  13  18  ar  
 28  13  19  1   
 29  14  20  1   
 30  14  21  1   
 31  14  35  1   
 32  15  20  1   
 33  15  22  1   
 34  15  36  1   
 35  16  21  1   
 36  16  22  1   
 37  16  37  1   
 38  17  38  1   
 39  17  39  1   
 40  17  40  1   
 41  18  23  1   
 42  19  24  1   
 43  20  41  1   
 44  20  42  1   
 45  21  43  1   
 46  21  44  1   
 47  22  45  1   
 48  22  46  1   
 49  23  25  1   
 50  24  47  1   
 51  24  48  1   
 52  24  49  1   
 53  25  50  1   
 54  25  51  1   
 55  25  52  1   
@<TRIPOS>SUBSTRUCTURE
  1 ****   2 GROUP 4 **** **** 0

# MOE 2024.06 (io_trps.svl 2023.06)
