@<TRIPOS>MOLECULE
Structure2492
32 33 1 0 0 
SMALL
USER_CHARGES


@<TRIPOS>ATOM
  1 O       -0.0850     0.3250     0.3980 O.3   1 <1>  -0.3630 
  2 C       -1.2450     0.9300     0.0420 C.ar  1 <1>   0.0820 
  3 C        1.1580     0.9530     0.2050 C.3   1 <1>   0.1200 
  4 C       -2.4060     0.1870     0.1900 C.ar  1 <1>  -0.1500 
  5 C       -1.3220     2.2290    -0.4540 C.ar  1 <1>  -0.1500 
  6 C        2.2540    -0.0320     0.6310 C.3   1 <1>  -0.0800 
  7 C       -3.6370     0.7190    -0.1540 C.ar  1 <1>  -0.1430 
  8 C       -2.5510     2.7630    -0.7980 C.ar  1 <1>  -0.1500 
  9 C        3.6600     0.4900     0.3340 C.3   1 <1>   0.3430 
 10 C        2.1610    -1.3850    -0.0850 C.3   1 <1>  -0.1600 
 11 C       -3.7040     2.0110    -0.6490 C.ar  1 <1>  -0.1500 
 12 C       -4.9060    -0.0980     0.0090 C.3   1 <1>  -0.0960 
 13 N        4.3460    -0.5820    -0.4420 N.4   1 <1>  -0.9060 
 14 C        3.5980    -1.8430    -0.2300 C.3   1 <1>   0.3430 
 15 H        1.1810     1.8460     0.8070 H     1 <1>   0.0800 
 16 H        1.2440     1.2040    -0.8390 H     1 <1>   0.0800 
 17 H       -2.3350    -0.8120     0.5780 H     1 <1>   0.1500 
 18 H       -0.4490     2.8390    -0.5780 H     1 <1>   0.1500 
 19 H        2.1760    -0.1820     1.6950 H     1 <1>   0.0800 
 20 H       -2.6160     3.7670    -1.1810 H     1 <1>   0.1500 
 21 H        4.1800     0.6740     1.2620 H     1 <1>   0.0800 
 22 H        3.6240     1.4050    -0.2360 H     1 <1>   0.0800 
 23 H        1.7240    -1.2740    -1.0630 H     1 <1>   0.0800 
 24 H        1.5700    -2.0940     0.4710 H     1 <1>   0.0800 
 25 H       -4.6550     2.4370    -0.9180 H     1 <1>   0.1500 
 26 H       -4.6770    -1.1420     0.1200 H     1 <1>   0.0800 
 27 H       -5.5370     0.0220    -0.8530 H     1 <1>   0.0800 
 28 H       -5.4410     0.2330     0.8810 H     1 <1>   0.0800 
 29 H        5.3340    -0.6790    -0.1720 H     1 <1>   0.4500 
 30 H        4.3160    -0.3470    -1.4420 H     1 <1>   0.4500 
 31 H        3.7210    -2.5310    -1.0530 H     1 <1>   0.0800 
 32 H        3.9210    -2.3140     0.6860 H     1 <1>   0.0800 
@<TRIPOS>BOND
  1   1   2  1   
  2   1   3  1   
  3   2   4  ar  
  4   2   5  ar  
  5   3   6  1   
  6   3  15  1   
  7   3  16  1   
  8   4   7  ar  
  9   4  17  1   
 10   5   8  ar  
 11   5  18  1   
 12   6   9  1   
 13   6  10  1   
 14   6  19  1   
 15   7  11  ar  
 16   7  12  1   
 17   8  11  ar  
 18   8  20  1   
 19   9  13  1   
 20   9  21  1   
 21   9  22  1   
 22  10  14  1   
 23  10  23  1   
 24  10  24  1   
 25  11  25  1   
 26  12  26  1   
 27  12  27  1   
 28  12  28  1   
 29  13  14  1   
 30  13  29  1   
 31  13  30  1   
 32  14  31  1   
 33  14  32  1   
@<TRIPOS>SUBSTRUCTURE
  1 ****   1 GROUP 4 **** **** 0

# MOE 2024.06 (io_trps.svl 2023.06)
