@<TRIPOS>MOLECULE
NONAME
35 36 1 0 0 
SMALL
USER_CHARGES


@<TRIPOS>ATOM
  1 S        0.1440    -0.7750     1.3460 S.o2  1 <1>   1.4470 
  2 O       -0.4610    -1.6830     2.3020 O.2   1 <1>  -0.6500 
  3 O       -0.0350     0.6460     1.5590 O.2   1 <1>  -0.6500 
  4 N       -0.5410    -1.1670    -0.1590 N.am  1 <1>  -0.8490 
  5 C        1.9120    -1.1480     1.2020 C.ar  1 <1>  -0.0090 
  6 C       -0.4340    -2.6010    -0.4630 C.3   1 <1>   0.1960 
  7 C       -1.9160    -0.6630    -0.2390 C.3   1 <1>   0.1960 
  8 C        2.6020    -0.9740     0.0180 C.ar  1 <1>  -0.1500 
  9 C        2.6200    -1.6190     2.3230 C.ar  1 <1>  -0.1500 
 10 C        0.1460    -2.7990    -1.8630 C.3   1 <1>  -0.2400 
 11 C       -2.4650    -0.7140    -1.6630 C.3   1 <1>  -0.2400 
 12 C        3.9580    -1.2980    -0.0830 C.ar  1 <1>   0.0000 
 13 C        3.9610    -1.9170     2.2610 C.ar  1 <1>  -0.1500 
 14 C        4.6280    -1.7530     1.0470 C.ar  1 <1>  -0.1520 
 15 C        4.8950    -1.2760    -1.1530 C.2   1 <1>  -0.2330 
 16 N        5.9350    -1.9750     0.7070 N.pl3 1 <1>   0.0330 
 17 C        4.6170    -0.9090    -2.5320 C.2   1 <1>   1.0330 
 18 C        6.0820    -1.6870    -0.6100 C.2   1 <1>  -0.3020 
 19 O        3.4530    -0.7170    -2.9310 O.co2 1 <1>  -0.9000 
 20 O        5.5510    -0.8000    -3.3490 O.co2 1 <1>  -0.9000 
 21 H       -1.3950    -3.0800    -0.3830 H     1 <1>   0.0800 
 22 H        0.2250    -3.0900     0.2370 H     1 <1>   0.0800 
 23 H       -1.9310     0.3690     0.0720 H     1 <1>   0.0800 
 24 H       -2.5520    -1.2170     0.4320 H     1 <1>   0.0800 
 25 H        2.1080    -0.5880    -0.8570 H     1 <1>   0.1500 
 26 H        2.0860    -1.7450     3.2490 H     1 <1>   0.1500 
 27 H       -0.4670    -2.3420    -2.6140 H     1 <1>   0.0800 
 28 H        0.2200    -3.8490    -2.0780 H     1 <1>   0.0800 
 29 H        1.1350    -2.3790    -1.9280 H     1 <1>   0.0800 
 30 H       -1.7800    -0.2300    -2.3370 H     1 <1>   0.0800 
 31 H       -3.4040    -0.1930    -1.7010 H     1 <1>   0.0800 
 32 H       -2.6330    -1.7260    -1.9770 H     1 <1>   0.0800 
 33 H        4.4940    -2.2720     3.1240 H     1 <1>   0.1500 
 34 H        6.6680    -2.3050     1.3400 H     1 <1>   0.2700 
 35 H        7.0170    -1.7840    -1.1340 H     1 <1>   0.1500 
@<TRIPOS>BOND
  1   1   2  2   
  2   1   3  2   
  3   1   4  am  
  4   1   5  1   
  5   4   6  1   
  6   4   7  1   
  7   5   8  ar  
  8   5   9  ar  
  9   6  10  1   
 10   6  21  1   
 11   6  22  1   
 12   7  11  1   
 13   7  23  1   
 14   7  24  1   
 15   8  12  ar  
 16   8  25  1   
 17   9  13  ar  
 18   9  26  1   
 19  10  27  1   
 20  10  28  1   
 21  10  29  1   
 22  11  30  1   
 23  11  31  1   
 24  11  32  1   
 25  12  14  ar  
 26  12  15  1   
 27  13  14  ar  
 28  13  33  1   
 29  14  16  1   
 30  15  17  1   
 31  15  18  2   
 32  16  18  1   
 33  16  34  1   
 34  17  19  ar  
 35  17  20  ar  
 36  18  35  1   
@<TRIPOS>SUBSTRUCTURE
  1 ****   8 GROUP 4 **** **** 0

# MOE 2024.06 (io_trps.svl 2023.06)
