@<TRIPOS>MOLECULE
NONAME
47 49 1 0 0 
SMALL
USER_CHARGES


@<TRIPOS>ATOM
  1 CL       0.1830     0.1600     0.3730 Cl    1 <1>  -0.1770 
  2 C        1.6940    -0.7310     0.3640 C.ar  1 <1>   0.1770 
  3 C        1.7810    -2.1290     0.4280 C.ar  1 <1>   0.0820 
  4 C        2.8340     0.0440     0.2820 C.ar  1 <1>  -0.1500 
  5 O        0.7660    -3.0280     0.5090 O.3   1 <1>  -0.3630 
  6 C        3.0460    -2.6960     0.4090 C.ar  1 <1>  -0.1500 
  7 C        4.1080    -0.5220     0.2530 C.ar  1 <1>   0.0860 
  8 C       -0.5980    -2.6970     0.6240 C.3   1 <1>   0.0400 
  9 C        4.1840    -1.9150     0.3280 C.ar  1 <1>  -0.1500 
 10 C        5.2900     0.3110     0.1500 C.2   1 <1>   0.5440 
 11 O        5.2900     1.4310     0.6190 O.2   1 <1>  -0.5700 
 12 N        6.4020    -0.1610    -0.5120 N.am  1 <1>  -0.5470 
 13 C        7.6770     0.4000    -0.6660 C.ar  1 <1>   0.1170 
 14 C        8.4370     0.0520    -1.7770 C.ar  1 <1>  -0.1500 
 15 C        8.2280     1.2850     0.2540 C.ar  1 <1>  -0.1500 
 16 C        9.7030     0.5750    -1.9670 C.ar  1 <1>  -0.1500 
 17 C        9.4910     1.8140     0.0680 C.ar  1 <1>  -0.1500 
 18 C       10.2410     1.4590    -1.0430 C.ar  1 <1>  -0.1430 
 19 C       11.6330     2.0290    -1.2420 C.3   1 <1>   0.4860 
 20 N       12.5420     1.4360    -0.2260 N.4   1 <1>  -0.9590 
 21 C       13.9170     2.0360    -0.2220 C.3   1 <1>   0.3430 
 22 C       12.6060    -0.0640    -0.2720 C.3   1 <1>   0.3430 
 23 C       14.8460     1.3250     0.7910 C.3   1 <1>   0.1200 
 24 C       13.5150    -0.6190     0.8500 C.3   1 <1>   0.1200 
 25 O       14.1270     0.4140     1.5770 O.3   1 <1>  -0.5600 
 26 H        2.7370     1.1160     0.2380 H     1 <1>   0.1500 
 27 H        3.1310    -3.7680     0.4650 H     1 <1>   0.1500 
 28 H       -1.1550    -3.6120     0.7210 H     1 <1>   0.0800 
 29 H       -0.9100    -2.1790    -0.2650 H     1 <1>   0.0800 
 30 H       -0.7410    -2.0920     1.5010 H     1 <1>   0.0800 
 31 H        5.1450    -2.3990     0.3340 H     1 <1>   0.1500 
 32 H        6.2330    -0.9990    -1.0640 H     1 <1>   0.3700 
 33 H        8.0290    -0.6270    -2.5040 H     1 <1>   0.1500 
 34 H        7.6620     1.5680     1.1250 H     1 <1>   0.1500 
 35 H       10.2570     0.2870    -2.8460 H     1 <1>   0.1500 
 36 H        9.8690     2.5070     0.8010 H     1 <1>   0.1500 
 37 H       11.5970     3.1000    -1.1280 H     1 <1>   0.0800 
 38 H       11.9840     1.8010    -2.2350 H     1 <1>   0.0800 
 39 H       12.1470     1.6380     0.7040 H     1 <1>   0.4500 
 40 H       13.8590     3.0810     0.0350 H     1 <1>   0.0800 
 41 H       14.3570     1.9670    -1.2030 H     1 <1>   0.0800 
 42 H       12.9890    -0.3880    -1.2250 H     1 <1>   0.0800 
 43 H       11.6190    -0.4830    -0.1590 H     1 <1>   0.0800 
 44 H       15.2990     2.0450     1.4500 H     1 <1>   0.0800 
 45 H       15.6320     0.7940     0.2820 H     1 <1>   0.0800 
 46 H       14.2820    -1.2540     0.4410 H     1 <1>   0.0800 
 47 H       12.9320    -1.2020     1.5420 H     1 <1>   0.0800 
@<TRIPOS>BOND
  1   1   2  1   
  2   2   3  ar  
  3   2   4  ar  
  4   3   5  1   
  5   3   6  ar  
  6   4   7  ar  
  7   4  26  1   
  8   5   8  1   
  9   6   9  ar  
 10   6  27  1   
 11   7   9  ar  
 12   7  10  1   
 13   8  28  1   
 14   8  29  1   
 15   8  30  1   
 16   9  31  1   
 17  10  11  2   
 18  10  12  am  
 19  12  13  1   
 20  12  32  1   
 21  13  14  ar  
 22  13  15  ar  
 23  14  16  ar  
 24  14  33  1   
 25  15  17  ar  
 26  15  34  1   
 27  16  18  ar  
 28  16  35  1   
 29  17  18  ar  
 30  17  36  1   
 31  18  19  1   
 32  19  20  1   
 33  19  37  1   
 34  19  38  1   
 35  20  21  1   
 36  20  22  1   
 37  20  39  1   
 38  21  23  1   
 39  21  40  1   
 40  21  41  1   
 41  22  24  1   
 42  22  42  1   
 43  22  43  1   
 44  23  25  1   
 45  23  44  1   
 46  23  45  1   
 47  24  25  1   
 48  24  46  1   
 49  24  47  1   
@<TRIPOS>SUBSTRUCTURE
  1 ****  13 GROUP 4 **** **** 0

# MOE 2024.06 (io_trps.svl 2023.06)
