@<TRIPOS>MOLECULE
NONAME
33 34 1 0 0 
SMALL
USER_CHARGES


@<TRIPOS>ATOM
  1 BR       0.7760    -0.0310     2.0020 Br    1 <1>  -0.1110 
  2 C        0.1940    -1.5030     0.9010 C.ar  1 <1>   0.1110 
  3 C        0.8490    -1.7880    -0.2900 C.ar  1 <1>   0.0830 
  4 C       -0.8900    -2.2430     1.3330 C.ar  1 <1>  -0.1500 
  5 O        1.8930    -1.0510    -0.7240 O.3   1 <1>  -0.3630 
  6 C        0.3950    -2.8440    -1.0620 C.ar  1 <1>  -0.1500 
  7 C       -1.3460    -3.2970     0.5500 C.ar  1 <1>  -0.1430 
  8 C        3.1650    -1.4240    -0.2450 C.3   1 <1>   0.0400 
  9 C       -0.6920    -3.5960    -0.6420 C.ar  1 <1>  -0.1500 
 10 C       -2.5530    -4.1050     0.9870 C.3   1 <1>   0.4870 
 11 N       -3.7160    -3.7180     0.1400 N.4   1 <1>  -0.9590 
 12 C       -4.0990    -2.2770     0.3720 C.3   1 <1>   0.3430 
 13 C       -4.8630    -4.6700     0.3490 C.3   1 <1>   0.3430 
 14 C       -5.1370    -1.7710    -0.6380 C.3   1 <1>   0.0700 
 15 C       -5.9950    -4.4650    -0.6670 C.3   1 <1>   0.0700 
 16 S       -6.6350    -2.7800    -0.5020 S.3   1 <1>  -0.4600 
 17 H       -1.3550    -1.9830     2.2690 H     1 <1>   0.1500 
 18 H        0.8980    -3.0680    -1.9870 H     1 <1>   0.1500 
 19 H        3.8920    -0.7560    -0.6700 H     1 <1>   0.0800 
 20 H        3.3710    -2.4350    -0.5480 H     1 <1>   0.0800 
 21 H        3.1760    -1.3430     0.8280 H     1 <1>   0.0800 
 22 H       -1.0140    -4.4160    -1.2620 H     1 <1>   0.1500 
 23 H       -2.7670    -3.9180     2.0270 H     1 <1>   0.0800 
 24 H       -2.3360    -5.1540     0.8670 H     1 <1>   0.0800 
 25 H       -3.4000    -3.7910    -0.8350 H     1 <1>   0.4500 
 26 H       -3.2240    -1.6520     0.2920 H     1 <1>   0.0800 
 27 H       -4.4980    -2.1610     1.3660 H     1 <1>   0.0800 
 28 H       -5.2640    -4.5430     1.3420 H     1 <1>   0.0800 
 29 H       -4.5100    -5.6850     0.2630 H     1 <1>   0.0800 
 30 H       -4.7810    -1.8380    -1.6510 H     1 <1>   0.0800 
 31 H       -5.4220    -0.7550    -0.4250 H     1 <1>   0.0800 
 32 H       -6.8170    -5.1320    -0.4730 H     1 <1>   0.0800 
 33 H       -5.6580    -4.5940    -1.6800 H     1 <1>   0.0800 
@<TRIPOS>BOND
  1   1   2  1   
  2   2   3  ar  
  3   2   4  ar  
  4   3   5  1   
  5   3   6  ar  
  6   4   7  ar  
  7   4  17  1   
  8   5   8  1   
  9   6   9  ar  
 10   6  18  1   
 11   7   9  ar  
 12   7  10  1   
 13   8  19  1   
 14   8  20  1   
 15   8  21  1   
 16   9  22  1   
 17  10  11  1   
 18  10  23  1   
 19  10  24  1   
 20  11  12  1   
 21  11  13  1   
 22  11  25  1   
 23  12  14  1   
 24  12  26  1   
 25  12  27  1   
 26  13  15  1   
 27  13  28  1   
 28  13  29  1   
 29  14  16  1   
 30  14  30  1   
 31  14  31  1   
 32  15  16  1   
 33  15  32  1   
 34  15  33  1   
@<TRIPOS>SUBSTRUCTURE
  1 ****   7 GROUP 4 **** **** 0

# MOE 2024.06 (io_trps.svl 2023.06)
