@<TRIPOS>MOLECULE
NONAME
39 40 1 0 0 
SMALL
USER_CHARGES


@<TRIPOS>ATOM
  1 O       -0.1390    -0.7910    -0.7930 O.co2 1 <1>  -0.9000 
  2 C       -0.8770    -0.8450     0.2020 C.2   1 <1>   0.9060 
  3 O       -0.4740    -1.3270     1.2640 O.co2 1 <1>  -0.9000 
  4 C       -2.3020    -0.2660     0.0890 C.3   1 <1>  -0.1060 
  5 C       -2.2960     1.0570    -0.7470 C.3   1 <1>  -0.0190 
  6 C       -2.8730     0.0340     1.4980 C.3   1 <1>  -0.0220 
  7 C       -3.1910    -1.3380    -0.5980 C.3   1 <1>  -0.2400 
  8 C       -1.3010     2.1050    -0.2140 C.2   1 <1>   0.5690 
  9 C       -3.7200     1.6470    -0.9090 C.3   1 <1>  -0.0220 
 10 C       -4.1560     0.8540     1.4420 C.2   1 <1>  -0.2880 
 11 O       -1.6940     3.0710     0.4030 O.2   1 <1>  -0.5700 
 12 N        0.0200     1.9030    -0.4790 N.am  1 <1>  -0.5470 
 13 C       -4.5360     1.5610     0.3740 C.2   1 <1>  -0.2880 
 14 C        1.1290     2.5840     0.0420 C.ar  1 <1>   0.1170 
 15 C        1.4400     3.9140    -0.2650 C.ar  1 <1>   0.0820 
 16 C        1.9660     1.8870     0.9010 C.ar  1 <1>  -0.1500 
 17 O        0.6710     4.6240    -1.1280 O.3   1 <1>  -0.3630 
 18 C        2.5610     4.5170     0.2880 C.ar  1 <1>  -0.1500 
 19 C        3.0820     2.4910     1.4550 C.ar  1 <1>  -0.1500 
 20 C       -0.0930     5.6610    -0.5580 C.3   1 <1>   0.0400 
 21 C        3.3800     3.8080     1.1500 C.ar  1 <1>  -0.1500 
 22 H       -1.9530     0.8150    -1.7370 H     1 <1>   0.0800 
 23 H       -2.1460     0.5800     2.0760 H     1 <1>   0.0800 
 24 H       -3.0540    -0.8940     2.0100 H     1 <1>   0.0800 
 25 H       -2.8440    -1.5150    -1.6010 H     1 <1>   0.0800 
 26 H       -4.2240    -1.0460    -0.6310 H     1 <1>   0.0800 
 27 H       -3.1220    -2.2640    -0.0560 H     1 <1>   0.0800 
 28 H       -4.2430     1.1110    -1.6800 H     1 <1>   0.0800 
 29 H       -3.6510     2.6730    -1.2240 H     1 <1>   0.0800 
 30 H       -4.7220     0.8160     2.3560 H     1 <1>   0.1500 
 31 H        0.2190     0.9290    -0.7830 H     1 <1>   0.3700 
 32 H       -5.4470     2.1330     0.3410 H     1 <1>   0.1500 
 33 H        1.7290     0.8600     1.1350 H     1 <1>   0.1500 
 34 H        2.7930     5.5340     0.0360 H     1 <1>   0.1500 
 35 H        3.7120     1.9290     2.1220 H     1 <1>   0.1500 
 36 H       -0.8260     5.9720    -1.2790 H     1 <1>   0.0800 
 37 H        0.5580     6.4790    -0.3090 H     1 <1>   0.0800 
 38 H       -0.5830     5.2910     0.3250 H     1 <1>   0.0800 
 39 H        4.2480     4.2770     1.5790 H     1 <1>   0.1500 
@<TRIPOS>BOND
  1   1   2  ar  
  2   2   3  ar  
  3   2   4  1   
  4   4   5  1   
  5   4   6  1   
  6   4   7  1   
  7   5   8  1   
  8   5   9  1   
  9   5  22  1   
 10   6  10  1   
 11   6  23  1   
 12   6  24  1   
 13   7  25  1   
 14   7  26  1   
 15   7  27  1   
 16   8  11  2   
 17   8  12  am  
 18   9  13  1   
 19   9  28  1   
 20   9  29  1   
 21  10  13  2   
 22  10  30  1   
 23  12  14  1   
 24  12  31  1   
 25  13  32  1   
 26  14  15  ar  
 27  14  16  ar  
 28  15  17  1   
 29  15  18  ar  
 30  16  19  ar  
 31  16  33  1   
 32  17  20  1   
 33  18  21  ar  
 34  18  34  1   
 35  19  21  ar  
 36  19  35  1   
 37  20  36  1   
 38  20  37  1   
 39  20  38  1   
 40  21  39  1   
@<TRIPOS>SUBSTRUCTURE
  1 ****   8 GROUP 4 **** **** 0

# MOE 2024.06 (io_trps.svl 2023.06)
