@<TRIPOS>MOLECULE
NONAME
44 46 1 0 0 
SMALL
USER_CHARGES


@<TRIPOS>ATOM
  1 F        2.8280    -0.1240     1.6900 F     1 <1>  -0.1900 
  2 C        2.9050     0.4240     0.5080 C.ar  1 <1>   0.1900 
  3 C        2.6040     1.7660     0.3790 C.ar  1 <1>  -0.1500 
  4 C        3.2960    -0.3540    -0.5630 C.ar  1 <1>  -0.1500 
  5 C        2.7030     2.3750    -0.8680 C.ar  1 <1>  -0.1440 
  6 C        3.3900     0.2440    -1.8070 C.ar  1 <1>  -0.1500 
  7 C        3.0990     1.5920    -1.9550 C.ar  1 <1>  -0.1500 
  8 C        2.4110     3.8830    -0.9870 C.3   1 <1>   0.7670 
  9 O        2.3240     4.2550    -2.3060 O.3   1 <1>  -0.6800 
 10 C        3.6160     4.5840    -0.4440 C.1   1 <1>  -0.2000 
 11 C        1.0770     4.2900    -0.3430 C.ar  1 <1>  -0.1430 
 12 C        4.6660     4.9530    -0.0230 C.1   1 <1>  -0.2000 
 13 C       -0.0630     3.5450    -0.6280 C.ar  1 <1>  -0.1500 
 14 C        0.9520     5.3850     0.5100 C.ar  1 <1>  -0.1500 
 15 C        6.0540     5.1650     0.4610 C.3   1 <1>   0.5430 
 16 C       -1.2880     3.8740    -0.0750 C.ar  1 <1>  -0.1500 
 17 C       -0.2730     5.7150     1.0630 C.ar  1 <1>  -0.1500 
 18 N        6.8400     3.9840     0.0230 N.4   1 <1>  -0.9590 
 19 C       -1.3940     4.9600     0.7730 C.ar  1 <1>  -0.1500 
 20 C        6.3790     2.6980     0.6120 C.3   1 <1>   0.3430 
 21 C        8.2900     4.0750     0.3010 C.3   1 <1>   0.3430 
 22 C        7.5510     1.7500     0.4050 C.3   1 <1>  -0.1600 
 23 C        8.7820     2.6380     0.1920 C.3   1 <1>  -0.1600 
 24 H        2.2940     2.3180     1.2500 H     1 <1>   0.1500 
 25 H        3.5150    -1.3980    -0.4240 H     1 <1>   0.1500 
 26 H        3.6850    -0.3400    -2.6630 H     1 <1>   0.1500 
 27 H        3.1830     2.0270    -2.9370 H     1 <1>   0.1500 
 28 H        1.7590     5.0470    -2.3340 H     1 <1>   0.4000 
 29 H       -0.0050     2.6960    -1.2900 H     1 <1>   0.1500 
 30 H        1.7970     6.0020     0.7580 H     1 <1>   0.1500 
 31 H        6.0650     5.2520     1.5350 H     1 <1>   0.0800 
 32 H        6.4560     6.0670     0.0290 H     1 <1>   0.0800 
 33 H       -2.1590     3.2850    -0.3050 H     1 <1>   0.1500 
 34 H       -0.3570     6.5620     1.7220 H     1 <1>   0.1500 
 35 H        6.7060     3.9010    -0.9920 H     1 <1>   0.4500 
 36 H       -2.3460     5.2170     1.2050 H     1 <1>   0.1500 
 37 H        5.4820     2.3370     0.1320 H     1 <1>   0.0800 
 38 H        6.1950     2.8210     1.6670 H     1 <1>   0.0800 
 39 H        8.4500     4.4330     1.3060 H     1 <1>   0.0800 
 40 H        8.7940     4.7240    -0.3980 H     1 <1>   0.0800 
 41 H        7.3730     1.1370    -0.4630 H     1 <1>   0.0800 
 42 H        7.6650     1.1040     1.2590 H     1 <1>   0.0800 
 43 H        9.5460     2.4450     0.9250 H     1 <1>   0.0800 
 44 H        9.2000     2.4700    -0.7860 H     1 <1>   0.0800 
@<TRIPOS>BOND
  1   1   2  1   
  2   2   3  ar  
  3   2   4  ar  
  4   3   5  ar  
  5   3  24  1   
  6   4   6  ar  
  7   4  25  1   
  8   5   7  ar  
  9   5   8  1   
 10   6   7  ar  
 11   6  26  1   
 12   7  27  1   
 13   8   9  1   
 14   8  10  1   
 15   8  11  1   
 16   9  28  1   
 17  10  12  3   
 18  11  13  ar  
 19  11  14  ar  
 20  12  15  1   
 21  13  16  ar  
 22  13  29  1   
 23  14  17  ar  
 24  14  30  1   
 25  15  18  1   
 26  15  31  1   
 27  15  32  1   
 28  16  19  ar  
 29  16  33  1   
 30  17  19  ar  
 31  17  34  1   
 32  18  20  1   
 33  18  21  1   
 34  18  35  1   
 35  19  36  1   
 36  20  22  1   
 37  20  37  1   
 38  20  38  1   
 39  21  23  1   
 40  21  39  1   
 41  21  40  1   
 42  22  23  1   
 43  22  41  1   
 44  22  42  1   
 45  23  43  1   
 46  23  44  1   
@<TRIPOS>SUBSTRUCTURE
  1 ****   5 GROUP 4 **** **** 0

# MOE 2024.06 (io_trps.svl 2023.06)
