@<TRIPOS>MOLECULE
NONAME
37 39 1 0 0 
SMALL
USER_CHARGES


@<TRIPOS>ATOM
  1 O       -1.5560     1.2250    -1.4480 O.3   1 <1>  -0.2800 
  2 C       -1.6210     0.8670    -0.1780 C.2   1 <1>  -0.0400 
  3 C       -0.4380     1.9040    -1.6130 C.2   1 <1>  -0.0100 
  4 C       -0.5430     1.3220     0.4980 C.2   1 <1>  -0.1500 
  5 C       -2.8270     0.0710     0.2790 C.3   1 <1>   0.5230 
  6 C        0.2350     2.0020    -0.4470 C.2   1 <1>  -0.1500 
  7 N       -4.0470     0.7720    -0.2010 N.4   1 <1>  -0.9590 
  8 C       -4.2210     2.1120     0.4760 C.3   1 <1>   0.3430 
  9 C       -5.2880    -0.0780    -0.0880 C.3   1 <1>   0.3430 
 10 C       -5.4870     2.8550     0.0010 C.3   1 <1>   0.2090 
 11 C       -6.5560     0.6610    -0.5650 C.3   1 <1>   0.2090 
 12 N       -6.6860     1.9770     0.1230 N.pl3 1 <1>  -0.8380 
 13 C       -7.9200     2.6060     0.0120 C.ar  1 <1>   0.1000 
 14 C       -8.3570     3.1470    -1.1920 C.ar  1 <1>  -0.1500 
 15 C       -8.7440     2.6990     1.1250 C.ar  1 <1>  -0.1500 
 16 C       -9.5900     3.7670    -1.2800 C.ar  1 <1>  -0.1500 
 17 C       -9.9780     3.3180     1.0420 C.ar  1 <1>  -0.1500 
 18 C      -10.4030     3.8540    -0.1620 C.ar  1 <1>  -0.1500 
 19 H       -0.1910     2.2820    -2.5920 H     1 <1>   0.1500 
 20 H       -0.2830     1.2120     1.5380 H     1 <1>   0.1500 
 21 H       -2.8340    -0.0180     1.3530 H     1 <1>   0.0800 
 22 H       -2.7750    -0.9140    -0.1540 H     1 <1>   0.0800 
 23 H        1.1750     2.4900    -0.2530 H     1 <1>   0.1500 
 24 H       -3.8640     0.9680    -1.1950 H     1 <1>   0.4500 
 25 H       -3.3600     2.7330     0.2870 H     1 <1>   0.0800 
 26 H       -4.3000     1.9710     1.5410 H     1 <1>   0.0800 
 27 H       -5.4390    -0.3590     0.9420 H     1 <1>   0.0800 
 28 H       -5.1710    -0.9810    -0.6650 H     1 <1>   0.0800 
 29 H       -5.3660     3.1680    -1.0210 H     1 <1>   0.0800 
 30 H       -5.6320     3.7370     0.6030 H     1 <1>   0.0800 
 31 H       -7.4240     0.0620    -0.3460 H     1 <1>   0.0800 
 32 H       -6.5170     0.8090    -1.6300 H     1 <1>   0.0800 
 33 H       -7.7330     3.0830    -2.0630 H     1 <1>   0.1500 
 34 H       -8.4110     2.2830     2.0580 H     1 <1>   0.1500 
 35 H       -9.9210     4.1840    -2.2150 H     1 <1>   0.1500 
 36 H      -10.6080     3.3850     1.9120 H     1 <1>   0.1500 
 37 H      -11.3620     4.3360    -0.2280 H     1 <1>   0.1500 
@<TRIPOS>BOND
  1   1   2  1   
  2   1   3  1   
  3   2   4  2   
  4   2   5  1   
  5   3   6  2   
  6   3  19  1   
  7   4   6  1   
  8   4  20  1   
  9   5   7  1   
 10   5  21  1   
 11   5  22  1   
 12   6  23  1   
 13   7   8  1   
 14   7   9  1   
 15   7  24  1   
 16   8  10  1   
 17   8  25  1   
 18   8  26  1   
 19   9  11  1   
 20   9  27  1   
 21   9  28  1   
 22  10  12  1   
 23  10  29  1   
 24  10  30  1   
 25  11  12  1   
 26  11  31  1   
 27  11  32  1   
 28  12  13  1   
 29  13  14  ar  
 30  13  15  ar  
 31  14  16  ar  
 32  14  33  1   
 33  15  17  ar  
 34  15  34  1   
 35  16  18  ar  
 36  16  35  1   
 37  17  18  ar  
 38  17  36  1   
 39  18  37  1   
@<TRIPOS>SUBSTRUCTURE
  1 ****  10 GROUP 4 **** **** 0

# MOE 2024.06 (io_trps.svl 2023.06)
