@<TRIPOS>MOLECULE
NONAME
48 50 1 0 0 
SMALL
USER_CHARGES


@<TRIPOS>ATOM
  1 O       -1.0780     1.0580    -3.2300 O.2   1 <1>  -0.5700 
  2 C       -1.0880     1.7970    -2.2620 C.2   1 <1>   0.5440 
  3 N        0.0130     2.5890    -2.0130 N.am  1 <1>  -0.6600 
  4 C       -2.2530     1.8250    -1.4060 C.ar  1 <1>   0.0860 
  5 C       -0.0170     3.8040    -1.1600 C.3   1 <1>   0.1400 
  6 C        1.3640     2.1890    -2.4770 C.3   1 <1>   0.1400 
  7 C       -2.2890     1.1190    -0.1910 C.ar  1 <1>   0.0000 
  8 C       -3.3680     2.5690    -1.7860 C.ar  1 <1>  -0.1500 
  9 C        0.8770     3.6030     0.0650 C.3   1 <1>  -0.1600 
 10 C        2.2400     1.9170    -1.2530 C.3   1 <1>  -0.1600 
 11 C       -1.1790     0.3060     0.2610 C.ar  1 <1>   0.0000 
 12 C       -3.4330     1.2040     0.5990 C.ar  1 <1>  -0.1500 
 13 C       -4.4940     2.6410    -0.9900 C.ar  1 <1>  -0.1500 
 14 C        2.3000     3.1310    -0.3050 C.3   1 <1>  -0.0190 
 15 C       -0.5600     0.5560     1.4840 C.ar  1 <1>  -0.1500 
 16 C       -0.6900    -0.7490    -0.5060 C.ar  1 <1>  -0.1500 
 17 C       -4.5250     1.9560     0.2110 C.ar  1 <1>  -0.1500 
 18 C        3.1530     2.8190     0.9250 C.2   1 <1>   0.6590 
 19 C        0.5170    -0.1960     1.9130 C.ar  1 <1>  -0.1500 
 20 C        0.3830    -1.5110    -0.0800 C.ar  1 <1>  -0.1500 
 21 O        2.6980     2.7470     2.0390 O.2   1 <1>  -0.5700 
 22 O        4.4460     2.6350     0.6870 O.3   1 <1>  -0.4300 
 23 C        0.9920    -1.2330     1.1300 C.ar  1 <1>  -0.1500 
 24 C        5.3480     2.3310     1.7240 C.3   1 <1>   0.1200 
 25 C        6.7340     2.1620     1.1100 C.3   1 <1>  -0.2400 
 26 H       -1.0220     4.0270    -0.8460 H     1 <1>   0.0800 
 27 H        0.3410     4.6390    -1.7380 H     1 <1>   0.0800 
 28 H        1.7830     2.9810    -3.0740 H     1 <1>   0.0800 
 29 H        1.3090     1.3020    -3.0850 H     1 <1>   0.0800 
 30 H       -3.3430     3.0950    -2.7250 H     1 <1>   0.1500 
 31 H        0.4130     2.8770     0.7050 H     1 <1>   0.0800 
 32 H        0.9340     4.5230     0.6180 H     1 <1>   0.0800 
 33 H        3.2310     1.6610    -1.5820 H     1 <1>   0.0800 
 34 H        1.8410     1.0660    -0.7270 H     1 <1>   0.0800 
 35 H       -3.4670     0.6640     1.5290 H     1 <1>   0.1500 
 36 H       -5.3450     3.2230    -1.3010 H     1 <1>   0.1500 
 37 H        2.7870     3.9350    -0.8270 H     1 <1>   0.0800 
 38 H       -0.9200     1.3590     2.1020 H     1 <1>   0.1500 
 39 H       -1.1540    -0.9710    -1.4520 H     1 <1>   0.1500 
 40 H       -5.3990     2.0060     0.8380 H     1 <1>   0.1500 
 41 H        0.9900     0.0290     2.8540 H     1 <1>   0.1500 
 42 H        0.7440    -2.3170    -0.6940 H     1 <1>   0.1500 
 43 H        1.8300    -1.8210     1.4620 H     1 <1>   0.1500 
 44 H        5.0230     1.4220     2.2020 H     1 <1>   0.0800 
 45 H        5.3350     3.1390     2.4360 H     1 <1>   0.0800 
 46 H        6.7270     1.3610     0.3930 H     1 <1>   0.0800 
 47 H        7.4450     1.9260     1.8800 H     1 <1>   0.0800 
 48 H        7.0410     3.0740     0.6300 H     1 <1>   0.0800 
@<TRIPOS>BOND
  1   1   2  2   
  2   2   3  am  
  3   2   4  1   
  4   3   5  1   
  5   3   6  1   
  6   4   7  ar  
  7   4   8  ar  
  8   5   9  1   
  9   5  26  1   
 10   5  27  1   
 11   6  10  1   
 12   6  28  1   
 13   6  29  1   
 14   7  11  1   
 15   7  12  ar  
 16   8  13  ar  
 17   8  30  1   
 18   9  14  1   
 19   9  31  1   
 20   9  32  1   
 21  10  14  1   
 22  10  33  1   
 23  10  34  1   
 24  11  15  ar  
 25  11  16  ar  
 26  12  17  ar  
 27  12  35  1   
 28  13  17  ar  
 29  13  36  1   
 30  14  18  1   
 31  14  37  1   
 32  15  19  ar  
 33  15  38  1   
 34  16  20  ar  
 35  16  39  1   
 36  17  40  1   
 37  18  21  2   
 38  18  22  1   
 39  19  23  ar  
 40  19  41  1   
 41  20  23  ar  
 42  20  42  1   
 43  22  24  1   
 44  23  43  1   
 45  24  25  1   
 46  24  44  1   
 47  24  45  1   
 48  25  46  1   
 49  25  47  1   
 50  25  48  1   
@<TRIPOS>SUBSTRUCTURE
  1 ****  11 GROUP 4 **** **** 0

# MOE 2024.06 (io_trps.svl 2023.06)
