@<TRIPOS>MOLECULE
NONAME
44 45 1 0 0 
SMALL
USER_CHARGES


@<TRIPOS>ATOM
  1 O        0.2000    -4.5830    -0.9410 O.2   1 <1>  -0.5700 
  2 C        0.0780    -3.5800    -0.2850 C.2   1 <1>   0.5690 
  3 N       -1.1020    -3.1460     0.2510 N.am  1 <1>  -0.5470 
  4 C        1.3150    -2.7400    -0.0510 C.3   1 <1>  -0.0990 
  5 C       -2.3870    -3.7120     0.2220 C.ar  1 <1>   0.1170 
  6 C        2.5580    -3.5540    -0.4180 C.3   1 <1>   0.3430 
  7 C       -3.4780    -2.8900     0.4810 C.ar  1 <1>  -0.1500 
  8 C       -2.6230    -5.0590    -0.0350 C.ar  1 <1>  -0.1500 
  9 N        3.8150    -2.7760    -0.2070 N.4   1 <1>  -0.9590 
 10 C       -4.7710    -3.3860     0.4810 C.ar  1 <1>  -0.1430 
 11 C       -3.9100    -5.5640    -0.0380 C.ar  1 <1>  -0.1500 
 12 C        4.0100    -1.7250    -1.2410 C.3   1 <1>   0.3430 
 13 C        4.9880    -3.6930    -0.2000 C.3   1 <1>   0.3430 
 14 C       -4.9830    -4.7290     0.2200 C.ar  1 <1>  -0.1500 
 15 C       -5.9550    -2.4790     0.7640 C.3   1 <1>  -0.0970 
 16 C        4.5160    -0.4350    -0.5960 C.3   1 <1>  -0.1600 
 17 C        6.1470    -3.0990     0.6060 C.3   1 <1>  -0.1600 
 18 C        5.6110    -0.5920     0.4740 C.3   1 <1>  -0.1600 
 19 C        6.6310    -1.7020     0.1760 C.3   1 <1>  -0.1600 
 20 H       -1.0760    -2.2420     0.7190 H     1 <1>   0.3700 
 21 H        1.3540    -2.4610     0.9860 H     1 <1>   0.0800 
 22 H        1.2400    -1.8610    -0.6630 H     1 <1>   0.0800 
 23 H        2.4890    -3.8720    -1.4470 H     1 <1>   0.0800 
 24 H        2.5720    -4.4420     0.1940 H     1 <1>   0.0800 
 25 H       -3.3180    -1.8480     0.6840 H     1 <1>   0.1500 
 26 H       -1.8070    -5.7280    -0.2330 H     1 <1>   0.1500 
 27 H        3.7890    -2.3140     0.7110 H     1 <1>   0.4500 
 28 H       -4.0770    -6.6070    -0.2410 H     1 <1>   0.1500 
 29 H        3.0850    -1.5220    -1.7570 H     1 <1>   0.0800 
 30 H        4.7250    -2.0640    -1.9730 H     1 <1>   0.0800 
 31 H        5.3080    -3.8890    -1.2110 H     1 <1>   0.0800 
 32 H        4.7120    -4.6350     0.2480 H     1 <1>   0.0800 
 33 H       -5.9820    -5.1300     0.2170 H     1 <1>   0.1500 
 34 H       -5.6710    -1.4440     0.7020 H     1 <1>   0.0800 
 35 H       -6.3360    -2.6750     1.7500 H     1 <1>   0.0800 
 36 H       -6.7370    -2.6590     0.0480 H     1 <1>   0.0800 
 37 H        3.6840     0.1000    -0.1720 H     1 <1>   0.0800 
 38 H        4.9020     0.1840    -1.3890 H     1 <1>   0.0800 
 39 H        6.9780    -3.7780     0.5160 H     1 <1>   0.0800 
 40 H        5.8810    -3.0840     1.6490 H     1 <1>   0.0800 
 41 H        5.1660    -0.7630     1.4400 H     1 <1>   0.0800 
 42 H        6.1380     0.3460     0.5460 H     1 <1>   0.0800 
 43 H        6.9100    -1.6930    -0.8650 H     1 <1>   0.0800 
 44 H        7.5250    -1.4830     0.7380 H     1 <1>   0.0800 
@<TRIPOS>BOND
  1   1   2  2   
  2   2   3  am  
  3   2   4  1   
  4   3   5  1   
  5   3  20  1   
  6   4   6  1   
  7   4  21  1   
  8   4  22  1   
  9   5   7  ar  
 10   5   8  ar  
 11   6   9  1   
 12   6  23  1   
 13   6  24  1   
 14   7  10  ar  
 15   7  25  1   
 16   8  11  ar  
 17   8  26  1   
 18   9  12  1   
 19   9  13  1   
 20   9  27  1   
 21  10  14  ar  
 22  10  15  1   
 23  11  14  ar  
 24  11  28  1   
 25  12  16  1   
 26  12  29  1   
 27  12  30  1   
 28  13  17  1   
 29  13  31  1   
 30  13  32  1   
 31  14  33  1   
 32  15  34  1   
 33  15  35  1   
 34  15  36  1   
 35  16  18  1   
 36  16  37  1   
 37  16  38  1   
 38  17  19  1   
 39  17  39  1   
 40  17  40  1   
 41  18  19  1   
 42  18  41  1   
 43  18  42  1   
 44  19  43  1   
 45  19  44  1   
@<TRIPOS>SUBSTRUCTURE
  1 ****   2 GROUP 4 **** **** 0

# MOE 2024.06 (io_trps.svl 2023.06)
