@<TRIPOS>MOLECULE
NONAME
40 41 1 0 0 
SMALL
USER_CHARGES


@<TRIPOS>ATOM
  1 F       -2.0370     1.6010     1.7990 F     1 <1>  -0.1900 
  2 C       -1.2020     2.2550     1.0350 C.ar  1 <1>   0.1900 
  3 C       -1.5030     2.4040    -0.3100 C.ar  1 <1>  -0.1440 
  4 C       -0.0600     2.7810     1.6060 C.ar  1 <1>  -0.1500 
  5 C       -0.6110     3.1120    -1.1040 C.ar  1 <1>  -0.1500 
  6 C       -2.7710     1.8070    -0.8860 C.3   1 <1>   0.4870 
  7 C        0.8170     3.4860     0.8010 C.ar  1 <1>  -0.1500 
  8 C        0.5400     3.6490    -0.5480 C.ar  1 <1>  -0.1500 
  9 N       -3.9500     2.4760    -0.2710 N.4   1 <1>  -0.9590 
 10 C       -5.2190     1.7720    -0.6410 C.3   1 <1>   0.3430 
 11 C       -3.9910     3.9340    -0.5880 C.3   1 <1>   0.3430 
 12 C       -6.4300     2.3930     0.0640 C.3   1 <1>  -0.0190 
 13 C       -5.1630     4.5880     0.1480 C.3   1 <1>  -0.1600 
 14 C       -7.6840     1.6870    -0.4180 C.2   1 <1>   0.6590 
 15 C       -6.5000     3.9120    -0.1900 C.3   1 <1>  -0.1600 
 16 O       -7.6600     0.9590    -1.3760 O.2   1 <1>  -0.5700 
 17 O       -8.7850     1.9200     0.2780 O.3   1 <1>  -0.4300 
 18 C      -10.0170     1.3300    -0.0690 C.3   1 <1>   0.1200 
 19 C      -11.0680     1.8120     0.9260 C.3   1 <1>  -0.2400 
 20 H        0.1410     2.6420     2.6550 H     1 <1>   0.1500 
 21 H       -0.7930     3.2510    -2.1570 H     1 <1>   0.1500 
 22 H       -2.7910     0.7510    -0.6680 H     1 <1>   0.0800 
 23 H       -2.7860     1.9340    -1.9560 H     1 <1>   0.0800 
 24 H        1.7160     3.9070     1.2210 H     1 <1>   0.1500 
 25 H        1.2320     4.1970    -1.1670 H     1 <1>   0.1500 
 26 H       -3.8130     2.3890     0.7470 H     1 <1>   0.4500 
 27 H       -5.1560     0.7280    -0.3770 H     1 <1>   0.0800 
 28 H       -5.3700     1.8340    -1.7070 H     1 <1>   0.0800 
 29 H       -4.1110     4.0750    -1.6510 H     1 <1>   0.0800 
 30 H       -3.0700     4.4080    -0.2850 H     1 <1>   0.0800 
 31 H       -6.3460     2.2100     1.1200 H     1 <1>   0.0800 
 32 H       -5.2120     5.6270    -0.1280 H     1 <1>   0.0800 
 33 H       -4.9850     4.5470     1.2090 H     1 <1>   0.0800 
 34 H       -7.2870     4.3460     0.4060 H     1 <1>   0.0800 
 35 H       -6.7400     4.0930    -1.2250 H     1 <1>   0.0800 
 36 H       -9.9090     0.2590    -0.0270 H     1 <1>   0.0800 
 37 H      -10.2710     1.6280    -1.0720 H     1 <1>   0.0800 
 38 H      -10.8000     1.5160     1.9250 H     1 <1>   0.0800 
 39 H      -12.0210     1.3760     0.6860 H     1 <1>   0.0800 
 40 H      -11.1620     2.8830     0.8800 H     1 <1>   0.0800 
@<TRIPOS>BOND
  1   1   2  1   
  2   2   3  ar  
  3   2   4  ar  
  4   3   5  ar  
  5   3   6  1   
  6   4   7  ar  
  7   4  20  1   
  8   5   8  ar  
  9   5  21  1   
 10   6   9  1   
 11   6  22  1   
 12   6  23  1   
 13   7   8  ar  
 14   7  24  1   
 15   8  25  1   
 16   9  10  1   
 17   9  11  1   
 18   9  26  1   
 19  10  12  1   
 20  10  27  1   
 21  10  28  1   
 22  11  13  1   
 23  11  29  1   
 24  11  30  1   
 25  12  14  1   
 26  12  15  1   
 27  12  31  1   
 28  13  15  1   
 29  13  32  1   
 30  13  33  1   
 31  14  16  2   
 32  14  17  1   
 33  15  34  1   
 34  15  35  1   
 35  17  18  1   
 36  18  19  1   
 37  18  36  1   
 38  18  37  1   
 39  19  38  1   
 40  19  39  1   
 41  19  40  1   
@<TRIPOS>SUBSTRUCTURE
  1 ****   9 GROUP 4 **** **** 0

# MOE 2024.06 (io_trps.svl 2023.06)
