@<TRIPOS>MOLECULE
NONAME
53 55 1 0 0 
SMALL
USER_CHARGES


@<TRIPOS>ATOM
  1 S        0.4030     0.2100    -0.7490 S.o2  1 <1>   1.3330 
  2 O        0.4950    -0.9820    -1.5520 O.2   1 <1>  -0.6500 
  3 O       -0.2510     1.3990    -1.2310 O.2   1 <1>  -0.6500 
  4 N        1.9920     0.7320    -0.3710 N.am  1 <1>  -0.7570 
  5 C       -0.2510    -0.1860     0.8580 C.3   1 <1>  -0.1350 
  6 C        3.1250     0.0060    -0.0170 C.ar  1 <1>   0.1990 
  7 C        4.3000     0.6930     0.2520 C.ar  1 <1>  -0.1500 
  8 C        3.1340    -1.3810     0.0860 C.ar  1 <1>  -0.1500 
  9 C        5.4830     0.0530     0.6220 C.ar  1 <1>   0.0860 
 10 C        4.2870    -2.0480     0.4520 C.ar  1 <1>  -0.1500 
 11 C        6.6810     0.8220     0.8880 C.2   1 <1>   0.3030 
 12 C        5.4450    -1.3420     0.7170 C.ar  1 <1>  -0.1500 
 13 N        6.7700     2.0910     0.9090 N.2   1 <1>  -0.5120 
 14 C        8.0020     0.1450     1.1870 C.3   1 <1>  -0.0990 
 15 N        8.0630     2.4850     1.1770 N.am  1 <1>  -0.2980 
 16 C        8.9690     1.3220     1.2370 C.3   1 <1>   0.3640 
 17 C        8.5630     3.7560     1.4330 C.2   1 <1>   0.5690 
 18 C        9.9280     1.3060     0.0430 C.ar  1 <1>  -0.1430 
 19 O        9.6640     3.8860     1.9270 O.2   1 <1>  -0.5700 
 20 C        7.7310     5.0350     1.1110 C.3   1 <1>   0.0610 
 21 C        9.4630     1.4570    -1.2570 C.ar  1 <1>  -0.1500 
 22 C       11.2890     1.1360     0.2550 C.ar  1 <1>  -0.1500 
 23 C        8.5720     6.3150     1.3210 C.3   1 <1>  -0.2400 
 24 C        7.2670     5.0470    -0.3600 C.3   1 <1>  -0.2400 
 25 C        6.5020     5.1480     2.0340 C.3   1 <1>  -0.2400 
 26 C       10.3410     1.4270    -2.3270 C.ar  1 <1>  -0.1500 
 27 C       12.1680     1.1060    -0.8140 C.ar  1 <1>  -0.1500 
 28 C       11.6940     1.2490    -2.1060 C.ar  1 <1>  -0.1500 
 29 H        2.0900     1.7200    -0.5880 H     1 <1>   0.4200 
 30 H       -1.2730    -0.4990     0.7710 H     1 <1>   0.0800 
 31 H       -0.2080     0.6740     1.4980 H     1 <1>   0.0800 
 32 H        0.3150    -0.9790     1.3060 H     1 <1>   0.0800 
 33 H        4.2980     1.7650     0.1730 H     1 <1>   0.1500 
 34 H        2.2510    -1.9530    -0.1250 H     1 <1>   0.1500 
 35 H        4.2810    -3.1230     0.5260 H     1 <1>   0.1500 
 36 H        6.3230    -1.8930     1.0000 H     1 <1>   0.1500 
 37 H        8.2750    -0.5570     0.4210 H     1 <1>   0.0800 
 38 H        7.9670    -0.3450     2.1420 H     1 <1>   0.0800 
 39 H        9.5090     1.3340     2.1670 H     1 <1>   0.0800 
 40 H        8.4130     1.6050    -1.4430 H     1 <1>   0.1500 
 41 H       11.6740     1.0340     1.2540 H     1 <1>   0.1500 
 42 H        8.9010     6.3840     2.3430 H     1 <1>   0.0800 
 43 H        8.0030     7.1970     1.0870 H     1 <1>   0.0800 
 44 H        9.4450     6.2940     0.6920 H     1 <1>   0.0800 
 45 H        8.1140     4.9400    -1.0140 H     1 <1>   0.0800 
 46 H        6.7660     5.9690    -0.5950 H     1 <1>   0.0800 
 47 H        6.5860     4.2410    -0.5580 H     1 <1>   0.0800 
 48 H        6.8120     5.1330     3.0640 H     1 <1>   0.0800 
 49 H        5.8240     4.3300     1.8750 H     1 <1>   0.0800 
 50 H        5.9690     6.0630     1.8490 H     1 <1>   0.0800 
 51 H        9.9700     1.5440    -3.3300 H     1 <1>   0.1500 
 52 H       13.2220     0.9750    -0.6390 H     1 <1>   0.1500 
 53 H       12.3780     1.2260    -2.9360 H     1 <1>   0.1500 
@<TRIPOS>BOND
  1   1   2  2   
  2   1   3  2   
  3   1   4  am  
  4   1   5  1   
  5   4   6  1   
  6   4  29  1   
  7   5  30  1   
  8   5  31  1   
  9   5  32  1   
 10   6   7  ar  
 11   6   8  ar  
 12   7   9  ar  
 13   7  33  1   
 14   8  10  ar  
 15   8  34  1   
 16   9  11  1   
 17   9  12  ar  
 18  10  12  ar  
 19  10  35  1   
 20  11  13  2   
 21  11  14  1   
 22  12  36  1   
 23  13  15  1   
 24  14  16  1   
 25  14  37  1   
 26  14  38  1   
 27  15  16  1   
 28  15  17  am  
 29  16  18  1   
 30  16  39  1   
 31  17  19  2   
 32  17  20  1   
 33  18  21  ar  
 34  18  22  ar  
 35  20  23  1   
 36  20  24  1   
 37  20  25  1   
 38  21  26  ar  
 39  21  40  1   
 40  22  27  ar  
 41  22  41  1   
 42  23  42  1   
 43  23  43  1   
 44  23  44  1   
 45  24  45  1   
 46  24  46  1   
 47  24  47  1   
 48  25  48  1   
 49  25  49  1   
 50  25  50  1   
 51  26  28  ar  
 52  26  51  1   
 53  27  28  ar  
 54  27  52  1   
 55  28  53  1   
@<TRIPOS>SUBSTRUCTURE
  1 ****  11 GROUP 4 **** **** 0

# MOE 2024.06 (io_trps.svl 2023.06)
