@<TRIPOS>MOLECULE
NONAME
54 56 1 0 0 
SMALL
USER_CHARGES


@<TRIPOS>ATOM
  1 O        1.0120    -1.3210    -1.9300 O.2   1 <1>  -0.5700 
  2 C        1.6410    -1.3040    -0.8980 C.2   1 <1>   0.5690 
  3 N        2.3120    -0.1810    -0.4830 N.am  1 <1>  -0.6600 
  4 C        1.6610    -2.6090    -0.0900 C.3   1 <1>  -0.0190 
  5 C        3.2760    -0.1390     0.6620 C.3   1 <1>   0.1400 
  6 C        2.1190     1.0990    -1.2370 C.3   1 <1>   0.1400 
  7 C        2.5840    -3.6380    -0.7710 C.3   1 <1>  -0.1600 
  8 C        0.2410    -3.1920     0.0650 C.3   1 <1>  -0.1600 
  9 C        4.3080     0.9790     0.4770 C.3   1 <1>  -0.1600 
 10 C        2.2650     2.3040    -0.3020 C.3   1 <1>  -0.1600 
 11 C        2.5380    -5.0020    -0.0870 C.3   1 <1>   0.3430 
 12 C        0.2480    -4.5600     0.7420 C.3   1 <1>   0.3430 
 13 C        3.6500     2.3640     0.3640 C.3   1 <1>  -0.1600 
 14 N        1.1330    -5.4840    -0.0260 N.4   1 <1>  -0.9590 
 15 C        1.0510    -6.8810     0.4840 C.3   1 <1>   0.4860 
 16 C       -0.3710    -7.3770     0.3170 C.ar  1 <1>  -0.1440 
 17 C       -1.1960    -7.5150     1.4240 C.ar  1 <1>  -0.1500 
 18 C       -0.8630    -7.6890    -0.9420 C.ar  1 <1>  -0.1500 
 19 C       -2.5010    -7.9480     1.2700 C.ar  1 <1>  -0.1500 
 20 C       -2.1690    -8.1220    -1.0910 C.ar  1 <1>  -0.1500 
 21 C       -2.9950    -8.2520     0.0120 C.ar  1 <1>  -0.1440 
 22 C       -4.4300    -8.7270    -0.1550 C.3   1 <1>  -0.0170 
 23 C       -5.3670    -7.5400    -0.3860 C.3   1 <1>  -0.2400 
 24 H        2.0300    -2.4130     0.8990 H     1 <1>   0.0800 
 25 H        3.7990    -1.0760     0.7370 H     1 <1>   0.0800 
 26 H        2.7290     0.0280     1.5740 H     1 <1>   0.0800 
 27 H        1.1410     1.1170    -1.6880 H     1 <1>   0.0800 
 28 H        2.8510     1.1560    -2.0250 H     1 <1>   0.0800 
 29 H        3.5950    -3.2700    -0.7600 H     1 <1>   0.0800 
 30 H        2.3000    -3.7520    -1.8030 H     1 <1>   0.0800 
 31 H       -0.2330    -3.2870    -0.8970 H     1 <1>   0.0800 
 32 H       -0.3600    -2.5140     0.6460 H     1 <1>   0.0800 
 33 H        4.8720     0.7750    -0.4170 H     1 <1>   0.0800 
 34 H        4.9990     0.9770     1.3010 H     1 <1>   0.0800 
 35 H        1.5010     2.2360     0.4540 H     1 <1>   0.0800 
 36 H        2.0900     3.2110    -0.8540 H     1 <1>   0.0800 
 37 H        2.9410    -4.9200     0.9110 H     1 <1>   0.0800 
 38 H        3.1460    -5.6990    -0.6430 H     1 <1>   0.0800 
 39 H       -0.7600    -4.9450     0.7670 H     1 <1>   0.0800 
 40 H        0.6020    -4.4650     1.7550 H     1 <1>   0.0800 
 41 H        4.2980     3.0080    -0.2050 H     1 <1>   0.0800 
 42 H        3.5420     2.7970     1.3440 H     1 <1>   0.0800 
 43 H        0.7570    -5.5030    -0.9830 H     1 <1>   0.4500 
 44 H        1.3340    -6.9180     1.5230 H     1 <1>   0.0800 
 45 H        1.7140    -7.5200    -0.0750 H     1 <1>   0.0800 
 46 H       -0.8400    -7.2920     2.4150 H     1 <1>   0.1500 
 47 H       -0.2460    -7.6060    -1.8200 H     1 <1>   0.1500 
 48 H       -3.1360    -8.0510     2.1330 H     1 <1>   0.1500 
 49 H       -2.5450    -8.3600    -2.0720 H     1 <1>   0.1500 
 50 H       -4.7410    -9.2650     0.7240 H     1 <1>   0.0800 
 51 H       -4.4950    -9.4050    -0.9880 H     1 <1>   0.0800 
 52 H       -5.3260    -6.8650     0.4510 H     1 <1>   0.0800 
 53 H       -6.3790    -7.8840    -0.5030 H     1 <1>   0.0800 
 54 H       -5.0790    -7.0060    -1.2740 H     1 <1>   0.0800 
@<TRIPOS>BOND
  1   1   2  2   
  2   2   3  am  
  3   2   4  1   
  4   3   5  1   
  5   3   6  1   
  6   4   7  1   
  7   4   8  1   
  8   4  24  1   
  9   5   9  1   
 10   5  25  1   
 11   5  26  1   
 12   6  10  1   
 13   6  27  1   
 14   6  28  1   
 15   7  11  1   
 16   7  29  1   
 17   7  30  1   
 18   8  12  1   
 19   8  31  1   
 20   8  32  1   
 21   9  13  1   
 22   9  33  1   
 23   9  34  1   
 24  10  13  1   
 25  10  35  1   
 26  10  36  1   
 27  11  14  1   
 28  11  37  1   
 29  11  38  1   
 30  12  14  1   
 31  12  39  1   
 32  12  40  1   
 33  13  41  1   
 34  13  42  1   
 35  14  15  1   
 36  14  43  1   
 37  15  16  1   
 38  15  44  1   
 39  15  45  1   
 40  16  17  ar  
 41  16  18  ar  
 42  17  19  ar  
 43  17  46  1   
 44  18  20  ar  
 45  18  47  1   
 46  19  21  ar  
 47  19  48  1   
 48  20  21  ar  
 49  20  49  1   
 50  21  22  1   
 51  22  23  1   
 52  22  50  1   
 53  22  51  1   
 54  23  52  1   
 55  23  53  1   
 56  23  54  1   
@<TRIPOS>SUBSTRUCTURE
  1 ****   8 GROUP 4 **** **** 0

# MOE 2024.06 (io_trps.svl 2023.06)
