@<TRIPOS>MOLECULE
NONAME
43 44 1 0 0 
SMALL
USER_CHARGES


@<TRIPOS>ATOM
  1 F        1.3660     0.7900     2.2800 F     1 <1>  -0.1900 
  2 C        1.9770     1.1760     1.1940 C.ar  1 <1>   0.1900 
  3 C        3.1500     0.5410     0.8310 C.ar  1 <1>  -0.1500 
  4 C        1.4330     2.2050     0.4510 C.ar  1 <1>  -0.1500 
  5 C        3.8080     0.9510    -0.3190 C.ar  1 <1>  -0.1440 
  6 C        2.0910     2.6080    -0.6980 C.ar  1 <1>  -0.1500 
  7 C        3.2700     1.9830    -1.0790 C.ar  1 <1>  -0.1500 
  8 C        5.1060     0.2860    -0.7370 C.3   1 <1>  -0.0160 
  9 C        6.2730     1.0290    -0.0880 C.3   1 <1>   0.3430 
 10 N        7.5740     0.4130    -0.4720 N.4   1 <1>  -0.9060 
 11 C        8.7410     1.0680     0.1500 C.3   1 <1>   0.4230 
 12 C        8.9720     2.4480    -0.4790 C.3   1 <1>  -0.1600 
 13 C        9.9600     0.1660    -0.0570 C.3   1 <1>  -0.1600 
 14 C       10.2430     3.1020     0.0840 C.3   1 <1>  -0.1600 
 15 C       11.2350     0.8130     0.5040 C.3   1 <1>  -0.1600 
 16 C       11.4810     2.2080    -0.1030 C.3   1 <1>  -0.0800 
 17 C       12.7110     2.8990     0.5150 C.3   1 <1>  -0.1600 
 18 C       14.0300     2.1670     0.2300 C.3   1 <1>  -0.2400 
 19 H        3.5190    -0.2580     1.4490 H     1 <1>   0.1500 
 20 H        0.5180     2.6740     0.7660 H     1 <1>   0.1500 
 21 H        1.6830     3.4050    -1.2970 H     1 <1>   0.1500 
 22 H        3.7570     2.3140    -1.9810 H     1 <1>   0.1500 
 23 H        5.1910     0.3160    -1.8090 H     1 <1>   0.0800 
 24 H        5.0940    -0.7430    -0.4210 H     1 <1>   0.0800 
 25 H        6.1540     1.0020     0.9840 H     1 <1>   0.0800 
 26 H        6.2440     2.0610    -0.4000 H     1 <1>   0.0800 
 27 H        7.6960     0.4430    -1.4910 H     1 <1>   0.4500 
 28 H        7.5800    -0.5760    -0.1980 H     1 <1>   0.4500 
 29 H        8.5760     1.1850     1.2110 H     1 <1>   0.0800 
 30 H        8.1430     3.1000    -0.2730 H     1 <1>   0.0800 
 31 H        9.0810     2.3540    -1.5460 H     1 <1>   0.0800 
 32 H       10.1090    -0.0190    -1.1070 H     1 <1>   0.0800 
 33 H        9.8100    -0.7760     0.4410 H     1 <1>   0.0800 
 34 H       10.1060     3.3090     1.1330 H     1 <1>   0.0800 
 35 H       10.4040     4.0450    -0.4130 H     1 <1>   0.0800 
 36 H       12.0690     0.1690     0.2880 H     1 <1>   0.0800 
 37 H       11.1580     0.8970     1.5760 H     1 <1>   0.0800 
 38 H       11.6590     2.0960    -1.1600 H     1 <1>   0.0800 
 39 H       12.5850     2.9950     1.5800 H     1 <1>   0.0800 
 40 H       12.7930     3.8930     0.1100 H     1 <1>   0.0800 
 41 H       14.0620     1.2140     0.7270 H     1 <1>   0.0800 
 42 H       14.8550     2.7550     0.5900 H     1 <1>   0.0800 
 43 H       14.1590     2.0160    -0.8270 H     1 <1>   0.0800 
@<TRIPOS>BOND
  1   1   2  1   
  2   2   3  ar  
  3   2   4  ar  
  4   3   5  ar  
  5   3  19  1   
  6   4   6  ar  
  7   4  20  1   
  8   5   7  ar  
  9   5   8  1   
 10   6   7  ar  
 11   6  21  1   
 12   7  22  1   
 13   8   9  1   
 14   8  23  1   
 15   8  24  1   
 16   9  10  1   
 17   9  25  1   
 18   9  26  1   
 19  10  11  1   
 20  10  27  1   
 21  10  28  1   
 22  11  12  1   
 23  11  13  1   
 24  11  29  1   
 25  12  14  1   
 26  12  30  1   
 27  12  31  1   
 28  13  15  1   
 29  13  32  1   
 30  13  33  1   
 31  14  16  1   
 32  14  34  1   
 33  14  35  1   
 34  15  16  1   
 35  15  36  1   
 36  15  37  1   
 37  16  17  1   
 38  16  38  1   
 39  17  18  1   
 40  17  39  1   
 41  17  40  1   
 42  18  41  1   
 43  18  42  1   
 44  18  43  1   
@<TRIPOS>SUBSTRUCTURE
  1 ****   9 GROUP 4 **** **** 0

# MOE 2024.06 (io_trps.svl 2023.06)
