@<TRIPOS>MOLECULE
NONAME
41 42 1 0 0 
SMALL
USER_CHARGES


@<TRIPOS>ATOM
  1 S        0.6200    -1.7810     2.0920 S.3   1 <1>  -0.0800 
  2 C        0.6680    -1.3480     0.3940 C.2   1 <1>  -0.1400 
  3 C       -1.1270    -1.8050     2.0770 C.2   1 <1>  -0.1100 
  4 C       -0.5790    -1.2500    -0.0990 C.2   1 <1>  -0.1500 
  5 C        2.0300    -1.1540    -0.2470 C.3   1 <1>   0.0200 
  6 C       -1.6300    -1.5190     0.8520 C.2   1 <1>  -0.0860 
  7 C        2.7090     0.1190     0.2730 C.3   1 <1>  -0.1600 
  8 C       -3.0360    -1.4710     0.5120 C.2   1 <1>   0.7160 
  9 C        4.0650     0.3520    -0.4030 C.3   1 <1>  -0.2400 
 10 O       -3.8880    -1.3590     1.3750 O.2   1 <1>  -0.5700 
 11 N       -3.4830    -1.6410    -0.7770 N.am  1 <1>  -0.6600 
 12 C       -4.6780    -0.8890    -1.2810 C.3   1 <1>   0.1400 
 13 C       -3.1420    -2.8730    -1.5280 C.3   1 <1>   0.1400 
 14 C       -6.0230    -1.4190    -0.7360 C.3   1 <1>   0.3430 
 15 C       -3.9800    -4.0540    -1.0200 C.3   1 <1>  -0.1600 
 16 N       -5.9090    -2.7720    -0.1020 N.4   1 <1>  -0.9590 
 17 C       -5.4980    -3.8430    -1.0530 C.3   1 <1>   0.3430 
 18 C       -7.1410    -3.1250     0.6600 C.3   1 <1>   0.2630 
 19 H       -1.6250    -2.0350     3.0030 H     1 <1>   0.1500 
 20 H       -0.8120    -0.9850    -1.1160 H     1 <1>   0.1500 
 21 H        1.9080    -1.0820    -1.3130 H     1 <1>   0.0800 
 22 H        2.6450    -2.0120    -0.0380 H     1 <1>   0.0800 
 23 H        2.8540     0.0410     1.3370 H     1 <1>   0.0800 
 24 H        2.0680     0.9640     0.0880 H     1 <1>   0.0800 
 25 H        4.7280    -0.4730    -0.2110 H     1 <1>   0.0800 
 26 H        4.5170     1.2490    -0.0180 H     1 <1>   0.0800 
 27 H        3.9430     0.4610    -1.4670 H     1 <1>   0.0800 
 28 H       -4.6930    -0.9220    -2.3570 H     1 <1>   0.0800 
 29 H       -4.5810     0.1470    -1.0030 H     1 <1>   0.0800 
 30 H       -2.0960    -3.1010    -1.4000 H     1 <1>   0.0800 
 31 H       -3.3120    -2.7170    -2.5810 H     1 <1>   0.0800 
 32 H       -6.7540    -1.4350    -1.5270 H     1 <1>   0.0800 
 33 H       -6.3680    -0.7190     0.0080 H     1 <1>   0.0800 
 34 H       -3.6740    -4.3120    -0.0210 H     1 <1>   0.0800 
 35 H       -3.7520    -4.9040    -1.6380 H     1 <1>   0.0800 
 36 H       -5.1320    -2.6450     0.5820 H     1 <1>   0.4500 
 37 H       -5.9720    -4.7700    -0.7730 H     1 <1>   0.0800 
 38 H       -5.8190    -3.5970    -2.0530 H     1 <1>   0.0800 
 39 H       -7.9810    -3.2250    -0.0080 H     1 <1>   0.0800 
 40 H       -7.3620    -2.3580     1.3850 H     1 <1>   0.0800 
 41 H       -7.0010    -4.0570     1.1830 H     1 <1>   0.0800 
@<TRIPOS>BOND
  1   1   2  1   
  2   1   3  1   
  3   2   4  2   
  4   2   5  1   
  5   3   6  2   
  6   3  19  1   
  7   4   6  1   
  8   4  20  1   
  9   5   7  1   
 10   5  21  1   
 11   5  22  1   
 12   6   8  1   
 13   7   9  1   
 14   7  23  1   
 15   7  24  1   
 16   8  10  2   
 17   8  11  am  
 18   9  25  1   
 19   9  26  1   
 20   9  27  1   
 21  11  12  1   
 22  11  13  1   
 23  12  14  1   
 24  12  28  1   
 25  12  29  1   
 26  13  15  1   
 27  13  30  1   
 28  13  31  1   
 29  14  16  1   
 30  14  32  1   
 31  14  33  1   
 32  15  17  1   
 33  15  34  1   
 34  15  35  1   
 35  16  17  1   
 36  16  18  1   
 37  16  36  1   
 38  17  37  1   
 39  17  38  1   
 40  18  39  1   
 41  18  40  1   
 42  18  41  1   
@<TRIPOS>SUBSTRUCTURE
  1 ****   8 GROUP 4 **** **** 0

# MOE 2024.06 (io_trps.svl 2023.06)
