@<TRIPOS>MOLECULE
NONAME
52 54 1 0 0 
SMALL
USER_CHARGES


@<TRIPOS>ATOM
  1 S        0.0690    -0.0110     0.8550 S.o2  1 <1>   1.4470 
  2 O       -0.2880     0.4730     2.1700 O.2   1 <1>  -0.6500 
  3 O       -0.3410    -1.3290     0.4290 O.2   1 <1>  -0.6500 
  4 N       -0.6300     1.0120    -0.2760 N.am  1 <1>  -0.9140 
  5 C        1.8470     0.2060     0.5740 C.ar  1 <1>  -0.0090 
  6 C       -1.9160     1.5630     0.0950 C.3   1 <1>   0.2760 
  7 C        2.6860    -0.8860     0.3750 C.ar  1 <1>  -0.1500 
  8 C        2.4240     1.4700     0.5590 C.ar  1 <1>  -0.1500 
  9 C       -3.0060     0.4780     0.0660 C.3   1 <1>  -0.1600 
 10 C       -2.2380     2.6800    -0.9030 C.3   1 <1>  -0.1600 
 11 C        4.0440    -0.7210     0.1680 C.ar  1 <1>  -0.1500 
 12 C        3.7810     1.6390     0.3500 C.ar  1 <1>  -0.1500 
 13 C       -4.3980     1.0750     0.3170 C.3   1 <1>  -0.1600 
 14 C       -3.6270     3.2840    -0.6470 C.3   1 <1>  -0.1600 
 15 C        4.6160     0.5450     0.1540 C.ar  1 <1>   0.1170 
 16 C       -4.7120     2.2010    -0.6770 C.3   1 <1>  -0.1600 
 17 N        5.9920     0.6660    -0.0720 N.am  1 <1>  -0.5470 
 18 C        6.8810     1.6490     0.2610 C.2   1 <1>   0.6900 
 19 O        6.5520     2.5730     0.9800 O.2   1 <1>  -0.5700 
 20 N        8.1680     1.5540    -0.2050 N.am  1 <1>  -0.6600 
 21 C        9.2650     2.3460     0.4140 C.3   1 <1>   0.1400 
 22 C        8.5620     0.8380    -1.4490 C.3   1 <1>   0.1400 
 23 C       10.4500     1.4240     0.7260 C.3   1 <1>  -0.1600 
 24 C        9.7270    -0.1100    -1.1460 C.3   1 <1>  -0.1600 
 25 C       10.9080     0.6400    -0.5140 C.3   1 <1>  -0.1600 
 26 H       -0.7900     0.4110    -1.0800 H     1 <1>   0.4200 
 27 H       -1.8620     1.9980     1.0810 H     1 <1>   0.0800 
 28 H        2.2680    -1.8790     0.3850 H     1 <1>   0.1500 
 29 H        1.8010     2.3350     0.7130 H     1 <1>   0.1500 
 30 H       -2.8140    -0.2580     0.8260 H     1 <1>   0.0800 
 31 H       -3.0050    -0.0120    -0.8920 H     1 <1>   0.0800 
 32 H       -2.2080     2.2900    -1.9050 H     1 <1>   0.0800 
 33 H       -1.4970     3.4550    -0.8180 H     1 <1>   0.0800 
 34 H        4.6640    -1.5860     0.0200 H     1 <1>   0.1500 
 35 H        4.1920     2.6330     0.3400 H     1 <1>   0.1500 
 36 H       -4.4420     1.4640     1.3210 H     1 <1>   0.0800 
 37 H       -5.1420     0.3020     0.2330 H     1 <1>   0.0800 
 38 H       -3.8410     4.0290    -1.3940 H     1 <1>   0.0800 
 39 H       -3.6340     3.7700     0.3140 H     1 <1>   0.0800 
 40 H       -5.6660     2.6390    -0.4360 H     1 <1>   0.0800 
 41 H       -4.7810     1.7910    -1.6700 H     1 <1>   0.0800 
 42 H        6.4600    -0.1620    -0.4200 H     1 <1>   0.3700 
 43 H        8.9280     2.8140     1.3240 H     1 <1>   0.0800 
 44 H        9.5680     3.1210    -0.2690 H     1 <1>   0.0800 
 45 H        8.8720     1.5660    -2.1800 H     1 <1>   0.0800 
 46 H        7.7360     0.2890    -1.8640 H     1 <1>   0.0800 
 47 H       10.1560     0.7370     1.5010 H     1 <1>   0.0800 
 48 H       11.2660     2.0120     1.1040 H     1 <1>   0.0800 
 49 H       10.0470    -0.5840    -2.0570 H     1 <1>   0.0800 
 50 H        9.3860    -0.8810    -0.4760 H     1 <1>   0.0800 
 51 H       11.6790    -0.0580    -0.2380 H     1 <1>   0.0800 
 52 H       11.3220     1.3250    -1.2340 H     1 <1>   0.0800 
@<TRIPOS>BOND
  1   1   2  2   
  2   1   3  2   
  3   1   4  am  
  4   1   5  1   
  5   4   6  1   
  6   4  26  1   
  7   5   7  ar  
  8   5   8  ar  
  9   6   9  1   
 10   6  10  1   
 11   6  27  1   
 12   7  11  ar  
 13   7  28  1   
 14   8  12  ar  
 15   8  29  1   
 16   9  13  1   
 17   9  30  1   
 18   9  31  1   
 19  10  14  1   
 20  10  32  1   
 21  10  33  1   
 22  11  15  ar  
 23  11  34  1   
 24  12  15  ar  
 25  12  35  1   
 26  13  16  1   
 27  13  36  1   
 28  13  37  1   
 29  14  16  1   
 30  14  38  1   
 31  14  39  1   
 32  15  17  1   
 33  16  40  1   
 34  16  41  1   
 35  17  18  am  
 36  17  42  1   
 37  18  19  2   
 38  18  20  am  
 39  20  21  1   
 40  20  22  1   
 41  21  23  1   
 42  21  43  1   
 43  21  44  1   
 44  22  24  1   
 45  22  45  1   
 46  22  46  1   
 47  23  25  1   
 48  23  47  1   
 49  23  48  1   
 50  24  25  1   
 51  24  49  1   
 52  24  50  1   
 53  25  51  1   
 54  25  52  1   
@<TRIPOS>SUBSTRUCTURE
  1 ****   8 GROUP 4 **** **** 0

# MOE 2024.06 (io_trps.svl 2023.06)
