@<TRIPOS>MOLECULE
NONAME
38 39 1 0 0 
SMALL
USER_CHARGES


@<TRIPOS>ATOM
  1 O        0.5770     1.6680     2.1770 O.2   1 <1>  -0.5700 
  2 C        0.2940     2.0960     1.0870 C.2   1 <1>   0.5690 
  3 N        1.1440     2.0130     0.0380 N.am  1 <1>  -0.7300 
  4 C       -1.0580     2.7460     0.8710 C.3   1 <1>  -0.0990 
  5 C        2.4990     1.4240     0.1030 C.3   1 <1>   0.3200 
  6 C       -2.0390     1.8060     0.1470 C.3   1 <1>  -0.1600 
  7 C        3.4800     2.2680    -0.6930 C.2   1 <1>  -0.0400 
  8 C       -3.3760     2.4770    -0.2230 C.3   1 <1>  -0.0800 
  9 O        4.6590     1.7500    -0.9780 O.3   1 <1>  -0.2800 
 10 C        3.3840     3.5190    -1.1980 C.2   1 <1>  -0.1500 
 11 C       -4.1770     2.9040     1.0220 C.3   1 <1>  -0.1600 
 12 C       -4.2100     1.5170    -1.0900 C.3   1 <1>  -0.1600 
 13 C        5.3370     2.6470    -1.6660 C.2   1 <1>  -0.0100 
 14 C        4.6050     3.7670    -1.8380 C.2   1 <1>  -0.1500 
 15 C       -5.5360     3.5090     0.6430 C.3   1 <1>  -0.1600 
 16 C       -5.5650     2.1280    -1.4730 C.3   1 <1>  -0.1600 
 17 C       -6.3530     2.5450    -0.2260 C.3   1 <1>  -0.1600 
 18 H        0.8670     2.3500    -0.8820 H     1 <1>   0.3700 
 19 H       -0.9210     3.6480     0.3030 H     1 <1>   0.0800 
 20 H       -1.4500     3.0180     1.8340 H     1 <1>   0.0800 
 21 H        2.4670     0.4320    -0.3120 H     1 <1>   0.0800 
 22 H        2.8300     1.3540     1.1250 H     1 <1>   0.0800 
 23 H       -2.2250     0.9470     0.7700 H     1 <1>   0.0800 
 24 H       -1.5710     1.4530    -0.7560 H     1 <1>   0.0800 
 25 H       -3.1670     3.3560    -0.8100 H     1 <1>   0.0800 
 26 H        2.5640     4.2120    -1.1360 H     1 <1>   0.1500 
 27 H       -3.6290     3.6360     1.5870 H     1 <1>   0.0800 
 28 H       -4.3370     2.0490     1.6560 H     1 <1>   0.0800 
 29 H       -4.3800     0.6010    -0.5500 H     1 <1>   0.0800 
 30 H       -3.6700     1.2740    -1.9880 H     1 <1>   0.0800 
 31 H        6.3330     2.4060    -1.9920 H     1 <1>   0.1500 
 32 H        4.8710     4.6740    -2.3500 H     1 <1>   0.1500 
 33 H       -5.3790     4.4270     0.1030 H     1 <1>   0.0800 
 34 H       -6.0880     3.7420     1.5370 H     1 <1>   0.0800 
 35 H       -6.1370     1.4120    -2.0370 H     1 <1>   0.0800 
 36 H       -5.4050     2.9900    -2.0980 H     1 <1>   0.0800 
 37 H       -7.2740     3.0170    -0.5220 H     1 <1>   0.0800 
 38 H       -6.6000     1.6690     0.3490 H     1 <1>   0.0800 
@<TRIPOS>BOND
  1   1   2  2   
  2   2   3  am  
  3   2   4  1   
  4   3   5  1   
  5   3  18  1   
  6   4   6  1   
  7   4  19  1   
  8   4  20  1   
  9   5   7  1   
 10   5  21  1   
 11   5  22  1   
 12   6   8  1   
 13   6  23  1   
 14   6  24  1   
 15   7   9  1   
 16   7  10  2   
 17   8  11  1   
 18   8  12  1   
 19   8  25  1   
 20   9  13  1   
 21  10  14  1   
 22  10  26  1   
 23  11  15  1   
 24  11  27  1   
 25  11  28  1   
 26  12  16  1   
 27  12  29  1   
 28  12  30  1   
 29  13  14  2   
 30  13  31  1   
 31  14  32  1   
 32  15  17  1   
 33  15  33  1   
 34  15  34  1   
 35  16  17  1   
 36  16  35  1   
 37  16  36  1   
 38  17  37  1   
 39  17  38  1   
@<TRIPOS>SUBSTRUCTURE
  1 ****   4 GROUP 4 **** **** 0

# MOE 2024.06 (io_trps.svl 2023.06)
