@<TRIPOS>MOLECULE
NONAME
24 24 1 0 0 
SMALL
USER_CHARGES


@<TRIPOS>ATOM
  1 S       -0.1050    -0.0450     0.9710 S.3   1 <1>  -0.3320 
  2 C       -1.5320     0.9660     0.5610 C.ar  1 <1>   0.4120 
  3 C        1.2400     0.3870    -0.2250 C.3   1 <1>  -0.0100 
  4 N       -2.6520     0.2680     0.5050 N.ar  1 <1>  -0.6200 
  5 C       -1.4360     2.3370     0.3480 C.ar  1 <1>   0.0730 
  6 C       -3.7520     0.9330     0.1990 C.ar  1 <1>   0.1660 
  7 C       -0.2100     3.0610     0.4700 C.1   1 <1>   0.4840 
  8 C       -2.6010     3.0100     0.0270 C.ar  1 <1>  -0.1500 
  9 C       -3.8030     2.3120    -0.0590 C.ar  1 <1>   0.0860 
 10 C       -5.0040     0.0710     0.1550 C.3   1 <1>  -0.0960 
 11 N        0.7520     3.6690     0.5390 N.1   1 <1>  -0.5570 
 12 C       -5.0250     3.0070    -0.4030 C.2   1 <1>   0.4230 
 13 O       -5.8630     2.5630    -1.1410 O.2   1 <1>  -0.5700 
 14 C       -5.2860     4.3840     0.1760 C.3   1 <1>  -0.1790 
 15 H        1.8320    -0.4980    -0.3750 H     1 <1>   0.0800 
 16 H        1.8390     1.1680     0.2060 H     1 <1>   0.0800 
 17 H        0.7860     0.7000    -1.1480 H     1 <1>   0.0800 
 18 H       -2.5730     4.0700    -0.1610 H     1 <1>   0.1500 
 19 H       -4.8270    -0.8800     0.6240 H     1 <1>   0.0800 
 20 H       -5.2890    -0.1020    -0.8670 H     1 <1>   0.0800 
 21 H       -5.8170     0.5520     0.6680 H     1 <1>   0.0800 
 22 H       -4.8200     4.4890     1.1380 H     1 <1>   0.0800 
 23 H       -6.3450     4.5290     0.2910 H     1 <1>   0.0800 
 24 H       -4.9090     5.1350    -0.4930 H     1 <1>   0.0800 
@<TRIPOS>BOND
  1   1   2  1   
  2   1   3  1   
  3   2   4  ar  
  4   2   5  ar  
  5   3  15  1   
  6   3  16  1   
  7   3  17  1   
  8   4   6  ar  
  9   5   7  1   
 10   5   8  ar  
 11   6   9  ar  
 12   6  10  1   
 13   7  11  3   
 14   8   9  ar  
 15   8  18  1   
 16   9  12  1   
 17  10  19  1   
 18  10  20  1   
 19  10  21  1   
 20  12  13  2   
 21  12  14  1   
 22  14  22  1   
 23  14  23  1   
 24  14  24  1   
@<TRIPOS>SUBSTRUCTURE
  1 ****   8 GROUP 4 **** **** 0

# MOE 2024.06 (io_trps.svl 2023.06)
