@<TRIPOS>MOLECULE
NONAME
57 60 1 0 0 
SMALL
USER_CHARGES


@<TRIPOS>ATOM
  1 O       -0.6740    -0.8260    -1.8020 O.3   1 <1>  -0.6800 
  2 C       -1.3380    -1.1110    -0.6000 C.3   1 <1>   0.2800 
  3 C       -0.5890    -2.2210     0.1850 C.3   1 <1>   0.1440 
  4 C       -2.7370    -1.6380    -0.9770 C.3   1 <1>  -0.0800 
  5 C       -1.3970     0.2190     0.2090 C.3   1 <1>   0.3430 
  6 C        0.8470    -1.7400     0.5200 C.ar  1 <1>  -0.1440 
  7 C       -0.5130    -3.5210    -0.6640 C.3   1 <1>   0.3430 
  8 C       -1.4130    -2.5300     1.4600 C.3   1 <1>   0.1100 
  9 C       -2.6120    -2.8610    -1.9000 C.3   1 <1>   0.3430 
 10 C       -3.5540    -1.9730     0.2800 C.3   1 <1>   0.1100 
 11 N       -1.6660     1.4080    -0.6690 N.4   1 <1>  -0.9060 
 12 C        1.2050    -1.2880     1.7900 C.ar  1 <1>  -0.1500 
 13 C        1.8320    -1.7250    -0.4680 C.ar  1 <1>  -0.1500 
 14 N       -1.8000    -3.9770    -1.3100 N.4   1 <1>  -0.9590 
 15 N       -2.8130    -2.8760     1.1680 N.3   1 <1>  -0.8100 
 16 C       -1.0660     2.6790    -0.2590 C.3   1 <1>   0.5030 
 17 C        2.4810    -0.8250     2.0530 C.ar  1 <1>  -0.1500 
 18 C        3.1080    -1.2620    -0.2050 C.ar  1 <1>  -0.1500 
 19 C       -2.6240    -4.8800    -0.4290 C.3   1 <1>   0.3430 
 20 C       -3.0550    -4.3140     0.9430 C.3   1 <1>   0.1100 
 21 C       -1.5560     3.7230    -1.2560 C.3   1 <1>  -0.2400 
 22 C       -1.5320     3.0420     1.1500 C.3   1 <1>  -0.2400 
 23 C        0.4570     2.5700    -0.3280 C.3   1 <1>  -0.2400 
 24 C        3.4350    -0.8070     1.0560 C.ar  1 <1>  -0.1500 
 25 H        0.2850    -0.6690    -1.6340 H     1 <1>   0.4000 
 26 H       -3.2720    -0.8780    -1.5170 H     1 <1>   0.0800 
 27 H       -0.4470     0.3510     0.6970 H     1 <1>   0.0800 
 28 H       -2.1390     0.1540     0.9870 H     1 <1>   0.0800 
 29 H       -0.1150    -4.3130    -0.0500 H     1 <1>   0.0800 
 30 H        0.1960    -3.3540    -1.4550 H     1 <1>   0.0800 
 31 H       -1.4410    -1.6720     2.1070 H     1 <1>   0.0800 
 32 H       -0.9470    -3.3250     2.0200 H     1 <1>   0.0800 
 33 H       -3.5950    -3.2220    -2.1550 H     1 <1>   0.0800 
 34 H       -2.1400    -2.5370    -2.8150 H     1 <1>   0.0800 
 35 H       -4.5000    -2.4170     0.0110 H     1 <1>   0.0800 
 36 H       -3.7820    -1.0730     0.8260 H     1 <1>   0.0800 
 37 H       -2.6710     1.5630    -0.7850 H     1 <1>   0.4500 
 38 H       -1.2950     1.1800    -1.6030 H     1 <1>   0.4500 
 39 H        0.5260    -1.2780     2.6240 H     1 <1>   0.1500 
 40 H        1.6540    -2.0710    -1.4710 H     1 <1>   0.1500 
 41 H       -1.5220    -4.5690    -2.1070 H     1 <1>   0.4500 
 42 H        2.7410    -0.4810     3.0410 H     1 <1>   0.1500 
 43 H        3.8590    -1.2580    -0.9790 H     1 <1>   0.1500 
 44 H       -2.0780    -5.7920    -0.2480 H     1 <1>   0.0800 
 45 H       -3.5170    -5.1650    -0.9610 H     1 <1>   0.0800 
 46 H       -4.1060    -4.5110     1.0720 H     1 <1>   0.0800 
 47 H       -2.5580    -4.8760     1.7160 H     1 <1>   0.0800 
 48 H       -2.6270     3.8190    -1.2280 H     1 <1>   0.0800 
 49 H       -1.2480     3.4810    -2.2590 H     1 <1>   0.0800 
 50 H       -1.1390     4.6850    -1.0130 H     1 <1>   0.0800 
 51 H       -1.1530     2.3560     1.8850 H     1 <1>   0.0800 
 52 H       -2.6060     3.0730     1.2090 H     1 <1>   0.0800 
 53 H       -1.1630     4.0190     1.4100 H     1 <1>   0.0800 
 54 H        0.8490     1.8840     0.4010 H     1 <1>   0.0800 
 55 H        0.8960     3.5310    -0.1210 H     1 <1>   0.0800 
 56 H        0.7820     2.2710    -1.3090 H     1 <1>   0.0800 
 57 H        4.4300    -0.4490     1.2640 H     1 <1>   0.1500 
@<TRIPOS>BOND
  1   1   2  1   
  2   1  25  1   
  3   2   3  1   
  4   2   4  1   
  5   2   5  1   
  6   3   6  1   
  7   3   7  1   
  8   3   8  1   
  9   4   9  1   
 10   4  10  1   
 11   4  26  1   
 12   5  11  1   
 13   5  27  1   
 14   5  28  1   
 15   6  12  ar  
 16   6  13  ar  
 17   7  14  1   
 18   7  29  1   
 19   7  30  1   
 20   8  15  1   
 21   8  31  1   
 22   8  32  1   
 23   9  14  1   
 24   9  33  1   
 25   9  34  1   
 26  10  15  1   
 27  10  35  1   
 28  10  36  1   
 29  11  16  1   
 30  11  37  1   
 31  11  38  1   
 32  12  17  ar  
 33  12  39  1   
 34  13  18  ar  
 35  13  40  1   
 36  14  19  1   
 37  14  41  1   
 38  15  20  1   
 39  16  21  1   
 40  16  22  1   
 41  16  23  1   
 42  17  24  ar  
 43  17  42  1   
 44  18  24  ar  
 45  18  43  1   
 46  19  20  1   
 47  19  44  1   
 48  19  45  1   
 49  20  46  1   
 50  20  47  1   
 51  21  48  1   
 52  21  49  1   
 53  21  50  1   
 54  22  51  1   
 55  22  52  1   
 56  22  53  1   
 57  23  54  1   
 58  23  55  1   
 59  23  56  1   
 60  24  57  1   
@<TRIPOS>SUBSTRUCTURE
  1 ****   2 GROUP 4 **** **** 0

# MOE 2024.06 (io_trps.svl 2023.06)
