@<TRIPOS>MOLECULE
NONAME
42 43 1 0 0 
SMALL
USER_CHARGES


@<TRIPOS>ATOM
  1 O        1.1960    -0.7010    -1.8130 O.3   1 <1>  -0.6800 
  2 C        0.7550    -2.0110    -1.6540 C.3   1 <1>   0.3440 
  3 C       -0.6660    -2.0140    -1.0930 C.ar  1 <1>  -0.1440 
  4 C        1.7400    -2.7500    -0.7170 C.3   1 <1>   0.3430 
  5 C       -1.2300    -0.9140    -0.4520 C.ar  1 <1>  -0.1500 
  6 C       -1.4210    -3.1730    -1.2180 C.ar  1 <1>  -0.1500 
  7 N        2.1090    -1.9230     0.4860 N.4   1 <1>  -0.9590 
  8 C       -2.5140    -0.9800     0.0600 C.ar  1 <1>  -0.1500 
  9 C       -2.7040    -3.2380    -0.7060 C.ar  1 <1>  -0.1500 
 10 C        3.5220    -2.1150     0.9230 C.3   1 <1>   0.3430 
 11 C        1.1550    -2.1320     1.6190 C.3   1 <1>   0.2630 
 12 C       -3.2510    -2.1430    -0.0650 C.ar  1 <1>  -0.1500 
 13 C        4.5190    -1.4740    -0.0560 C.3   1 <1>  -0.0800 
 14 C        5.9560    -1.8190     0.3830 C.3   1 <1>  -0.0220 
 15 C        4.3470     0.0580    -0.1660 C.3   1 <1>  -0.1600 
 16 C        6.9770    -1.0260    -0.4100 C.2   1 <1>  -0.2880 
 17 C        5.2840     0.6520    -1.2290 C.3   1 <1>  -0.0220 
 18 C        6.6780     0.0580    -1.1290 C.2   1 <1>  -0.2880 
 19 H        0.5720    -0.2260    -2.4020 H     1 <1>   0.4000 
 20 H        0.7570    -2.4800    -2.6240 H     1 <1>   0.0800 
 21 H        2.6240    -2.9690    -1.2900 H     1 <1>   0.0800 
 22 H        1.3110    -3.6890    -0.4100 H     1 <1>   0.0800 
 23 H       -0.6870     0.0080    -0.3370 H     1 <1>   0.1500 
 24 H       -1.0250    -4.0400    -1.7190 H     1 <1>   0.1500 
 25 H        2.0130    -0.9470     0.1460 H     1 <1>   0.4500 
 26 H       -2.9460    -0.1250     0.5520 H     1 <1>   0.1500 
 27 H       -3.2840    -4.1410    -0.8080 H     1 <1>   0.1500 
 28 H        3.7330    -3.1680     1.0160 H     1 <1>   0.0800 
 29 H        3.6630    -1.6620     1.8910 H     1 <1>   0.0800 
 30 H        1.2260    -3.1430     1.9860 H     1 <1>   0.0800 
 31 H        0.1410    -1.9560     1.3010 H     1 <1>   0.0800 
 32 H        1.3800    -1.4550     2.4270 H     1 <1>   0.0800 
 33 H       -4.2520    -2.1930     0.3310 H     1 <1>   0.1500 
 34 H        4.3820    -1.8990    -1.0350 H     1 <1>   0.0800 
 35 H        6.1340    -2.8700     0.2310 H     1 <1>   0.0800 
 36 H        6.0980    -1.6010     1.4280 H     1 <1>   0.0800 
 37 H        4.5770     0.5090     0.7850 H     1 <1>   0.0800 
 38 H        3.3390     0.3250    -0.4240 H     1 <1>   0.0800 
 39 H        7.9790    -1.4190    -0.3360 H     1 <1>   0.1500 
 40 H        5.3370     1.7190    -1.0980 H     1 <1>   0.0800 
 41 H        4.8950     0.4570    -2.2130 H     1 <1>   0.0800 
 42 H        7.4130     0.6020    -1.7000 H     1 <1>   0.1500 
@<TRIPOS>BOND
  1   1   2  1   
  2   1  19  1   
  3   2   3  1   
  4   2   4  1   
  5   2  20  1   
  6   3   5  ar  
  7   3   6  ar  
  8   4   7  1   
  9   4  21  1   
 10   4  22  1   
 11   5   8  ar  
 12   5  23  1   
 13   6   9  ar  
 14   6  24  1   
 15   7  10  1   
 16   7  11  1   
 17   7  25  1   
 18   8  12  ar  
 19   8  26  1   
 20   9  12  ar  
 21   9  27  1   
 22  10  13  1   
 23  10  28  1   
 24  10  29  1   
 25  11  30  1   
 26  11  31  1   
 27  11  32  1   
 28  12  33  1   
 29  13  14  1   
 30  13  15  1   
 31  13  34  1   
 32  14  16  1   
 33  14  35  1   
 34  14  36  1   
 35  15  17  1   
 36  15  37  1   
 37  15  38  1   
 38  16  18  2   
 39  16  39  1   
 40  17  18  1   
 41  17  40  1   
 42  17  41  1   
 43  18  42  1   
@<TRIPOS>SUBSTRUCTURE
  1 ****   7 GROUP 4 **** **** 0

# MOE 2024.06 (io_trps.svl 2023.06)
