@<TRIPOS>MOLECULE
NONAME
26 26 1 0 0 
SMALL
USER_CHARGES


@<TRIPOS>ATOM
  1 BR      -0.2750    -0.1860    -0.0430 Br    1 <1>  -0.1110 
  2 C        1.5280    -0.8840     0.0140 C.ar  1 <1>   0.1110 
  3 C        2.5810    -0.0400    -0.3140 C.ar  1 <1>  -0.1440 
  4 C        1.7180    -2.2090     0.3830 C.ar  1 <1>  -0.1440 
  5 C        3.8690    -0.5510    -0.2690 C.ar  1 <1>  -0.1500 
  6 C        2.3450     1.4090    -0.7150 C.3   1 <1>  -0.0960 
  7 C        3.0150    -2.6940     0.4190 C.ar  1 <1>  -0.1500 
  8 C        0.5500    -3.1170     0.7390 C.3   1 <1>  -0.0960 
  9 C        4.0890    -1.8780     0.0970 C.ar  1 <1>   0.0830 
 10 O        5.3200    -2.4460     0.1630 O.3   1 <1>  -0.3630 
 11 C        6.4920    -1.7000    -0.1460 C.3   1 <1>   0.1810 
 12 C        7.7520    -2.5470    -0.0020 C.2   1 <1>   0.5690 
 13 O        8.8250    -2.0490    -0.2310 O.2   1 <1>  -0.5700 
 14 N        7.6770    -3.8380     0.3780 N.am  1 <1>  -0.8000 
 15 H        4.6870     0.0960    -0.5220 H     1 <1>   0.1500 
 16 H        1.7220     1.4510    -1.5910 H     1 <1>   0.0800 
 17 H        3.2710     1.9080    -0.9330 H     1 <1>   0.0800 
 18 H        1.8560     1.9360     0.0850 H     1 <1>   0.0800 
 19 H        3.2080    -3.7130     0.6990 H     1 <1>   0.1500 
 20 H        0.0130    -2.7140     1.5790 H     1 <1>   0.0800 
 21 H        0.8930    -4.1030     0.9970 H     1 <1>   0.0800 
 22 H       -0.1210    -3.1990    -0.0970 H     1 <1>   0.0800 
 23 H        6.5500    -0.8650     0.5270 H     1 <1>   0.0800 
 24 H        6.4160    -1.3530    -1.1600 H     1 <1>   0.0800 
 25 H        8.5230    -4.4000     0.4730 H     1 <1>   0.3700 
 26 H        6.7820    -4.2870     0.5800 H     1 <1>   0.3700 
@<TRIPOS>BOND
  1   1   2  1   
  2   2   3  ar  
  3   2   4  ar  
  4   3   5  ar  
  5   3   6  1   
  6   4   7  ar  
  7   4   8  1   
  8   5   9  ar  
  9   5  15  1   
 10   6  16  1   
 11   6  17  1   
 12   6  18  1   
 13   7   9  ar  
 14   7  19  1   
 15   8  20  1   
 16   8  21  1   
 17   8  22  1   
 18   9  10  1   
 19  10  11  1   
 20  11  12  1   
 21  11  23  1   
 22  11  24  1   
 23  12  13  2   
 24  12  14  am  
 25  14  25  1   
 26  14  26  1   
@<TRIPOS>SUBSTRUCTURE
  1 ****   9 GROUP 4 **** **** 0

# MOE 2024.06 (io_trps.svl 2023.06)
