@<TRIPOS>MOLECULE
NONAME
36 37 1 0 0 
SMALL
USER_CHARGES


@<TRIPOS>ATOM
  1 O       -1.1810     0.2220     1.7610 O.2   1 <1>  -0.5700 
  2 C       -1.8110     0.5890     0.8170 C.2   1 <1>   0.4480 
  3 C       -3.0930    -0.1140     0.4220 C.3   1 <1>   0.0420 
  4 C       -1.3670     1.7880     0.0050 C.3   1 <1>  -0.0380 
  5 C       -2.8070    -0.9940    -0.7730 C.2   1 <1>   0.6590 
  6 C       -4.2320     0.9010     0.1900 C.3   1 <1>   0.0630 
  7 C       -2.5440     2.7040    -0.2230 C.2   1 <1>   0.4480 
  8 O       -2.3500    -0.5460    -1.7940 O.2   1 <1>  -0.5700 
  9 O       -3.1020    -2.2800    -0.6380 O.3   1 <1>  -0.4300 
 10 C       -5.5160     0.2090    -0.2730 C.ar  1 <1>  -0.1440 
 11 C       -3.8160     2.0600    -0.7350 C.3   1 <1>  -0.0990 
 12 O       -2.4860     3.8720     0.0080 O.2   1 <1>  -0.5700 
 13 C       -2.9360    -3.2010    -1.6950 C.3   1 <1>   0.0400 
 14 C       -5.7260    -0.1550    -1.5980 C.ar  1 <1>  -0.1500 
 15 C       -6.5030    -0.0770     0.6600 C.ar  1 <1>  -0.1500 
 16 C       -6.8960    -0.7880    -1.9760 C.ar  1 <1>  -0.1500 
 17 C       -7.6750    -0.7110     0.2850 C.ar  1 <1>  -0.1500 
 18 C       -7.8780    -1.0710    -1.0430 C.ar  1 <1>   0.0820 
 19 O       -8.9930    -1.6950    -1.4970 O.3   1 <1>  -0.3630 
 20 C      -10.0570    -2.0220    -0.6310 C.3   1 <1>   0.0400 
 21 H       -3.3810    -0.7580     1.2340 H     1 <1>   0.0800 
 22 H       -0.9650     1.4720    -0.9380 H     1 <1>   0.0800 
 23 H       -0.5990     2.3180     0.5380 H     1 <1>   0.0800 
 24 H       -4.4390     1.3510     1.1470 H     1 <1>   0.0800 
 25 H       -4.6000     2.7970    -0.7630 H     1 <1>   0.0800 
 26 H       -3.6440     1.7260    -1.7410 H     1 <1>   0.0800 
 27 H       -3.5550    -2.8970    -2.5220 H     1 <1>   0.0800 
 28 H       -3.2340    -4.1750    -1.3490 H     1 <1>   0.0800 
 29 H       -1.9010    -3.2130    -1.9890 H     1 <1>   0.0800 
 30 H       -4.9880     0.0410    -2.3560 H     1 <1>   0.1500 
 31 H       -6.3700     0.1900     1.6940 H     1 <1>   0.1500 
 32 H       -7.0570    -1.0680    -3.0010 H     1 <1>   0.1500 
 33 H       -8.4150    -0.9150     1.0350 H     1 <1>   0.1500 
 34 H      -10.8240    -2.5020    -1.2110 H     1 <1>   0.0800 
 35 H      -10.4420    -1.1170    -0.1940 H     1 <1>   0.0800 
 36 H       -9.6960    -2.6940     0.1270 H     1 <1>   0.0800 
@<TRIPOS>BOND
  1   1   2  2   
  2   2   3  1   
  3   2   4  1   
  4   3   5  1   
  5   3   6  1   
  6   3  21  1   
  7   4   7  1   
  8   4  22  1   
  9   4  23  1   
 10   5   8  2   
 11   5   9  1   
 12   6  10  1   
 13   6  11  1   
 14   6  24  1   
 15   7  11  1   
 16   7  12  2   
 17   9  13  1   
 18  10  14  ar  
 19  10  15  ar  
 20  11  25  1   
 21  11  26  1   
 22  13  27  1   
 23  13  28  1   
 24  13  29  1   
 25  14  16  ar  
 26  14  30  1   
 27  15  17  ar  
 28  15  31  1   
 29  16  18  ar  
 30  16  32  1   
 31  17  18  ar  
 32  17  33  1   
 33  18  19  1   
 34  19  20  1   
 35  20  34  1   
 36  20  35  1   
 37  20  36  1   
@<TRIPOS>SUBSTRUCTURE
  1 ****  10 GROUP 4 **** **** 0

# MOE 2024.06 (io_trps.svl 2023.06)
