@<TRIPOS>MOLECULE
NONAME
34 35 1 0 0 
SMALL
USER_CHARGES


@<TRIPOS>ATOM
  1 O        1.4190    -2.7850     2.8510 O.2   1 <1>  -0.5700 
  2 C        1.6060    -2.3940     1.7220 C.2   1 <1>   0.5690 
  3 N        0.8020    -2.6310     0.6660 N.am  1 <1>  -0.6600 
  4 C        2.7930    -1.5680     1.3120 C.3   1 <1>  -0.0990 
  5 C        1.3020    -2.0170    -0.5790 C.3   1 <1>   0.1400 
  6 C       -0.4220    -3.4560     0.6810 C.3   1 <1>   0.2840 
  7 C        2.4160    -1.0760    -0.1030 C.3   1 <1>  -0.1860 
  8 C       -1.6360    -2.6020     0.3480 C.ar  1 <1>  -0.1440 
  9 C        3.5700    -1.0120    -1.0830 C.2   1 <1>   0.9060 
 10 C       -2.2870    -2.7340    -0.8690 C.ar  1 <1>  -0.1500 
 11 C       -2.1040    -1.6790     1.2690 C.ar  1 <1>  -0.1500 
 12 O        4.6930    -0.7220    -0.6620 O.co2 1 <1>  -0.9000 
 13 O        3.3470    -1.2340    -2.2780 O.co2 1 <1>  -0.9000 
 14 C       -3.3960    -1.9570    -1.1560 C.ar  1 <1>  -0.1500 
 15 C       -3.2130    -0.9020     0.9820 C.ar  1 <1>  -0.1500 
 16 C       -3.8670    -1.0370    -0.2330 C.ar  1 <1>  -0.1430 
 17 C       -5.0840    -0.1840    -0.5490 C.3   1 <1>  -0.0170 
 18 C       -6.3660    -0.8920    -0.1050 C.3   1 <1>  -0.2400 
 19 H        3.6630    -2.1980     1.2840 H     1 <1>   0.0800 
 20 H        2.9560    -0.7480     1.9860 H     1 <1>   0.0800 
 21 H        0.5280    -1.4710    -1.0900 H     1 <1>   0.0800 
 22 H        1.6930    -2.7860    -1.2260 H     1 <1>   0.0800 
 23 H       -0.5480    -3.8920     1.6570 H     1 <1>   0.0800 
 24 H       -0.3150    -4.2540    -0.0310 H     1 <1>   0.0800 
 25 H        2.0080    -0.0870    -0.0320 H     1 <1>   0.0800 
 26 H       -1.9310    -3.4400    -1.5980 H     1 <1>   0.1500 
 27 H       -1.5950    -1.5650     2.2120 H     1 <1>   0.1500 
 28 H       -3.8920    -2.0710    -2.1030 H     1 <1>   0.1500 
 29 H       -3.5630    -0.1920     1.7100 H     1 <1>   0.1500 
 30 H       -5.1250     0.0100    -1.6060 H     1 <1>   0.0800 
 31 H       -5.0030     0.7640    -0.0470 H     1 <1>   0.0800 
 32 H       -6.4650    -1.8330    -0.6150 H     1 <1>   0.0800 
 33 H       -7.2230    -0.2830    -0.3300 H     1 <1>   0.0800 
 34 H       -6.3390    -1.0760     0.9540 H     1 <1>   0.0800 
@<TRIPOS>BOND
  1   1   2  2   
  2   2   3  am  
  3   2   4  1   
  4   3   5  1   
  5   3   6  1   
  6   4   7  1   
  7   4  19  1   
  8   4  20  1   
  9   5   7  1   
 10   5  21  1   
 11   5  22  1   
 12   6   8  1   
 13   6  23  1   
 14   6  24  1   
 15   7   9  1   
 16   7  25  1   
 17   8  10  ar  
 18   8  11  ar  
 19   9  12  ar  
 20   9  13  ar  
 21  10  14  ar  
 22  10  26  1   
 23  11  15  ar  
 24  11  27  1   
 25  14  16  ar  
 26  14  28  1   
 27  15  16  ar  
 28  15  29  1   
 29  16  17  1   
 30  17  18  1   
 31  17  30  1   
 32  17  31  1   
 33  18  32  1   
 34  18  33  1   
 35  18  34  1   
@<TRIPOS>SUBSTRUCTURE
  1 ****   8 GROUP 4 **** **** 0

# MOE 2024.06 (io_trps.svl 2023.06)
