@<TRIPOS>MOLECULE
NONAME
40 42 1 0 0 
SMALL
USER_CHARGES


@<TRIPOS>ATOM
  1 O       -0.7020     2.2450     1.7140 O.2   1 <1>  -0.5700 
  2 C       -0.8110     2.6900     0.5960 C.2   1 <1>   0.5690 
  3 N        0.2070     2.9420    -0.2840 N.am  1 <1>  -0.2370 
  4 C       -2.1670     3.0740     0.0000 C.3   1 <1>   0.2510 
  5 C        1.5750     2.6750    -0.0440 C.ar  1 <1>   0.1170 
  6 C       -0.3050     3.5010    -1.4260 C.2   1 <1>   0.5690 
  7 N       -3.0800     1.9250    -0.1580 N.3   1 <1>  -0.9000 
  8 C       -1.8060     3.6410    -1.3740 C.3   1 <1>  -0.0990 
  9 C        2.5510     3.6270    -0.3230 C.ar  1 <1>  -0.1500 
 10 C        1.9780     1.4510     0.4800 C.ar  1 <1>  -0.1500 
 11 O        0.3200     3.8820    -2.3820 O.2   1 <1>  -0.5700 
 12 C       -4.4830     2.2870    -0.2990 C.3   1 <1>   0.1900 
 13 C        3.8910     3.3720    -0.0890 C.ar  1 <1>  -0.1430 
 14 C        3.3150     1.1880     0.7190 C.ar  1 <1>  -0.1500 
 15 C       -5.0880     2.5810     1.0720 C.3   1 <1>  -0.1600 
 16 C       -5.2410     1.0440    -0.7430 C.3   1 <1>  -0.1600 
 17 C        4.2700     2.1480     0.4360 C.ar  1 <1>  -0.1500 
 18 C        4.9390     4.4250    -0.4040 C.3   1 <1>  -0.0970 
 19 C       -5.3880     1.2140     1.6970 C.3   1 <1>  -0.1600 
 20 C       -5.4910     0.2260     0.5290 C.3   1 <1>  -0.1600 
 21 H       -2.6060     3.8320     0.6240 H     1 <1>   0.0800 
 22 H       -3.0150     1.3430     0.6900 H     1 <1>   0.3600 
 23 H       -2.0730     4.6780    -1.4480 H     1 <1>   0.0800 
 24 H       -2.2490     3.0820    -2.1770 H     1 <1>   0.0800 
 25 H        2.2560     4.5770    -0.7320 H     1 <1>   0.1500 
 26 H        1.2430     0.6990     0.7070 H     1 <1>   0.1500 
 27 H       -4.6070     3.0970    -0.9990 H     1 <1>   0.0800 
 28 H        3.6120     0.2380     1.1280 H     1 <1>   0.1500 
 29 H       -6.0190     3.1010     0.9240 H     1 <1>   0.0800 
 30 H       -4.4600     3.1860     1.7000 H     1 <1>   0.0800 
 31 H       -4.7050     0.4880    -1.4930 H     1 <1>   0.0800 
 32 H       -6.1880     1.3480    -1.1530 H     1 <1>   0.0800 
 33 H        5.3080     1.9370     0.6250 H     1 <1>   0.1500 
 34 H        4.5940     5.0770    -1.1860 H     1 <1>   0.0800 
 35 H        5.8520     3.9590    -0.7300 H     1 <1>   0.0800 
 36 H        5.1410     5.0110     0.4740 H     1 <1>   0.0800 
 37 H       -6.2990     1.2440     2.2700 H     1 <1>   0.0800 
 38 H       -4.5790     0.9220     2.3460 H     1 <1>   0.0800 
 39 H       -4.7320    -0.5310     0.6290 H     1 <1>   0.0800 
 40 H       -6.4550    -0.2500     0.4970 H     1 <1>   0.0800 
@<TRIPOS>BOND
  1   1   2  2   
  2   2   3  am  
  3   2   4  1   
  4   3   5  1   
  5   3   6  am  
  6   4   7  1   
  7   4   8  1   
  8   4  21  1   
  9   5   9  ar  
 10   5  10  ar  
 11   6   8  1   
 12   6  11  2   
 13   7  12  1   
 14   7  22  1   
 15   8  23  1   
 16   8  24  1   
 17   9  13  ar  
 18   9  25  1   
 19  10  14  ar  
 20  10  26  1   
 21  12  15  1   
 22  12  16  1   
 23  12  27  1   
 24  13  17  ar  
 25  13  18  1   
 26  14  17  ar  
 27  14  28  1   
 28  15  19  1   
 29  15  29  1   
 30  15  30  1   
 31  16  20  1   
 32  16  31  1   
 33  16  32  1   
 34  17  33  1   
 35  18  34  1   
 36  18  35  1   
 37  18  36  1   
 38  19  20  1   
 39  19  37  1   
 40  19  38  1   
 41  20  39  1   
 42  20  40  1   
@<TRIPOS>SUBSTRUCTURE
  1 ****   2 GROUP 4 **** **** 0

# MOE 2024.06 (io_trps.svl 2023.06)
