@<TRIPOS>MOLECULE
NONAME
41 43 1 0 0 
SMALL
USER_CHARGES


@<TRIPOS>ATOM
  1 S       -0.1380     0.0270     0.2220 S.o2  1 <1>   1.3330 
  2 O        0.8690    -0.6890     0.9680 O.2   1 <1>  -0.6500 
  3 O       -0.3180     1.4500     0.3720 O.2   1 <1>  -0.6500 
  4 N       -1.6450    -0.7510     0.5590 N.am  1 <1>  -0.6930 
  5 C        0.0760    -0.3490    -1.5040 C.3   1 <1>  -0.1350 
  6 C       -2.9010    -0.3870     0.1340 C.ar  1 <1>   0.1990 
  7 C       -1.6610    -2.1210     1.1150 C.3   1 <1>   0.1960 
  8 C       -3.8120    -1.3970     0.3530 C.ar  1 <1>  -0.1440 
  9 C       -3.3250     0.7960    -0.4570 C.ar  1 <1>  -0.1500 
 10 C       -3.1270    -2.5770     1.0050 C.3   1 <1>  -0.0160 
 11 C       -5.1360    -1.2630    -0.0080 C.ar  1 <1>  -0.1500 
 12 C       -4.6520     0.9360    -0.8220 C.ar  1 <1>  -0.1500 
 13 C       -5.5880    -0.0810    -0.6010 C.ar  1 <1>   0.0860 
 14 C       -6.9780     0.0720    -0.9780 C.2   1 <1>   0.5440 
 15 O       -7.4950    -0.7830    -1.6740 O.2   1 <1>  -0.5700 
 16 N       -7.7340     1.1550    -0.5690 N.am  1 <1>  -0.6600 
 17 C       -7.3740     2.0280     0.5840 C.3   1 <1>   0.1400 
 18 C       -9.0770     1.4340    -1.1540 C.3   1 <1>   0.1400 
 19 C       -8.4410     1.9110     1.6770 C.3   1 <1>  -0.1600 
 20 C      -10.1520     1.3050    -0.0710 C.3   1 <1>  -0.1600 
 21 C       -9.8480     2.2030     1.1370 C.3   1 <1>  -0.1600 
 22 H        0.9980     0.0680    -1.8570 H     1 <1>   0.0800 
 23 H       -0.7310     0.0640    -2.0750 H     1 <1>   0.0800 
 24 H        0.0980    -1.4110    -1.6520 H     1 <1>   0.0800 
 25 H       -1.3330    -2.1010     2.1410 H     1 <1>   0.0800 
 26 H       -1.0130    -2.7620     0.5410 H     1 <1>   0.0800 
 27 H       -2.6270     1.5970    -0.6240 H     1 <1>   0.1500 
 28 H       -3.5380    -2.7690     1.9800 H     1 <1>   0.0800 
 29 H       -3.2100    -3.4590     0.3970 H     1 <1>   0.0800 
 30 H       -5.8370    -2.0620     0.1600 H     1 <1>   0.1500 
 31 H       -4.9820     1.8490    -1.2880 H     1 <1>   0.1500 
 32 H       -7.3100     3.0470     0.2430 H     1 <1>   0.0800 
 33 H       -6.4200     1.7510     0.9970 H     1 <1>   0.0800 
 34 H       -9.2920     0.7550    -1.9610 H     1 <1>   0.0800 
 35 H       -9.0800     2.4330    -1.5540 H     1 <1>   0.0800 
 36 H       -8.2110     2.5970     2.4730 H     1 <1>   0.0800 
 37 H       -8.4110     0.9150     2.0840 H     1 <1>   0.0800 
 38 H      -10.2010     0.2760     0.2420 H     1 <1>   0.0800 
 39 H      -11.1080     1.5670    -0.4870 H     1 <1>   0.0800 
 40 H       -9.9110     3.2360     0.8390 H     1 <1>   0.0800 
 41 H      -10.5780     2.0330     1.9090 H     1 <1>   0.0800 
@<TRIPOS>BOND
  1   1   2  2   
  2   1   3  2   
  3   1   4  am  
  4   1   5  1   
  5   4   6  1   
  6   4   7  1   
  7   5  22  1   
  8   5  23  1   
  9   5  24  1   
 10   6   8  ar  
 11   6   9  ar  
 12   7  10  1   
 13   7  25  1   
 14   7  26  1   
 15   8  10  1   
 16   8  11  ar  
 17   9  12  ar  
 18   9  27  1   
 19  10  28  1   
 20  10  29  1   
 21  11  13  ar  
 22  11  30  1   
 23  12  13  ar  
 24  12  31  1   
 25  13  14  1   
 26  14  15  2   
 27  14  16  am  
 28  16  17  1   
 29  16  18  1   
 30  17  19  1   
 31  17  32  1   
 32  17  33  1   
 33  18  20  1   
 34  18  34  1   
 35  18  35  1   
 36  19  21  1   
 37  19  36  1   
 38  19  37  1   
 39  20  21  1   
 40  20  38  1   
 41  20  39  1   
 42  21  40  1   
 43  21  41  1   
@<TRIPOS>SUBSTRUCTURE
  1 ****  13 GROUP 4 **** **** 0

# MOE 2024.06 (io_trps.svl 2023.06)
