@<TRIPOS>MOLECULE
NONAME
41 41 1 0 0 
SMALL
USER_CHARGES


@<TRIPOS>ATOM
  1 O       -0.4410     0.7310     0.8540 O.3   1 <1>  -0.3630 
  2 C       -1.5260    -0.0540     0.6250 C.ar  1 <1>   0.0830 
  3 C       -0.2670     1.9510     0.1780 C.3   1 <1>   0.1200 
  4 C       -1.6140    -1.2220     1.3660 C.ar  1 <1>  -0.1500 
  5 C       -2.5280     0.2510    -0.2950 C.ar  1 <1>  -0.1500 
  6 C        1.0460     2.5600     0.6810 C.3   1 <1>   0.3430 
  7 C       -2.6870    -2.0780     1.1960 C.ar  1 <1>  -0.1500 
  8 C       -3.6010    -0.6080    -0.4630 C.ar  1 <1>  -0.1500 
  9 N        1.3860     3.8650     0.0100 N.4   1 <1>  -0.9590 
 10 C       -3.6860    -1.7790     0.2850 C.ar  1 <1>   0.0830 
 11 C        2.7750     4.2980     0.3450 C.3   1 <1>   0.3430 
 12 C        0.4190     4.9480     0.3800 C.3   1 <1>   0.2630 
 13 O       -4.7030    -2.6730     0.1810 O.3   1 <1>  -0.3620 
 14 C        3.7990     3.4380    -0.3980 C.3   1 <1>  -0.1600 
 15 C       -5.7700    -2.4660    -0.7180 C.3   1 <1>   0.0400 
 16 C        5.2220     3.9500    -0.1440 C.3   1 <1>  -0.1600 
 17 C        6.2520     3.0950    -0.8860 C.3   1 <1>  -0.2400 
 18 H       -1.1070     2.5790     0.4110 H     1 <1>   0.0800 
 19 H       -0.2150     1.7430    -0.8760 H     1 <1>   0.0800 
 20 H       -0.8420    -1.4600     2.0750 H     1 <1>   0.1500 
 21 H       -2.4960     1.1430    -0.8890 H     1 <1>   0.1500 
 22 H        1.8300     1.8450     0.4950 H     1 <1>   0.0800 
 23 H        0.9740     2.7100     1.7460 H     1 <1>   0.0800 
 24 H       -2.7570    -2.9840     1.7710 H     1 <1>   0.1500 
 25 H       -4.3610    -0.3520    -1.1770 H     1 <1>   0.1500 
 26 H        1.3550     3.7270    -1.0110 H     1 <1>   0.4500 
 27 H        2.9410     4.2330     1.4080 H     1 <1>   0.0800 
 28 H        2.9130     5.3260     0.0470 H     1 <1>   0.0800 
 29 H        0.4280     5.1110     1.4460 H     1 <1>   0.0800 
 30 H       -0.5810     4.6800     0.0810 H     1 <1>   0.0800 
 31 H        0.6850     5.8700    -0.1110 H     1 <1>   0.0800 
 32 H        3.6030     3.4740    -1.4560 H     1 <1>   0.0800 
 33 H        3.7420     2.4160    -0.0680 H     1 <1>   0.0800 
 34 H       -6.4480    -3.2950    -0.6270 H     1 <1>   0.0800 
 35 H       -5.3790    -2.4220    -1.7200 H     1 <1>   0.0800 
 36 H       -6.2730    -1.5520    -0.4580 H     1 <1>   0.0800 
 37 H        5.4430     3.9220     0.9110 H     1 <1>   0.0800 
 38 H        5.3140     4.9710    -0.4770 H     1 <1>   0.0800 
 39 H        6.2080     2.0710    -0.5560 H     1 <1>   0.0800 
 40 H        7.2440     3.4670    -0.6970 H     1 <1>   0.0800 
 41 H        6.0790     3.1240    -1.9480 H     1 <1>   0.0800 
@<TRIPOS>BOND
  1   1   2  1   
  2   1   3  1   
  3   2   4  ar  
  4   2   5  ar  
  5   3   6  1   
  6   3  18  1   
  7   3  19  1   
  8   4   7  ar  
  9   4  20  1   
 10   5   8  ar  
 11   5  21  1   
 12   6   9  1   
 13   6  22  1   
 14   6  23  1   
 15   7  10  ar  
 16   7  24  1   
 17   8  10  ar  
 18   8  25  1   
 19   9  11  1   
 20   9  12  1   
 21   9  26  1   
 22  10  13  1   
 23  11  14  1   
 24  11  27  1   
 25  11  28  1   
 26  12  29  1   
 27  12  30  1   
 28  12  31  1   
 29  13  15  1   
 30  14  16  1   
 31  14  32  1   
 32  14  33  1   
 33  15  34  1   
 34  15  35  1   
 35  15  36  1   
 36  16  17  1   
 37  16  37  1   
 38  16  38  1   
 39  17  39  1   
 40  17  40  1   
 41  17  41  1   
@<TRIPOS>SUBSTRUCTURE
  1 ****   1 GROUP 4 **** **** 0

# MOE 2024.06 (io_trps.svl 2023.06)
