@<TRIPOS>MOLECULE
NONAME
41 41 1 0 0 
SMALL
USER_CHARGES


@<TRIPOS>ATOM
  1 O        0.4950    -1.4340    -0.5520 O.3   1 <1>  -0.3630 
  2 C       -0.8200    -1.4640    -0.2060 C.ar  1 <1>   0.0820 
  3 C        1.4510    -0.7660     0.2330 C.3   1 <1>   0.1200 
  4 C       -1.6930    -2.1490    -1.0470 C.ar  1 <1>  -0.1440 
  5 C       -1.3160    -0.8450     0.9390 C.ar  1 <1>  -0.1500 
  6 C        2.8070    -0.9380    -0.4530 C.3   1 <1>  -0.1600 
  7 C       -3.0420    -2.2070    -0.7350 C.ar  1 <1>  -0.1500 
  8 C       -1.1800    -2.8370    -2.3040 C.3   1 <1>  -0.0970 
  9 C       -2.6650    -0.9100     1.2380 C.ar  1 <1>  -0.1500 
 10 C        3.9340    -0.2430     0.3240 C.3   1 <1>  -0.1600 
 11 C       -3.5350    -1.5890     0.4030 C.ar  1 <1>  -0.1430 
 12 C        5.2710    -0.4360    -0.3890 C.3   1 <1>   0.3430 
 13 C       -5.0150    -1.6630     0.7300 C.3   1 <1>  -0.0970 
 14 N        6.3370     0.2450     0.3840 N.4   1 <1>  -0.9060 
 15 C        7.6730     0.0910    -0.2670 C.3   1 <1>   0.3430 
 16 C        8.7810     0.7930     0.5270 C.3   1 <1>   0.1200 
 17 O        9.9660     0.5920    -0.1530 O.3   1 <1>  -0.6800 
 18 H        1.4510    -1.2110     1.2130 H     1 <1>   0.0800 
 19 H        1.1730     0.2730     0.2900 H     1 <1>   0.0800 
 20 H       -0.6760    -0.3090     1.6100 H     1 <1>   0.1500 
 21 H        2.7400    -0.5260    -1.4460 H     1 <1>   0.0800 
 22 H        3.0150    -1.9920    -0.5330 H     1 <1>   0.0800 
 23 H       -3.7170    -2.7370    -1.3820 H     1 <1>   0.1500 
 24 H       -0.4480    -3.5780    -2.0390 H     1 <1>   0.0800 
 25 H       -0.7210    -2.1130    -2.9520 H     1 <1>   0.0800 
 26 H       -1.9790    -3.3180    -2.8380 H     1 <1>   0.0800 
 27 H       -3.0360    -0.4290     2.1260 H     1 <1>   0.1500 
 28 H        3.9840    -0.6630     1.3150 H     1 <1>   0.0800 
 29 H        3.7080     0.8070     0.3990 H     1 <1>   0.0800 
 30 H        5.2120    -0.0230    -1.3840 H     1 <1>   0.0800 
 31 H        5.4880    -1.4900    -0.4710 H     1 <1>   0.0800 
 32 H       -5.2210    -2.5650     1.2770 H     1 <1>   0.0800 
 33 H       -5.5990    -1.6620    -0.1730 H     1 <1>   0.0800 
 34 H       -5.3130    -0.8190     1.3260 H     1 <1>   0.0800 
 35 H        6.3670    -0.1460     1.3340 H     1 <1>   0.4500 
 36 H        6.1060     1.2430     0.4690 H     1 <1>   0.4500 
 37 H        7.6450     0.5110    -1.2600 H     1 <1>   0.0800 
 38 H        7.9200    -0.9560    -0.3470 H     1 <1>   0.0800 
 39 H        8.8870     0.3690     1.5110 H     1 <1>   0.0800 
 40 H        8.6080     1.8540     0.5870 H     1 <1>   0.0800 
 41 H       10.7270     1.0170     0.2990 H     1 <1>   0.4000 
@<TRIPOS>BOND
  1   1   2  1   
  2   1   3  1   
  3   2   4  ar  
  4   2   5  ar  
  5   3   6  1   
  6   3  18  1   
  7   3  19  1   
  8   4   7  ar  
  9   4   8  1   
 10   5   9  ar  
 11   5  20  1   
 12   6  10  1   
 13   6  21  1   
 14   6  22  1   
 15   7  11  ar  
 16   7  23  1   
 17   8  24  1   
 18   8  25  1   
 19   8  26  1   
 20   9  11  ar  
 21   9  27  1   
 22  10  12  1   
 23  10  28  1   
 24  10  29  1   
 25  11  13  1   
 26  12  14  1   
 27  12  30  1   
 28  12  31  1   
 29  13  32  1   
 30  13  33  1   
 31  13  34  1   
 32  14  15  1   
 33  14  35  1   
 34  14  36  1   
 35  15  16  1   
 36  15  37  1   
 37  15  38  1   
 38  16  17  1   
 39  16  39  1   
 40  16  40  1   
 41  17  41  1   
@<TRIPOS>SUBSTRUCTURE
  1 ****   3 GROUP 4 **** **** 0

# MOE 2024.06 (io_trps.svl 2023.06)
