@<TRIPOS>MOLECULE
NONAME
30 31 1 0 0 
SMALL
USER_CHARGES


@<TRIPOS>ATOM
  1 S        0.8770     1.3860     0.2800 S.3   1 <1>  -0.3320 
  2 C       -0.9110     1.6200     0.3160 C.ar  1 <1>   0.1020 
  3 C        1.2710     0.1630    -1.0710 C.3   1 <1>   0.2110 
  4 C       -1.3900     2.5710     1.2000 C.ar  1 <1>  -0.1500 
  5 C       -1.7830     0.8960    -0.4850 C.ar  1 <1>  -0.1500 
  6 C        2.6540    -0.4570    -0.8450 C.2   1 <1>   0.5690 
  7 C        1.1750     0.9160    -2.4060 C.3   1 <1>  -0.2400 
  8 C       -2.7510     2.8070     1.2840 C.ar  1 <1>  -0.1500 
  9 C       -3.1440     1.1360    -0.3960 C.ar  1 <1>  -0.1500 
 10 O        2.9020    -1.5120    -1.3810 O.2   1 <1>  -0.5700 
 11 N        3.5610     0.1920    -0.0650 N.am  1 <1>  -0.5790 
 12 C       -3.6270     2.0890     0.4860 C.ar  1 <1>  -0.1500 
 13 C        4.9240    -0.2600     0.2410 C.3   1 <1>   0.0490 
 14 C        5.4570     0.0010     1.6100 C.3   1 <1>  -0.2000 
 15 C        5.9790     0.7770     0.4370 C.3   1 <1>  -0.2000 
 16 H        0.5420    -0.6220    -1.0110 H     1 <1>   0.0800 
 17 H       -0.7020     3.1220     1.8150 H     1 <1>   0.1500 
 18 H       -1.4350     0.1530    -1.1730 H     1 <1>   0.1500 
 19 H        1.9090     1.7000    -2.4420 H     1 <1>   0.0800 
 20 H        0.1990     1.3460    -2.5340 H     1 <1>   0.0800 
 21 H        1.3610     0.2360    -3.2180 H     1 <1>   0.0800 
 22 H       -3.1290     3.5460     1.9700 H     1 <1>   0.1500 
 23 H       -3.8300     0.5820    -1.0120 H     1 <1>   0.1500 
 24 H        3.2640     1.0510     0.4040 H     1 <1>   0.3700 
 25 H       -4.6860     2.2730     0.5520 H     1 <1>   0.1500 
 26 H        5.1890    -1.1840    -0.2510 H     1 <1>   0.1000 
 27 H        6.1010    -0.7350     2.0600 H     1 <1>   0.1000 
 28 H        4.8250     0.4930     2.3270 H     1 <1>   0.1000 
 29 H        5.7130     1.8140     0.3350 H     1 <1>   0.1000 
 30 H        6.9760     0.5680     0.0920 H     1 <1>   0.1000 
@<TRIPOS>BOND
  1   1   2  1   
  2   1   3  1   
  3   2   4  ar  
  4   2   5  ar  
  5   3   6  1   
  6   3   7  1   
  7   3  16  1   
  8   4   8  ar  
  9   4  17  1   
 10   5   9  ar  
 11   5  18  1   
 12   6  10  2   
 13   6  11  am  
 14   7  19  1   
 15   7  20  1   
 16   7  21  1   
 17   8  12  ar  
 18   8  22  1   
 19   9  12  ar  
 20   9  23  1   
 21  11  13  1   
 22  11  24  1   
 23  12  25  1   
 24  13  14  1   
 25  13  15  1   
 26  13  26  1   
 27  14  15  1   
 28  14  27  1   
 29  14  28  1   
 30  15  29  1   
 31  15  30  1   
@<TRIPOS>SUBSTRUCTURE
  1 ****   1 GROUP 4 **** **** 0

# MOE 2024.06 (io_trps.svl 2023.06)
