@<TRIPOS>MOLECULE
NONAME
49 52 1 0 0 
SMALL
USER_CHARGES


@<TRIPOS>ATOM
  1 O       -0.6170    -0.3640    -1.5220 O.2   1 <1>  -0.5700 
  2 C       -1.0410    -1.1740    -0.7300 C.2   1 <1>   0.5690 
  3 N       -0.1930    -1.9220     0.0270 N.am  1 <1>  -0.7300 
  4 C       -2.5640    -1.3870    -0.5590 C.3   1 <1>   0.0610 
  5 C        1.2750    -1.8520    -0.0090 C.3   1 <1>   0.2200 
  6 C       -2.9170    -2.8200    -1.0140 C.3   1 <1>  -0.1600 
  7 C       -2.9470    -1.1480     0.9260 C.3   1 <1>  -0.1600 
  8 C       -3.3670    -0.4060    -1.4420 C.3   1 <1>  -0.1600 
  9 C        1.8240    -3.2210    -0.4220 C.3   1 <1>  -0.1600 
 10 C        1.7840    -1.4420     1.3770 C.3   1 <1>  -0.1600 
 11 C       -4.4210    -3.1510    -1.0040 C.3   1 <1>  -0.0800 
 12 C       -4.4580    -1.1020     1.2330 C.3   1 <1>  -0.0800 
 13 C       -4.8740    -0.6130    -1.2530 C.3   1 <1>  -0.0800 
 14 C        3.3590    -3.2420    -0.3700 C.3   1 <1>  -0.1600 
 15 C        3.3190    -1.4590     1.4310 C.3   1 <1>  -0.1600 
 16 C       -4.9110    -3.5700     0.3910 C.3   1 <1>  -0.1600 
 17 C       -5.2720    -2.0430    -1.6550 C.3   1 <1>  -0.1600 
 18 C       -5.0840    -2.4870     1.4700 C.3   1 <1>  -0.1600 
 19 C       -5.2440    -0.2820     0.1970 C.3   1 <1>  -0.1600 
 20 C        3.8740    -2.8290     1.0160 C.3   1 <1>  -0.1600 
 21 H       -0.5800    -2.5960     0.6840 H     1 <1>   0.3700 
 22 H        1.5880    -1.1150    -0.7310 H     1 <1>   0.0800 
 23 H       -2.3860    -3.5400    -0.4180 H     1 <1>   0.0800 
 24 H       -2.5630    -2.9360    -2.0240 H     1 <1>   0.0800 
 25 H       -2.5350    -0.1950     1.2110 H     1 <1>   0.0800 
 26 H       -2.4830    -1.8870     1.5540 H     1 <1>   0.0800 
 27 H       -3.1110    -0.5550    -2.4770 H     1 <1>   0.0800 
 28 H       -3.1050     0.6070    -1.1900 H     1 <1>   0.0800 
 29 H        1.5000    -3.4440    -1.4230 H     1 <1>   0.0800 
 30 H        1.4420    -3.9780     0.2400 H     1 <1>   0.0800 
 31 H        1.4000    -2.1200     2.1180 H     1 <1>   0.0800 
 32 H        1.4320    -0.4510     1.6030 H     1 <1>   0.0800 
 33 H       -4.5390    -4.0280    -1.6190 H     1 <1>   0.0800 
 34 H       -4.5660    -0.5820     2.1700 H     1 <1>   0.0800 
 35 H       -5.3980     0.0750    -1.8950 H     1 <1>   0.0800 
 36 H        3.7490    -2.5630    -1.1110 H     1 <1>   0.0800 
 37 H        3.7160    -4.2290    -0.6090 H     1 <1>   0.0800 
 38 H        3.6480    -1.2230     2.4290 H     1 <1>   0.0800 
 39 H        3.7070    -0.7030     0.7690 H     1 <1>   0.0800 
 40 H       -4.2370    -4.3170     0.7720 H     1 <1>   0.0800 
 41 H       -5.8600    -4.0630     0.2730 H     1 <1>   0.0800 
 42 H       -6.3140    -2.2080    -1.4440 H     1 <1>   0.0800 
 43 H       -5.1520    -2.1230    -2.7220 H     1 <1>   0.0800 
 44 H       -6.1380    -2.3490     1.6380 H     1 <1>   0.0800 
 45 H       -4.6880    -2.8770     2.3910 H     1 <1>   0.0800 
 46 H       -5.0320     0.7600     0.3630 H     1 <1>   0.0800 
 47 H       -6.3030    -0.4110     0.3420 H     1 <1>   0.0800 
 48 H        4.9500    -2.7930     1.0040 H     1 <1>   0.0800 
 49 H        3.5770    -3.5680     1.7410 H     1 <1>   0.0800 
@<TRIPOS>BOND
  1   1   2  2   
  2   2   3  am  
  3   2   4  1   
  4   3   5  1   
  5   3  21  1   
  6   4   6  1   
  7   4   7  1   
  8   4   8  1   
  9   5   9  1   
 10   5  10  1   
 11   5  22  1   
 12   6  11  1   
 13   6  23  1   
 14   6  24  1   
 15   7  12  1   
 16   7  25  1   
 17   7  26  1   
 18   8  13  1   
 19   8  27  1   
 20   8  28  1   
 21   9  14  1   
 22   9  29  1   
 23   9  30  1   
 24  10  15  1   
 25  10  31  1   
 26  10  32  1   
 27  11  16  1   
 28  11  17  1   
 29  11  33  1   
 30  12  18  1   
 31  12  19  1   
 32  12  34  1   
 33  13  17  1   
 34  13  19  1   
 35  13  35  1   
 36  14  20  1   
 37  14  36  1   
 38  14  37  1   
 39  15  20  1   
 40  15  38  1   
 41  15  39  1   
 42  16  18  1   
 43  16  40  1   
 44  16  41  1   
 45  17  42  1   
 46  17  43  1   
 47  18  44  1   
 48  18  45  1   
 49  19  46  1   
 50  19  47  1   
 51  20  48  1   
 52  20  49  1   
@<TRIPOS>SUBSTRUCTURE
  1 ****   2 GROUP 4 **** **** 0

# MOE 2024.06 (io_trps.svl 2023.06)
