@<TRIPOS>MOLECULE
NONAME
43 45 1 0 0 
SMALL
USER_CHARGES


@<TRIPOS>ATOM
  1 S       -0.0590     0.0930    -0.4000 S.3   1 <1>  -0.2860 
  2 C        1.4860     1.0050    -0.3660 C.2   1 <1>   0.2420 
  3 C       -1.3250     1.4330    -0.1380 C.3   1 <1>   0.1310 
  4 N        1.5520     2.2720    -0.1670 N.2   1 <1>  -0.3380 
  5 N        2.6710     0.4310    -0.5490 N.pl3 1 <1>   0.0480 
  6 C       -2.7420     0.8800    -0.1010 C.2   1 <1>   0.5690 
  7 N        2.8470     2.5780    -0.2170 N.2   1 <1>  -0.3380 
  8 C        3.5150     1.4770    -0.4380 C.2   1 <1>   0.1330 
  9 C        2.9670    -0.9840    -0.8600 C.3   1 <1>   0.0160 
 10 O       -3.6590     1.6590    -0.1950 O.2   1 <1>  -0.5700 
 11 N       -2.9390    -0.4600     0.0440 N.am  1 <1>  -0.5790 
 12 C        4.9510     1.3930    -0.5650 C.ar  1 <1>   0.0530 
 13 C       -4.2390    -1.1400     0.1010 C.3   1 <1>   0.0490 
 14 C        5.6990     0.4460     0.1310 C.ar  1 <1>  -0.1500 
 15 C        5.6370     2.2710    -1.4000 C.ar  1 <1>  -0.1500 
 16 C       -4.3590    -2.3510     0.9640 C.3   1 <1>  -0.2000 
 17 C       -4.3520    -2.4880    -0.5290 C.3   1 <1>  -0.2000 
 18 C        7.0710     0.3530    -0.0160 C.ar  1 <1>   0.0830 
 19 C        7.0100     2.1940    -1.5530 C.ar  1 <1>  -0.1500 
 20 O        7.6940    -0.6170     0.6990 O.3   1 <1>  -0.3620 
 21 C        7.7320     1.2350    -0.8660 C.ar  1 <1>  -0.1500 
 22 C        9.0960    -0.7500     0.6860 C.3   1 <1>   0.1200 
 23 C        9.4690    -1.8980     1.6180 C.3   1 <1>  -0.2400 
 24 H       -1.2200     2.1320    -0.9480 H     1 <1>   0.0800 
 25 H       -1.0910     1.9190     0.7910 H     1 <1>   0.0800 
 26 H        2.1540    -1.4110    -1.4200 H     1 <1>   0.0800 
 27 H        3.0970    -1.5310     0.0560 H     1 <1>   0.0800 
 28 H        3.8650    -1.0460    -1.4470 H     1 <1>   0.0800 
 29 H       -2.1220    -1.0700     0.0900 H     1 <1>   0.3700 
 30 H       -5.0790    -0.4650     0.0350 H     1 <1>   0.1000 
 31 H        5.2120    -0.2290     0.8100 H     1 <1>   0.1500 
 32 H        5.0810     3.0240    -1.9330 H     1 <1>   0.1500 
 33 H       -5.2840    -2.5210     1.4860 H     1 <1>   0.1000 
 34 H       -3.5010    -2.6770     1.5250 H     1 <1>   0.1000 
 35 H       -3.4900    -2.9090    -1.0140 H     1 <1>   0.1000 
 36 H       -5.2730    -2.7500    -1.0200 H     1 <1>   0.1000 
 37 H        7.5160     2.8840    -2.2060 H     1 <1>   0.1500 
 38 H        8.7960     1.1920    -1.0040 H     1 <1>   0.1500 
 39 H        9.5290     0.1740     1.0280 H     1 <1>   0.0800 
 40 H        9.4100    -0.9610    -0.3220 H     1 <1>   0.0800 
 41 H        9.1370    -1.6850     2.6190 H     1 <1>   0.0800 
 42 H       10.5370    -2.0250     1.6310 H     1 <1>   0.0800 
 43 H        9.0190    -2.8130     1.2770 H     1 <1>   0.0800 
@<TRIPOS>BOND
  1   1   2  1   
  2   1   3  1   
  3   2   4  2   
  4   2   5  1   
  5   3   6  1   
  6   3  24  1   
  7   3  25  1   
  8   4   7  1   
  9   5   8  1   
 10   5   9  1   
 11   6  10  2   
 12   6  11  am  
 13   7   8  2   
 14   8  12  1   
 15   9  26  1   
 16   9  27  1   
 17   9  28  1   
 18  11  13  1   
 19  11  29  1   
 20  12  14  ar  
 21  12  15  ar  
 22  13  16  1   
 23  13  17  1   
 24  13  30  1   
 25  14  18  ar  
 26  14  31  1   
 27  15  19  ar  
 28  15  32  1   
 29  16  17  1   
 30  16  33  1   
 31  16  34  1   
 32  17  35  1   
 33  17  36  1   
 34  18  20  1   
 35  18  21  ar  
 36  19  21  ar  
 37  19  37  1   
 38  20  22  1   
 39  21  38  1   
 40  22  23  1   
 41  22  39  1   
 42  22  40  1   
 43  23  41  1   
 44  23  42  1   
 45  23  43  1   
@<TRIPOS>SUBSTRUCTURE
  1 ****   5 GROUP 4 **** **** 0

# MOE 2024.06 (io_trps.svl 2023.06)
