@<TRIPOS>MOLECULE
NONAME
47 48 1 0 0 
SMALL
USER_CHARGES


@<TRIPOS>ATOM
  1 O        4.1510    -1.8310     0.7300 O.co2 1 <1>  -0.9000 
  2 C        3.7810    -2.8200     1.3730 C.2   1 <1>   0.9060 
  3 O        4.5350    -3.2770     2.2370 O.co2 1 <1>  -0.9000 
  4 C        2.5190    -3.5760     1.0010 C.3   1 <1>  -0.1860 
  5 C        2.8590    -4.9020     0.2800 C.3   1 <1>  -0.0190 
  6 C        1.5630    -2.7130     0.1580 C.3   1 <1>  -0.0220 
  7 C        3.7740    -4.6920    -0.9450 C.2   1 <1>   0.5690 
  8 C        1.5730    -5.6910    -0.0450 C.3   1 <1>  -0.0220 
  9 C        0.3640    -3.5010    -0.3580 C.2   1 <1>  -0.2760 
 10 O        3.2600    -4.5010    -2.0240 O.2   1 <1>  -0.5700 
 11 N        5.1530    -4.7110    -0.8520 N.am  1 <1>  -0.6600 
 12 C        0.3650    -4.8410    -0.4370 C.2   1 <1>  -0.2760 
 13 C       -0.7630    -2.5620    -0.7740 C.3   1 <1>  -0.1020 
 14 C        5.9780    -5.0600     0.3540 C.3   1 <1>   0.1400 
 15 C        5.9640    -4.0080    -1.8870 C.3   1 <1>   0.1400 
 16 C       -0.7840    -5.7200    -0.9190 C.3   1 <1>  -0.1020 
 17 C        6.9690    -3.9420     0.7650 C.3   1 <1>   0.3430 
 18 C        6.4550    -2.6440    -1.3550 C.3   1 <1>   0.3430 
 19 N        6.6800    -2.6160     0.1300 N.4   1 <1>  -0.9590 
 20 C        7.5270    -1.5280     0.6580 C.3   1 <1>   0.3430 
 21 C        7.0330    -0.1690     0.1750 C.3   1 <1>  -0.2400 
 22 H        2.0190    -3.8140     1.9200 H     1 <1>   0.0800 
 23 H        3.3830    -5.5200     0.9780 H     1 <1>   0.0800 
 24 H        2.0840    -2.3010    -0.6890 H     1 <1>   0.0800 
 25 H        1.2320    -1.8910     0.7690 H     1 <1>   0.0800 
 26 H        1.2970    -6.2560     0.8280 H     1 <1>   0.0800 
 27 H        1.7880    -6.3960    -0.8290 H     1 <1>   0.0800 
 28 H       -1.1440    -2.0460     0.0890 H     1 <1>   0.0800 
 29 H       -1.5760    -3.0710    -1.2500 H     1 <1>   0.0800 
 30 H       -0.3850    -1.8350    -1.4700 H     1 <1>   0.0800 
 31 H        6.5380    -5.9530     0.1420 H     1 <1>   0.0800 
 32 H        5.3670    -5.2850     1.2040 H     1 <1>   0.0800 
 33 H        5.3980    -3.8520    -2.7890 H     1 <1>   0.0800 
 34 H        6.8100    -4.6200    -2.1440 H     1 <1>   0.0800 
 35 H       -0.4990    -6.2190    -1.8280 H     1 <1>   0.0800 
 36 H       -1.6810    -5.1670    -1.1070 H     1 <1>   0.0800 
 37 H       -1.0110    -6.4630    -0.1750 H     1 <1>   0.0800 
 38 H        7.9670    -4.2510     0.5090 H     1 <1>   0.0800 
 39 H        6.9200    -3.8360     1.8370 H     1 <1>   0.0800 
 40 H        5.7060    -1.9050    -1.5920 H     1 <1>   0.0800 
 41 H        7.3580    -2.3720    -1.8720 H     1 <1>   0.0800 
 42 H        5.7170    -2.3870     0.5080 H     1 <1>   0.4500 
 43 H        8.5500    -1.6770     0.3530 H     1 <1>   0.0800 
 44 H        7.4840    -1.5480     1.7350 H     1 <1>   0.0800 
 45 H        7.1490    -0.0590    -0.8860 H     1 <1>   0.0800 
 46 H        7.6040     0.6050     0.6550 H     1 <1>   0.0800 
 47 H        6.0000    -0.0320     0.4440 H     1 <1>   0.0800 
@<TRIPOS>BOND
  1   1   2  ar  
  2   2   3  ar  
  3   2   4  1   
  4   4   5  1   
  5   4   6  1   
  6   4  22  1   
  7   5   7  1   
  8   5   8  1   
  9   5  23  1   
 10   6   9  1   
 11   6  24  1   
 12   6  25  1   
 13   7  10  2   
 14   7  11  am  
 15   8  12  1   
 16   8  26  1   
 17   8  27  1   
 18   9  12  2   
 19   9  13  1   
 20  11  14  1   
 21  11  15  1   
 22  12  16  1   
 23  13  28  1   
 24  13  29  1   
 25  13  30  1   
 26  14  17  1   
 27  14  31  1   
 28  14  32  1   
 29  15  18  1   
 30  15  33  1   
 31  15  34  1   
 32  16  35  1   
 33  16  36  1   
 34  16  37  1   
 35  17  19  1   
 36  17  38  1   
 37  17  39  1   
 38  18  19  1   
 39  18  40  1   
 40  18  41  1   
 41  19  20  1   
 42  19  42  1   
 43  20  21  1   
 44  20  43  1   
 45  20  44  1   
 46  21  45  1   
 47  21  46  1   
 48  21  47  1   
@<TRIPOS>SUBSTRUCTURE
  1 ****   7 GROUP 4 **** **** 0

# MOE 2024.06 (io_trps.svl 2023.06)
