@<TRIPOS>MOLECULE
NONAME
28 28 1 0 0 
SMALL
USER_CHARGES


@<TRIPOS>ATOM
  1 CL       1.4150     1.1260    -2.0850 Cl    1 <1>  -0.1770 
  2 C        0.6470     2.2060    -0.9470 C.ar  1 <1>   0.1770 
  3 C        1.1980     2.3680     0.3180 C.ar  1 <1>  -0.1440 
  4 C       -0.4880     2.8890    -1.3400 C.ar  1 <1>  -0.1500 
  5 C        0.5890     3.2430     1.2090 C.ar  1 <1>  -0.1500 
  6 C        2.4370     1.5920     0.7130 C.3   1 <1>   0.4870 
  7 C       -1.0760     3.7530    -0.4380 C.ar  1 <1>   0.1770 
  8 C       -0.5500     3.9370     0.8290 C.ar  1 <1>  -0.1500 
  9 N        3.5920     2.1760    -0.0060 N.4   1 <1>  -0.9060 
 10 CL      -2.5070     4.6310    -0.9040 Cl    1 <1>  -0.1770 
 11 C        4.8730     1.4890     0.2770 C.3   1 <1>   0.3430 
 12 C        5.9820     2.1650    -0.5220 C.3   1 <1>  -0.1600 
 13 C        7.3320     1.5190    -0.2170 C.3   1 <1>   0.1200 
 14 O        8.3060     2.2790    -0.8250 O.3   1 <1>  -0.6800 
 15 H       -0.9080     2.7560    -2.3210 H     1 <1>   0.1500 
 16 H        0.9800     3.3940     2.2030 H     1 <1>   0.1500 
 17 H        2.3150     0.5540     0.4450 H     1 <1>   0.0800 
 18 H        2.5870     1.6570     1.7790 H     1 <1>   0.0800 
 19 H       -1.0360     4.6180     1.5080 H     1 <1>   0.1500 
 20 H        3.6600     3.1740     0.2270 H     1 <1>   0.4500 
 21 H        3.3860     2.1270    -1.0140 H     1 <1>   0.4500 
 22 H        4.8080     0.4490    -0.0010 H     1 <1>   0.0800 
 23 H        5.1010     1.5500     1.3300 H     1 <1>   0.0800 
 24 H        6.0350     3.2050    -0.2490 H     1 <1>   0.0800 
 25 H        5.7820     2.0770    -1.5760 H     1 <1>   0.0800 
 26 H        7.4010     0.5100    -0.5900 H     1 <1>   0.0800 
 27 H        7.5370     1.5260     0.8420 H     1 <1>   0.0800 
 28 H        8.3560     2.1140    -1.7880 H     1 <1>   0.4000 
@<TRIPOS>BOND
  1   1   2  1   
  2   2   3  ar  
  3   2   4  ar  
  4   3   5  ar  
  5   3   6  1   
  6   4   7  ar  
  7   4  15  1   
  8   5   8  ar  
  9   5  16  1   
 10   6   9  1   
 11   6  17  1   
 12   6  18  1   
 13   7   8  ar  
 14   7  10  1   
 15   8  19  1   
 16   9  11  1   
 17   9  20  1   
 18   9  21  1   
 19  11  12  1   
 20  11  22  1   
 21  11  23  1   
 22  12  13  1   
 23  12  24  1   
 24  12  25  1   
 25  13  14  1   
 26  13  26  1   
 27  13  27  1   
 28  14  28  1   
@<TRIPOS>SUBSTRUCTURE
  1 ****   3 GROUP 4 **** **** 0

# MOE 2024.06 (io_trps.svl 2023.06)
