@<TRIPOS>MOLECULE
NONAME
41 43 1 0 0 
SMALL
USER_CHARGES


@<TRIPOS>ATOM
  1 F        0.6660     1.4960     1.8130 F     1 <1>  -0.1900 
  2 C        0.6630     2.7400     1.4140 C.ar  1 <1>   0.1900 
  3 C        1.2590     3.0540     0.2070 C.ar  1 <1>  -0.1500 
  4 C        0.0650     3.6950     2.2130 C.ar  1 <1>  -0.1500 
  5 C        1.2510     4.3750    -0.2100 C.ar  1 <1>  -0.1500 
  6 C        0.0640     5.0120     1.7840 C.ar  1 <1>  -0.1500 
  7 C        0.6540     5.3540     0.5740 C.ar  1 <1>  -0.1430 
  8 C        0.6410     6.8030     0.1060 C.3   1 <1>  -0.0160 
  9 C       -0.7120     7.1460    -0.5200 C.3   1 <1>   0.1400 
 10 N       -0.6840     8.5410    -0.9900 N.am  1 <1>  -0.7300 
 11 C       -1.0990     9.6090    -0.2660 C.2   1 <1>   0.5690 
 12 O       -1.8180     9.4690     0.6990 O.2   1 <1>  -0.5700 
 13 C       -0.6920    11.0250    -0.7150 C.3   1 <1>  -0.0190 
 14 C        0.9440    11.2960    -1.0460 C.3   1 <1>  -0.1860 
 15 C       -1.1530    12.1600     0.3810 C.3   1 <1>  -0.0800 
 16 C        1.7860    10.0300    -1.1630 C.2   1 <1>   0.9060 
 17 C        1.4810    12.4420     0.0020 C.3   1 <1>  -0.0800 
 18 C        0.1590    12.3120     0.1760 C.3   1 <1>  -0.1600 
 19 C       -0.6170    13.3220     1.3980 C.3   1 <1>  -0.1600 
 20 O        1.6540     9.3640    -2.1990 O.co2 1 <1>  -0.9000 
 21 O        2.5030     9.6450    -0.2380 O.co2 1 <1>  -0.9000 
 22 C        1.0010    13.5790     1.0710 C.3   1 <1>  -0.1600 
 23 H        1.7170     2.2860    -0.3870 H     1 <1>   0.1500 
 24 H       -0.3870     3.4140     3.1460 H     1 <1>   0.1500 
 25 H        1.7120     4.6450    -1.1460 H     1 <1>   0.1500 
 26 H       -0.3940     5.7750     2.3890 H     1 <1>   0.1500 
 27 H        1.4240     6.9690    -0.6150 H     1 <1>   0.0800 
 28 H        0.8270     7.4570     0.9400 H     1 <1>   0.0800 
 29 H       -1.4960     7.0190     0.2060 H     1 <1>   0.0800 
 30 H       -0.9050     6.4960    -1.3550 H     1 <1>   0.0800 
 31 H        0.0900     8.7230    -1.6650 H     1 <1>   0.3700 
 32 H       -1.2360    11.1870    -1.6310 H     1 <1>   0.0800 
 33 H        1.0020    11.7210    -2.0360 H     1 <1>   0.0800 
 34 H       -1.8860    12.7100    -0.1920 H     1 <1>   0.0800 
 35 H        2.1900    11.8900     0.6060 H     1 <1>   0.0800 
 36 H        0.3720    11.5160     1.0170 H     1 <1>   0.0800 
 37 H       -0.0620    13.0950    -0.6720 H     1 <1>   0.0800 
 38 H       -0.7400    12.9940     2.4200 H     1 <1>   0.0800 
 39 H       -1.1790    14.2340     1.2780 H     1 <1>   0.0800 
 40 H        1.1470    14.5640     0.6540 H     1 <1>   0.0800 
 41 H        1.5820    13.5200     1.9780 H     1 <1>   0.0800 
@<TRIPOS>BOND
  1   1   2  1   
  2   2   3  ar  
  3   2   4  ar  
  4   3   5  ar  
  5   3  23  1   
  6   4   6  ar  
  7   4  24  1   
  8   5   7  ar  
  9   5  25  1   
 10   6   7  ar  
 11   6  26  1   
 12   7   8  1   
 13   8   9  1   
 14   8  27  1   
 15   8  28  1   
 16   9  10  1   
 17   9  29  1   
 18   9  30  1   
 19  10  11  am  
 20  10  31  1   
 21  11  12  2   
 22  11  13  1   
 23  13  14  1   
 24  13  15  1   
 25  13  32  1   
 26  14  16  1   
 27  14  17  1   
 28  14  33  1   
 29  15  18  1   
 30  15  19  1   
 31  15  34  1   
 32  16  20  ar  
 33  16  21  ar  
 34  17  18  1   
 35  17  22  1   
 36  17  35  1   
 37  18  36  1   
 38  18  37  1   
 39  19  22  1   
 40  19  38  1   
 41  19  39  1   
 42  22  40  1   
 43  22  41  1   
@<TRIPOS>SUBSTRUCTURE
  1 ****   8 GROUP 4 **** **** 0

# MOE 2024.06 (io_trps.svl 2023.06)
