@<TRIPOS>MOLECULE
NONAME
43 45 1 0 0 
SMALL
USER_CHARGES


@<TRIPOS>ATOM
  1 BR       1.8070     1.0100    -3.0650 Br    1 <1>  -0.1110 
  2 C        1.3340     2.5890    -2.0750 C.ar  1 <1>   0.1110 
  3 C        1.0890     2.4790    -0.7210 C.ar  1 <1>  -0.1500 
  4 C        1.2500     3.7950    -2.7440 C.ar  1 <1>  -0.1500 
  5 C        0.7510     3.6190    -0.0120 C.ar  1 <1>  -0.1500 
  6 C        0.9110     4.9300    -2.0270 C.ar  1 <1>  -0.1500 
  7 C        0.6650     4.8470    -0.6600 C.ar  1 <1>  -0.1430 
  8 C        0.3080     6.0950     0.1270 C.3   1 <1>   0.4870 
  9 N        1.5160     6.9500     0.2490 N.4   1 <1>  -0.9590 
 10 C        2.6910     6.2750     0.8970 C.3   1 <1>   0.3430 
 11 C        1.2620     8.2920     0.8630 C.3   1 <1>   0.3430 
 12 C        3.9460     7.1840     0.8610 C.3   1 <1>   0.1100 
 13 C        2.5340     9.1740     0.8170 C.3   1 <1>   0.1100 
 14 N        3.6840     8.4770     0.1860 N.3   1 <1>  -0.8100 
 15 C        4.8950     9.3220     0.1410 C.3   1 <1>   0.2530 
 16 C        4.6440    10.5680    -0.6960 C.ar  1 <1>  -0.1430 
 17 C        4.6900    11.8300    -0.1120 C.ar  1 <1>  -0.1500 
 18 C        4.3680    10.4440    -2.0530 C.ar  1 <1>  -0.1500 
 19 C        4.4560    12.9620    -0.8750 C.ar  1 <1>  -0.1500 
 20 C        4.1330    11.5680    -2.8270 C.ar  1 <1>  -0.1500 
 21 C        4.1810    12.8080    -2.2200 C.ar  1 <1>   0.1900 
 22 F        3.9580    13.8720    -2.9430 F     1 <1>  -0.1900 
 23 H        1.1590     1.5180    -0.2390 H     1 <1>   0.1500 
 24 H        1.4440     3.8370    -3.8020 H     1 <1>   0.1500 
 25 H        0.5540     3.5320     1.0440 H     1 <1>   0.1500 
 26 H        0.8390     5.8690    -2.5490 H     1 <1>   0.1500 
 27 H       -0.0530     5.8220     1.1050 H     1 <1>   0.0800 
 28 H       -0.4730     6.6300    -0.3890 H     1 <1>   0.0800 
 29 H        1.8670     7.1660    -0.6960 H     1 <1>   0.4500 
 30 H        2.9170     5.3550     0.3800 H     1 <1>   0.0800 
 31 H        2.4600     6.0270     1.9190 H     1 <1>   0.0800 
 32 H        0.9470     8.1790     1.8870 H     1 <1>   0.0800 
 33 H        0.4730     8.7970     0.3300 H     1 <1>   0.0800 
 34 H        4.7330     6.6630     0.3410 H     1 <1>   0.0800 
 35 H        4.2840     7.3570     1.8690 H     1 <1>   0.0800 
 36 H        2.7920     9.4770     1.8180 H     1 <1>   0.0800 
 37 H        2.3020    10.0680     0.2620 H     1 <1>   0.0800 
 38 H        5.7030     8.7690    -0.3060 H     1 <1>   0.0800 
 39 H        5.1910     9.5970     1.1400 H     1 <1>   0.0800 
 40 H        4.9090    11.9390     0.9360 H     1 <1>   0.1500 
 41 H        4.3350     9.4680    -2.5060 H     1 <1>   0.1500 
 42 H        4.4880    13.9450    -0.4420 H     1 <1>   0.1500 
 43 H        3.9190    11.4900    -3.8780 H     1 <1>   0.1500 
@<TRIPOS>BOND
  1   1   2  1   
  2   2   3  ar  
  3   2   4  ar  
  4   3   5  ar  
  5   3  23  1   
  6   4   6  ar  
  7   4  24  1   
  8   5   7  ar  
  9   5  25  1   
 10   6   7  ar  
 11   6  26  1   
 12   7   8  1   
 13   8   9  1   
 14   8  27  1   
 15   8  28  1   
 16   9  10  1   
 17   9  11  1   
 18   9  29  1   
 19  10  12  1   
 20  10  30  1   
 21  10  31  1   
 22  11  13  1   
 23  11  32  1   
 24  11  33  1   
 25  12  14  1   
 26  12  34  1   
 27  12  35  1   
 28  13  14  1   
 29  13  36  1   
 30  13  37  1   
 31  14  15  1   
 32  15  16  1   
 33  15  38  1   
 34  15  39  1   
 35  16  17  ar  
 36  16  18  ar  
 37  17  19  ar  
 38  17  40  1   
 39  18  20  ar  
 40  18  41  1   
 41  19  21  ar  
 42  19  42  1   
 43  20  21  ar  
 44  20  43  1   
 45  21  22  1   
@<TRIPOS>SUBSTRUCTURE
  1 ****  14 GROUP 4 **** **** 0

# MOE 2024.06 (io_trps.svl 2023.06)
