@<TRIPOS>MOLECULE
NONAME
56 60 1 0 0 
SMALL
USER_CHARGES


@<TRIPOS>ATOM
  1 O       -0.7390     1.0750     0.3650 O.2   1 <1>  -0.5700 
  2 C       -1.3920     2.0890     0.2420 C.2   1 <1>   0.5690 
  3 N       -2.7730     1.9910     0.2270 N.am  1 <1>  -0.6600 
  4 C       -0.5990     3.4260     0.1080 C.3   1 <1>   0.0610 
  5 C       -3.4400     0.6580     0.4330 C.3   1 <1>   0.1400 
  6 C       -3.7920     3.0490    -0.0880 C.3   1 <1>   0.1400 
  7 C        0.9290     3.1790     0.3010 C.3   1 <1>  -0.1600 
  8 C       -1.0060     4.4510     1.2020 C.3   1 <1>  -0.1600 
  9 C       -0.7580     4.0450    -1.3070 C.3   1 <1>  -0.1600 
 10 C       -4.2830     0.2550    -0.7890 C.3   1 <1>   0.2090 
 11 C       -4.6220     2.6640    -1.3240 C.3   1 <1>   0.2090 
 12 C        1.7580     4.4730     0.1750 C.3   1 <1>   0.0000 
 13 C       -0.2250     5.7730     1.0620 C.3   1 <1>   0.0000 
 14 C        0.0250     5.3630    -1.4280 C.3   1 <1>  -0.0800 
 15 N       -5.2690     1.3310    -1.1250 N.pl3 1 <1>  -0.8380 
 16 C        1.2770     5.4770     1.2390 C.3   1 <1>  -0.1600 
 17 C        1.5220     5.0790    -1.2210 C.3   1 <1>  -0.1600 
 18 C        3.2480     4.1700     0.3720 C.3   1 <1>  -0.2400 
 19 C       -0.4610     6.3490    -0.3500 C.3   1 <1>  -0.1600 
 20 C       -0.6900     6.7750     2.1260 C.3   1 <1>  -0.2400 
 21 C       -6.6220     1.1810    -0.9060 C.ar  1 <1>   0.7200 
 22 N       -7.0990    -0.0620    -0.8930 N.ar  1 <1>  -0.6200 
 23 N       -7.3380     2.2910    -0.7220 N.ar  1 <1>  -0.6200 
 24 C       -8.3870    -0.1930    -0.6920 C.ar  1 <1>   0.1600 
 25 C       -8.6230     2.1310    -0.5220 C.ar  1 <1>   0.1600 
 26 C       -9.2090     0.8890    -0.4980 C.ar  1 <1>  -0.1500 
 27 H       -4.0830     0.7170     1.2930 H     1 <1>   0.0800 
 28 H       -2.7190    -0.1170     0.6250 H     1 <1>   0.0800 
 29 H       -3.3470     4.0030    -0.2650 H     1 <1>   0.0800 
 30 H       -4.4570     3.1550     0.7510 H     1 <1>   0.0800 
 31 H        1.2720     2.4690    -0.4320 H     1 <1>   0.0800 
 32 H        1.0990     2.7390     1.2690 H     1 <1>   0.0800 
 33 H       -0.8150     4.0210     2.1700 H     1 <1>   0.0800 
 34 H       -2.0520     4.6710     1.1670 H     1 <1>   0.0800 
 35 H       -1.7820     4.2380    -1.5460 H     1 <1>   0.0800 
 36 H       -0.3970     3.3440    -2.0400 H     1 <1>   0.0800 
 37 H       -4.7750    -0.6780    -0.5790 H     1 <1>   0.0800 
 38 H       -3.6320     0.0950    -1.6310 H     1 <1>   0.0800 
 39 H       -3.9750     2.6130    -2.1820 H     1 <1>   0.0800 
 40 H       -5.3520     3.4290    -1.5200 H     1 <1>   0.0800 
 41 H       -0.1280     5.7880    -2.4050 H     1 <1>   0.0800 
 42 H        1.4530     5.0740     2.2210 H     1 <1>   0.0800 
 43 H        1.8390     6.3900     1.1550 H     1 <1>   0.0800 
 44 H        1.8680     4.3980    -1.9800 H     1 <1>   0.0800 
 45 H        2.0800     5.9930    -1.3240 H     1 <1>   0.0800 
 46 H        3.4200     3.7460     1.3460 H     1 <1>   0.0800 
 47 H        3.8310     5.0690     0.2840 H     1 <1>   0.0800 
 48 H        3.5900     3.4680    -0.3680 H     1 <1>   0.0800 
 49 H        0.0690     7.2800    -0.4550 H     1 <1>   0.0800 
 50 H       -1.5080     6.5530    -0.4930 H     1 <1>   0.0800 
 51 H       -0.5330     6.3770     3.1120 H     1 <1>   0.0800 
 52 H       -1.7360     6.9930     2.0090 H     1 <1>   0.0800 
 53 H       -0.1400     7.6960     2.0400 H     1 <1>   0.0800 
 54 H       -8.7970    -1.1880    -0.6820 H     1 <1>   0.1500 
 55 H       -9.2240     3.0110    -0.3740 H     1 <1>   0.1500 
 56 H      -10.2630     0.7700    -0.3340 H     1 <1>   0.1500 
@<TRIPOS>BOND
  1   1   2  2   
  2   2   3  am  
  3   2   4  1   
  4   3   5  1   
  5   3   6  1   
  6   4   7  1   
  7   4   8  1   
  8   4   9  1   
  9   5  10  1   
 10   5  27  1   
 11   5  28  1   
 12   6  11  1   
 13   6  29  1   
 14   6  30  1   
 15   7  12  1   
 16   7  31  1   
 17   7  32  1   
 18   8  13  1   
 19   8  33  1   
 20   8  34  1   
 21   9  14  1   
 22   9  35  1   
 23   9  36  1   
 24  10  15  1   
 25  10  37  1   
 26  10  38  1   
 27  11  15  1   
 28  11  39  1   
 29  11  40  1   
 30  12  16  1   
 31  12  17  1   
 32  12  18  1   
 33  13  16  1   
 34  13  19  1   
 35  13  20  1   
 36  14  17  1   
 37  14  19  1   
 38  14  41  1   
 39  15  21  1   
 40  16  42  1   
 41  16  43  1   
 42  17  44  1   
 43  17  45  1   
 44  18  46  1   
 45  18  47  1   
 46  18  48  1   
 47  19  49  1   
 48  19  50  1   
 49  20  51  1   
 50  20  52  1   
 51  20  53  1   
 52  21  22  ar  
 53  21  23  ar  
 54  22  24  ar  
 55  23  25  ar  
 56  24  26  ar  
 57  24  54  1   
 58  25  26  ar  
 59  25  55  1   
 60  26  56  1   
@<TRIPOS>SUBSTRUCTURE
  1 ****   3 GROUP 4 **** **** 0

# MOE 2024.06 (io_trps.svl 2023.06)
