@<TRIPOS>MOLECULE
NONAME
42 44 1 0 0 
SMALL
USER_CHARGES


@<TRIPOS>ATOM
  1 CL       0.5760     0.1640     2.3780 Cl    1 <1>  -0.1770 
  2 C        1.7790    -0.7800     1.5380 C.ar  1 <1>   0.1770 
  3 C        1.5070    -2.0410     1.0210 C.ar  1 <1>  -0.0090 
  4 C        3.0230    -0.1930     1.3970 C.ar  1 <1>  -0.1500 
  5 S       -0.1070    -2.8550     1.1550 S.o2  1 <1>   1.4470 
  6 C        2.5380    -2.6760     0.3360 C.ar  1 <1>  -0.1500 
  7 C        4.0270    -0.8560     0.7190 C.ar  1 <1>  -0.1500 
  8 O        0.1160    -4.2810     1.0540 O.2   1 <1>  -0.6500 
  9 O       -0.9040    -2.3710     2.2580 O.2   1 <1>  -0.6500 
 10 N       -0.8870    -2.3890    -0.2770 N.am  1 <1>  -0.8490 
 11 C        3.8060    -2.1180     0.1690 C.ar  1 <1>   0.0860 
 12 C       -1.9560    -3.3330    -0.6410 C.3   1 <1>   0.1960 
 13 C       -1.4440    -1.0270    -0.2150 C.3   1 <1>   0.1960 
 14 C        4.8410    -2.8330    -0.5570 C.2   1 <1>   0.5440 
 15 C       -2.6600    -2.9050    -1.9410 C.3   1 <1>   0.1200 
 16 C       -2.1540    -0.6570    -1.5300 C.3   1 <1>   0.1200 
 17 O        4.5500    -3.5850    -1.4640 O.2   1 <1>  -0.5700 
 18 N        6.1550    -2.6890    -0.2290 N.am  1 <1>  -0.7300 
 19 O       -3.1450    -1.5960    -1.8340 O.3   1 <1>  -0.5600 
 20 C        7.2650    -3.3920    -0.9120 C.3   1 <1>   0.3200 
 21 C        8.5280    -2.5480    -0.8770 C.2   1 <1>  -0.0400 
 22 O        9.6750    -3.1340    -1.1610 O.3   1 <1>  -0.2800 
 23 C        8.7280    -1.2380    -0.6010 C.2   1 <1>  -0.1500 
 24 C       10.6250    -2.2250    -1.0710 C.2   1 <1>  -0.0100 
 25 C       10.1060    -1.0280    -0.7270 C.2   1 <1>  -0.1500 
 26 H        3.1970     0.7850     1.8140 H     1 <1>   0.1500 
 27 H        2.3550    -3.6490    -0.0930 H     1 <1>   0.1500 
 28 H        4.9870    -0.3840     0.6030 H     1 <1>   0.1500 
 29 H       -2.6830    -3.3930     0.1530 H     1 <1>   0.0800 
 30 H       -1.5410    -4.3160    -0.7860 H     1 <1>   0.0800 
 31 H       -0.6550    -0.3190    -0.0420 H     1 <1>   0.0800 
 32 H       -2.1510    -0.9470     0.5950 H     1 <1>   0.0800 
 33 H       -3.4970    -3.5500    -2.1420 H     1 <1>   0.0800 
 34 H       -1.9770    -2.9520    -2.7710 H     1 <1>   0.0800 
 35 H       -1.4500    -0.6230    -2.3430 H     1 <1>   0.0800 
 36 H       -2.6290     0.3030    -1.4400 H     1 <1>   0.0800 
 37 H        6.4280    -2.2030     0.6240 H     1 <1>   0.3700 
 38 H        7.0030    -3.6050    -1.9340 H     1 <1>   0.0800 
 39 H        7.4480    -4.3250    -0.4080 H     1 <1>   0.0800 
 40 H        8.0080    -0.4830    -0.3430 H     1 <1>   0.1500 
 41 H       11.6420    -2.5150    -1.2690 H     1 <1>   0.1500 
 42 H       10.6140    -0.0920    -0.5760 H     1 <1>   0.1500 
@<TRIPOS>BOND
  1   1   2  1   
  2   2   3  ar  
  3   2   4  ar  
  4   3   5  1   
  5   3   6  ar  
  6   4   7  ar  
  7   4  26  1   
  8   5   8  2   
  9   5   9  2   
 10   5  10  am  
 11   6  11  ar  
 12   6  27  1   
 13   7  11  ar  
 14   7  28  1   
 15  10  12  1   
 16  10  13  1   
 17  11  14  1   
 18  12  15  1   
 19  12  29  1   
 20  12  30  1   
 21  13  16  1   
 22  13  31  1   
 23  13  32  1   
 24  14  17  2   
 25  14  18  am  
 26  15  19  1   
 27  15  33  1   
 28  15  34  1   
 29  16  19  1   
 30  16  35  1   
 31  16  36  1   
 32  18  20  1   
 33  18  37  1   
 34  20  21  1   
 35  20  38  1   
 36  20  39  1   
 37  21  22  1   
 38  21  23  2   
 39  22  24  1   
 40  23  25  1   
 41  23  40  1   
 42  24  25  2   
 43  24  41  1   
 44  25  42  1   
@<TRIPOS>SUBSTRUCTURE
  1 ****   6 GROUP 4 **** **** 0

# MOE 2024.06 (io_trps.svl 2023.06)
