@<TRIPOS>MOLECULE
NONAME
36 36 1 0 0 
SMALL
USER_CHARGES


@<TRIPOS>ATOM
  1 N        0.0270     0.0900    -0.1560 N.4   1 <1>  -0.9590 
  2 C        1.2190    -0.4000    -0.9220 C.3   1 <1>   0.4860 
  3 C       -1.2300    -0.6200    -0.5950 C.3   1 <1>   0.3430 
  4 C       -0.0500     1.5910    -0.2530 C.3   1 <1>   0.2630 
  5 C        2.4640     0.0590    -0.1920 C.ar  1 <1>  -0.1440 
  6 C       -2.4780    -0.3290     0.2900 C.3   1 <1>   0.3430 
  7 C        2.8570    -0.5670     0.9840 C.ar  1 <1>  -0.1500 
  8 C        3.2190     1.1120    -0.6900 C.ar  1 <1>  -0.1500 
  9 N       -3.7430    -1.0320    -0.1470 N.4   1 <1>  -0.9590 
 10 C        3.9820    -0.1310     1.6610 C.ar  1 <1>  -0.1500 
 11 C        4.3440     1.5440    -0.0110 C.ar  1 <1>  -0.1500 
 12 C       -4.9150    -0.5380     0.6540 C.3   1 <1>   0.2630 
 13 C       -3.6760    -2.5300    -0.0230 C.3   1 <1>   0.2630 
 14 C        4.7240     0.9250     1.1660 C.ar  1 <1>  -0.1500 
 15 H        0.2630    -0.1360     0.8240 H     1 <1>   0.4500 
 16 H        1.2140    -0.0110    -1.9270 H     1 <1>   0.0800 
 17 H        1.2220    -1.4770    -0.9700 H     1 <1>   0.0800 
 18 H       -1.0470    -1.6820    -0.5800 H     1 <1>   0.0800 
 19 H       -1.4520    -0.3350    -1.6110 H     1 <1>   0.0800 
 20 H       -0.2070     1.8980    -1.2750 H     1 <1>   0.0800 
 21 H        0.8700     2.0350     0.0960 H     1 <1>   0.0800 
 22 H       -0.8540     1.9740     0.3540 H     1 <1>   0.0800 
 23 H       -2.6580     0.7340     0.2790 H     1 <1>   0.0800 
 24 H       -2.2570    -0.6160     1.3060 H     1 <1>   0.0800 
 25 H        2.3090    -1.4000     1.3890 H     1 <1>   0.1500 
 26 H        2.9520     1.6070    -1.6090 H     1 <1>   0.1500 
 27 H       -3.9560    -0.8040    -1.1350 H     1 <1>   0.4500 
 28 H        4.2900    -0.6150     2.5740 H     1 <1>   0.1500 
 29 H        4.9320     2.3610    -0.3970 H     1 <1>   0.1500 
 30 H       -4.7800    -0.7600     1.7010 H     1 <1>   0.0800 
 31 H       -5.8250    -1.0120     0.3200 H     1 <1>   0.0800 
 32 H       -5.0300     0.5290     0.5410 H     1 <1>   0.0800 
 33 H       -3.4880    -2.8160     1.0000 H     1 <1>   0.0800 
 34 H       -2.8940    -2.9330    -0.6460 H     1 <1>   0.0800 
 35 H       -4.6110    -2.9710    -0.3310 H     1 <1>   0.0800 
 36 H        5.6020     1.2620     1.6930 H     1 <1>   0.1500 
@<TRIPOS>BOND
  1   1   2  1   
  2   1   3  1   
  3   1   4  1   
  4   1  15  1   
  5   2   5  1   
  6   2  16  1   
  7   2  17  1   
  8   3   6  1   
  9   3  18  1   
 10   3  19  1   
 11   4  20  1   
 12   4  21  1   
 13   4  22  1   
 14   5   7  ar  
 15   5   8  ar  
 16   6   9  1   
 17   6  23  1   
 18   6  24  1   
 19   7  10  ar  
 20   7  25  1   
 21   8  11  ar  
 22   8  26  1   
 23   9  12  1   
 24   9  13  1   
 25   9  27  1   
 26  10  14  ar  
 27  10  28  1   
 28  11  14  ar  
 29  11  29  1   
 30  12  30  1   
 31  12  31  1   
 32  12  32  1   
 33  13  33  1   
 34  13  34  1   
 35  13  35  1   
 36  14  36  1   
@<TRIPOS>SUBSTRUCTURE
  1 ****   1 GROUP 4 **** **** 0

# MOE 2024.06 (io_trps.svl 2023.06)
