@<TRIPOS>MOLECULE
NONAME
44 47 1 0 0 
SMALL
USER_CHARGES


@<TRIPOS>ATOM
  1 S        0.5650    -0.4310    -0.5660 S.3   1 <1>  -0.0800 
  2 C        1.7140     0.7970    -0.0590 C.2   1 <1>   0.1660 
  3 C       -0.7780     0.6590    -0.2590 C.2   1 <1>  -0.1400 
  4 N        3.0440     0.5800    -0.0620 N.2   1 <1>  -0.5760 
  5 C        1.0830     1.9410     0.3170 C.2   1 <1>  -0.0860 
  6 C       -0.3480     1.8430     0.2040 C.2   1 <1>  -0.1810 
  7 C       -2.1980     0.2220    -0.5230 C.3   1 <1>   0.5230 
  8 C        3.7570     1.5910     0.3070 C.2   1 <1>   0.6510 
  9 C        1.9160     3.0140     0.7440 C.2   1 <1>   0.7160 
 10 C       -1.3340     2.9440     0.5550 C.3   1 <1>   0.0210 
 11 N       -3.0460     1.4620    -0.5780 N.4   1 <1>  -0.9590 
 12 S        5.5260     1.3340     0.3510 S.3   1 <1>  -0.3710 
 13 N        3.2800     2.8290     0.6860 N.am  1 <1>  -0.4200 
 14 O        1.4350     4.0580     1.1660 O.2   1 <1>  -0.5700 
 15 C       -2.7740     2.3930     0.5790 C.3   1 <1>   0.3430 
 16 C       -4.4970     1.1240    -0.6900 C.3   1 <1>   0.2630 
 17 C        5.7720    -0.4070    -0.2260 C.3   1 <1>  -0.0100 
 18 C        4.1650     4.0040     0.9230 C.3   1 <1>   0.2840 
 19 C        4.3170     4.8040    -0.3650 C.ar  1 <1>  -0.1440 
 20 C        3.4300     5.8300    -0.6560 C.ar  1 <1>  -0.1500 
 21 C        5.3390     4.5210    -1.2600 C.ar  1 <1>  -0.1500 
 22 C        3.5570     6.5570    -1.8270 C.ar  1 <1>  -0.1500 
 23 C        5.4660     5.2470    -2.4320 C.ar  1 <1>  -0.1500 
 24 C        4.5740     6.2650    -2.7170 C.ar  1 <1>  -0.1500 
 25 H       -2.5260    -0.4320     0.2690 H     1 <1>   0.0800 
 26 H       -2.2490    -0.3070    -1.4600 H     1 <1>   0.0800 
 27 H       -1.2530     3.7420    -0.1620 H     1 <1>   0.0800 
 28 H       -1.1020     3.3510     1.5240 H     1 <1>   0.0800 
 29 H       -2.7450     1.9570    -1.4300 H     1 <1>   0.4500 
 30 H       -3.4650     3.2200     0.5610 H     1 <1>   0.0800 
 31 H       -2.9210     1.8580     1.5030 H     1 <1>   0.0800 
 32 H       -4.8290     0.5960     0.1890 H     1 <1>   0.0800 
 33 H       -4.6720     0.5010    -1.5530 H     1 <1>   0.0800 
 34 H       -5.0830     2.0220    -0.7940 H     1 <1>   0.0800 
 35 H        5.3660    -0.4880    -1.2190 H     1 <1>   0.0800 
 36 H        5.2530    -1.0590     0.4540 H     1 <1>   0.0800 
 37 H        6.8280    -0.6100    -0.2240 H     1 <1>   0.0800 
 38 H        5.1300     3.7030     1.2870 H     1 <1>   0.0800 
 39 H        3.7380     4.6330     1.6850 H     1 <1>   0.0800 
 40 H        2.6320     6.0710     0.0260 H     1 <1>   0.1500 
 41 H        6.0450     3.7350    -1.0560 H     1 <1>   0.1500 
 42 H        2.8620     7.3500    -2.0450 H     1 <1>   0.1500 
 43 H        6.2590     5.0180    -3.1220 H     1 <1>   0.1500 
 44 H        4.6730     6.8290    -3.6280 H     1 <1>   0.1500 
@<TRIPOS>BOND
  1   1   2  1   
  2   1   3  1   
  3   2   4  1   
  4   2   5  2   
  5   3   6  2   
  6   3   7  1   
  7   4   8  2   
  8   5   6  1   
  9   5   9  1   
 10   6  10  1   
 11   7  11  1   
 12   7  25  1   
 13   7  26  1   
 14   8  12  1   
 15   8  13  1   
 16   9  13  am  
 17   9  14  2   
 18  10  15  1   
 19  10  27  1   
 20  10  28  1   
 21  11  15  1   
 22  11  16  1   
 23  11  29  1   
 24  12  17  1   
 25  13  18  1   
 26  15  30  1   
 27  15  31  1   
 28  16  32  1   
 29  16  33  1   
 30  16  34  1   
 31  17  35  1   
 32  17  36  1   
 33  17  37  1   
 34  18  19  1   
 35  18  38  1   
 36  18  39  1   
 37  19  20  ar  
 38  19  21  ar  
 39  20  22  ar  
 40  20  40  1   
 41  21  23  ar  
 42  21  41  1   
 43  22  24  ar  
 44  22  42  1   
 45  23  24  ar  
 46  23  43  1   
 47  24  44  1   
@<TRIPOS>SUBSTRUCTURE
  1 ****   9 GROUP 4 **** **** 0

# MOE 2024.06 (io_trps.svl 2023.06)
