@<TRIPOS>MOLECULE
NONAME
61 64 1 0 0 
SMALL
USER_CHARGES


@<TRIPOS>ATOM
  1 O        0.7670    -2.2350    -1.8850 O.2   1 <1>  -0.5700 
  2 C        0.6020    -1.6940    -0.8170 C.2   1 <1>   0.6590 
  3 O        1.2260    -0.5600    -0.5070 O.3   1 <1>  -0.4300 
  4 C       -0.3230    -2.2840     0.2620 C.3   1 <1>   0.2810 
  5 C        2.1140     0.0710    -1.4070 C.3   1 <1>   0.0400 
  6 N       -0.2260    -3.7800     0.2760 N.am  1 <1>  -0.7300 
  7 C       -1.8060    -1.8220     0.1210 C.3   1 <1>   0.0000 
  8 C        0.0950    -4.5270     1.3550 C.2   1 <1>   0.5690 
  9 C       -2.6480    -2.3620     1.3080 C.3   1 <1>  -0.1600 
 10 C       -2.4550    -2.3200    -1.1980 C.3   1 <1>  -0.1600 
 11 C       -1.9000    -0.2720     0.1460 C.3   1 <1>  -0.1600 
 12 O        0.2420    -4.0430     2.4490 O.2   1 <1>  -0.5700 
 13 C        0.2770    -6.0190     1.1660 C.3   1 <1>  -0.0990 
 14 C       -4.1130    -1.8990     1.2120 C.3   1 <1>  -0.0800 
 15 C       -3.9210    -1.8550    -1.3020 C.3   1 <1>  -0.0800 
 16 C       -3.3610     0.2020     0.0460 C.3   1 <1>  -0.0800 
 17 C        1.5560    -6.3430     0.3730 C.3   1 <1>  -0.1600 
 18 C       -4.7170    -2.4110    -0.1080 C.3   1 <1>  -0.1600 
 19 C       -4.1600    -0.3620     1.2330 C.3   1 <1>  -0.1600 
 20 C       -3.9690    -0.3170    -1.2700 C.3   1 <1>  -0.1600 
 21 C        1.8410    -7.8510     0.2520 C.3   1 <1>  -0.0800 
 22 C        3.2250    -8.0620    -0.3880 C.3   1 <1>  -0.1600 
 23 C        0.7590    -8.5850    -0.5650 C.3   1 <1>  -0.1600 
 24 C        3.5560    -9.5510    -0.5530 C.3   1 <1>  -0.1600 
 25 C        1.0910   -10.0740    -0.7380 C.3   1 <1>  -0.1600 
 26 C        2.4740   -10.2680    -1.3700 C.3   1 <1>  -0.1600 
 27 H        0.0410    -1.9180     1.2060 H     1 <1>   0.0800 
 28 H        2.4930     0.9630    -0.9430 H     1 <1>   0.0800 
 29 H        1.5790     0.3180    -2.3080 H     1 <1>   0.0800 
 30 H        2.9220    -0.6050    -1.6290 H     1 <1>   0.0800 
 31 H       -0.2510    -4.2020    -0.6550 H     1 <1>   0.3700 
 32 H       -2.2250    -2.0260     2.2390 H     1 <1>   0.0800 
 33 H       -2.6300    -3.4370     1.3210 H     1 <1>   0.0800 
 34 H       -2.4290    -3.3950    -1.2410 H     1 <1>   0.0800 
 35 H       -1.9110    -1.9480    -2.0480 H     1 <1>   0.0800 
 36 H       -1.3530     0.1530    -0.6770 H     1 <1>   0.0800 
 37 H       -1.4660     0.1060     1.0550 H     1 <1>   0.0800 
 38 H       -0.5910    -6.3980     0.6610 H     1 <1>   0.0800 
 39 H        0.3270    -6.4810     2.1360 H     1 <1>   0.0800 
 40 H       -4.6730    -2.2910     2.0450 H     1 <1>   0.0800 
 41 H       -4.3500    -2.2120    -2.2230 H     1 <1>   0.0800 
 42 H       -3.3970     1.2780     0.0630 H     1 <1>   0.0800 
 43 H        2.3850    -5.8730     0.8760 H     1 <1>   0.0800 
 44 H        1.4910    -5.9100    -0.6110 H     1 <1>   0.0800 
 45 H       -5.7450    -2.1020    -0.1810 H     1 <1>   0.0800 
 46 H       -4.6970    -3.4870    -0.1250 H     1 <1>   0.0800 
 47 H       -5.1820    -0.0280     1.1770 H     1 <1>   0.0800 
 48 H       -3.7480     0.0030     2.1580 H     1 <1>   0.0800 
 49 H       -4.9880     0.0170    -1.3560 H     1 <1>   0.0800 
 50 H       -3.4230     0.0830    -2.1080 H     1 <1>   0.0800 
 51 H        1.8660    -8.2740     1.2430 H     1 <1>   0.0800 
 52 H        3.9820    -7.6020     0.2240 H     1 <1>   0.0800 
 53 H        3.2510    -7.5880    -1.3550 H     1 <1>   0.0800 
 54 H        0.6720    -8.1300    -1.5360 H     1 <1>   0.0800 
 55 H       -0.1940    -8.5080    -0.0750 H     1 <1>   0.0800 
 56 H        3.6330   -10.0090     0.4180 H     1 <1>   0.0800 
 57 H        4.5070    -9.6560    -1.0450 H     1 <1>   0.0800 
 58 H        0.3450   -10.5400    -1.3570 H     1 <1>   0.0800 
 59 H        1.0700   -10.5570     0.2250 H     1 <1>   0.0800 
 60 H        2.7020   -11.3180    -1.4250 H     1 <1>   0.0800 
 61 H        2.4670    -9.8780    -2.3730 H     1 <1>   0.0800 
@<TRIPOS>BOND
  1   1   2  2   
  2   2   3  1   
  3   2   4  1   
  4   3   5  1   
  5   4   6  1   
  6   4   7  1   
  7   4  27  1   
  8   5  28  1   
  9   5  29  1   
 10   5  30  1   
 11   6   8  am  
 12   6  31  1   
 13   7   9  1   
 14   7  10  1   
 15   7  11  1   
 16   8  12  2   
 17   8  13  1   
 18   9  14  1   
 19   9  32  1   
 20   9  33  1   
 21  10  15  1   
 22  10  34  1   
 23  10  35  1   
 24  11  16  1   
 25  11  36  1   
 26  11  37  1   
 27  13  17  1   
 28  13  38  1   
 29  13  39  1   
 30  14  18  1   
 31  14  19  1   
 32  14  40  1   
 33  15  18  1   
 34  15  20  1   
 35  15  41  1   
 36  16  19  1   
 37  16  20  1   
 38  16  42  1   
 39  17  21  1   
 40  17  43  1   
 41  17  44  1   
 42  18  45  1   
 43  18  46  1   
 44  19  47  1   
 45  19  48  1   
 46  20  49  1   
 47  20  50  1   
 48  21  22  1   
 49  21  23  1   
 50  21  51  1   
 51  22  24  1   
 52  22  52  1   
 53  22  53  1   
 54  23  25  1   
 55  23  54  1   
 56  23  55  1   
 57  24  26  1   
 58  24  56  1   
 59  24  57  1   
 60  25  26  1   
 61  25  58  1   
 62  25  59  1   
 63  26  60  1   
 64  26  61  1   
@<TRIPOS>SUBSTRUCTURE
  1 ****   6 GROUP 4 **** **** 0

# MOE 2024.06 (io_trps.svl 2023.06)
