@<TRIPOS>MOLECULE
NONAME
41 42 1 0 0 
SMALL
USER_CHARGES


@<TRIPOS>ATOM
  1 S        0.4740     0.4240    -1.9660 S.3   1 <1>  -0.0800 
  2 C        0.1810    -0.8940    -0.8510 C.2   1 <1>   0.1040 
  3 C        1.8870     0.9510    -1.0750 C.2   1 <1>  -0.1400 
  4 N       -0.8960    -1.7410    -1.0640 N.am  1 <1>  -0.4940 
  5 C        1.1260    -0.9180     0.1420 C.2   1 <1>  -0.0860 
  6 C        2.0940     0.1580    -0.0050 C.2   1 <1>  -0.1810 
  7 C        2.5850     2.1650    -1.6580 C.3   1 <1>  -0.0600 
  8 C       -1.9730    -1.7280    -1.9090 C.2   1 <1>   0.5690 
  9 C        1.1050    -1.9140     1.1870 C.2   1 <1>   0.8060 
 10 C        3.2360     0.3700     0.9820 C.3   1 <1>  -0.0590 
 11 O       -2.2010    -0.8690    -2.7250 O.2   1 <1>  -0.5700 
 12 C       -2.9470    -2.9020    -1.7800 C.3   1 <1>   0.1710 
 13 O        0.1240    -2.5950     1.4340 O.2   1 <1>  -0.5700 
 14 O        2.2060    -2.1300     1.9190 O.3   1 <1>  -0.4300 
 15 N       -2.7470    -3.7270    -0.5510 N.3   1 <1>  -0.8100 
 16 C        2.2520    -3.1090     2.9400 C.3   1 <1>   0.0400 
 17 C       -3.3900    -5.0480    -0.6790 C.3   1 <1>   0.1100 
 18 C       -3.2650    -3.0510     0.6620 C.3   1 <1>   0.1100 
 19 C       -3.2050    -5.8770     0.6060 C.3   1 <1>   0.1200 
 20 C       -3.0780    -3.9390     1.9050 C.3   1 <1>   0.1200 
 21 O       -3.6970    -5.1800     1.7140 O.3   1 <1>  -0.5600 
 22 H       -0.9680    -2.5350    -0.4100 H     1 <1>   0.3700 
 23 H        2.8840     1.9580    -2.6700 H     1 <1>   0.0800 
 24 H        3.4570     2.4310    -1.0920 H     1 <1>   0.0800 
 25 H        1.9100     3.0020    -1.6640 H     1 <1>   0.0800 
 26 H        3.7780     1.2710     0.7710 H     1 <1>   0.0800 
 27 H        3.9260    -0.4530     0.9300 H     1 <1>   0.0800 
 28 H        2.8510     0.4460     1.9830 H     1 <1>   0.0800 
 29 H       -2.8010    -3.5200    -2.6480 H     1 <1>   0.0800 
 30 H       -3.9540    -2.5240    -1.8120 H     1 <1>   0.0800 
 31 H        3.2330    -3.0970     3.3800 H     1 <1>   0.0800 
 32 H        2.0520    -4.0740     2.5070 H     1 <1>   0.0800 
 33 H        1.5100    -2.8740     3.6840 H     1 <1>   0.0800 
 34 H       -2.9520    -5.5820    -1.5050 H     1 <1>   0.0800 
 35 H       -4.4430    -4.9320    -0.8720 H     1 <1>   0.0800 
 36 H       -4.3130    -2.8330     0.5470 H     1 <1>   0.0800 
 37 H       -2.7460    -2.1220     0.8210 H     1 <1>   0.0800 
 38 H       -2.1630    -6.0920     0.7690 H     1 <1>   0.0800 
 39 H       -3.7460    -6.8040     0.5340 H     1 <1>   0.0800 
 40 H       -3.5250    -3.4760     2.7660 H     1 <1>   0.0800 
 41 H       -2.0310    -4.0990     2.1000 H     1 <1>   0.0800 
@<TRIPOS>BOND
  1   1   2  1   
  2   1   3  1   
  3   2   4  1   
  4   2   5  2   
  5   3   6  2   
  6   3   7  1   
  7   4   8  am  
  8   4  22  1   
  9   5   6  1   
 10   5   9  1   
 11   6  10  1   
 12   7  23  1   
 13   7  24  1   
 14   7  25  1   
 15   8  11  2   
 16   8  12  1   
 17   9  13  2   
 18   9  14  1   
 19  10  26  1   
 20  10  27  1   
 21  10  28  1   
 22  12  15  1   
 23  12  29  1   
 24  12  30  1   
 25  14  16  1   
 26  15  17  1   
 27  15  18  1   
 28  16  31  1   
 29  16  32  1   
 30  16  33  1   
 31  17  19  1   
 32  17  34  1   
 33  17  35  1   
 34  18  20  1   
 35  18  36  1   
 36  18  37  1   
 37  19  21  1   
 38  19  38  1   
 39  19  39  1   
 40  20  21  1   
 41  20  40  1   
 42  20  41  1   
@<TRIPOS>SUBSTRUCTURE
  1 ****   4 GROUP 4 **** **** 0

# MOE 2024.06 (io_trps.svl 2023.06)
