@<TRIPOS>MOLECULE
NONAME
35 37 1 0 0 
SMALL
USER_CHARGES


@<TRIPOS>ATOM
  1 O       -0.6700     0.1870     1.3380 O.co2 1 <1>  -0.9000 
  2 C       -1.2710     1.2660     1.3070 C.2   1 <1>   0.9060 
  3 O       -2.0430     1.6100     2.2080 O.co2 1 <1>  -0.9000 
  4 C       -1.1390     2.1090     0.0800 C.3   1 <1>  -0.2050 
  5 C       -0.7800     3.5170     0.4580 C.2   1 <1>   0.5690 
  6 O        0.3780     3.7690     0.6850 O.2   1 <1>  -0.5700 
  7 N       -1.6530     4.5560     0.4630 N.am  1 <1>  -0.7300 
  8 C       -3.0850     4.7290     0.1640 C.3   1 <1>   0.3000 
  9 C       -3.4410     6.1750     0.5660 C.3   1 <1>  -0.1600 
 10 C       -3.3490     4.5670    -1.3450 C.3   1 <1>  -0.1600 
 11 C       -3.9830     3.7690     0.9670 C.3   1 <1>  -0.1600 
 12 C       -4.9210     6.4780     0.2650 C.3   1 <1>  -0.0800 
 13 C       -4.8350     4.8430    -1.6550 C.3   1 <1>  -0.0800 
 14 C       -5.4680     4.0500     0.6630 C.3   1 <1>  -0.0800 
 15 C       -5.1770     6.2870    -1.2420 C.3   1 <1>  -0.1600 
 16 C       -5.8040     5.4990     1.0590 C.3   1 <1>  -0.1600 
 17 C       -5.7130     3.8660    -0.8480 C.3   1 <1>  -0.1600 
 18 H       -2.0480     2.0520    -0.4730 H     1 <1>   0.0800 
 19 H       -0.3520     1.7020    -0.5230 H     1 <1>   0.0800 
 20 H       -1.2200     5.4110     0.7990 H     1 <1>   0.3700 
 21 H       -2.8210     6.8670     0.0250 H     1 <1>   0.0800 
 22 H       -3.2590     6.3090     1.6180 H     1 <1>   0.0800 
 23 H       -3.1090     3.5700    -1.6600 H     1 <1>   0.0800 
 24 H       -2.7290     5.2490    -1.8970 H     1 <1>   0.0800 
 25 H       -3.7900     3.8800     2.0200 H     1 <1>   0.0800 
 26 H       -3.7780     2.7500     0.7080 H     1 <1>   0.0800 
 27 H       -5.1520     7.4900     0.5500 H     1 <1>   0.0800 
 28 H       -5.0160     4.7120    -2.7080 H     1 <1>   0.0800 
 29 H       -6.0830     3.3640     1.2200 H     1 <1>   0.0800 
 30 H       -4.5760     6.9790    -1.8050 H     1 <1>   0.0800 
 31 H       -6.2100     6.4940    -1.4650 H     1 <1>   0.0800 
 32 H       -6.8430     5.6990     0.8620 H     1 <1>   0.0800 
 33 H       -5.6390     5.6310     2.1150 H     1 <1>   0.0800 
 34 H       -5.4840     2.8530    -1.1300 H     1 <1>   0.0800 
 35 H       -6.7510     4.0400    -1.0710 H     1 <1>   0.0800 
@<TRIPOS>BOND
  1   1   2  ar  
  2   2   3  ar  
  3   2   4  1   
  4   4   5  1   
  5   4  18  1   
  6   4  19  1   
  7   5   6  2   
  8   5   7  am  
  9   7   8  1   
 10   7  20  1   
 11   8   9  1   
 12   8  10  1   
 13   8  11  1   
 14   9  12  1   
 15   9  21  1   
 16   9  22  1   
 17  10  13  1   
 18  10  23  1   
 19  10  24  1   
 20  11  14  1   
 21  11  25  1   
 22  11  26  1   
 23  12  15  1   
 24  12  16  1   
 25  12  27  1   
 26  13  15  1   
 27  13  17  1   
 28  13  28  1   
 29  14  16  1   
 30  14  17  1   
 31  14  29  1   
 32  15  30  1   
 33  15  31  1   
 34  16  32  1   
 35  16  33  1   
 36  17  34  1   
 37  17  35  1   
@<TRIPOS>SUBSTRUCTURE
  1 ****   8 GROUP 4 **** **** 0

# MOE 2024.06 (io_trps.svl 2023.06)
