@<TRIPOS>MOLECULE
NONAME
52 54 1 0 0 
SMALL
USER_CHARGES


@<TRIPOS>ATOM
  1 O        2.1110     2.1790    -3.1970 O.2   1 <1>  -0.5700 
  2 C        1.9490     1.8110    -2.0590 C.2   1 <1>   0.5690 
  3 N        1.2610     2.4560    -1.0700 N.am  1 <1>  -0.4770 
  4 C        2.5130     0.5060    -1.5730 C.3   1 <1>  -0.0990 
  5 C        0.5490     3.6710    -1.1420 C.ar  1 <1>   0.1170 
  6 C        1.2950     1.6670     0.1780 C.3   1 <1>   0.1400 
  7 C        1.7540     0.2700    -0.2610 C.3   1 <1>  -0.0190 
  8 C        0.5060     4.5410    -0.0570 C.ar  1 <1>  -0.1500 
  9 C       -0.1430     4.0310    -2.2910 C.ar  1 <1>  -0.1500 
 10 C        2.5800    -0.4520     0.7970 C.2   1 <1>   0.5690 
 11 C       -0.2080     5.7280    -0.1020 C.ar  1 <1>  -0.1440 
 12 C       -0.8570     5.2120    -2.3500 C.ar  1 <1>  -0.1500 
 13 O        3.3690     0.1680     1.4630 O.2   1 <1>  -0.5700 
 14 N        2.4250    -1.7830     1.0120 N.am  1 <1>  -0.5470 
 15 C       -0.9000     6.0670    -1.2600 C.ar  1 <1>  -0.1430 
 16 C       -0.2150     6.6370     1.1190 C.3   1 <1>  -0.0970 
 17 C        1.5940    -2.6970     0.3580 C.ar  1 <1>   0.1170 
 18 C       -1.6990     7.3580    -1.3640 C.3   1 <1>  -0.0970 
 19 C        0.4720    -3.2680     0.9710 C.ar  1 <1>  -0.1430 
 20 C        1.9110    -3.0420    -0.9500 C.ar  1 <1>  -0.1500 
 21 C       -0.3030    -4.1580     0.2390 C.ar  1 <1>  -0.1500 
 22 C        0.0280    -2.9720     2.4130 C.3   1 <1>   0.0630 
 23 C        1.1290    -3.9280    -1.6630 C.ar  1 <1>  -0.1500 
 24 C        0.0160    -4.4860    -1.0660 C.ar  1 <1>  -0.1500 
 25 C       -0.3970    -1.5110     2.6060 C.3   1 <1>  -0.2400 
 26 C        1.0760    -3.3910     3.4510 C.3   1 <1>  -0.2400 
 27 H        3.5670     0.6290    -1.4030 H     1 <1>   0.0800 
 28 H        2.3390    -0.2770    -2.2870 H     1 <1>   0.0800 
 29 H        0.3210     1.6340     0.6360 H     1 <1>   0.0800 
 30 H        2.0000     2.1190     0.8540 H     1 <1>   0.0800 
 31 H        0.8660    -0.2970    -0.4750 H     1 <1>   0.0800 
 32 H        1.0480     4.2880     0.8340 H     1 <1>   0.1500 
 33 H       -0.1220     3.3830    -3.1480 H     1 <1>   0.1500 
 34 H       -1.3810     5.4600    -3.2560 H     1 <1>   0.1500 
 35 H        2.9570    -2.1390     1.8060 H     1 <1>   0.3700 
 36 H        0.3780     6.2220     1.9130 H     1 <1>   0.0800 
 37 H       -1.2200     6.7620     1.4790 H     1 <1>   0.0800 
 38 H        0.1900     7.5990     0.8630 H     1 <1>   0.0800 
 39 H       -1.0500     8.2040    -1.2310 H     1 <1>   0.0800 
 40 H       -2.4650     7.3800    -0.6100 H     1 <1>   0.0800 
 41 H       -2.1710     7.4430    -2.3260 H     1 <1>   0.0800 
 42 H        2.7840    -2.6180    -1.4130 H     1 <1>   0.1500 
 43 H       -1.1740    -4.6120     0.6790 H     1 <1>   0.1500 
 44 H       -0.8460    -3.5670     2.6140 H     1 <1>   0.0800 
 45 H        1.3840    -4.1860    -2.6770 H     1 <1>   0.1500 
 46 H       -0.6000    -5.1790    -1.6140 H     1 <1>   0.1500 
 47 H        0.4470    -0.8490     2.5650 H     1 <1>   0.0800 
 48 H       -0.8710    -1.3910     3.5630 H     1 <1>   0.0800 
 49 H       -1.0980    -1.2290     1.8410 H     1 <1>   0.0800 
 50 H        1.9350    -2.7500     3.4270 H     1 <1>   0.0800 
 51 H        1.3910    -4.4030     3.2650 H     1 <1>   0.0800 
 52 H        0.6520    -3.3450     4.4380 H     1 <1>   0.0800 
@<TRIPOS>BOND
  1   1   2  2   
  2   2   3  am  
  3   2   4  1   
  4   3   5  1   
  5   3   6  1   
  6   4   7  1   
  7   4  27  1   
  8   4  28  1   
  9   5   8  ar  
 10   5   9  ar  
 11   6   7  1   
 12   6  29  1   
 13   6  30  1   
 14   7  10  1   
 15   7  31  1   
 16   8  11  ar  
 17   8  32  1   
 18   9  12  ar  
 19   9  33  1   
 20  10  13  2   
 21  10  14  am  
 22  11  15  ar  
 23  11  16  1   
 24  12  15  ar  
 25  12  34  1   
 26  14  17  1   
 27  14  35  1   
 28  15  18  1   
 29  16  36  1   
 30  16  37  1   
 31  16  38  1   
 32  17  19  ar  
 33  17  20  ar  
 34  18  39  1   
 35  18  40  1   
 36  18  41  1   
 37  19  21  ar  
 38  19  22  1   
 39  20  23  ar  
 40  20  42  1   
 41  21  24  ar  
 42  21  43  1   
 43  22  25  1   
 44  22  26  1   
 45  22  44  1   
 46  23  24  ar  
 47  23  45  1   
 48  24  46  1   
 49  25  47  1   
 50  25  48  1   
 51  25  49  1   
 52  26  50  1   
 53  26  51  1   
 54  26  52  1   
@<TRIPOS>SUBSTRUCTURE
  1 ****   7 GROUP 4 **** **** 0

# MOE 2024.06 (io_trps.svl 2023.06)
