@<TRIPOS>MOLECULE
NONAME
40 41 1 0 0 
SMALL
USER_CHARGES


@<TRIPOS>ATOM
  1 S        0.1300    -0.3770     0.2070 S.o2  1 <1>   1.4470 
  2 O        0.5140    -1.0630     1.4200 O.2   1 <1>  -0.6500 
  3 O        0.6830    -0.8120    -1.0560 O.2   1 <1>  -0.6500 
  4 N        0.6580     1.1890     0.4980 N.am  1 <1>  -0.9140 
  5 C       -1.6830    -0.2520     0.0800 C.ar  1 <1>  -0.0090 
  6 C        2.0360     1.4110     0.1520 C.3   1 <1>   0.2760 
  7 C       -2.5200    -1.3640     0.2120 C.ar  1 <1>  -0.1430 
  8 C       -2.2890     0.9750    -0.1790 C.ar  1 <1>  -0.1500 
  9 C        2.6250     2.3340     1.2120 C.3   1 <1>  -0.2400 
 10 C        2.0930     2.0730    -1.2220 C.3   1 <1>  -0.2400 
 11 C       -3.8960    -1.2280     0.1110 C.ar  1 <1>  -0.1500 
 12 C       -1.9480    -2.7540     0.4710 C.3   1 <1>  -0.0970 
 13 C       -3.6610     1.1030    -0.2820 C.ar  1 <1>  -0.1500 
 14 C       -4.4930     0.0030    -0.1370 C.ar  1 <1>   0.1170 
 15 N       -5.8910     0.1260    -0.2500 N.am  1 <1>  -0.4770 
 16 C       -6.6800     1.1680     0.1490 C.2   1 <1>   0.5690 
 17 C       -6.6990    -0.9180    -0.9130 C.3   1 <1>   0.1400 
 18 O       -6.3260     2.1670     0.7260 O.2   1 <1>  -0.5700 
 19 C       -8.1210     0.9390    -0.2200 C.3   1 <1>  -0.0990 
 20 C       -8.0620    -0.2650    -1.1670 C.3   1 <1>  -0.1600 
 21 H        0.6190     1.2370     1.5130 H     1 <1>   0.4200 
 22 H        2.5900     0.4830     0.1440 H     1 <1>   0.0800 
 23 H       -1.6820     1.8550    -0.3060 H     1 <1>   0.1500 
 24 H        2.0810     3.2610     1.2540 H     1 <1>   0.0800 
 25 H        3.6500     2.5510     0.9740 H     1 <1>   0.0800 
 26 H        2.6020     1.8590     2.1770 H     1 <1>   0.0800 
 27 H        1.5380     2.9950    -1.2200 H     1 <1>   0.0800 
 28 H        1.6860     1.4190    -1.9710 H     1 <1>   0.0800 
 29 H        3.1130     2.2850    -1.4850 H     1 <1>   0.0800 
 30 H       -4.5210    -2.0920     0.2330 H     1 <1>   0.1500 
 31 H       -1.1840    -2.9880    -0.2490 H     1 <1>   0.0800 
 32 H       -2.7100    -3.5080     0.4000 H     1 <1>   0.0800 
 33 H       -1.5220    -2.8010     1.4590 H     1 <1>   0.0800 
 34 H       -4.0900     2.0700    -0.4780 H     1 <1>   0.1500 
 35 H       -6.8040    -1.7590    -0.2490 H     1 <1>   0.0800 
 36 H       -6.2340    -1.2310    -1.8320 H     1 <1>   0.0800 
 37 H       -8.5350     1.8080    -0.6970 H     1 <1>   0.0800 
 38 H       -8.6750     0.7080     0.6710 H     1 <1>   0.0800 
 39 H       -8.8720    -0.9540    -1.0020 H     1 <1>   0.0800 
 40 H       -8.1000     0.0760    -2.1880 H     1 <1>   0.0800 
@<TRIPOS>BOND
  1   1   2  2   
  2   1   3  2   
  3   1   4  am  
  4   1   5  1   
  5   4   6  1   
  6   4  21  1   
  7   5   7  ar  
  8   5   8  ar  
  9   6   9  1   
 10   6  10  1   
 11   6  22  1   
 12   7  11  ar  
 13   7  12  1   
 14   8  13  ar  
 15   8  23  1   
 16   9  24  1   
 17   9  25  1   
 18   9  26  1   
 19  10  27  1   
 20  10  28  1   
 21  10  29  1   
 22  11  14  ar  
 23  11  30  1   
 24  12  31  1   
 25  12  32  1   
 26  12  33  1   
 27  13  14  ar  
 28  13  34  1   
 29  14  15  1   
 30  15  16  am  
 31  15  17  1   
 32  16  18  2   
 33  16  19  1   
 34  17  20  1   
 35  17  35  1   
 36  17  36  1   
 37  19  20  1   
 38  19  37  1   
 39  19  38  1   
 40  20  39  1   
 41  20  40  1   
@<TRIPOS>SUBSTRUCTURE
  1 ****   8 GROUP 4 **** **** 0

# MOE 2024.06 (io_trps.svl 2023.06)
