@<TRIPOS>MOLECULE
NONAME
37 39 1 0 0 
SMALL
USER_CHARGES


@<TRIPOS>ATOM
  1 F       -0.8090    -0.2600     0.2200 F     1 <1>  -0.3400 
  2 C       -1.8520     0.4920    -0.1220 C.3   1 <1>   1.0200 
  3 F       -2.9180    -0.2060     0.2500 F     1 <1>  -0.3400 
  4 F       -1.8520     0.5080    -1.4510 F     1 <1>  -0.3400 
  5 C       -1.7540     1.8810     0.5160 C.3   1 <1>   0.1760 
  6 N       -2.8490     2.7360     0.0230 N.pl3 1 <1>   0.3140 
  7 C       -0.3510     2.5430     0.3160 C.3   1 <1>  -0.1600 
  8 N       -4.1700     2.5100     0.2240 N.2   1 <1>  -0.7070 
  9 C       -2.6280     3.9930    -0.4020 C.2   1 <1>  -0.0680 
 10 C       -0.3600     4.0820     0.3980 C.3   1 <1>   0.4330 
 11 C       -4.7370     3.6310    -0.1140 C.2   1 <1>   0.1390 
 12 N       -1.3610     4.5120    -0.5920 N.pl3 1 <1>  -0.8530 
 13 C       -3.8290     4.6190    -0.4980 C.2   1 <1>  -0.2330 
 14 C        0.9440     4.8750     0.1790 C.ar  1 <1>  -0.1430 
 15 C       -4.1410     5.9810    -0.8280 C.2   1 <1>   1.0330 
 16 C        2.2300     4.3370     0.0310 C.ar  1 <1>   0.0830 
 17 C        0.8070     6.2600     0.1520 C.ar  1 <1>  -0.1500 
 18 O       -5.3250     6.3350    -0.9840 O.co2 1 <1>  -0.9000 
 19 O       -3.2340     6.8360    -0.9140 O.co2 1 <1>  -0.9000 
 20 O        2.4070     2.9910     0.0740 O.3   1 <1>  -0.3630 
 21 C        3.3220     5.1880    -0.1460 C.ar  1 <1>  -0.1500 
 22 C        1.8930     7.0960    -0.0270 C.ar  1 <1>  -0.1500 
 23 C        3.5960     2.3700    -0.3650 C.3   1 <1>   0.0400 
 24 C        3.1550     6.5590    -0.1770 C.ar  1 <1>  -0.1500 
 25 H       -1.9200     1.7640     1.5690 H     1 <1>   0.0800 
 26 H        0.0380     2.2740    -0.6510 H     1 <1>   0.0800 
 27 H        0.3150     2.1490     1.0610 H     1 <1>   0.0800 
 28 H       -0.7280     4.3570     1.3720 H     1 <1>   0.0800 
 29 H       -5.8000     3.8080    -0.0880 H     1 <1>   0.1500 
 30 H       -1.4020     5.5400    -0.7370 H     1 <1>   0.4000 
 31 H       -0.1670     6.7110     0.2680 H     1 <1>   0.1500 
 32 H        4.3170     4.8050    -0.2570 H     1 <1>   0.1500 
 33 H        1.7480     8.1620    -0.0510 H     1 <1>   0.1500 
 34 H        3.4360     1.3070    -0.3670 H     1 <1>   0.0800 
 35 H        4.3910     2.6180     0.3140 H     1 <1>   0.0800 
 36 H        3.8180     2.7070    -1.3630 H     1 <1>   0.0800 
 37 H        4.0030     7.2070    -0.3160 H     1 <1>   0.1500 
@<TRIPOS>BOND
  1   1   2  1   
  2   2   3  1   
  3   2   4  1   
  4   2   5  1   
  5   5   6  1   
  6   5   7  1   
  7   5  25  1   
  8   6   8  1   
  9   6   9  1   
 10   7  10  1   
 11   7  26  1   
 12   7  27  1   
 13   8  11  2   
 14   9  12  1   
 15   9  13  2   
 16  10  12  1   
 17  10  14  1   
 18  10  28  1   
 19  11  13  1   
 20  11  29  1   
 21  12  30  1   
 22  13  15  1   
 23  14  16  ar  
 24  14  17  ar  
 25  15  18  ar  
 26  15  19  ar  
 27  16  20  1   
 28  16  21  ar  
 29  17  22  ar  
 30  17  31  1   
 31  20  23  1   
 32  21  24  ar  
 33  21  32  1   
 34  22  24  ar  
 35  22  33  1   
 36  23  34  1   
 37  23  35  1   
 38  23  36  1   
 39  24  37  1   
@<TRIPOS>SUBSTRUCTURE
  1 ****  10 GROUP 4 **** **** 0

# MOE 2024.06 (io_trps.svl 2023.06)
