@<TRIPOS>MOLECULE
NONAME
45 49 1 0 0 
SMALL
USER_CHARGES


@<TRIPOS>ATOM
  1 CL       0.1140     0.1330    -0.2010 Cl    1 <1>  -0.1770 
  2 C       -0.8960     1.5560    -0.2400 C.ar  1 <1>   0.1770 
  3 C       -0.4530     2.6830    -0.9080 C.ar  1 <1>  -0.1500 
  4 C       -2.1230     1.5330     0.4000 C.ar  1 <1>  -0.1500 
  5 C       -1.2580     3.8100    -0.9400 C.ar  1 <1>  -0.1500 
  6 C       -2.9240     2.6620     0.3680 C.ar  1 <1>  -0.1500 
  7 C       -2.4950     3.8010    -0.3100 C.ar  1 <1>   0.0830 
  8 O       -3.2450     4.9300    -0.3680 O.3   1 <1>  -0.1650 
  9 C       -4.6020     4.8810    -0.4130 C.ar  1 <1>   0.0830 
 10 C       -5.3210     5.7920     0.3430 C.ar  1 <1>  -0.1500 
 11 C       -5.2750     3.9580    -1.2030 C.ar  1 <1>  -0.1500 
 12 C       -6.7040     5.7680     0.3260 C.ar  1 <1>  -0.1500 
 13 C       -6.6580     3.9380    -1.2150 C.ar  1 <1>  -0.1500 
 14 C       -7.3920     4.8380    -0.4470 C.ar  1 <1>   0.1170 
 15 N       -8.7960     4.8540    -0.4370 N.am  1 <1>  -0.5470 
 16 C       -9.6940     3.8410    -0.6470 C.2   1 <1>   0.5690 
 17 O       -9.3550     2.7010    -0.8420 O.2   1 <1>  -0.5700 
 18 C      -11.1950     4.1270    -0.6130 C.3   1 <1>  -0.0190 
 19 C      -11.6130     5.5750    -0.9890 C.3   1 <1>  -0.0190 
 20 C      -11.7980     3.9660     0.8040 C.3   1 <1>  -0.0800 
 21 C      -12.8340     5.5370    -1.8720 C.2   1 <1>   0.6590 
 22 C      -12.2220     6.1060     0.3190 C.3   1 <1>  -0.0800 
 23 C      -13.3390     4.0130     0.7010 C.3   1 <1>  -0.1600 
 24 C      -11.5240     5.3260     1.4210 C.3   1 <1>  -0.1600 
 25 O      -12.8270     5.5840    -3.0700 O.2   1 <1>  -0.5700 
 26 O      -13.9230     5.4540    -1.1350 O.3   1 <1>  -0.4300 
 27 C      -13.6160     5.4590     0.2380 C.3   1 <1>   0.2000 
 28 H        0.5070     2.6750    -1.3940 H     1 <1>   0.1500 
 29 H       -2.4400     0.6450     0.9160 H     1 <1>   0.1500 
 30 H       -0.9320     4.6980    -1.4530 H     1 <1>   0.1500 
 31 H       -3.8750     2.6560     0.8720 H     1 <1>   0.1500 
 32 H       -4.7930     6.5110     0.9440 H     1 <1>   0.1500 
 33 H       -4.7240     3.2590    -1.8070 H     1 <1>   0.1500 
 34 H       -7.2490     6.4760     0.9220 H     1 <1>   0.1500 
 35 H       -7.1670     3.2190    -1.8310 H     1 <1>   0.1500 
 36 H       -9.2020     5.7500    -0.1800 H     1 <1>   0.3700 
 37 H      -11.6550     3.4180    -1.2820 H     1 <1>   0.0800 
 38 H      -10.8400     6.1900    -1.4100 H     1 <1>   0.0800 
 39 H      -11.4180     3.1210     1.3540 H     1 <1>   0.0800 
 40 H      -12.2420     7.1770     0.4250 H     1 <1>   0.0800 
 41 H      -13.7700     3.8560     1.6750 H     1 <1>   0.0800 
 42 H      -13.7360     3.2780     0.0210 H     1 <1>   0.0800 
 43 H      -10.4780     5.5570     1.5130 H     1 <1>   0.0800 
 44 H      -12.0040     5.4490     2.3790 H     1 <1>   0.0800 
 45 H      -14.3880     5.9600     0.7970 H     1 <1>   0.0800 
@<TRIPOS>BOND
  1   1   2  1   
  2   2   3  ar  
  3   2   4  ar  
  4   3   5  ar  
  5   3  28  1   
  6   4   6  ar  
  7   4  29  1   
  8   5   7  ar  
  9   5  30  1   
 10   6   7  ar  
 11   6  31  1   
 12   7   8  1   
 13   8   9  1   
 14   9  10  ar  
 15   9  11  ar  
 16  10  12  ar  
 17  10  32  1   
 18  11  13  ar  
 19  11  33  1   
 20  12  14  ar  
 21  12  34  1   
 22  13  14  ar  
 23  13  35  1   
 24  14  15  1   
 25  15  16  am  
 26  15  36  1   
 27  16  17  2   
 28  16  18  1   
 29  18  19  1   
 30  18  20  1   
 31  18  37  1   
 32  19  21  1   
 33  19  22  1   
 34  19  38  1   
 35  20  23  1   
 36  20  24  1   
 37  20  39  1   
 38  21  25  2   
 39  21  26  1   
 40  22  24  1   
 41  22  27  1   
 42  22  40  1   
 43  23  27  1   
 44  23  41  1   
 45  23  42  1   
 46  24  43  1   
 47  24  44  1   
 48  26  27  1   
 49  27  45  1   
@<TRIPOS>SUBSTRUCTURE
  1 ****  14 GROUP 4 **** **** 0

# MOE 2024.06 (io_trps.svl 2023.06)
