@<TRIPOS>MOLECULE
NONAME
52 54 1 0 0 
SMALL
USER_CHARGES


@<TRIPOS>ATOM
  1 S       -0.5930    -0.1830     0.5420 S.3   1 <1>  -0.0800 
  2 C        1.0390     0.4090     0.2520 C.2   1 <1>   0.1040 
  3 C       -1.2850     1.3600     0.0920 C.2   1 <1>  -0.1400 
  4 N        2.1320    -0.4350     0.4090 N.am  1 <1>  -0.4940 
  5 C        1.0160     1.7230    -0.1300 C.2   1 <1>  -0.0860 
  6 C       -0.3320     2.2400    -0.2460 C.2   1 <1>  -0.1810 
  7 C       -2.7870     1.5390     0.0950 C.3   1 <1>   0.0200 
  8 C        2.2700    -1.6830     0.9580 C.2   1 <1>   0.5690 
  9 C        2.2100     2.4860    -0.3660 C.2   1 <1>   0.7160 
 10 C       -0.7160     3.6330    -0.7360 C.3   1 <1>   0.0210 
 11 C       -3.1200     3.0300    -0.0930 C.3   1 <1>  -0.1600 
 12 O        1.3800    -2.2750     1.5180 O.2   1 <1>  -0.5700 
 13 C        3.6410    -2.3270     0.8850 C.3   1 <1>  -0.0990 
 14 O        3.1940     1.9610    -0.8560 O.2   1 <1>  -0.5700 
 15 N        2.2540     3.8000     0.0280 N.am  1 <1>  -0.5470 
 16 C       -2.2030     3.6930    -1.1410 C.3   1 <1>  -0.1600 
 17 C        4.1780    -2.4820    -0.5520 C.3   1 <1>  -0.2660 
 18 C        3.2320     4.7930    -0.1380 C.ar  1 <1>   0.1170 
 19 C        5.5500    -3.1070    -0.5550 C.2   1 <1>   0.9060 
 20 C        3.2500     5.8660     0.7460 C.ar  1 <1>  -0.1500 
 21 C        4.1760     4.7630    -1.1600 C.ar  1 <1>  -0.1500 
 22 O        5.6910    -4.2310    -1.0440 O.co2 1 <1>  -0.9000 
 23 O        6.4790    -2.4670    -0.0570 O.co2 1 <1>  -0.9000 
 24 C        4.1820     6.8800     0.6220 C.ar  1 <1>  -0.1500 
 25 C        5.1100     5.7740    -1.2890 C.ar  1 <1>  -0.1500 
 26 C        5.1230     6.8380    -0.4030 C.ar  1 <1>   0.0820 
 27 O        6.0750     7.7870    -0.6010 O.3   1 <1>  -0.3630 
 28 C        6.1960     8.8890     0.2670 C.3   1 <1>   0.1200 
 29 C        7.3610     9.7450    -0.2170 C.3   1 <1>  -0.2400 
 30 H        3.0060    -0.0640     0.0200 H     1 <1>   0.3700 
 31 H       -3.2020     1.1810     1.0210 H     1 <1>   0.0800 
 32 H       -3.2040     0.9620    -0.7120 H     1 <1>   0.0800 
 33 H       -0.1140     3.9040    -1.5860 H     1 <1>   0.0800 
 34 H       -0.5390     4.3450     0.0500 H     1 <1>   0.0800 
 35 H       -2.9930     3.5350     0.8490 H     1 <1>   0.0800 
 36 H       -4.1500     3.1320    -0.3860 H     1 <1>   0.0800 
 37 H        3.5930    -3.3000     1.3420 H     1 <1>   0.0800 
 38 H        4.3310    -1.7360     1.4600 H     1 <1>   0.0800 
 39 H        1.4710     4.0560     0.6240 H     1 <1>   0.3700 
 40 H       -2.3280     3.1840    -2.0820 H     1 <1>   0.0800 
 41 H       -2.4940     4.7200    -1.2820 H     1 <1>   0.0800 
 42 H        4.2610    -1.5290    -1.0360 H     1 <1>   0.0800 
 43 H        3.5200    -3.1060    -1.1270 H     1 <1>   0.0800 
 44 H        2.5310     5.9090     1.5440 H     1 <1>   0.1500 
 45 H        4.1870     3.9510    -1.8640 H     1 <1>   0.1500 
 46 H        4.1630     7.6890     1.3270 H     1 <1>   0.1500 
 47 H        5.8390     5.7430    -2.0790 H     1 <1>   0.1500 
 48 H        6.3820     8.5210     1.2610 H     1 <1>   0.0800 
 49 H        5.2760     9.4480     0.2390 H     1 <1>   0.0800 
 50 H        8.2710     9.1730    -0.2020 H     1 <1>   0.0800 
 51 H        7.4800    10.5970     0.4270 H     1 <1>   0.0800 
 52 H        7.1730    10.0930    -1.2170 H     1 <1>   0.0800 
@<TRIPOS>BOND
  1   1   2  1   
  2   1   3  1   
  3   2   4  1   
  4   2   5  2   
  5   3   6  2   
  6   3   7  1   
  7   4   8  am  
  8   4  30  1   
  9   5   6  1   
 10   5   9  1   
 11   6  10  1   
 12   7  11  1   
 13   7  31  1   
 14   7  32  1   
 15   8  12  2   
 16   8  13  1   
 17   9  14  2   
 18   9  15  am  
 19  10  16  1   
 20  10  33  1   
 21  10  34  1   
 22  11  16  1   
 23  11  35  1   
 24  11  36  1   
 25  13  17  1   
 26  13  37  1   
 27  13  38  1   
 28  15  18  1   
 29  15  39  1   
 30  16  40  1   
 31  16  41  1   
 32  17  19  1   
 33  17  42  1   
 34  17  43  1   
 35  18  20  ar  
 36  18  21  ar  
 37  19  22  ar  
 38  19  23  ar  
 39  20  24  ar  
 40  20  44  1   
 41  21  25  ar  
 42  21  45  1   
 43  24  26  ar  
 44  24  46  1   
 45  25  26  ar  
 46  25  47  1   
 47  26  27  1   
 48  27  28  1   
 49  28  29  1   
 50  28  48  1   
 51  28  49  1   
 52  29  50  1   
 53  29  51  1   
 54  29  52  1   
@<TRIPOS>SUBSTRUCTURE
  1 ****   9 GROUP 4 **** **** 0

# MOE 2024.06 (io_trps.svl 2023.06)
