@<TRIPOS>MOLECULE
NONAME
37 38 1 0 0 
SMALL
USER_CHARGES


@<TRIPOS>ATOM
  1 CL       0.0170    -0.4200     0.1760 Cl    1 <1>  -0.1770 
  2 C       -1.7210    -0.1700     0.1430 C.ar  1 <1>   0.1770 
  3 C       -2.5980    -1.2470     0.4190 C.ar  1 <1>  -0.1710 
  4 C       -2.1840     1.0810    -0.1560 C.ar  1 <1>  -0.1500 
  5 O       -2.1490    -2.3890     0.6810 O.3   1 <1>  -0.8290 
  6 C       -4.0000    -1.0270     0.3810 C.ar  1 <1>   0.0280 
  7 C       -3.5580     1.2850    -0.1790 C.ar  1 <1>   0.1770 
  8 C       -4.4450     0.2700     0.0840 C.ar  1 <1>  -0.1500 
  9 C       -4.8820    -2.1080     0.6630 C.2   1 <1>  -0.1780 
 10 CL      -4.1580     2.8900    -0.5480 Cl    1 <1>  -0.1770 
 11 C       -6.1170    -2.4190     0.1600 C.2   1 <1>   0.0790 
 12 C       -6.7270    -1.6520    -0.8740 C.1   1 <1>   0.4920 
 13 C       -6.8990    -3.5420     0.5950 C.2   1 <1>   0.6160 
 14 N       -7.2830    -1.0850    -1.6960 N.1   1 <1>  -0.5570 
 15 O       -6.6940    -4.0690     1.6760 O.2   1 <1>  -0.5700 
 16 N       -7.9190    -4.0580    -0.1710 N.am  1 <1>  -0.7300 
 17 C       -8.7660    -5.2110     0.1800 C.3   1 <1>   0.2200 
 18 C       -8.5640    -6.3070    -0.8710 C.3   1 <1>  -0.1600 
 19 C      -10.2260    -4.7510     0.2310 C.3   1 <1>  -0.1600 
 20 C       -9.5070    -7.4940    -0.6250 C.3   1 <1>  -0.1600 
 21 C      -11.1730    -5.9340     0.4790 C.3   1 <1>  -0.1600 
 22 C      -10.9710    -7.0360    -0.5700 C.3   1 <1>  -0.1600 
 23 H       -1.5100     1.8870    -0.3640 H     1 <1>   0.1500 
 24 H       -5.4920     0.4930     0.0710 H     1 <1>   0.1500 
 25 H       -4.4570    -2.8000     1.3730 H     1 <1>   0.1500 
 26 H       -8.1240    -3.6430    -1.0810 H     1 <1>   0.3700 
 27 H       -8.4850    -5.5970     1.1470 H     1 <1>   0.0800 
 28 H       -8.7530    -5.9080    -1.8520 H     1 <1>   0.0800 
 29 H       -7.5440    -6.6500    -0.8330 H     1 <1>   0.0800 
 30 H      -10.3420    -4.0310     1.0210 H     1 <1>   0.0800 
 31 H      -10.4890    -4.2820    -0.7010 H     1 <1>   0.0800 
 32 H       -9.3850    -8.2220    -1.4080 H     1 <1>   0.0800 
 33 H       -9.2470    -7.9670     0.3080 H     1 <1>   0.0800 
 34 H      -10.9870    -6.3380     1.4600 H     1 <1>   0.0800 
 35 H      -12.1930    -5.5920     0.4520 H     1 <1>   0.0800 
 36 H      -11.6030    -7.8760    -0.3360 H     1 <1>   0.0800 
 37 H      -11.2650    -6.6650    -1.5380 H     1 <1>   0.0800 
@<TRIPOS>BOND
  1   1   2  1   
  2   2   3  ar  
  3   2   4  ar  
  4   3   5  1   
  5   3   6  ar  
  6   4   7  ar  
  7   4  23  1   
  8   6   8  ar  
  9   6   9  1   
 10   7   8  ar  
 11   7  10  1   
 12   8  24  1   
 13   9  11  2   
 14   9  25  1   
 15  11  12  1   
 16  11  13  1   
 17  12  14  3   
 18  13  15  2   
 19  13  16  am  
 20  16  17  1   
 21  16  26  1   
 22  17  18  1   
 23  17  19  1   
 24  17  27  1   
 25  18  20  1   
 26  18  28  1   
 27  18  29  1   
 28  19  21  1   
 29  19  30  1   
 30  19  31  1   
 31  20  22  1   
 32  20  32  1   
 33  20  33  1   
 34  21  22  1   
 35  21  34  1   
 36  21  35  1   
 37  22  36  1   
 38  22  37  1   
@<TRIPOS>SUBSTRUCTURE
  1 ****  11 GROUP 4 **** **** 0

# MOE 2024.06 (io_trps.svl 2023.06)
