@<TRIPOS>MOLECULE
NONAME
37 39 1 0 0 
SMALL
USER_CHARGES


@<TRIPOS>ATOM
  1 O       -0.8470    -0.2290     0.8050 O.2   1 <1>  -0.5700 
  2 C       -1.8990    -0.7560     0.5370 C.2   1 <1>   0.5690 
  3 N       -3.0630    -0.0560     0.3180 N.am  1 <1>  -0.4690 
  4 C       -1.9450    -2.2650     0.4480 C.3   1 <1>  -0.0990 
  5 C       -4.2760    -0.6900    -0.0640 C.2   1 <1>   0.0810 
  6 C       -3.0230     1.4340     0.4540 C.3   1 <1>   0.1400 
  7 C       -2.9190    -2.7290    -0.6400 C.3   1 <1>  -0.0220 
  8 C       -5.4870     0.1130     0.0720 C.ar  1 <1>   0.0280 
  9 C       -4.2340    -1.9550    -0.5680 C.2   1 <1>  -0.0730 
 10 C       -4.0720     2.0990    -0.4410 C.3   1 <1>  -0.0160 
 11 C       -5.4270     1.4870    -0.1460 C.ar  1 <1>  -0.1440 
 12 C       -6.7260    -0.4200     0.4270 C.ar  1 <1>  -0.1500 
 13 C       -5.3400    -2.6770    -1.1100 C.1   1 <1>   0.4920 
 14 C       -6.5610     2.2760    -0.0690 C.ar  1 <1>  -0.1500 
 15 C       -7.8800     0.3510     0.4820 C.ar  1 <1>   0.0830 
 16 N       -6.2260    -3.2710    -1.5150 N.1   1 <1>  -0.5570 
 17 C       -7.7960     1.7320     0.2390 C.ar  1 <1>   0.0830 
 18 O       -9.0670    -0.2530     0.7650 O.3   1 <1>  -0.3630 
 19 O       -8.8180     2.6340     0.2740 O.3   1 <1>  -0.3630 
 20 C       -9.3610    -1.5030     0.1730 C.3   1 <1>   0.0400 
 21 C      -10.0990     2.3290     0.7750 C.3   1 <1>   0.0400 
 22 H       -2.2630    -2.6400     1.4040 H     1 <1>   0.0800 
 23 H       -0.9590    -2.6450     0.2480 H     1 <1>   0.0800 
 24 H       -2.0480     1.8050     0.1910 H     1 <1>   0.0800 
 25 H       -3.2150     1.6870     1.4820 H     1 <1>   0.0800 
 26 H       -3.0920    -3.7860    -0.5190 H     1 <1>   0.0800 
 27 H       -2.4790    -2.5730    -1.6100 H     1 <1>   0.0800 
 28 H       -3.8170     1.9460    -1.4750 H     1 <1>   0.0800 
 29 H       -4.0830     3.1570    -0.2500 H     1 <1>   0.0800 
 30 H       -6.7900    -1.4590     0.6800 H     1 <1>   0.1500 
 31 H       -6.5020     3.3350    -0.2450 H     1 <1>   0.1500 
 32 H       -9.0610    -1.4840    -0.8610 H     1 <1>   0.0800 
 33 H       -8.8410    -2.2790     0.7050 H     1 <1>   0.0800 
 34 H      -10.4220    -1.6660     0.2430 H     1 <1>   0.0800 
 35 H       -9.9990     1.9170     1.7630 H     1 <1>   0.0800 
 36 H      -10.6690     3.2390     0.8120 H     1 <1>   0.0800 
 37 H      -10.5740     1.6280     0.1120 H     1 <1>   0.0800 
@<TRIPOS>BOND
  1   1   2  2   
  2   2   3  am  
  3   2   4  1   
  4   3   5  1   
  5   3   6  1   
  6   4   7  1   
  7   4  22  1   
  8   4  23  1   
  9   5   8  1   
 10   5   9  2   
 11   6  10  1   
 12   6  24  1   
 13   6  25  1   
 14   7   9  1   
 15   7  26  1   
 16   7  27  1   
 17   8  11  ar  
 18   8  12  ar  
 19   9  13  1   
 20  10  11  1   
 21  10  28  1   
 22  10  29  1   
 23  11  14  ar  
 24  12  15  ar  
 25  12  30  1   
 26  13  16  3   
 27  14  17  ar  
 28  14  31  1   
 29  15  17  ar  
 30  15  18  1   
 31  17  19  1   
 32  18  20  1   
 33  19  21  1   
 34  20  32  1   
 35  20  33  1   
 36  20  34  1   
 37  21  35  1   
 38  21  36  1   
 39  21  37  1   
@<TRIPOS>SUBSTRUCTURE
  1 ****   8 GROUP 4 **** **** 0

# MOE 2024.06 (io_trps.svl 2023.06)
