@<TRIPOS>MOLECULE
NONAME
46 47 1 0 0 
SMALL
USER_CHARGES


@<TRIPOS>ATOM
  1 N       -0.3730    -0.1050     0.0440 N.4   1 <1>  -0.9590 
  2 C       -1.5990     0.5870     0.5270 C.3   1 <1>   0.3430 
  3 C       -0.3350    -1.5360     0.4600 C.3   1 <1>   0.3430 
  4 C        0.8390     0.6310     0.5110 C.3   1 <1>   0.3430 
  5 C       -2.8480    -0.1170    -0.0050 C.3   1 <1>  -0.1600 
  6 C       -1.5660    -2.2730    -0.0720 C.3   1 <1>  -0.1600 
  7 C        2.0500     0.2040    -0.3100 C.3   1 <1>  -0.2400 
  8 C       -2.8780    -1.6080     0.3750 C.3   1 <1>   0.4230 
  9 N       -4.0640    -2.2970    -0.2500 N.4   1 <1>  -0.9590 
 10 C       -5.3790    -1.6750     0.1540 C.3   1 <1>   0.3430 
 11 C       -4.1060    -3.7740     0.0530 C.3   1 <1>   0.2630 
 12 C       -6.5670    -2.1890    -0.6650 C.3   1 <1>  -0.0170 
 13 C       -7.7670    -1.3250    -0.3360 C.ar  1 <1>  -0.1430 
 14 C       -8.5350    -1.5960     0.7870 C.ar  1 <1>  -0.1500 
 15 C       -8.1000    -0.2490    -1.1450 C.ar  1 <1>  -0.1500 
 16 C       -9.6170    -0.7940     1.1030 C.ar  1 <1>  -0.1500 
 17 C       -9.1830     0.5530    -0.8290 C.ar  1 <1>  -0.1500 
 18 C       -9.9410     0.2820     0.2960 C.ar  1 <1>  -0.1500 
 19 H       -0.3480    -0.0570    -0.9850 H     1 <1>   0.4500 
 20 H       -1.5960     1.6130     0.1910 H     1 <1>   0.0800 
 21 H       -1.6130     0.5910     1.6060 H     1 <1>   0.0800 
 22 H       -0.3070    -1.6010     1.5370 H     1 <1>   0.0800 
 23 H        0.5560    -2.0090     0.0760 H     1 <1>   0.0800 
 24 H        1.0160     0.4440     1.5590 H     1 <1>   0.0800 
 25 H        0.6940     1.6930     0.3810 H     1 <1>   0.0800 
 26 H       -2.8860     0.0010    -1.0740 H     1 <1>   0.0800 
 27 H       -3.6900     0.3970     0.4210 H     1 <1>   0.0800 
 28 H       -1.5080    -3.2770     0.3050 H     1 <1>   0.0800 
 29 H       -1.5090    -2.3120    -1.1450 H     1 <1>   0.0800 
 30 H        2.3050    -0.8260    -0.1400 H     1 <1>   0.0800 
 31 H        2.8980     0.7970    -0.0150 H     1 <1>   0.0800 
 32 H        1.8850     0.3710    -1.3590 H     1 <1>   0.0800 
 33 H       -2.9550    -1.6870     1.4490 H     1 <1>   0.0800 
 34 H       -3.9890    -2.1940    -1.2730 H     1 <1>   0.4500 
 35 H       -5.3410    -0.6090     0.0070 H     1 <1>   0.0800 
 36 H       -5.5700    -1.8520     1.2000 H     1 <1>   0.0800 
 37 H       -4.1780    -3.9390     1.1160 H     1 <1>   0.0800 
 38 H       -3.2220    -4.2670    -0.3160 H     1 <1>   0.0800 
 39 H       -4.9570    -4.2350    -0.4220 H     1 <1>   0.0800 
 40 H       -6.7970    -3.2100    -0.4190 H     1 <1>   0.0800 
 41 H       -6.3580    -2.1220    -1.7180 H     1 <1>   0.0800 
 42 H       -8.3070    -2.4310     1.4270 H     1 <1>   0.1500 
 43 H       -7.5310    -0.0220    -2.0300 H     1 <1>   0.1500 
 44 H      -10.2120    -1.0060     1.9750 H     1 <1>   0.1500 
 45 H       -9.4420     1.3870    -1.4590 H     1 <1>   0.1500 
 46 H      -10.7840     0.9050     0.5410 H     1 <1>   0.1500 
@<TRIPOS>BOND
  1   1   2  1   
  2   1   3  1   
  3   1   4  1   
  4   1  19  1   
  5   2   5  1   
  6   2  20  1   
  7   2  21  1   
  8   3   6  1   
  9   3  22  1   
 10   3  23  1   
 11   4   7  1   
 12   4  24  1   
 13   4  25  1   
 14   5   8  1   
 15   5  26  1   
 16   5  27  1   
 17   6   8  1   
 18   6  28  1   
 19   6  29  1   
 20   7  30  1   
 21   7  31  1   
 22   7  32  1   
 23   8   9  1   
 24   8  33  1   
 25   9  10  1   
 26   9  11  1   
 27   9  34  1   
 28  10  12  1   
 29  10  35  1   
 30  10  36  1   
 31  11  37  1   
 32  11  38  1   
 33  11  39  1   
 34  12  13  1   
 35  12  40  1   
 36  12  41  1   
 37  13  14  ar  
 38  13  15  ar  
 39  14  16  ar  
 40  14  42  1   
 41  15  17  ar  
 42  15  43  1   
 43  16  18  ar  
 44  16  44  1   
 45  17  18  ar  
 46  17  45  1   
 47  18  46  1   
@<TRIPOS>SUBSTRUCTURE
  1 ****  10 GROUP 4 **** **** 0

# MOE 2024.06 (io_trps.svl 2023.06)
