@<TRIPOS>MOLECULE
NONAME
50 52 1 0 0 
SMALL
USER_CHARGES


@<TRIPOS>ATOM
  1 S        0.1420     0.3650     0.6780 S.o2  1 <1>   1.4470 
  2 O        0.1960     0.7540     2.0690 O.2   1 <1>  -0.6500 
  3 O        0.4720    -0.9810     0.2630 O.2   1 <1>  -0.6500 
  4 N        1.1840     1.4350    -0.2150 N.am  1 <1>  -0.6930 
  5 C       -1.4870     0.7880     0.0010 C.ar  1 <1>  -0.0090 
  6 C        1.4310     2.7250     0.2470 C.ar  1 <1>   0.1990 
  7 C        2.0830     0.8050    -1.2150 C.3   1 <1>   0.1160 
  8 C       -2.4090     1.5210     0.7410 C.ar  1 <1>  -0.1500 
  9 C       -1.8480     0.4080    -1.2880 C.ar  1 <1>  -0.1500 
 10 C        2.6580     3.1260     0.8130 C.ar  1 <1>   0.0860 
 11 C        0.4060     3.6610     0.1320 C.ar  1 <1>  -0.1500 
 12 C       -3.6430     1.8660     0.2170 C.ar  1 <1>  -0.1500 
 13 C       -3.0790     0.7490    -1.8210 C.ar  1 <1>  -0.1500 
 14 C        3.7940     2.2440     0.9240 C.2   1 <1>   0.5440 
 15 C        2.7830     4.4430     1.2620 C.ar  1 <1>  -0.1500 
 16 C        0.5550     4.9580     0.5770 C.ar  1 <1>  -0.1500 
 17 C       -3.9780     1.4800    -1.0680 C.ar  1 <1>  -0.1500 
 18 O        3.7380     1.1930     1.5310 O.2   1 <1>  -0.5700 
 19 N        4.9730     2.5940     0.3250 N.am  1 <1>  -0.7300 
 20 C        1.7500     5.3510     1.1500 C.ar  1 <1>  -0.1500 
 21 C        6.2130     1.8010     0.3430 C.3   1 <1>   0.2200 
 22 C        7.3590     2.6880     0.8390 C.3   1 <1>  -0.1600 
 23 C        6.4840     1.2760    -1.0710 C.3   1 <1>  -0.1600 
 24 C        8.7030     1.9460     0.7740 C.3   1 <1>  -0.1600 
 25 C        7.8260     0.5330    -1.1390 C.3   1 <1>  -0.1600 
 26 C        8.9770     1.4180    -0.6410 C.3   1 <1>  -0.1600 
 27 H        1.5000     0.2730    -1.9460 H     1 <1>   0.0800 
 28 H        2.7400     0.1090    -0.7210 H     1 <1>   0.0800 
 29 H        2.6730     1.5540    -1.7130 H     1 <1>   0.0800 
 30 H       -2.1560     1.8280     1.7430 H     1 <1>   0.1500 
 31 H       -1.1550    -0.1650    -1.8800 H     1 <1>   0.1500 
 32 H       -0.5240     3.3680    -0.3210 H     1 <1>   0.1500 
 33 H       -4.3410     2.4340     0.8090 H     1 <1>   0.1500 
 34 H       -3.3380     0.4430    -2.8210 H     1 <1>   0.1500 
 35 H        3.7100     4.7520     1.7140 H     1 <1>   0.1500 
 36 H       -0.2550     5.6620     0.4810 H     1 <1>   0.1500 
 37 H       -4.9370     1.7460    -1.4790 H     1 <1>   0.1500 
 38 H        5.0220     3.4590    -0.2110 H     1 <1>   0.3700 
 39 H        1.8700     6.3600     1.5070 H     1 <1>   0.1500 
 40 H        6.1030     0.9630     1.0140 H     1 <1>   0.0800 
 41 H        7.1650     2.9810     1.8550 H     1 <1>   0.0800 
 42 H        7.4210     3.5730     0.2310 H     1 <1>   0.0800 
 43 H        6.5040     2.0990    -1.7640 H     1 <1>   0.0800 
 44 H        5.6930     0.6060    -1.3550 H     1 <1>   0.0800 
 45 H        8.6850     1.1190     1.4640 H     1 <1>   0.0800 
 46 H        9.4970     2.6080     1.0730 H     1 <1>   0.0800 
 47 H        8.0190     0.2260    -2.1530 H     1 <1>   0.0800 
 48 H        7.7720    -0.3550    -0.5310 H     1 <1>   0.0800 
 49 H        9.8930     0.8520    -0.6420 H     1 <1>   0.0800 
 50 H        9.1040     2.2490    -1.3130 H     1 <1>   0.0800 
@<TRIPOS>BOND
  1   1   2  2   
  2   1   3  2   
  3   1   4  am  
  4   1   5  1   
  5   4   6  1   
  6   4   7  1   
  7   5   8  ar  
  8   5   9  ar  
  9   6  10  ar  
 10   6  11  ar  
 11   7  27  1   
 12   7  28  1   
 13   7  29  1   
 14   8  12  ar  
 15   8  30  1   
 16   9  13  ar  
 17   9  31  1   
 18  10  14  1   
 19  10  15  ar  
 20  11  16  ar  
 21  11  32  1   
 22  12  17  ar  
 23  12  33  1   
 24  13  17  ar  
 25  13  34  1   
 26  14  18  2   
 27  14  19  am  
 28  15  20  ar  
 29  15  35  1   
 30  16  20  ar  
 31  16  36  1   
 32  17  37  1   
 33  19  21  1   
 34  19  38  1   
 35  20  39  1   
 36  21  22  1   
 37  21  23  1   
 38  21  40  1   
 39  22  24  1   
 40  22  41  1   
 41  22  42  1   
 42  23  25  1   
 43  23  43  1   
 44  23  44  1   
 45  24  26  1   
 46  24  45  1   
 47  24  46  1   
 48  25  26  1   
 49  25  47  1   
 50  25  48  1   
 51  26  49  1   
 52  26  50  1   
@<TRIPOS>SUBSTRUCTURE
  1 ****   6 GROUP 4 **** **** 0

# MOE 2024.06 (io_trps.svl 2023.06)
