@<TRIPOS>MOLECULE
NONAME
36 38 1 0 0 
SMALL
USER_CHARGES


@<TRIPOS>ATOM
  1 S       -0.4010    -0.4080    -0.7860 S.3   1 <1>  -0.0800 
  2 C        0.6330    -1.5390     0.0750 C.2   1 <1>  -0.1400 
  3 C       -1.4050    -0.1740     0.6340 C.2   1 <1>  -0.1100 
  4 C        0.2060    -1.6910     1.3440 C.2   1 <1>  -0.1500 
  5 C        1.7930    -2.1380    -0.7070 C.3   1 <1>   0.4000 
  6 C       -0.9540    -0.9160     1.6620 C.2   1 <1>  -0.1500 
  7 N        2.3410    -3.3290    -0.0320 N.am  1 <1>  -0.2980 
  8 C        2.9790    -1.1820    -0.7290 C.3   1 <1>  -0.0990 
  9 N        3.6130    -3.0710     0.4350 N.2   1 <1>  -0.5120 
 10 C        1.6620    -4.5330     0.0880 C.2   1 <1>   0.5690 
 11 C        4.0080    -1.9110     0.1010 C.2   1 <1>   0.4750 
 12 O        2.0920    -5.4740     0.7100 O.2   1 <1>  -0.5700 
 13 C        0.3190    -4.7250    -0.5880 C.3   1 <1>  -0.1790 
 14 C        5.2790    -1.3020     0.4440 C.2   1 <1>  -0.0860 
 15 C        6.1970    -1.7480     1.3540 C.2   1 <1>  -0.0400 
 16 C        5.8720    -0.1170    -0.0730 C.2   1 <1>  -0.1810 
 17 O        7.2420    -0.9550     1.4130 O.3   1 <1>  -0.2800 
 18 C        6.2260    -2.9510     2.2810 C.3   1 <1>  -0.0600 
 19 C        7.0530     0.0230     0.5620 C.2   1 <1>  -0.0100 
 20 C        5.3550     0.8420    -1.1320 C.3   1 <1>  -0.0590 
 21 H       -2.2370     0.5020     0.5480 H     1 <1>   0.1500 
 22 H        0.6660    -2.3240     2.0860 H     1 <1>   0.1500 
 23 H        1.4890    -2.3940    -1.7070 H     1 <1>   0.0800 
 24 H       -1.3890    -0.9540     2.6450 H     1 <1>   0.1500 
 25 H        2.7300    -0.2340    -0.2900 H     1 <1>   0.0800 
 26 H        3.3250    -1.0530    -1.7350 H     1 <1>   0.0800 
 27 H        0.3860    -4.4860    -1.6320 H     1 <1>   0.0800 
 28 H       -0.4250    -4.1100    -0.1180 H     1 <1>   0.0800 
 29 H        0.0150    -5.7520    -0.4950 H     1 <1>   0.0800 
 30 H        5.3130    -3.5110     2.2490 H     1 <1>   0.0800 
 31 H        6.3840    -2.6200     3.2910 H     1 <1>   0.0800 
 32 H        7.0360    -3.5990     2.0000 H     1 <1>   0.0800 
 33 H        7.8140     0.7780     0.4710 H     1 <1>   0.1500 
 34 H        4.4400     1.3030    -0.8090 H     1 <1>   0.0800 
 35 H        5.1960     0.3230    -2.0600 H     1 <1>   0.0800 
 36 H        6.0770     1.6200    -1.3050 H     1 <1>   0.0800 
@<TRIPOS>BOND
  1   1   2  1   
  2   1   3  1   
  3   2   4  2   
  4   2   5  1   
  5   3   6  2   
  6   3  21  1   
  7   4   6  1   
  8   4  22  1   
  9   5   7  1   
 10   5   8  1   
 11   5  23  1   
 12   6  24  1   
 13   7   9  1   
 14   7  10  am  
 15   8  11  1   
 16   8  25  1   
 17   8  26  1   
 18   9  11  2   
 19  10  12  2   
 20  10  13  1   
 21  11  14  1   
 22  13  27  1   
 23  13  28  1   
 24  13  29  1   
 25  14  15  2   
 26  14  16  1   
 27  15  17  1   
 28  15  18  1   
 29  16  19  2   
 30  16  20  1   
 31  17  19  1   
 32  18  30  1   
 33  18  31  1   
 34  18  32  1   
 35  19  33  1   
 36  20  34  1   
 37  20  35  1   
 38  20  36  1   
@<TRIPOS>SUBSTRUCTURE
  1 ****  11 GROUP 4 **** **** 0

# MOE 2024.06 (io_trps.svl 2023.06)
