@<TRIPOS>MOLECULE
NONAME
41 42 1 0 0 
SMALL
USER_CHARGES


@<TRIPOS>ATOM
  1 O       -0.3270    -1.7910     2.0250 O.2   1 <1>  -0.5700 
  2 C        0.0220    -2.2480     0.9490 C.2   1 <1>   0.5440 
  3 N        1.3500    -2.1890     0.5870 N.am  1 <1>  -0.6600 
  4 C       -0.9770    -2.7740     0.0510 C.ar  1 <1>   0.0860 
  5 C        2.4290    -1.9850     1.5880 C.3   1 <1>   0.1400 
  6 C        1.8670    -2.5640    -0.7610 C.3   1 <1>   0.1400 
  7 C       -1.1060    -4.1470    -0.2190 C.ar  1 <1>   0.1170 
  8 C       -1.8400    -1.8770    -0.5800 C.ar  1 <1>  -0.1500 
  9 C        3.3590    -0.8630     1.1110 C.3   1 <1>  -0.1600 
 10 C        2.7790    -1.4470    -1.2790 C.3   1 <1>  -0.1600 
 11 N       -0.2840    -5.1010     0.4120 N.am  1 <1>  -0.5470 
 12 C       -2.0670    -4.5530    -1.1440 C.ar  1 <1>  -0.1500 
 13 C       -2.7960    -2.3020    -1.4800 C.ar  1 <1>  -0.1500 
 14 C        3.9180    -1.1570    -0.2900 C.3   1 <1>  -0.1600 
 15 C       -0.5320    -6.4130     0.7200 C.2   1 <1>   0.5690 
 16 C       -2.9050    -3.6490    -1.7670 C.ar  1 <1>  -0.1500 
 17 O       -1.6050    -6.9440     0.5500 O.2   1 <1>  -0.5700 
 18 C        0.5750    -7.2570     1.3370 C.3   1 <1>  -0.0990 
 19 C        1.8110    -7.4460     0.4260 C.3   1 <1>  -0.2660 
 20 C        2.5250    -6.1520     0.1280 C.2   1 <1>   0.9060 
 21 O        2.4670    -5.2510     0.9690 O.co2 1 <1>  -0.9000 
 22 O        3.0860    -6.0050    -0.9560 O.co2 1 <1>  -0.9000 
 23 H        2.9840    -2.9030     1.6910 H     1 <1>   0.0800 
 24 H        2.0160    -1.7370     2.5500 H     1 <1>   0.0800 
 25 H        1.0640    -2.7280    -1.4560 H     1 <1>   0.0800 
 26 H        2.4330    -3.4760    -0.6870 H     1 <1>   0.0800 
 27 H       -1.7470    -0.8300    -0.3500 H     1 <1>   0.1500 
 28 H        4.1690    -0.7580     1.8090 H     1 <1>   0.0800 
 29 H        2.8060     0.0600     1.0990 H     1 <1>   0.0800 
 30 H        2.1910    -0.5600    -1.4340 H     1 <1>   0.0800 
 31 H        3.1920    -1.7450    -2.2260 H     1 <1>   0.0800 
 32 H        0.6810    -4.7980     0.6710 H     1 <1>   0.3700 
 33 H       -2.1620    -5.5960    -1.3840 H     1 <1>   0.1500 
 34 H       -3.4510    -1.5920    -1.9550 H     1 <1>   0.1500 
 35 H        4.5590    -2.0220    -0.2360 H     1 <1>   0.0800 
 36 H        4.5050    -0.3250    -0.6360 H     1 <1>   0.0800 
 37 H       -3.6410    -3.9950    -2.4720 H     1 <1>   0.1500 
 38 H        0.1720    -8.2230     1.5750 H     1 <1>   0.0800 
 39 H        0.8740    -6.7970     2.2620 H     1 <1>   0.0800 
 40 H        1.5140    -7.8860    -0.5070 H     1 <1>   0.0800 
 41 H        2.5170    -8.0990     0.9000 H     1 <1>   0.0800 
@<TRIPOS>BOND
  1   1   2  2   
  2   2   3  am  
  3   2   4  1   
  4   3   5  1   
  5   3   6  1   
  6   4   7  ar  
  7   4   8  ar  
  8   5   9  1   
  9   5  23  1   
 10   5  24  1   
 11   6  10  1   
 12   6  25  1   
 13   6  26  1   
 14   7  11  1   
 15   7  12  ar  
 16   8  13  ar  
 17   8  27  1   
 18   9  14  1   
 19   9  28  1   
 20   9  29  1   
 21  10  14  1   
 22  10  30  1   
 23  10  31  1   
 24  11  15  am  
 25  11  32  1   
 26  12  16  ar  
 27  12  33  1   
 28  13  16  ar  
 29  13  34  1   
 30  14  35  1   
 31  14  36  1   
 32  15  17  2   
 33  15  18  1   
 34  16  37  1   
 35  18  19  1   
 36  18  38  1   
 37  18  39  1   
 38  19  20  1   
 39  19  40  1   
 40  19  41  1   
 41  20  21  ar  
 42  20  22  ar  
@<TRIPOS>SUBSTRUCTURE
  1 ****  11 GROUP 4 **** **** 0

# MOE 2024.06 (io_trps.svl 2023.06)
