@<TRIPOS>MOLECULE
NONAME
32 32 1 0 0 
SMALL
USER_CHARGES


@<TRIPOS>ATOM
  1 CL      -0.0780     0.0680     0.6370 Cl    1 <1>  -0.1770 
  2 C        1.4690     0.8700     0.5900 C.ar  1 <1>   0.1770 
  3 C        2.5870     0.1700     0.1790 C.ar  1 <1>  -0.1500 
  4 C        1.5600     2.1970     0.9630 C.ar  1 <1>  -0.1500 
  5 C        3.8130     0.8110     0.1430 C.ar  1 <1>  -0.1500 
  6 C        2.7910     2.8270     0.9220 C.ar  1 <1>  -0.1500 
  7 C        3.9430     2.1520     0.5130 C.ar  1 <1>   0.0280 
  8 C        5.2040     2.8520     0.4880 C.2   1 <1>  -0.1780 
  9 C        6.4290     2.3990     0.1310 C.2   1 <1>  -0.1360 
 10 C        7.6550     3.1470     0.1260 C.2   1 <1>   0.6160 
 11 O        7.6650     4.3130     0.4670 O.2   1 <1>  -0.5700 
 12 N        8.8080     2.5290    -0.2660 N.am  1 <1>  -0.7300 
 13 C       10.1690     3.0720    -0.3560 C.3   1 <1>   0.3000 
 14 C       10.6430     3.5200     1.0270 C.3   1 <1>  -0.2400 
 15 C       11.0560     1.9320    -0.8530 C.3   1 <1>  -0.2400 
 16 C       10.2060     4.2220    -1.3620 C.3   1 <1>  -0.2400 
 17 H        2.4920    -0.8620    -0.1060 H     1 <1>   0.1500 
 18 H        0.6790     2.7240     1.2790 H     1 <1>   0.1500 
 19 H        4.6720     0.2540    -0.1780 H     1 <1>   0.1500 
 20 H        2.8600     3.8600     1.2140 H     1 <1>   0.1500 
 21 H        5.1340     3.8800     0.8030 H     1 <1>   0.1500 
 22 H        6.5540     1.3860    -0.1890 H     1 <1>   0.1500 
 23 H        8.7570     1.5530    -0.5440 H     1 <1>   0.3700 
 24 H       10.0560     4.3480     1.3800 H     1 <1>   0.0800 
 25 H       11.6680     3.8400     0.9820 H     1 <1>   0.0800 
 26 H       10.5670     2.7130     1.7320 H     1 <1>   0.0800 
 27 H       12.0730     2.2690    -0.9400 H     1 <1>   0.0800 
 28 H       10.7330     1.5950    -1.8220 H     1 <1>   0.0800 
 29 H       11.0360     1.1070    -0.1630 H     1 <1>   0.0800 
 30 H       11.2150     4.5670    -1.4930 H     1 <1>   0.0800 
 31 H        9.6180     5.0510    -1.0130 H     1 <1>   0.0800 
 32 H        9.8260     3.9030    -2.3150 H     1 <1>   0.0800 
@<TRIPOS>BOND
  1   1   2  1   
  2   2   3  ar  
  3   2   4  ar  
  4   3   5  ar  
  5   3  17  1   
  6   4   6  ar  
  7   4  18  1   
  8   5   7  ar  
  9   5  19  1   
 10   6   7  ar  
 11   6  20  1   
 12   7   8  1   
 13   8   9  2   
 14   8  21  1   
 15   9  10  1   
 16   9  22  1   
 17  10  11  2   
 18  10  12  am  
 19  12  13  1   
 20  12  23  1   
 21  13  14  1   
 22  13  15  1   
 23  13  16  1   
 24  14  24  1   
 25  14  25  1   
 26  14  26  1   
 27  15  27  1   
 28  15  28  1   
 29  15  29  1   
 30  16  30  1   
 31  16  31  1   
 32  16  32  1   
@<TRIPOS>SUBSTRUCTURE
  1 ****   9 GROUP 4 **** **** 0

# MOE 2024.06 (io_trps.svl 2023.06)
