@<TRIPOS>MOLECULE
NONAME
45 46 1 0 0 
SMALL
USER_CHARGES


@<TRIPOS>ATOM
  1 S       -0.6480     0.1520     0.0080 S.3   1 <1>  -0.2860 
  2 C       -2.1300     0.4630    -0.9630 C.2   1 <1>   0.2420 
  3 C        0.3990     1.6340    -0.3260 C.3   1 <1>   0.0700 
  4 N       -2.2910     1.5090    -1.6940 N.2   1 <1>  -0.3380 
  5 N       -3.1690    -0.3840    -0.9830 N.pl3 1 <1>   0.3260 
  6 C        1.7030     1.4760     0.4540 C.3   1 <1>  -0.2400 
  7 N       -3.4990     1.3820    -2.2480 N.2   1 <1>  -0.3380 
  8 C       -3.3270    -1.6480    -0.3550 C.ar  1 <1>  -0.0230 
  9 C       -3.9990     0.2690    -1.8210 C.2   1 <1>   0.0060 
 10 C       -4.3300    -1.8520     0.5860 C.ar  1 <1>  -0.1500 
 11 C       -2.4850    -2.7070    -0.6790 C.ar  1 <1>  -0.1500 
 12 C       -5.3700    -0.2490    -2.2100 C.3   1 <1>   0.3200 
 13 C       -4.4970    -3.0900     1.1800 C.ar  1 <1>  -0.1500 
 14 C       -2.6490    -3.9440    -0.0820 C.ar  1 <1>  -0.1500 
 15 N       -6.3830     0.4200    -1.3760 N.am  1 <1>  -0.7300 
 16 C       -3.6570    -4.1370     0.8470 C.ar  1 <1>  -0.1500 
 17 C       -7.3020    -0.2000    -0.6140 C.2   1 <1>   0.7800 
 18 O       -7.4270    -1.4060    -0.6100 O.2   1 <1>  -0.5700 
 19 O       -8.0410     0.5980     0.1510 O.3   1 <1>  -0.4300 
 20 C       -9.0390     0.2060     1.0690 C.3   1 <1>   0.2800 
 21 C       -9.5550     1.5100     1.6790 C.3   1 <1>  -0.2400 
 22 C      -10.1860    -0.4990     0.3370 C.3   1 <1>  -0.2400 
 23 C       -8.4290    -0.6620     2.1760 C.3   1 <1>  -0.2400 
 24 H       -0.1580     2.4980    -0.0080 H     1 <1>   0.0800 
 25 H        0.5680     1.6740    -1.3880 H     1 <1>   0.0800 
 26 H        1.4980     1.4070     1.5070 H     1 <1>   0.0800 
 27 H        2.3370     2.3260     0.2800 H     1 <1>   0.0800 
 28 H        2.2190     0.5880     0.1360 H     1 <1>   0.0800 
 29 H       -4.9900    -1.0460     0.8580 H     1 <1>   0.1500 
 30 H       -1.6960    -2.5680    -1.3990 H     1 <1>   0.1500 
 31 H       -5.4250    -1.3180    -2.0910 H     1 <1>   0.0800 
 32 H       -5.5580    -0.0140    -3.2430 H     1 <1>   0.0800 
 33 H       -5.2840    -3.2380     1.8990 H     1 <1>   0.1500 
 34 H       -1.9930    -4.7580    -0.3380 H     1 <1>   0.1500 
 35 H       -6.3020     1.4340    -1.3010 H     1 <1>   0.3700 
 36 H       -3.7870    -5.1000     1.3100 H     1 <1>   0.1500 
 37 H       -8.7570     2.0320     2.1750 H     1 <1>   0.0800 
 38 H      -10.3270     1.3070     2.3980 H     1 <1>   0.0800 
 39 H       -9.9650     2.1440     0.9120 H     1 <1>   0.0800 
 40 H      -10.5410     0.1080    -0.4760 H     1 <1>   0.0800 
 41 H      -11.0030    -0.6710     1.0140 H     1 <1>   0.0800 
 42 H       -9.8760    -1.4540    -0.0450 H     1 <1>   0.0800 
 43 H       -7.5850    -0.1660     2.6200 H     1 <1>   0.0800 
 44 H       -8.1190    -1.6180     1.7950 H     1 <1>   0.0800 
 45 H       -9.1600    -0.8430     2.9430 H     1 <1>   0.0800 
@<TRIPOS>BOND
  1   1   2  1   
  2   1   3  1   
  3   2   4  2   
  4   2   5  1   
  5   3   6  1   
  6   3  24  1   
  7   3  25  1   
  8   4   7  1   
  9   5   8  1   
 10   5   9  1   
 11   6  26  1   
 12   6  27  1   
 13   6  28  1   
 14   7   9  2   
 15   8  10  ar  
 16   8  11  ar  
 17   9  12  1   
 18  10  13  ar  
 19  10  29  1   
 20  11  14  ar  
 21  11  30  1   
 22  12  15  1   
 23  12  31  1   
 24  12  32  1   
 25  13  16  ar  
 26  13  33  1   
 27  14  16  ar  
 28  14  34  1   
 29  15  17  am  
 30  15  35  1   
 31  16  36  1   
 32  17  18  2   
 33  17  19  1   
 34  19  20  1   
 35  20  21  1   
 36  20  22  1   
 37  20  23  1   
 38  21  37  1   
 39  21  38  1   
 40  21  39  1   
 41  22  40  1   
 42  22  41  1   
 43  22  42  1   
 44  23  43  1   
 45  23  44  1   
 46  23  45  1   
@<TRIPOS>SUBSTRUCTURE
  1 ****  10 GROUP 4 **** **** 0

# MOE 2024.06 (io_trps.svl 2023.06)
