@<TRIPOS>MOLECULE
NONAME
52 53 1 0 0 
SMALL
USER_CHARGES


@<TRIPOS>ATOM
  1 O        2.2400    -1.3930    -1.6510 O.2   1 <1>  -0.5700 
  2 C        1.9410    -1.0480    -0.5340 C.2   1 <1>   0.5690 
  3 N        2.0290     0.2410    -0.1210 N.am  1 <1>  -0.7300 
  4 C        1.4470    -2.1110     0.4440 C.3   1 <1>  -0.0190 
  5 C        2.4850     1.3600    -0.9550 C.3   1 <1>   0.2200 
  6 C        2.5230    -3.1930     0.6600 C.3   1 <1>  -0.1600 
  7 C        0.1390    -2.7470    -0.0660 C.3   1 <1>  -0.1600 
  8 C        3.7130     1.9760    -0.2950 C.3   1 <1>  -0.2400 
  9 C        1.3470     2.3680    -1.0620 C.3   1 <1>  -0.2400 
 10 C        2.0190    -4.3510     1.5190 C.3   1 <1>   0.3430 
 11 C       -0.3180    -3.9130     0.8070 C.3   1 <1>   0.3430 
 12 N        0.7860    -4.9070     0.9100 N.4   1 <1>  -0.9590 
 13 C        0.3510    -6.1710     1.5550 C.3   1 <1>   0.4860 
 14 C       -0.7030    -6.8140     0.6770 C.ar  1 <1>  -0.1440 
 15 C       -0.4010    -7.1880    -0.6290 C.ar  1 <1>   0.0820 
 16 C       -1.9780    -7.0260     1.1770 C.ar  1 <1>  -0.1500 
 17 O        0.8640    -6.9430    -1.0740 O.3   1 <1>  -0.3620 
 18 C       -1.3850    -7.7750    -1.4200 C.ar  1 <1>  -0.1500 
 19 C       -2.9580    -7.6030     0.3890 C.ar  1 <1>   0.0820 
 20 C        1.2930    -7.4050    -2.3400 C.3   1 <1>   0.0400 
 21 C       -2.6570    -7.9800    -0.9150 C.ar  1 <1>  -0.1500 
 22 O       -4.1770    -7.7610     0.9630 O.3   1 <1>  -0.3620 
 23 C       -5.2310    -8.4010     0.2770 C.3   1 <1>   0.0400 
 24 H        1.7690     0.5090     0.8270 H     1 <1>   0.3700 
 25 H        1.2470    -1.6360     1.3890 H     1 <1>   0.0800 
 26 H        2.7450     1.0050    -1.9400 H     1 <1>   0.0800 
 27 H        3.3840    -2.7510     1.1310 H     1 <1>   0.0800 
 28 H        2.8470    -3.5820    -0.2900 H     1 <1>   0.0800 
 29 H        0.2720    -3.1010    -1.0740 H     1 <1>   0.0800 
 30 H       -0.6360    -2.0010    -0.0920 H     1 <1>   0.0800 
 31 H        3.4790     2.3440     0.6880 H     1 <1>   0.0800 
 32 H        4.0720     2.7960    -0.8900 H     1 <1>   0.0800 
 33 H        4.4980     1.2440    -0.2260 H     1 <1>   0.0800 
 34 H        1.0710     2.7440    -0.0930 H     1 <1>   0.0800 
 35 H        0.4920     1.9080    -1.5250 H     1 <1>   0.0800 
 36 H        1.6530     3.1970    -1.6750 H     1 <1>   0.0800 
 37 H        1.8110    -4.0020     2.5170 H     1 <1>   0.0800 
 38 H        2.7810    -5.1130     1.5730 H     1 <1>   0.0800 
 39 H       -1.1890    -4.3690     0.3630 H     1 <1>   0.0800 
 40 H       -0.5840    -3.5550     1.7880 H     1 <1>   0.0800 
 41 H        1.0090    -5.2030    -0.0570 H     1 <1>   0.4500 
 42 H       -0.0460    -5.9770     2.5370 H     1 <1>   0.0800 
 43 H        1.1870    -6.8460     1.6430 H     1 <1>   0.0800 
 44 H       -2.2400    -6.7510     2.1840 H     1 <1>   0.1500 
 45 H       -1.1870    -8.0770    -2.4320 H     1 <1>   0.1500 
 46 H        0.7120    -6.9250    -3.1080 H     1 <1>   0.0800 
 47 H        1.1740    -8.4740    -2.3830 H     1 <1>   0.0800 
 48 H        2.3310    -7.1520    -2.4600 H     1 <1>   0.0800 
 49 H       -3.3970    -8.4330    -1.5480 H     1 <1>   0.1500 
 50 H       -6.0830    -8.4360     0.9310 H     1 <1>   0.0800 
 51 H       -4.9260    -9.4010     0.0220 H     1 <1>   0.0800 
 52 H       -5.4720    -7.8330    -0.6050 H     1 <1>   0.0800 
@<TRIPOS>BOND
  1   1   2  2   
  2   2   3  am  
  3   2   4  1   
  4   3   5  1   
  5   3  24  1   
  6   4   6  1   
  7   4   7  1   
  8   4  25  1   
  9   5   8  1   
 10   5   9  1   
 11   5  26  1   
 12   6  10  1   
 13   6  27  1   
 14   6  28  1   
 15   7  11  1   
 16   7  29  1   
 17   7  30  1   
 18   8  31  1   
 19   8  32  1   
 20   8  33  1   
 21   9  34  1   
 22   9  35  1   
 23   9  36  1   
 24  10  12  1   
 25  10  37  1   
 26  10  38  1   
 27  11  12  1   
 28  11  39  1   
 29  11  40  1   
 30  12  13  1   
 31  12  41  1   
 32  13  14  1   
 33  13  42  1   
 34  13  43  1   
 35  14  15  ar  
 36  14  16  ar  
 37  15  17  1   
 38  15  18  ar  
 39  16  19  ar  
 40  16  44  1   
 41  17  20  1   
 42  18  21  ar  
 43  18  45  1   
 44  19  21  ar  
 45  19  22  1   
 46  20  46  1   
 47  20  47  1   
 48  20  48  1   
 49  21  49  1   
 50  22  23  1   
 51  23  50  1   
 52  23  51  1   
 53  23  52  1   
@<TRIPOS>SUBSTRUCTURE
  1 ****  11 GROUP 4 **** **** 0

# MOE 2024.06 (io_trps.svl 2023.06)
