@<TRIPOS>MOLECULE
NONAME
46 49 1 0 0 
SMALL
USER_CHARGES


@<TRIPOS>ATOM
  1 S        0.2020     0.1790     0.2610 S.3   1 <1>  -0.3320 
  2 C        0.6320     1.9160     0.2560 C.ar  1 <1>   0.7220 
  3 C       -1.5340     0.0800     0.8920 C.3   1 <1>   0.0700 
  4 N       -0.2900     2.7660     0.7200 N.ar  1 <1>  -0.3100 
  5 N        1.8290     2.1870    -0.2050 N.ar  1 <1>  -0.6200 
  6 C       -2.4920     0.3600    -0.2700 C.3   1 <1>  -0.1600 
  7 N       -0.0280     4.0470     0.7430 N.ar  1 <1>  -0.3100 
  8 C        2.0720     3.4810    -0.1730 C.ar  1 <1>   0.3930 
  9 C       -3.9530     0.2700     0.1870 C.3   1 <1>  -0.1600 
 10 C        1.1700     4.4360     0.2950 C.ar  1 <1>   0.3100 
 11 O        3.2580     3.8520    -0.6520 O.3   1 <1>  -0.3620 
 12 C       -4.9110     0.5440    -0.9750 C.3   1 <1>  -0.2400 
 13 C        1.5100     5.8390     0.2850 C.ar  1 <1>   0.0000 
 14 C        4.2200     4.1840     0.3080 C.3   1 <1>   0.7490 
 15 C        2.8030     6.2690     0.6300 C.ar  1 <1>   0.1000 
 16 C        0.5650     6.8000    -0.0760 C.ar  1 <1>  -0.1500 
 17 N        3.8030     5.3960     1.0510 N.pl3 1 <1>  -0.8690 
 18 C        5.5540     4.4600    -0.3740 C.2   1 <1>  -0.0400 
 19 C        3.1040     7.6250     0.5900 C.ar  1 <1>  -0.1500 
 20 C        0.8790     8.1440    -0.1100 C.ar  1 <1>  -0.1500 
 21 O        6.5910     4.8040     0.3730 O.3   1 <1>  -0.2800 
 22 C        5.9120     4.4280    -1.6780 C.2   1 <1>  -0.1500 
 23 C        2.1560     8.5590     0.2230 C.ar  1 <1>  -0.1500 
 24 C        7.6200     4.9940    -0.4270 C.2   1 <1>  -0.0400 
 25 C        7.2670     4.7770    -1.7110 C.2   1 <1>  -0.1500 
 26 C        8.9460     5.3970     0.1780 C.3   1 <1>  -0.0600 
 27 H       -1.6440     0.7910     1.6920 H     1 <1>   0.0800 
 28 H       -1.6690    -0.9170     1.2730 H     1 <1>   0.0800 
 29 H       -2.3140    -0.3570    -1.0530 H     1 <1>   0.0800 
 30 H       -2.3020     1.3440    -0.6620 H     1 <1>   0.0800 
 31 H       -4.1320     0.9890     0.9690 H     1 <1>   0.0800 
 32 H       -4.1500    -0.7120     0.5830 H     1 <1>   0.0800 
 33 H       -4.7460     1.5310    -1.3720 H     1 <1>   0.0800 
 34 H       -5.9300     0.4780    -0.6370 H     1 <1>   0.0800 
 35 H       -4.7640    -0.1750    -1.7620 H     1 <1>   0.0800 
 36 H        4.3210     3.3510     0.9830 H     1 <1>   0.0800 
 37 H       -0.4320     6.4880    -0.3360 H     1 <1>   0.1500 
 38 H        4.6740     5.8670     1.3140 H     1 <1>   0.4000 
 39 H        4.0920     7.9530     0.8530 H     1 <1>   0.1500 
 40 H        0.1350     8.8680    -0.3940 H     1 <1>   0.1500 
 41 H        5.3050     4.1890    -2.5340 H     1 <1>   0.1500 
 42 H        2.4070     9.6050     0.1970 H     1 <1>   0.1500 
 43 H        7.8700     4.8490    -2.5990 H     1 <1>   0.1500 
 44 H        9.2750     4.6420     0.8680 H     1 <1>   0.0800 
 45 H        8.8370     6.3280     0.7040 H     1 <1>   0.0800 
 46 H        9.6860     5.5140    -0.5930 H     1 <1>   0.0800 
@<TRIPOS>BOND
  1   1   2  1   
  2   1   3  1   
  3   2   4  ar  
  4   2   5  ar  
  5   3   6  1   
  6   3  27  1   
  7   3  28  1   
  8   4   7  ar  
  9   5   8  ar  
 10   6   9  1   
 11   6  29  1   
 12   6  30  1   
 13   7  10  ar  
 14   8  10  ar  
 15   8  11  1   
 16   9  12  1   
 17   9  31  1   
 18   9  32  1   
 19  10  13  1   
 20  11  14  1   
 21  12  33  1   
 22  12  34  1   
 23  12  35  1   
 24  13  15  ar  
 25  13  16  ar  
 26  14  17  1   
 27  14  18  1   
 28  14  36  1   
 29  15  17  1   
 30  15  19  ar  
 31  16  20  ar  
 32  16  37  1   
 33  17  38  1   
 34  18  21  1   
 35  18  22  2   
 36  19  23  ar  
 37  19  39  1   
 38  20  23  ar  
 39  20  40  1   
 40  21  24  1   
 41  22  25  1   
 42  22  41  1   
 43  23  42  1   
 44  24  25  2   
 45  24  26  1   
 46  25  43  1   
 47  26  44  1   
 48  26  45  1   
 49  26  46  1   
@<TRIPOS>SUBSTRUCTURE
  1 ****   8 GROUP 4 **** **** 0

# MOE 2024.06 (io_trps.svl 2023.06)
