@<TRIPOS>MOLECULE
NONAME
36 37 1 0 0 
SMALL
USER_CHARGES


@<TRIPOS>ATOM
  1 S       -0.1370     0.1960    -1.1700 S.3   1 <1>  -0.0800 
  2 C       -1.4890     0.8460    -0.2360 C.2   1 <1>  -0.0450 
  3 C        1.0270     1.2220    -0.3590 C.2   1 <1>  -0.1400 
  4 C       -2.8180     0.3460    -0.4810 C.2   1 <1>   0.7150 
  5 C       -1.0040     1.7820     0.6210 C.2   1 <1>  -0.1500 
  6 C        0.4040     1.9930     0.5520 C.2   1 <1>  -0.1500 
  7 C        2.4740     1.0800    -0.7970 C.3   1 <1>   0.0200 
  8 O       -3.0430    -0.5260    -1.3000 O.2   1 <1>  -0.5700 
  9 N       -3.8650     0.8710     0.2140 N.am  1 <1>  -0.7300 
 10 C        3.4070     2.0210    -0.0290 C.3   1 <1>  -0.2400 
 11 C       -5.2940     0.5870    -0.0040 C.3   1 <1>   0.2200 
 12 C       -5.9870     1.9070    -0.4210 C.3   1 <1>   0.2000 
 13 C       -5.8250    -0.0290     1.2930 C.3   1 <1>  -0.2400 
 14 O       -5.7630     2.9120     0.5260 O.3   1 <1>  -0.5600 
 15 C       -7.5010     1.8740    -0.5960 C.3   1 <1>  -0.1600 
 16 C       -6.7590     3.8860     0.4680 C.3   1 <1>   0.1200 
 17 C       -7.8680     3.3360    -0.4260 C.3   1 <1>  -0.1600 
 18 H       -1.6010     2.3450     1.3170 H     1 <1>   0.1500 
 19 H        0.8830     2.7140     1.1900 H     1 <1>   0.1500 
 20 H        2.5420     1.2920    -1.8500 H     1 <1>   0.0800 
 21 H        2.7860     0.0620    -0.6410 H     1 <1>   0.0800 
 22 H       -3.7190     1.7110     0.7760 H     1 <1>   0.3700 
 23 H        3.1180     3.0450    -0.1910 H     1 <1>   0.0800 
 24 H        4.4190     1.8910    -0.3670 H     1 <1>   0.0800 
 25 H        3.3650     1.8070     1.0250 H     1 <1>   0.0800 
 26 H       -5.4050    -0.1300    -0.8010 H     1 <1>   0.0800 
 27 H       -5.5450     2.2460    -1.3430 H     1 <1>   0.0800 
 28 H       -5.8100     0.6950     2.0880 H     1 <1>   0.0800 
 29 H       -5.2210    -0.8740     1.5700 H     1 <1>   0.0800 
 30 H       -6.8320    -0.3760     1.1620 H     1 <1>   0.0800 
 31 H       -7.9650     1.2940     0.1800 H     1 <1>   0.0800 
 32 H       -7.7870     1.4820    -1.5560 H     1 <1>   0.0800 
 33 H       -6.3350     4.7910     0.0670 H     1 <1>   0.0800 
 34 H       -7.1110     4.0580     1.4710 H     1 <1>   0.0800 
 35 H       -8.8400     3.4660     0.0160 H     1 <1>   0.0800 
 36 H       -7.8430     3.8430    -1.3750 H     1 <1>   0.0800 
@<TRIPOS>BOND
  1   1   2  1   
  2   1   3  1   
  3   2   4  1   
  4   2   5  2   
  5   3   6  2   
  6   3   7  1   
  7   4   8  2   
  8   4   9  am  
  9   5   6  1   
 10   5  18  1   
 11   6  19  1   
 12   7  10  1   
 13   7  20  1   
 14   7  21  1   
 15   9  11  1   
 16   9  22  1   
 17  10  23  1   
 18  10  24  1   
 19  10  25  1   
 20  11  12  1   
 21  11  13  1   
 22  11  26  1   
 23  12  14  1   
 24  12  15  1   
 25  12  27  1   
 26  13  28  1   
 27  13  29  1   
 28  13  30  1   
 29  14  16  1   
 30  15  17  1   
 31  15  31  1   
 32  15  32  1   
 33  16  17  1   
 34  16  33  1   
 35  16  34  1   
 36  17  35  1   
 37  17  36  1   
@<TRIPOS>SUBSTRUCTURE
  1 ****   9 GROUP 4 **** **** 0

# MOE 2024.06 (io_trps.svl 2023.06)
