@<TRIPOS>MOLECULE
NONAME
41 42 1 0 0 
SMALL
USER_CHARGES


@<TRIPOS>ATOM
  1 O       -0.5620    -1.8530    -2.0990 O.2   1 <1>  -0.5700 
  2 C       -0.2390    -1.4580    -0.9950 C.2   1 <1>   0.5440 
  3 N       -1.0190    -0.5070    -0.4050 N.am  1 <1>  -0.7300 
  4 C        0.9450    -1.9710    -0.3300 C.ar  1 <1>   0.0860 
  5 C       -2.2760     0.0130    -0.9680 C.3   1 <1>   0.2840 
  6 C        2.0110    -2.4940    -1.0650 C.ar  1 <1>  -0.1500 
  7 C        1.0750    -1.9660     1.0620 C.ar  1 <1>  -0.1500 
  8 C       -3.1370     0.5000     0.1800 C.ar  1 <1>  -0.1440 
  9 C        3.1530    -2.9760    -0.4530 C.ar  1 <1>  -0.1500 
 10 C        2.2140    -2.4450     1.6810 C.ar  1 <1>  -0.1500 
 11 C       -3.7900    -0.4160     0.9910 C.ar  1 <1>   0.1600 
 12 C       -3.2830     1.8470     0.4440 C.ar  1 <1>  -0.1500 
 13 C        3.2640    -2.9530     0.9340 C.ar  1 <1>   0.0830 
 14 N       -4.5590    -0.1020     2.0220 N.ar  1 <1>  -0.6200 
 15 C       -4.0820     2.1920     1.5130 C.ar  1 <1>  -0.1500 
 16 O        4.3400    -3.3970     1.6220 O.3   1 <1>  -0.3630 
 17 C       -4.6880     1.1940     2.2570 C.ar  1 <1>   0.1600 
 18 C        5.4640    -3.9950     1.0100 C.3   1 <1>   0.1200 
 19 C        5.1550    -5.4630     0.6900 C.3   1 <1>  -0.1600 
 20 C        6.3600    -6.1520     0.0400 C.3   1 <1>  -0.1600 
 21 C        6.0490    -7.6170    -0.2780 C.3   1 <1>  -0.2400 
 22 H       -0.7340    -0.0810     0.4770 H     1 <1>   0.3700 
 23 H       -2.7850    -0.7650    -1.5140 H     1 <1>   0.0800 
 24 H       -2.0560     0.8180    -1.6480 H     1 <1>   0.0800 
 25 H        1.9330    -2.5190    -2.1390 H     1 <1>   0.1500 
 26 H        0.2730    -1.5920     1.6720 H     1 <1>   0.1500 
 27 H        3.9410    -3.3660    -1.0690 H     1 <1>   0.1500 
 28 H        2.2990    -2.4340     2.7530 H     1 <1>   0.1500 
 29 H       -3.6710    -1.4660     0.7820 H     1 <1>   0.1500 
 30 H       -2.7970     2.6010    -0.1530 H     1 <1>   0.1500 
 31 H       -4.2380     3.2240     1.7700 H     1 <1>   0.1500 
 32 H       -5.3100     1.4750     3.0900 H     1 <1>   0.1500 
 33 H        6.2740    -3.9380     1.7150 H     1 <1>   0.0800 
 34 H        5.7340    -3.4320     0.1350 H     1 <1>   0.0800 
 35 H        4.3120    -5.5210     0.0250 H     1 <1>   0.0800 
 36 H        4.9030    -5.9710     1.6050 H     1 <1>   0.0800 
 37 H        7.2070    -6.1080     0.7050 H     1 <1>   0.0800 
 38 H        6.6230    -5.6420    -0.8710 H     1 <1>   0.0800 
 39 H        5.8050    -8.1540     0.6210 H     1 <1>   0.0800 
 40 H        6.9040    -8.0850    -0.7330 H     1 <1>   0.0800 
 41 H        5.2190    -7.6870    -0.9590 H     1 <1>   0.0800 
@<TRIPOS>BOND
  1   1   2  2   
  2   2   3  am  
  3   2   4  1   
  4   3   5  1   
  5   3  22  1   
  6   4   6  ar  
  7   4   7  ar  
  8   5   8  1   
  9   5  23  1   
 10   5  24  1   
 11   6   9  ar  
 12   6  25  1   
 13   7  10  ar  
 14   7  26  1   
 15   8  11  ar  
 16   8  12  ar  
 17   9  13  ar  
 18   9  27  1   
 19  10  13  ar  
 20  10  28  1   
 21  11  14  ar  
 22  11  29  1   
 23  12  15  ar  
 24  12  30  1   
 25  13  16  1   
 26  14  17  ar  
 27  15  17  ar  
 28  15  31  1   
 29  16  18  1   
 30  17  32  1   
 31  18  19  1   
 32  18  33  1   
 33  18  34  1   
 34  19  20  1   
 35  19  35  1   
 36  19  36  1   
 37  20  21  1   
 38  20  37  1   
 39  20  38  1   
 40  21  39  1   
 41  21  40  1   
 42  21  41  1   
@<TRIPOS>SUBSTRUCTURE
  1 ****   4 GROUP 4 **** **** 0

# MOE 2024.06 (io_trps.svl 2023.06)
