@<TRIPOS>MOLECULE
NONAME
30 31 1 0 0 
SMALL
USER_CHARGES


@<TRIPOS>ATOM
  1 I        0.1180    -0.5360     0.7720 I     1 <1>  -0.0810 
  2 C       -1.9590    -0.2000     0.4400 C.ar  1 <1>   0.0810 
  3 C       -2.3850     1.0770     0.1290 C.ar  1 <1>  -0.1500 
  4 C       -2.8300    -1.2680     0.5410 C.ar  1 <1>  -0.1500 
  5 C       -3.7360     1.2860    -0.0860 C.ar  1 <1>  -0.1500 
  6 C       -4.1780    -1.0390     0.3240 C.ar  1 <1>  -0.1500 
  7 C       -4.6500     0.2350     0.0110 C.ar  1 <1>   0.1170 
  8 N       -6.0270     0.4000    -0.2110 N.am  1 <1>  -0.5470 
  9 C       -6.8240     1.5090    -0.1210 C.2   1 <1>   0.5690 
 10 O       -6.4140     2.5970     0.2010 O.2   1 <1>  -0.5700 
 11 C       -8.3000     1.3530    -0.4640 C.3   1 <1>  -0.0190 
 12 C       -9.1700     2.5440    -0.0240 C.3   1 <1>   0.1400 
 13 C       -8.9770     0.1130     0.1560 C.3   1 <1>  -0.0990 
 14 N      -10.4670     1.9240     0.2970 N.am  1 <1>  -0.6600 
 15 C      -10.3830     0.5790     0.4040 C.2   1 <1>   0.5690 
 16 C      -11.6730     2.7480     0.5450 C.3   1 <1>   0.0600 
 17 O      -11.2870    -0.1760     0.6630 O.2   1 <1>  -0.5700 
 18 H       -1.6840     1.8900     0.0570 H     1 <1>   0.1500 
 19 H       -2.4650    -2.2500     0.7840 H     1 <1>   0.1500 
 20 H       -4.0760     2.2750    -0.3330 H     1 <1>   0.1500 
 21 H       -4.8670    -1.8600     0.4030 H     1 <1>   0.1500 
 22 H       -6.5150    -0.4630    -0.4410 H     1 <1>   0.3700 
 23 H       -8.3790     1.2850    -1.5340 H     1 <1>   0.0800 
 24 H       -9.2680     3.2720    -0.8110 H     1 <1>   0.0800 
 25 H       -8.7790     3.0160     0.8630 H     1 <1>   0.0800 
 26 H       -8.5390    -0.1480     1.1030 H     1 <1>   0.0800 
 27 H       -8.9700    -0.7320    -0.5080 H     1 <1>   0.0800 
 28 H      -11.4920     3.4230     1.3630 H     1 <1>   0.0800 
 29 H      -12.5060     2.1130     0.7940 H     1 <1>   0.0800 
 30 H      -11.9170     3.3130    -0.3380 H     1 <1>   0.0800 
@<TRIPOS>BOND
  1   1   2  1   
  2   2   3  ar  
  3   2   4  ar  
  4   3   5  ar  
  5   3  18  1   
  6   4   6  ar  
  7   4  19  1   
  8   5   7  ar  
  9   5  20  1   
 10   6   7  ar  
 11   6  21  1   
 12   7   8  1   
 13   8   9  am  
 14   8  22  1   
 15   9  10  2   
 16   9  11  1   
 17  11  12  1   
 18  11  13  1   
 19  11  23  1   
 20  12  14  1   
 21  12  24  1   
 22  12  25  1   
 23  13  15  1   
 24  13  26  1   
 25  13  27  1   
 26  14  15  am  
 27  14  16  1   
 28  15  17  2   
 29  16  28  1   
 30  16  29  1   
 31  16  30  1   
@<TRIPOS>SUBSTRUCTURE
  1 ****   8 GROUP 4 **** **** 0

# MOE 2024.06 (io_trps.svl 2023.06)
