@<TRIPOS>MOLECULE
NONAME
48 49 1 0 0 
SMALL
USER_CHARGES


@<TRIPOS>ATOM
  1 S        0.5050    -0.4720    -0.9060 S.3   1 <1>  -0.0800 
  2 C        1.5180     0.8070    -0.2420 C.2   1 <1>   0.1040 
  3 C       -0.8870     0.5840    -0.9360 C.2   1 <1>  -0.1400 
  4 N        2.8570     0.5540     0.0210 N.am  1 <1>  -0.4940 
  5 C        0.7990     1.9650    -0.0680 C.2   1 <1>  -0.0860 
  6 C       -0.5830     1.7950    -0.4620 C.2   1 <1>  -0.1810 
  7 C       -2.2290     0.1040    -1.4450 C.3   1 <1>   0.3000 
  8 C        3.6520    -0.5560    -0.1150 C.2   1 <1>   0.5690 
  9 C        1.3430     3.2020     0.4340 C.2   1 <1>   0.8060 
 10 C       -1.7000     2.8290    -0.4070 C.3   1 <1>   0.0210 
 11 O       -3.1010     1.2030    -1.5680 O.3   1 <1>  -0.5600 
 12 O        3.2710    -1.6270    -0.5110 O.2   1 <1>  -0.5700 
 13 C        5.1110    -0.4120     0.2770 C.3   1 <1>  -0.0990 
 14 O        0.7120     4.2360     0.5450 O.2   1 <1>  -0.5700 
 15 O        2.6340     3.2180     0.8050 O.3   1 <1>  -0.4300 
 16 C       -3.1020     2.1720    -0.5500 C.3   1 <1>   0.2800 
 17 C        6.0340    -0.1120    -0.9200 C.3   1 <1>  -0.0800 
 18 C        3.2410     4.3810     1.3230 C.3   1 <1>   0.1200 
 19 C       -3.5720     1.5190     0.7600 C.3   1 <1>  -0.2400 
 20 C       -4.1330     3.2150    -0.9830 C.3   1 <1>  -0.2400 
 21 C        7.4980    -0.1000    -0.4650 C.3   1 <1>  -0.2400 
 22 C        5.6950     1.2240    -1.5960 C.3   1 <1>  -0.2400 
 23 C        4.6910     4.0480     1.6590 C.3   1 <1>  -0.2400 
 24 H        3.3610     1.3700     0.3730 H     1 <1>   0.3700 
 25 H       -2.6630    -0.6110    -0.7690 H     1 <1>   0.0800 
 26 H       -2.1260    -0.3440    -2.4170 H     1 <1>   0.0800 
 27 H       -1.5470     3.5400    -1.1980 H     1 <1>   0.0800 
 28 H       -1.6690     3.3640     0.5240 H     1 <1>   0.0800 
 29 H        5.4150    -1.3390     0.7290 H     1 <1>   0.0800 
 30 H        5.2120     0.3570     1.0210 H     1 <1>   0.0800 
 31 H        5.9120    -0.9010    -1.6460 H     1 <1>   0.0800 
 32 H        2.7010     4.6860     2.2050 H     1 <1>   0.0800 
 33 H        3.1850     5.1590     0.5790 H     1 <1>   0.0800 
 34 H       -2.8370     0.8330     1.1390 H     1 <1>   0.0800 
 35 H       -4.5000     0.9990     0.6040 H     1 <1>   0.0800 
 36 H       -3.7280     2.2730     1.5090 H     1 <1>   0.0800 
 37 H       -3.8540     3.6420    -1.9290 H     1 <1>   0.0800 
 38 H       -4.1950     4.0050    -0.2570 H     1 <1>   0.0800 
 39 H       -5.1030     2.7610    -1.0800 H     1 <1>   0.0800 
 40 H        7.6670     0.6760     0.2600 H     1 <1>   0.0800 
 41 H        8.1490     0.0680    -1.3050 H     1 <1>   0.0800 
 42 H        7.7610    -1.0460    -0.0240 H     1 <1>   0.0800 
 43 H        5.7690     2.0370    -0.8970 H     1 <1>   0.0800 
 44 H        4.7010     1.2030    -2.0080 H     1 <1>   0.0800 
 45 H        6.3780     1.4100    -2.4070 H     1 <1>   0.0800 
 46 H        4.7350     3.2550     2.3850 H     1 <1>   0.0800 
 47 H        5.1720     4.9150     2.0750 H     1 <1>   0.0800 
 48 H        5.2240     3.7600     0.7710 H     1 <1>   0.0800 
@<TRIPOS>BOND
  1   1   2  1   
  2   1   3  1   
  3   2   4  1   
  4   2   5  2   
  5   3   6  2   
  6   3   7  1   
  7   4   8  am  
  8   4  24  1   
  9   5   6  1   
 10   5   9  1   
 11   6  10  1   
 12   7  11  1   
 13   7  25  1   
 14   7  26  1   
 15   8  12  2   
 16   8  13  1   
 17   9  14  2   
 18   9  15  1   
 19  10  16  1   
 20  10  27  1   
 21  10  28  1   
 22  11  16  1   
 23  13  17  1   
 24  13  29  1   
 25  13  30  1   
 26  15  18  1   
 27  16  19  1   
 28  16  20  1   
 29  17  21  1   
 30  17  22  1   
 31  17  31  1   
 32  18  23  1   
 33  18  32  1   
 34  18  33  1   
 35  19  34  1   
 36  19  35  1   
 37  19  36  1   
 38  20  37  1   
 39  20  38  1   
 40  20  39  1   
 41  21  40  1   
 42  21  41  1   
 43  21  42  1   
 44  22  43  1   
 45  22  44  1   
 46  22  45  1   
 47  23  46  1   
 48  23  47  1   
 49  23  48  1   
@<TRIPOS>SUBSTRUCTURE
  1 ****   2 GROUP 4 **** **** 0

# MOE 2024.06 (io_trps.svl 2023.06)
