@<TRIPOS>MOLECULE
NONAME
31 31 1 0 0 
SMALL
USER_CHARGES


@<TRIPOS>ATOM
  1 CL      -0.9770    -0.8190     2.4530 Cl    1 <1>  -0.1770 
  2 C       -0.5540    -2.0320     1.2600 C.ar  1 <1>   0.1770 
  3 C       -1.5270    -2.4760     0.3650 C.ar  1 <1>   0.1170 
  4 C        0.7410    -2.5150     1.2460 C.ar  1 <1>  -0.1500 
  5 N       -2.8270    -1.9360     0.4440 N.am  1 <1>  -0.5470 
  6 C       -1.1450    -3.4450    -0.5610 C.ar  1 <1>  -0.1500 
  7 C        1.0960    -3.4750     0.3150 C.ar  1 <1>  -0.1500 
  8 C       -3.9400    -2.0770    -0.3400 C.2   1 <1>   0.5690 
  9 C        0.1500    -3.9370    -0.5860 C.ar  1 <1>  -0.1500 
 10 O       -3.9740    -2.7620    -1.3330 O.2   1 <1>  -0.5700 
 11 C       -5.1980    -1.3070     0.0760 C.3   1 <1>  -0.0190 
 12 C       -6.3490    -2.3060     0.3420 C.3   1 <1>  -0.1600 
 13 C       -5.5430    -0.2370    -0.9880 C.3   1 <1>  -0.1600 
 14 C       -7.6310    -1.6780     0.9030 C.3   1 <1>  -0.2400 
 15 C       -6.0800     1.0740    -0.3940 C.3   1 <1>  -0.2400 
 16 H        1.4600    -2.1440     1.9540 H     1 <1>   0.1500 
 17 H       -2.9410    -1.2900     1.2260 H     1 <1>   0.3700 
 18 H       -1.8530    -3.8270    -1.2720 H     1 <1>   0.1500 
 19 H        2.1010    -3.8610     0.2890 H     1 <1>   0.1500 
 20 H        0.4210    -4.6840    -1.3120 H     1 <1>   0.1500 
 21 H       -4.9780    -0.8060     1.0010 H     1 <1>   0.0800 
 22 H       -6.0010    -3.0440     1.0450 H     1 <1>   0.0800 
 23 H       -6.5850    -2.8280    -0.5710 H     1 <1>   0.0800 
 24 H       -6.2490    -0.6390    -1.6950 H     1 <1>   0.0800 
 25 H       -4.6530     0.0050    -1.5440 H     1 <1>   0.0800 
 26 H       -7.4140    -1.0800     1.7700 H     1 <1>   0.0800 
 27 H       -8.3200    -2.4540     1.1870 H     1 <1>   0.0800 
 28 H       -8.1100    -1.0670     0.1590 H     1 <1>   0.0800 
 29 H       -6.9870     0.9170     0.1590 H     1 <1>   0.0800 
 30 H       -6.2870     1.7720    -1.1850 H     1 <1>   0.0800 
 31 H       -5.3500     1.5150     0.2620 H     1 <1>   0.0800 
@<TRIPOS>BOND
  1   1   2  1   
  2   2   3  ar  
  3   2   4  ar  
  4   3   5  1   
  5   3   6  ar  
  6   4   7  ar  
  7   4  16  1   
  8   5   8  am  
  9   5  17  1   
 10   6   9  ar  
 11   6  18  1   
 12   7   9  ar  
 13   7  19  1   
 14   8  10  2   
 15   8  11  1   
 16   9  20  1   
 17  11  12  1   
 18  11  13  1   
 19  11  21  1   
 20  12  14  1   
 21  12  22  1   
 22  12  23  1   
 23  13  15  1   
 24  13  24  1   
 25  13  25  1   
 26  14  26  1   
 27  14  27  1   
 28  14  28  1   
 29  15  29  1   
 30  15  30  1   
 31  15  31  1   
@<TRIPOS>SUBSTRUCTURE
  1 ****   5 GROUP 4 **** **** 0

# MOE 2024.06 (io_trps.svl 2023.06)
