@<TRIPOS>MOLECULE
NONAME
48 50 1 0 0 
SMALL
USER_CHARGES


@<TRIPOS>ATOM
  1 O       -1.0090     2.5110    -2.3660 O.2   1 <1>  -0.5700 
  2 C       -1.3860     2.6790    -1.2370 C.2   1 <1>   0.6590 
  3 O       -2.6450     2.3910    -0.9400 O.3   1 <1>  -0.4300 
  4 C       -0.4330     3.2320    -0.1640 C.3   1 <1>   0.1220 
  5 C       -3.2310     2.5220     0.3340 C.3   1 <1>   0.3440 
  6 C       -1.1980     3.6140     1.1090 C.2   1 <1>   0.4480 
  7 C        0.3410     4.4750    -0.6840 C.3   1 <1>  -0.1600 
  8 C        0.6690     2.1820     0.1400 C.3   1 <1>  -0.1600 
  9 C       -4.7510     2.4450     0.1750 C.ar  1 <1>  -0.1440 
 10 C       -2.7160     3.8070     1.0190 C.3   1 <1>   0.0610 
 11 O       -0.6190     3.7520     2.1500 O.2   1 <1>  -0.5700 
 12 C        1.7910     4.0390    -0.8840 C.3   1 <1>  -0.1600 
 13 C        1.9940     2.9390     0.1480 C.3   1 <1>  -0.1600 
 14 C       -5.5110     1.7900     1.1370 C.ar  1 <1>  -0.1500 
 15 C       -5.4030     3.0100    -0.9150 C.ar  1 <1>  -0.1500 
 16 C       -3.0550     5.0990     0.2370 C.3   1 <1>  -0.2400 
 17 C       -3.3440     3.9510     2.4280 C.3   1 <1>  -0.2400 
 18 C       -6.8860     1.7140     1.0150 C.ar  1 <1>  -0.1500 
 19 C       -6.7790     2.9310    -1.0320 C.ar  1 <1>  -0.1500 
 20 C       -7.5400     2.2820    -0.0680 C.ar  1 <1>   0.1000 
 21 N       -8.9250     2.1920    -0.1610 N.pl3 1 <1>  -0.8380 
 22 C       -9.5130     1.7220    -1.4420 C.3   1 <1>   0.1290 
 23 C       -9.7090     3.2400     0.5390 C.3   1 <1>   0.1290 
 24 H       -2.9090     1.6680     0.9050 H     1 <1>   0.0800 
 25 H        0.3240     5.2590     0.0550 H     1 <1>   0.0800 
 26 H       -0.0720     4.8670    -1.5980 H     1 <1>   0.0800 
 27 H        0.7100     1.4470    -0.6470 H     1 <1>   0.0800 
 28 H        0.5090     1.6660     1.0720 H     1 <1>   0.0800 
 29 H        2.4830     4.8530    -0.7510 H     1 <1>   0.0800 
 30 H        1.9110     3.6290    -1.8730 H     1 <1>   0.0800 
 31 H        2.8290     2.3040    -0.0940 H     1 <1>   0.0800 
 32 H        2.1530     3.3800     1.1190 H     1 <1>   0.0800 
 33 H       -5.0390     1.3340     1.9890 H     1 <1>   0.1500 
 34 H       -4.8410     3.5130    -1.6820 H     1 <1>   0.1500 
 35 H       -2.7100     5.0580    -0.7800 H     1 <1>   0.0800 
 36 H       -2.5970     5.9490     0.7130 H     1 <1>   0.0800 
 37 H       -4.1190     5.2620     0.2200 H     1 <1>   0.0800 
 38 H       -2.9240     4.8000     2.9400 H     1 <1>   0.0800 
 39 H       -3.1490     3.0760     3.0230 H     1 <1>   0.0800 
 40 H       -4.4090     4.0950     2.3670 H     1 <1>   0.0800 
 41 H       -7.4750     1.2070     1.7570 H     1 <1>   0.1500 
 42 H       -7.2720     3.3770    -1.8750 H     1 <1>   0.1500 
 43 H       -8.8340     1.0420    -1.9270 H     1 <1>   0.0800 
 44 H       -9.7010     2.5580    -2.0930 H     1 <1>   0.0800 
 45 H      -10.4370     1.2060    -1.2480 H     1 <1>   0.0800 
 46 H       -9.1530     3.6130     1.3830 H     1 <1>   0.0800 
 47 H      -10.6360     2.8240     0.8920 H     1 <1>   0.0800 
 48 H       -9.9150     4.0570    -0.1300 H     1 <1>   0.0800 
@<TRIPOS>BOND
  1   1   2  2   
  2   2   3  1   
  3   2   4  1   
  4   3   5  1   
  5   4   6  1   
  6   4   7  1   
  7   4   8  1   
  8   5   9  1   
  9   5  10  1   
 10   5  24  1   
 11   6  10  1   
 12   6  11  2   
 13   7  12  1   
 14   7  25  1   
 15   7  26  1   
 16   8  13  1   
 17   8  27  1   
 18   8  28  1   
 19   9  14  ar  
 20   9  15  ar  
 21  10  16  1   
 22  10  17  1   
 23  12  13  1   
 24  12  29  1   
 25  12  30  1   
 26  13  31  1   
 27  13  32  1   
 28  14  18  ar  
 29  14  33  1   
 30  15  19  ar  
 31  15  34  1   
 32  16  35  1   
 33  16  36  1   
 34  16  37  1   
 35  17  38  1   
 36  17  39  1   
 37  17  40  1   
 38  18  20  ar  
 39  18  41  1   
 40  19  20  ar  
 41  19  42  1   
 42  20  21  1   
 43  21  22  1   
 44  21  23  1   
 45  22  43  1   
 46  22  44  1   
 47  22  45  1   
 48  23  46  1   
 49  23  47  1   
 50  23  48  1   
@<TRIPOS>SUBSTRUCTURE
  1 ****   5 GROUP 4 **** **** 0

# MOE 2024.06 (io_trps.svl 2023.06)
