@<TRIPOS>MOLECULE
NONAME
54 56 1 0 0 
SMALL
USER_CHARGES


@<TRIPOS>ATOM
  1 S        0.0400    -0.0750    -0.4420 S.o2  1 <1>   1.4470 
  2 O       -0.3470    -0.2620    -1.8230 O.2   1 <1>  -0.6500 
  3 O       -0.1480    -1.1420     0.5140 O.2   1 <1>  -0.6500 
  4 N       -0.9400     1.1990     0.1090 N.am  1 <1>  -0.8490 
  5 C        1.7170     0.6010    -0.3120 C.ar  1 <1>  -0.0090 
  6 C       -0.9660     2.3420    -0.8310 C.3   1 <1>   0.1960 
  7 C       -2.3160     0.7140     0.3620 C.3   1 <1>   0.1960 
  8 C        2.3320     0.7580     0.9250 C.ar  1 <1>  -0.1500 
  9 C        2.4210     1.0090    -1.4390 C.ar  1 <1>  -0.1500 
 10 C       -1.8190     3.5240    -0.3010 C.3   1 <1>   0.3430 
 11 C       -3.3010     1.8430     0.7590 C.3   1 <1>   0.3430 
 12 C        3.5950     1.3110     1.0340 C.ar  1 <1>  -0.1500 
 13 C        3.6840     1.5630    -1.3330 C.ar  1 <1>  -0.1500 
 14 N       -2.5980     3.1610     0.9370 N.4   1 <1>  -0.9590 
 15 C        4.2890     1.7300    -0.0940 C.ar  1 <1>   0.1170 
 16 C       -3.5090     4.2530     1.3940 C.3   1 <1>   0.2630 
 17 N        5.5680     2.2810     0.0540 N.am  1 <1>  -0.5470 
 18 C        6.2400     3.1960    -0.7240 C.2   1 <1>   0.5440 
 19 O        5.6540     3.7760    -1.6160 O.2   1 <1>  -0.5700 
 20 C        7.6340     3.4870    -0.4450 C.ar  1 <1>   0.0860 
 21 C        8.4990     2.5250     0.0830 C.ar  1 <1>  -0.1500 
 22 C        8.1660     4.7540    -0.6960 C.ar  1 <1>  -0.1500 
 23 C        9.8200     2.8230     0.3630 C.ar  1 <1>  -0.1500 
 24 C        9.4860     5.0580    -0.4200 C.ar  1 <1>  -0.1500 
 25 C       10.3250     4.0880     0.1190 C.ar  1 <1>   0.0830 
 26 O       11.6250     4.2980     0.4240 O.3   1 <1>  -0.3630 
 27 C       12.2510     5.5400     0.1990 C.3   1 <1>   0.1200 
 28 C       13.7050     5.4230     0.6460 C.3   1 <1>  -0.2400 
 29 H       -1.3660     2.0270    -1.7820 H     1 <1>   0.0800 
 30 H        0.0360     2.6950    -1.0090 H     1 <1>   0.0800 
 31 H       -2.2940    -0.0130     1.1580 H     1 <1>   0.0800 
 32 H       -2.6950     0.2100    -0.5120 H     1 <1>   0.0800 
 33 H        1.8130     0.4400     1.8150 H     1 <1>   0.1500 
 34 H        1.9820     0.8900    -2.4160 H     1 <1>   0.1500 
 35 H       -2.4920     3.8410    -1.0810 H     1 <1>   0.0800 
 36 H       -1.1640     4.3520    -0.0840 H     1 <1>   0.0800 
 37 H       -3.8010     1.5630     1.6720 H     1 <1>   0.0800 
 38 H       -4.0530     1.9320    -0.0080 H     1 <1>   0.0800 
 39 H        4.0440     1.4210     2.0050 H     1 <1>   0.1500 
 40 H        4.2050     1.8670    -2.2250 H     1 <1>   0.1500 
 41 H       -1.8790     2.9780     1.6570 H     1 <1>   0.4500 
 42 H       -4.2640     4.4490     0.6490 H     1 <1>   0.0800 
 43 H       -2.9500     5.1590     1.5660 H     1 <1>   0.0800 
 44 H       -3.9970     3.9730     2.3140 H     1 <1>   0.0800 
 45 H        6.0490     2.0280     0.9150 H     1 <1>   0.3700 
 46 H        8.1440     1.5280     0.2690 H     1 <1>   0.1500 
 47 H        7.5240     5.5100    -1.1160 H     1 <1>   0.1500 
 48 H       10.4750     2.0730     0.7710 H     1 <1>   0.1500 
 49 H        9.8420     6.0490    -0.6300 H     1 <1>   0.1500 
 50 H       11.7360     6.2900     0.7740 H     1 <1>   0.0800 
 51 H       12.1920     5.7660    -0.8510 H     1 <1>   0.0800 
 52 H       13.7520     5.1800     1.6920 H     1 <1>   0.0800 
 53 H       14.2120     6.3580     0.4870 H     1 <1>   0.0800 
 54 H       14.2060     4.6600     0.0770 H     1 <1>   0.0800 
@<TRIPOS>BOND
  1   1   2  2   
  2   1   3  2   
  3   1   4  am  
  4   1   5  1   
  5   4   6  1   
  6   4   7  1   
  7   5   8  ar  
  8   5   9  ar  
  9   6  10  1   
 10   6  29  1   
 11   6  30  1   
 12   7  11  1   
 13   7  31  1   
 14   7  32  1   
 15   8  12  ar  
 16   8  33  1   
 17   9  13  ar  
 18   9  34  1   
 19  10  14  1   
 20  10  35  1   
 21  10  36  1   
 22  11  14  1   
 23  11  37  1   
 24  11  38  1   
 25  12  15  ar  
 26  12  39  1   
 27  13  15  ar  
 28  13  40  1   
 29  14  16  1   
 30  14  41  1   
 31  15  17  1   
 32  16  42  1   
 33  16  43  1   
 34  16  44  1   
 35  17  18  am  
 36  17  45  1   
 37  18  19  2   
 38  18  20  1   
 39  20  21  ar  
 40  20  22  ar  
 41  21  23  ar  
 42  21  46  1   
 43  22  24  ar  
 44  22  47  1   
 45  23  25  ar  
 46  23  48  1   
 47  24  25  ar  
 48  24  49  1   
 49  25  26  1   
 50  26  27  1   
 51  27  28  1   
 52  27  50  1   
 53  27  51  1   
 54  28  52  1   
 55  28  53  1   
 56  28  54  1   
@<TRIPOS>SUBSTRUCTURE
  1 ****  15 GROUP 4 **** **** 0

# MOE 2024.06 (io_trps.svl 2023.06)
