@<TRIPOS>MOLECULE
NONAME
52 54 1 0 0 
SMALL
USER_CHARGES


@<TRIPOS>ATOM
  1 CL      -2.7100    -1.9960    -2.8910 Cl    1 <1>  -0.1770 
  2 C       -3.2780    -0.6860    -1.8860 C.ar  1 <1>   0.1770 
  3 C       -4.6260    -0.5640    -1.6290 C.ar  1 <1>  -0.1500 
  4 C       -2.3650     0.2090    -1.3640 C.ar  1 <1>  -0.1500 
  5 C       -5.0930     0.4730    -0.8330 C.ar  1 <1>   0.1000 
  6 C       -2.8210     1.2450    -0.5670 C.ar  1 <1>  -0.1500 
  7 N       -6.4660     0.5440    -0.6150 N.pl3 1 <1>  -0.8380 
  8 C       -4.1750     1.3830    -0.2950 C.ar  1 <1>  -0.1430 
  9 C       -7.0570    -0.1130     0.5840 C.3   1 <1>   0.2090 
 10 C       -7.2670     1.6710    -1.1700 C.3   1 <1>   0.2090 
 11 C       -4.6200     2.5370     0.5940 C.3   1 <1>  -0.0970 
 12 C       -8.5090    -0.5470     0.3120 C.3   1 <1>   0.1400 
 13 C       -8.7060     1.2160    -1.4600 C.3   1 <1>   0.1400 
 14 N       -9.3330     0.5740    -0.2580 N.am  1 <1>  -0.6600 
 15 C      -10.5710     0.9610     0.1980 C.2   1 <1>   0.5690 
 16 O      -11.1590     1.8980    -0.2940 O.2   1 <1>  -0.5700 
 17 C      -11.2690     0.2310     1.3530 C.3   1 <1>   0.2570 
 18 N      -11.6310    -1.1990     1.0700 N.am  1 <1>  -0.6930 
 19 S      -11.3470    -2.3140     2.3610 S.o2  1 <1>   1.3330 
 20 C      -11.9410    -1.5850    -0.2360 C.ar  1 <1>   0.1990 
 21 O      -10.1400    -3.0360     2.0400 O.2   1 <1>  -0.6500 
 22 O      -11.4310    -1.5510     3.5810 O.2   1 <1>  -0.6500 
 23 C      -12.7650    -3.3880     2.2720 C.3   1 <1>  -0.1350 
 24 C      -11.2540    -2.6130    -0.8840 C.ar  1 <1>  -0.1500 
 25 C      -12.9620    -0.9260    -0.9230 C.ar  1 <1>  -0.1500 
 26 C      -11.5800    -2.9840    -2.1770 C.ar  1 <1>  -0.1500 
 27 C      -13.2990    -1.2830    -2.2170 C.ar  1 <1>  -0.1500 
 28 C      -12.6000    -2.3100    -2.8200 C.ar  1 <1>   0.1900 
 29 F      -12.9130    -2.6560    -4.0420 F     1 <1>  -0.1900 
 30 H       -5.3210    -1.2670    -2.0440 H     1 <1>   0.1500 
 31 H       -1.3180     0.0940    -1.5790 H     1 <1>   0.1500 
 32 H       -2.1110     1.9430    -0.1600 H     1 <1>   0.1500 
 33 H       -7.0420     0.5720     1.4120 H     1 <1>   0.0800 
 34 H       -6.4680    -0.9730     0.8510 H     1 <1>   0.0800 
 35 H       -6.8090     2.0260    -2.0760 H     1 <1>   0.0800 
 36 H       -7.2930     2.4800    -0.4620 H     1 <1>   0.0800 
 37 H       -5.0550     3.3130    -0.0090 H     1 <1>   0.0800 
 38 H       -3.7880     2.9500     1.1340 H     1 <1>   0.0800 
 39 H       -5.3460     2.2000     1.3090 H     1 <1>   0.0800 
 40 H       -8.9280    -0.9080     1.2310 H     1 <1>   0.0800 
 41 H       -8.4990    -1.3630    -0.3880 H     1 <1>   0.0800 
 42 H       -8.6900     0.5040    -2.2660 H     1 <1>   0.0800 
 43 H       -9.2840     2.0640    -1.7830 H     1 <1>   0.0800 
 44 H      -12.1660     0.7670     1.6050 H     1 <1>   0.0800 
 45 H      -10.6160     0.2870     2.2040 H     1 <1>   0.0800 
 46 H      -13.6660    -2.8180     2.3800 H     1 <1>   0.0800 
 47 H      -12.7220    -4.1170     3.0560 H     1 <1>   0.0800 
 48 H      -12.7890    -3.8990     1.3290 H     1 <1>   0.0800 
 49 H      -10.4510    -3.1240    -0.3860 H     1 <1>   0.1500 
 50 H      -13.4920    -0.1250    -0.4400 H     1 <1>   0.1500 
 51 H      -11.0550    -3.7740    -2.6820 H     1 <1>   0.1500 
 52 H      -14.0830    -0.7760    -2.7500 H     1 <1>   0.1500 
@<TRIPOS>BOND
  1   1   2  1   
  2   2   3  ar  
  3   2   4  ar  
  4   3   5  ar  
  5   3  30  1   
  6   4   6  ar  
  7   4  31  1   
  8   5   7  1   
  9   5   8  ar  
 10   6   8  ar  
 11   6  32  1   
 12   7   9  1   
 13   7  10  1   
 14   8  11  1   
 15   9  12  1   
 16   9  33  1   
 17   9  34  1   
 18  10  13  1   
 19  10  35  1   
 20  10  36  1   
 21  11  37  1   
 22  11  38  1   
 23  11  39  1   
 24  12  14  1   
 25  12  40  1   
 26  12  41  1   
 27  13  14  1   
 28  13  42  1   
 29  13  43  1   
 30  14  15  am  
 31  15  16  2   
 32  15  17  1   
 33  17  18  1   
 34  17  44  1   
 35  17  45  1   
 36  18  19  am  
 37  18  20  1   
 38  19  21  2   
 39  19  22  2   
 40  19  23  1   
 41  20  24  ar  
 42  20  25  ar  
 43  23  46  1   
 44  23  47  1   
 45  23  48  1   
 46  24  26  ar  
 47  24  49  1   
 48  25  27  ar  
 49  25  50  1   
 50  26  28  ar  
 51  26  51  1   
 52  27  28  ar  
 53  27  52  1   
 54  28  29  1   
@<TRIPOS>SUBSTRUCTURE
  1 ****  12 GROUP 4 **** **** 0

# MOE 2024.06 (io_trps.svl 2023.06)
