@<TRIPOS>MOLECULE
NONAME
44 45 1 0 0 
SMALL
USER_CHARGES


@<TRIPOS>ATOM
  1 BR      -0.2690     0.0560     0.3080 Br    1 <1>  -0.1110 
  2 C        1.5120     0.7530     0.0810 C.ar  1 <1>   0.1110 
  3 C        2.5810     0.0140     0.5540 C.ar  1 <1>  -0.1500 
  4 C        1.6750     1.9720    -0.5480 C.ar  1 <1>  -0.1500 
  5 C        3.8610     0.5160     0.3900 C.ar  1 <1>  -0.1500 
  6 C        2.9590     2.4650    -0.7070 C.ar  1 <1>  -0.1500 
  7 C        4.0530     1.7460    -0.2420 C.ar  1 <1>   0.0830 
  8 O        5.2730     2.3060    -0.4410 O.3   1 <1>  -0.3630 
  9 C        6.4520     1.6620    -0.0090 C.3   1 <1>   0.1200 
 10 C        7.6430     2.5390    -0.3800 C.3   1 <1>   0.1200 
 11 O        8.8070     1.9060     0.0540 O.3   1 <1>  -0.5600 
 12 C        9.9720     2.6090    -0.2350 C.3   1 <1>   0.1200 
 13 C       11.1590     1.7700     0.2460 C.3   1 <1>   0.1100 
 14 N       12.4540     2.4300    -0.0370 N.3   1 <1>  -0.8100 
 15 C       12.7240     3.5590     0.8910 C.3   1 <1>   0.1100 
 16 C       13.5620     1.4460     0.0230 C.3   1 <1>   0.1100 
 17 C       14.1120     4.2070     0.6550 C.3   1 <1>   0.3430 
 18 C       14.9420     2.0830    -0.2780 C.3   1 <1>   0.3430 
 19 N       14.8200     3.5620    -0.5000 N.4   1 <1>  -0.9590 
 20 C       16.1110     4.2190    -0.8510 C.3   1 <1>   0.2630 
 21 H        2.4110    -0.9310     1.0390 H     1 <1>   0.1500 
 22 H        0.8210     2.5190    -0.9030 H     1 <1>   0.1500 
 23 H        4.6890    -0.0590     0.7590 H     1 <1>   0.1500 
 24 H        3.1210     3.4110    -1.1920 H     1 <1>   0.1500 
 25 H        6.5220     0.7110    -0.5060 H     1 <1>   0.0800 
 26 H        6.4000     1.5370     1.0580 H     1 <1>   0.0800 
 27 H        7.5660     3.4950     0.1080 H     1 <1>   0.0800 
 28 H        7.6930     2.6610    -1.4490 H     1 <1>   0.0800 
 29 H        9.9310     3.5530     0.2770 H     1 <1>   0.0800 
 30 H       10.0310     2.7580    -1.2990 H     1 <1>   0.0800 
 31 H       11.1180     0.8290    -0.2760 H     1 <1>   0.0800 
 32 H       11.0620     1.5770     1.3010 H     1 <1>   0.0800 
 33 H       12.6680     3.2170     1.9110 H     1 <1>   0.0800 
 34 H       11.9700     4.3170     0.7660 H     1 <1>   0.0800 
 35 H       13.3830     0.6620    -0.6950 H     1 <1>   0.0800 
 36 H       13.5910     0.9870     0.9970 H     1 <1>   0.0800 
 37 H       14.7040     4.1110     1.5500 H     1 <1>   0.0800 
 38 H       13.9770     5.2590     0.4630 H     1 <1>   0.0800 
 39 H       15.3560     1.6160    -1.1560 H     1 <1>   0.0800 
 40 H       15.6090     1.8860     0.5450 H     1 <1>   0.0800 
 41 H       14.1420     3.6370    -1.2770 H     1 <1>   0.4500 
 42 H       16.8090     4.1340    -0.0350 H     1 <1>   0.0800 
 43 H       15.9530     5.2640    -1.0630 H     1 <1>   0.0800 
 44 H       16.5410     3.7540    -1.7240 H     1 <1>   0.0800 
@<TRIPOS>BOND
  1   1   2  1   
  2   2   3  ar  
  3   2   4  ar  
  4   3   5  ar  
  5   3  21  1   
  6   4   6  ar  
  7   4  22  1   
  8   5   7  ar  
  9   5  23  1   
 10   6   7  ar  
 11   6  24  1   
 12   7   8  1   
 13   8   9  1   
 14   9  10  1   
 15   9  25  1   
 16   9  26  1   
 17  10  11  1   
 18  10  27  1   
 19  10  28  1   
 20  11  12  1   
 21  12  13  1   
 22  12  29  1   
 23  12  30  1   
 24  13  14  1   
 25  13  31  1   
 26  13  32  1   
 27  14  15  1   
 28  14  16  1   
 29  15  17  1   
 30  15  33  1   
 31  15  34  1   
 32  16  18  1   
 33  16  35  1   
 34  16  36  1   
 35  17  19  1   
 36  17  37  1   
 37  17  38  1   
 38  18  19  1   
 39  18  39  1   
 40  18  40  1   
 41  19  20  1   
 42  19  41  1   
 43  20  42  1   
 44  20  43  1   
 45  20  44  1   
@<TRIPOS>SUBSTRUCTURE
  1 ****  11 GROUP 4 **** **** 0

# MOE 2024.06 (io_trps.svl 2023.06)
