@<TRIPOS>MOLECULE
NONAME
33 33 1 0 0 
SMALL
USER_CHARGES


@<TRIPOS>ATOM
  1 S       -1.5290     0.3940     1.6340 S.3   1 <1>  -0.0800 
  2 C       -1.6730     0.8110    -0.0680 C.2   1 <1>  -0.1400 
  3 C       -0.0750     1.3600     1.7930 C.2   1 <1>  -0.1100 
  4 C       -0.6660     1.6240    -0.4420 C.2   1 <1>  -0.1500 
  5 C       -2.8490     0.2240    -0.8120 C.3   1 <1>   0.5230 
  6 C        0.2420     1.9360     0.6190 C.2   1 <1>  -0.1500 
  7 N       -4.0940     0.6960    -0.1280 N.4   1 <1>  -0.9590 
  8 C       -5.2790    -0.1670    -0.4810 C.3   1 <1>   0.3430 
  9 C       -4.2870     2.1630    -0.3980 C.3   1 <1>   0.2630 
 10 C       -6.5450     0.1030     0.3860 C.3   1 <1>   0.3430 
 11 N       -7.7300    -0.7800     0.0680 N.4   1 <1>  -0.9590 
 12 C       -8.9430    -0.3090     0.8200 C.3   1 <1>   0.2630 
 13 C       -7.5020    -2.2320     0.3880 C.3   1 <1>   0.2630 
 14 H        0.3990     1.3950     2.7590 H     1 <1>   0.1500 
 15 H       -0.5000     2.0310    -1.4260 H     1 <1>   0.1500 
 16 H       -2.7800    -0.8520    -0.7750 H     1 <1>   0.0800 
 17 H       -2.8340     0.5380    -1.8440 H     1 <1>   0.0800 
 18 H        1.0930     2.5760     0.4510 H     1 <1>   0.1500 
 19 H       -3.8510     0.5970     0.8740 H     1 <1>   0.4500 
 20 H       -5.0000    -1.2000    -0.3550 H     1 <1>   0.0800 
 21 H       -5.5280    -0.0110    -1.5180 H     1 <1>   0.0800 
 22 H       -4.4710     2.3370    -1.4460 H     1 <1>   0.0800 
 23 H       -3.4020     2.7140    -0.1140 H     1 <1>   0.0800 
 24 H       -5.1160     2.5520     0.1700 H     1 <1>   0.0800 
 25 H       -6.8370     1.1310     0.2450 H     1 <1>   0.0800 
 26 H       -6.2870    -0.0280     1.4250 H     1 <1>   0.0800 
 27 H       -7.9710    -0.7080    -0.9360 H     1 <1>   0.4500 
 28 H       -8.7790    -0.3740     1.8840 H     1 <1>   0.0800 
 29 H       -9.7990    -0.9160     0.5710 H     1 <1>   0.0800 
 30 H       -9.1710     0.7150     0.5700 H     1 <1>   0.0800 
 31 H       -7.2780    -2.3580     1.4360 H     1 <1>   0.0800 
 32 H       -6.6860    -2.6310    -0.1920 H     1 <1>   0.0800 
 33 H       -8.3870    -2.8060     0.1610 H     1 <1>   0.0800 
@<TRIPOS>BOND
  1   1   2  1   
  2   1   3  1   
  3   2   4  2   
  4   2   5  1   
  5   3   6  2   
  6   3  14  1   
  7   4   6  1   
  8   4  15  1   
  9   5   7  1   
 10   5  16  1   
 11   5  17  1   
 12   6  18  1   
 13   7   8  1   
 14   7   9  1   
 15   7  19  1   
 16   8  10  1   
 17   8  20  1   
 18   8  21  1   
 19   9  22  1   
 20   9  23  1   
 21   9  24  1   
 22  10  11  1   
 23  10  25  1   
 24  10  26  1   
 25  11  12  1   
 26  11  13  1   
 27  11  27  1   
 28  12  28  1   
 29  12  29  1   
 30  12  30  1   
 31  13  31  1   
 32  13  32  1   
 33  13  33  1   
@<TRIPOS>SUBSTRUCTURE
  1 ****   7 GROUP 4 **** **** 0

# MOE 2024.06 (io_trps.svl 2023.06)
