@<TRIPOS>MOLECULE
NONAME
41 43 1 0 0 
SMALL
USER_CHARGES


@<TRIPOS>ATOM
  1 O        0.3360    -0.3640    -1.9310 O.2   1 <1>  -0.5700 
  2 C        0.2850    -1.2660    -1.1280 C.2   1 <1>   0.4950 
  3 C        1.4190    -1.8910    -0.5340 C.2   1 <1>  -0.1240 
  4 C       -1.0890    -1.7860    -0.7420 C.3   1 <1>  -0.0990 
  5 C        1.3450    -3.0140     0.2210 C.2   1 <1>  -0.0380 
  6 C        2.7740    -1.2220    -0.7700 C.3   1 <1>   0.3400 
  7 C       -1.0690    -3.3020    -0.4850 C.3   1 <1>  -0.1600 
  8 N        2.4680    -3.6090     0.7420 N.pl3 1 <1>  -0.6000 
  9 C        0.0170    -3.6910     0.5310 C.3   1 <1>  -0.0220 
 10 C        3.9680    -2.0660    -0.3040 C.2   1 <1>  -0.1240 
 11 C        2.8040     0.1120    -0.0160 C.ar  1 <1>  -0.1430 
 12 C        3.7440    -3.1950     0.4270 C.2   1 <1>  -0.0380 
 13 C        5.2230    -1.4980    -0.6960 C.2   1 <1>   0.7060 
 14 C        2.8960     1.3110    -0.7070 C.ar  1 <1>  -0.1500 
 15 C        2.7430     0.1360     1.3710 C.ar  1 <1>  -0.1500 
 16 C        4.8190    -4.1320     0.9560 C.3   1 <1>  -0.1020 
 17 O        5.3790    -0.8750    -1.7310 O.2   1 <1>  -0.5700 
 18 O        6.2760    -1.6410     0.1180 O.3   1 <1>  -0.4300 
 19 C        2.9280     2.5150    -0.0240 C.ar  1 <1>  -0.1500 
 20 C        2.7760     1.3380     2.0560 C.ar  1 <1>  -0.1500 
 21 C        7.5260    -1.0490    -0.1760 C.3   1 <1>   0.0400 
 22 C        2.8690     2.5290     1.3580 C.ar  1 <1>  -0.1500 
 23 H       -1.7850    -1.5630    -1.5320 H     1 <1>   0.0800 
 24 H       -1.4090    -1.2650     0.1420 H     1 <1>   0.0800 
 25 H        2.8690    -1.0480    -1.8290 H     1 <1>   0.0800 
 26 H       -0.8650    -3.8040    -1.4160 H     1 <1>   0.0800 
 27 H       -2.0330    -3.6300    -0.1360 H     1 <1>   0.0800 
 28 H        2.3590    -4.4470     1.3250 H     1 <1>   0.4000 
 29 H       -0.2910    -3.4060     1.5220 H     1 <1>   0.0800 
 30 H        0.1380    -4.7600     0.5140 H     1 <1>   0.0800 
 31 H        2.9390     1.3130    -1.7830 H     1 <1>   0.1500 
 32 H        2.6700    -0.7870     1.9210 H     1 <1>   0.1500 
 33 H        4.5110    -5.1550     0.8330 H     1 <1>   0.0800 
 34 H        4.9860    -3.9410     2.0000 H     1 <1>   0.0800 
 35 H        5.7460    -4.0160     0.4290 H     1 <1>   0.0800 
 36 H        2.9990     3.4380    -0.5710 H     1 <1>   0.1500 
 37 H        2.7290     1.3450     3.1300 H     1 <1>   0.1500 
 38 H        8.2120    -1.2890     0.6170 H     1 <1>   0.0800 
 39 H        7.3970     0.0170    -0.2450 H     1 <1>   0.0800 
 40 H        7.8860    -1.4410    -1.1110 H     1 <1>   0.0800 
 41 H        2.8940     3.4650     1.8880 H     1 <1>   0.1500 
@<TRIPOS>BOND
  1   1   2  2   
  2   2   3  1   
  3   2   4  1   
  4   3   5  2   
  5   3   6  1   
  6   4   7  1   
  7   4  23  1   
  8   4  24  1   
  9   5   8  1   
 10   5   9  1   
 11   6  10  1   
 12   6  11  1   
 13   6  25  1   
 14   7   9  1   
 15   7  26  1   
 16   7  27  1   
 17   8  12  1   
 18   8  28  1   
 19   9  29  1   
 20   9  30  1   
 21  10  12  2   
 22  10  13  1   
 23  11  14  ar  
 24  11  15  ar  
 25  12  16  1   
 26  13  17  2   
 27  13  18  1   
 28  14  19  ar  
 29  14  31  1   
 30  15  20  ar  
 31  15  32  1   
 32  16  33  1   
 33  16  34  1   
 34  16  35  1   
 35  18  21  1   
 36  19  22  ar  
 37  19  36  1   
 38  20  22  ar  
 39  20  37  1   
 40  21  38  1   
 41  21  39  1   
 42  21  40  1   
 43  22  41  1   
@<TRIPOS>SUBSTRUCTURE
  1 ****   6 GROUP 4 **** **** 0

# MOE 2024.06 (io_trps.svl 2023.06)
