@<TRIPOS>MOLECULE
NONAME
49 51 1 0 0 
SMALL
USER_CHARGES


@<TRIPOS>ATOM
  1 O       -0.1100     0.3480    -0.7480 O.2   1 <1>  -0.5700 
  2 C        0.2630     1.4040    -0.2990 C.2   1 <1>   0.5690 
  3 N       -0.5190     2.4470     0.1100 N.am  1 <1>  -0.4770 
  4 C        1.7250     1.7130    -0.1250 C.3   1 <1>  -0.0990 
  5 C       -1.9260     2.5500     0.0700 C.ar  1 <1>   0.1170 
  6 C        0.3140     3.5550     0.6220 C.3   1 <1>   0.1400 
  7 C        1.7420     3.2150     0.1810 C.3   1 <1>  -0.1600 
  8 C       -2.6190     3.2570     1.0490 C.ar  1 <1>  -0.1500 
  9 C       -2.6640     1.9590    -0.9510 C.ar  1 <1>  -0.1500 
 10 C       -3.9950     3.3830     0.9970 C.ar  1 <1>  -0.1500 
 11 C       -4.0410     2.0800    -1.0030 C.ar  1 <1>  -0.1500 
 12 C       -4.7210     2.8070    -0.0370 C.ar  1 <1>   0.1170 
 13 N       -6.1090     2.9640    -0.1250 N.am  1 <1>  -0.5470 
 14 C       -6.8630     4.0980    -0.0120 C.2   1 <1>   0.5440 
 15 O       -8.0640     3.9390     0.0480 O.2   1 <1>  -0.5700 
 16 C       -6.2770     5.4240     0.0330 C.ar  1 <1>   0.0860 
 17 C       -5.2120     5.7850    -0.7910 C.ar  1 <1>  -0.1500 
 18 C       -6.7530     6.3870     0.9170 C.ar  1 <1>  -0.1500 
 19 C       -4.5960     7.0280    -0.7090 C.ar  1 <1>   0.0830 
 20 C       -6.1850     7.6440     0.9900 C.ar  1 <1>   0.0830 
 21 O       -3.4980     7.2960    -1.4740 O.3   1 <1>  -0.3630 
 22 C       -5.0950     7.9890     0.1840 C.ar  1 <1>   0.0830 
 23 O       -6.7230     8.5050     1.8900 O.3   1 <1>  -0.3630 
 24 C       -2.6390     6.2560    -1.8950 C.3   1 <1>   0.0400 
 25 O       -4.5660     9.2390     0.3380 O.3   1 <1>  -0.3630 
 26 C       -7.4370     9.6030     1.3670 C.3   1 <1>   0.0400 
 27 C       -4.0520     9.9600    -0.7610 C.3   1 <1>   0.0400 
 28 H        2.2740     1.4760    -1.0170 H     1 <1>   0.0800 
 29 H        2.1040     1.1420     0.7030 H     1 <1>   0.0800 
 30 H        0.2490     3.5790     1.6960 H     1 <1>   0.0800 
 31 H       -0.0100     4.4970     0.2130 H     1 <1>   0.0800 
 32 H        1.9710     3.7640    -0.7160 H     1 <1>   0.0800 
 33 H        2.4640     3.4690     0.9370 H     1 <1>   0.0800 
 34 H       -2.0880     3.7100     1.8640 H     1 <1>   0.1500 
 35 H       -2.1570     1.3970    -1.7150 H     1 <1>   0.1500 
 36 H       -4.5090     3.9330     1.7660 H     1 <1>   0.1500 
 37 H       -4.5880     1.6150    -1.8030 H     1 <1>   0.1500 
 38 H       -6.6690     2.1210    -0.2550 H     1 <1>   0.3700 
 39 H       -4.8690     5.0590    -1.5020 H     1 <1>   0.1500 
 40 H       -7.5820     6.1490     1.5590 H     1 <1>   0.1500 
 41 H       -3.1090     5.7130    -2.6950 H     1 <1>   0.0800 
 42 H       -2.4320     5.6090    -1.0610 H     1 <1>   0.0800 
 43 H       -1.7260     6.7010    -2.2490 H     1 <1>   0.0800 
 44 H       -7.9170    10.1090     2.1850 H     1 <1>   0.0800 
 45 H       -8.1740     9.2410     0.6720 H     1 <1>   0.0800 
 46 H       -6.7530    10.2710     0.8770 H     1 <1>   0.0800 
 47 H       -4.0790    11.0060    -0.5170 H     1 <1>   0.0800 
 48 H       -4.6580     9.7650    -1.6270 H     1 <1>   0.0800 
 49 H       -3.0350     9.6550    -0.9300 H     1 <1>   0.0800 
@<TRIPOS>BOND
  1   1   2  2   
  2   2   3  am  
  3   2   4  1   
  4   3   5  1   
  5   3   6  1   
  6   4   7  1   
  7   4  28  1   
  8   4  29  1   
  9   5   8  ar  
 10   5   9  ar  
 11   6   7  1   
 12   6  30  1   
 13   6  31  1   
 14   7  32  1   
 15   7  33  1   
 16   8  10  ar  
 17   8  34  1   
 18   9  11  ar  
 19   9  35  1   
 20  10  12  ar  
 21  10  36  1   
 22  11  12  ar  
 23  11  37  1   
 24  12  13  1   
 25  13  14  am  
 26  13  38  1   
 27  14  15  2   
 28  14  16  1   
 29  16  17  ar  
 30  16  18  ar  
 31  17  19  ar  
 32  17  39  1   
 33  18  20  ar  
 34  18  40  1   
 35  19  21  1   
 36  19  22  ar  
 37  20  22  ar  
 38  20  23  1   
 39  21  24  1   
 40  22  25  1   
 41  23  26  1   
 42  24  41  1   
 43  24  42  1   
 44  24  43  1   
 45  25  27  1   
 46  26  44  1   
 47  26  45  1   
 48  26  46  1   
 49  27  47  1   
 50  27  48  1   
 51  27  49  1   
@<TRIPOS>SUBSTRUCTURE
  1 ****  10 GROUP 4 **** **** 0

# MOE 2024.06 (io_trps.svl 2023.06)
