@<TRIPOS>MOLECULE
NONAME
48 50 1 0 0 
SMALL
USER_CHARGES


@<TRIPOS>ATOM
  1 O        0.2720    -0.3230    -0.3390 O.3   1 <1>  -0.3630 
  2 C       -0.9330    -0.9320    -0.2290 C.ar  1 <1>   0.0830 
  3 C        1.4720    -1.0260    -0.1050 C.3   1 <1>   0.1200 
  4 C       -1.1130    -2.2530     0.1110 C.ar  1 <1>  -0.1500 
  5 C       -2.0510    -0.1290    -0.4860 C.ar  1 <1>  -0.1500 
  6 C        2.6320    -0.0560    -0.3130 C.3   1 <1>   0.1200 
  7 C       -2.4020    -2.8140     0.2050 C.ar  1 <1>   0.0000 
  8 C       -3.3120    -0.6480    -0.4020 C.ar  1 <1>  -0.1500 
  9 O        3.8350    -0.7300    -0.0830 O.3   1 <1>  -0.5600 
 10 C       -3.5240    -1.9980    -0.0560 C.ar  1 <1>   0.0000 
 11 C       -2.6170    -4.1650     0.5510 C.ar  1 <1>  -0.1500 
 12 C        4.9680     0.0550    -0.2450 C.3   1 <1>   0.1200 
 13 C       -4.8120    -2.5620     0.0390 C.ar  1 <1>  -0.1500 
 14 C       -3.8780    -4.6860     0.6360 C.ar  1 <1>  -0.1500 
 15 C        6.1860    -0.8370     0.0240 C.3   1 <1>   0.3430 
 16 C       -4.9890    -3.8760     0.3770 C.ar  1 <1>  -0.1500 
 17 N        7.4920    -0.1260    -0.1760 N.4   1 <1>  -0.9590 
 18 C        8.6120    -1.1120    -0.1790 C.3   1 <1>   0.3430 
 19 C        7.7170     0.9440     0.8440 C.3   1 <1>   0.3430 
 20 C        9.9230    -0.4040    -0.5240 C.3   1 <1>  -0.1600 
 21 C        9.0090     1.6990     0.5230 C.3   1 <1>  -0.1600 
 22 C       10.2140     0.7530     0.4400 C.3   1 <1>  -0.1600 
 23 H        1.5300    -1.8390    -0.8060 H     1 <1>   0.0800 
 24 H        1.4600    -1.3880     0.9070 H     1 <1>   0.0800 
 25 H       -0.2820    -2.8990     0.3150 H     1 <1>   0.1500 
 26 H       -1.8890     0.9010    -0.7500 H     1 <1>   0.1500 
 27 H        2.5530     0.7620     0.3830 H     1 <1>   0.0800 
 28 H        2.6250     0.3100    -1.3260 H     1 <1>   0.0800 
 29 H       -4.1690    -0.0290    -0.6000 H     1 <1>   0.1500 
 30 H       -1.7620    -4.7850     0.7490 H     1 <1>   0.1500 
 31 H        4.9170     0.8680     0.4590 H     1 <1>   0.0800 
 32 H        4.9820     0.4260    -1.2550 H     1 <1>   0.0800 
 33 H       -5.6620    -1.9350    -0.1610 H     1 <1>   0.1500 
 34 H       -4.0340    -5.7180     0.9000 H     1 <1>   0.1500 
 35 H        6.1330    -1.6780    -0.6490 H     1 <1>   0.0800 
 36 H        6.1280    -1.2110     1.0330 H     1 <1>   0.0800 
 37 H       -5.9750    -4.3010     0.4480 H     1 <1>   0.1500 
 38 H        7.4890     0.3210    -1.1020 H     1 <1>   0.4500 
 39 H        8.4220    -1.8870    -0.9060 H     1 <1>   0.0800 
 40 H        8.6970    -1.5720     0.7920 H     1 <1>   0.0800 
 41 H        7.7940     0.5020     1.8250 H     1 <1>   0.0800 
 42 H        6.8930     1.6380     0.8490 H     1 <1>   0.0800 
 43 H        9.8790    -0.0380    -1.5350 H     1 <1>   0.0800 
 44 H       10.7300    -1.1160    -0.4770 H     1 <1>   0.0800 
 45 H        9.1870     2.4330     1.2910 H     1 <1>   0.0800 
 46 H        8.8930     2.2290    -0.4060 H     1 <1>   0.0800 
 47 H       11.0840     1.2960     0.1090 H     1 <1>   0.0800 
 48 H       10.4290     0.3590     1.4200 H     1 <1>   0.0800 
@<TRIPOS>BOND
  1   1   2  1   
  2   1   3  1   
  3   2   4  ar  
  4   2   5  ar  
  5   3   6  1   
  6   3  23  1   
  7   3  24  1   
  8   4   7  ar  
  9   4  25  1   
 10   5   8  ar  
 11   5  26  1   
 12   6   9  1   
 13   6  27  1   
 14   6  28  1   
 15   7  10  ar  
 16   7  11  ar  
 17   8  10  ar  
 18   8  29  1   
 19   9  12  1   
 20  10  13  ar  
 21  11  14  ar  
 22  11  30  1   
 23  12  15  1   
 24  12  31  1   
 25  12  32  1   
 26  13  16  ar  
 27  13  33  1   
 28  14  16  ar  
 29  14  34  1   
 30  15  17  1   
 31  15  35  1   
 32  15  36  1   
 33  16  37  1   
 34  17  18  1   
 35  17  19  1   
 36  17  38  1   
 37  18  20  1   
 38  18  39  1   
 39  18  40  1   
 40  19  21  1   
 41  19  41  1   
 42  19  42  1   
 43  20  22  1   
 44  20  43  1   
 45  20  44  1   
 46  21  22  1   
 47  21  45  1   
 48  21  46  1   
 49  22  47  1   
 50  22  48  1   
@<TRIPOS>SUBSTRUCTURE
  1 ****   3 GROUP 4 **** **** 0

# MOE 2024.06 (io_trps.svl 2023.06)
