@<TRIPOS>MOLECULE
NONAME
52 55 1 0 0 
SMALL
USER_CHARGES


@<TRIPOS>ATOM
  1 O       -4.9290    -4.1920     1.0060 O.2   1 <1>  -0.5700 
  2 C       -5.1420    -3.9960    -0.1670 C.2   1 <1>   0.5690 
  3 N       -6.4040    -3.9030    -0.6690 N.am  1 <1>  -0.7300 
  4 C       -3.9160    -3.8150    -1.0790 C.3   1 <1>   0.4040 
  5 C       -7.6440    -3.9880     0.1520 C.3   1 <1>   0.1400 
  6 N       -2.7210    -3.2510    -0.3450 N.4   1 <1>  -0.9590 
  7 C       -8.4270    -2.6570     0.1650 C.3   1 <1>   0.0000 
  8 C       -2.9650    -1.8490     0.1060 C.3   1 <1>   0.3430 
  9 C       -1.4490    -3.4050    -1.1050 C.3   1 <1>   0.3430 
 10 C       -9.6920    -2.8330     1.0370 C.3   1 <1>  -0.1600 
 11 C       -8.8730    -2.2440    -1.2600 C.3   1 <1>  -0.1600 
 12 C       -7.5770    -1.5130     0.7710 C.3   1 <1>  -0.1600 
 13 C       -1.8090    -1.3870     0.9950 C.3   1 <1>  -0.1600 
 14 C       -0.2720    -2.9650    -0.2320 C.3   1 <1>  -0.1600 
 15 C      -10.5110    -1.5300     1.0890 C.3   1 <1>  -0.0800 
 16 C       -9.6840    -0.9350    -1.2180 C.3   1 <1>  -0.0800 
 17 C       -8.3840    -0.2020     0.8190 C.3   1 <1>  -0.0800 
 18 C       -0.4530    -1.5340     0.2910 C.3   1 <1>  -0.1600 
 19 C      -10.9320    -1.1400    -0.3390 C.3   1 <1>  -0.1600 
 20 C       -9.6380    -0.4110     1.6860 C.3   1 <1>  -0.1600 
 21 C       -8.8150     0.1810    -0.6100 C.3   1 <1>  -0.1600 
 22 H       -6.5880    -3.7230    -1.6590 H     1 <1>   0.3700 
 23 H       -4.1800    -3.1690    -1.8970 H     1 <1>   0.0800 
 24 H       -3.6660    -4.7820    -1.4780 H     1 <1>   0.0800 
 25 H       -7.3930    -4.2590     1.1640 H     1 <1>   0.0800 
 26 H       -8.2710    -4.7690    -0.2450 H     1 <1>   0.0800 
 27 H       -2.6560    -3.8070     0.5240 H     1 <1>   0.4500 
 28 H       -3.8860    -1.7950     0.6670 H     1 <1>   0.0800 
 29 H       -3.0450    -1.1960    -0.7480 H     1 <1>   0.0800 
 30 H       -1.4800    -2.7990    -1.9960 H     1 <1>   0.0800 
 31 H       -1.3120    -4.4340    -1.3960 H     1 <1>   0.0800 
 32 H       -9.4130    -3.1150     2.0370 H     1 <1>   0.0800 
 33 H      -10.3080    -3.6210     0.6380 H     1 <1>   0.0800 
 34 H       -9.4760    -3.0220    -1.6950 H     1 <1>   0.0800 
 35 H       -8.0180    -2.0980    -1.8940 H     1 <1>   0.0800 
 36 H       -6.6910    -1.3550     0.1840 H     1 <1>   0.0800 
 37 H       -7.2650    -1.7790     1.7670 H     1 <1>   0.0800 
 38 H       -1.8140    -1.9600     1.9070 H     1 <1>   0.0800 
 39 H       -1.9620    -0.3570     1.2640 H     1 <1>   0.0800 
 40 H        0.6340    -3.0200    -0.8100 H     1 <1>   0.0800 
 41 H       -0.1670    -3.6460     0.5950 H     1 <1>   0.0800 
 42 H      -11.3860    -1.6730     1.7000 H     1 <1>   0.0800 
 43 H       -9.9850    -0.6600    -2.2140 H     1 <1>   0.0800 
 44 H       -7.7810     0.5840     1.2400 H     1 <1>   0.0800 
 45 H        0.3420    -1.2920     0.9770 H     1 <1>   0.0800 
 46 H       -0.3980    -0.8390    -0.5310 H     1 <1>   0.0800 
 47 H      -11.5110    -0.2330    -0.3120 H     1 <1>   0.0800 
 48 H      -11.5530    -1.9110    -0.7600 H     1 <1>   0.0800 
 49 H      -10.2040     0.5040     1.7350 H     1 <1>   0.0800 
 50 H       -9.3500    -0.6690     2.6900 H     1 <1>   0.0800 
 51 H       -9.3730     1.1010    -0.5850 H     1 <1>   0.0800 
 52 H       -7.9460     0.3440    -1.2230 H     1 <1>   0.0800 
@<TRIPOS>BOND
  1   1   2  2   
  2   2   3  am  
  3   2   4  1   
  4   3   5  1   
  5   3  22  1   
  6   4   6  1   
  7   4  23  1   
  8   4  24  1   
  9   5   7  1   
 10   5  25  1   
 11   5  26  1   
 12   6   8  1   
 13   6   9  1   
 14   6  27  1   
 15   7  10  1   
 16   7  11  1   
 17   7  12  1   
 18   8  13  1   
 19   8  28  1   
 20   8  29  1   
 21   9  14  1   
 22   9  30  1   
 23   9  31  1   
 24  10  15  1   
 25  10  32  1   
 26  10  33  1   
 27  11  16  1   
 28  11  34  1   
 29  11  35  1   
 30  12  17  1   
 31  12  36  1   
 32  12  37  1   
 33  13  18  1   
 34  13  38  1   
 35  13  39  1   
 36  14  18  1   
 37  14  40  1   
 38  14  41  1   
 39  15  19  1   
 40  15  20  1   
 41  15  42  1   
 42  16  19  1   
 43  16  21  1   
 44  16  43  1   
 45  17  20  1   
 46  17  21  1   
 47  17  44  1   
 48  18  45  1   
 49  18  46  1   
 50  19  47  1   
 51  19  48  1   
 52  20  49  1   
 53  20  50  1   
 54  21  51  1   
 55  21  52  1   
@<TRIPOS>SUBSTRUCTURE
  1 ****  12 GROUP 4 **** **** 0

# MOE 2024.06 (io_trps.svl 2023.06)
