@<TRIPOS>MOLECULE
NONAME
35 36 1 0 0 
SMALL
USER_CHARGES


@<TRIPOS>ATOM
  1 O        0.2690    -0.4120    -0.1630 O.2   1 <1>  -0.5700 
  2 C        0.3440    -1.6130    -0.2220 C.2   1 <1>   0.5700 
  3 N        1.5180    -2.2690    -0.4740 N.am  1 <1>  -0.6600 
  4 C        2.7790    -1.5260    -0.7790 C.3   1 <1>   0.1400 
  5 C        1.6470    -3.7490    -0.3820 C.3   1 <1>   0.1400 
  6 C        3.8980    -1.9310     0.1950 C.3   1 <1>   0.3430 
  7 C        2.7900    -4.1380     0.5810 C.3   1 <1>   0.3430 
  8 N        4.0770    -3.4290     0.2580 N.4   1 <1>  -0.9590 
  9 C        5.1710    -3.8050     1.1940 C.3   1 <1>   0.4860 
 10 C        6.4750    -3.2660     0.6380 C.ar  1 <1>  -0.1440 
 11 C        7.1340    -3.8870    -0.4220 C.ar  1 <1>  -0.1440 
 12 C        7.0110    -2.1170     1.2030 C.ar  1 <1>  -0.1500 
 13 C        8.3050    -3.3270    -0.9100 C.ar  1 <1>  -0.1500 
 14 C        6.6310    -5.1710    -1.0710 C.3   1 <1>  -0.0970 
 15 C        8.1810    -1.5710     0.7100 C.ar  1 <1>  -0.1500 
 16 C        8.8260    -2.1750    -0.3510 C.ar  1 <1>  -0.1500 
 17 H       -0.5470    -2.1930    -0.0540 H     1 <1>   0.0600 
 18 H        2.6170    -0.4630    -0.7060 H     1 <1>   0.0800 
 19 H        3.0800    -1.7360    -1.7910 H     1 <1>   0.0800 
 20 H        1.8430    -4.1500    -1.3620 H     1 <1>   0.0800 
 21 H        0.7230    -4.1760    -0.0300 H     1 <1>   0.0800 
 22 H        3.6500    -1.5510     1.1730 H     1 <1>   0.0800 
 23 H        4.8170    -1.4620    -0.1180 H     1 <1>   0.0800 
 24 H        2.9380    -5.2050     0.5370 H     1 <1>   0.0800 
 25 H        2.4850    -3.8890     1.5840 H     1 <1>   0.0800 
 26 H        4.4010    -3.7190    -0.6730 H     1 <1>   0.4500 
 27 H        5.2380    -4.8760     1.2840 H     1 <1>   0.0800 
 28 H        4.9880    -3.3910     2.1730 H     1 <1>   0.0800 
 29 H        6.5310    -1.6300     2.0360 H     1 <1>   0.1500 
 30 H        8.8310    -3.7860    -1.7310 H     1 <1>   0.1500 
 31 H        5.8140    -4.9630    -1.7370 H     1 <1>   0.0800 
 32 H        6.3210    -5.8840    -0.3290 H     1 <1>   0.0800 
 33 H        7.4160    -5.6320    -1.6470 H     1 <1>   0.0800 
 34 H        8.5950    -0.6790     1.1500 H     1 <1>   0.1500 
 35 H        9.7380    -1.7530    -0.7390 H     1 <1>   0.1500 
@<TRIPOS>BOND
  1   1   2  2   
  2   2   3  am  
  3   2  17  1   
  4   3   4  1   
  5   3   5  1   
  6   4   6  1   
  7   4  18  1   
  8   4  19  1   
  9   5   7  1   
 10   5  20  1   
 11   5  21  1   
 12   6   8  1   
 13   6  22  1   
 14   6  23  1   
 15   7   8  1   
 16   7  24  1   
 17   7  25  1   
 18   8   9  1   
 19   8  26  1   
 20   9  10  1   
 21   9  27  1   
 22   9  28  1   
 23  10  11  ar  
 24  10  12  ar  
 25  11  13  ar  
 26  11  14  1   
 27  12  15  ar  
 28  12  29  1   
 29  13  16  ar  
 30  13  30  1   
 31  14  31  1   
 32  14  32  1   
 33  14  33  1   
 34  15  16  ar  
 35  15  34  1   
 36  16  35  1   
@<TRIPOS>SUBSTRUCTURE
  1 ****   8 GROUP 4 **** **** 0

# MOE 2024.06 (io_trps.svl 2023.06)
