@<TRIPOS>MOLECULE
NONAME
49 50 1 0 0 
SMALL
USER_CHARGES


@<TRIPOS>ATOM
  1 O        0.3280    -0.1060    -0.1690 O.2   1 <1>  -0.5700 
  2 C        1.3190     0.5960    -0.1840 C.2   1 <1>   0.6340 
  3 O        1.1650     1.9220    -0.2560 O.3   1 <1>  -0.4300 
  4 C        2.6670     0.0670    -0.1260 C.ar  1 <1>   0.0860 
  5 C       -0.1120     2.5160    -0.3170 C.3   1 <1>   0.1200 
  6 C        2.9010    -1.3080    -0.0480 C.ar  1 <1>  -0.1500 
  7 C        3.7960     0.8920    -0.1440 C.ar  1 <1>  -0.1500 
  8 C        0.0720     4.0280    -0.3910 C.3   1 <1>  -0.2400 
  9 C        4.1800    -1.8280     0.0060 C.ar  1 <1>  -0.1500 
 10 C        5.0760     0.3750    -0.0880 C.ar  1 <1>  -0.1500 
 11 C        5.2950    -0.9980    -0.0150 C.ar  1 <1>   0.1170 
 12 N        6.5650    -1.5830     0.0510 N.am  1 <1>  -0.5470 
 13 C        7.8100    -1.0850    -0.2480 C.2   1 <1>   0.5690 
 14 O        7.9860     0.0290    -0.6800 O.2   1 <1>  -0.5700 
 15 C        9.0180    -2.0170    -0.0160 C.3   1 <1>   0.1710 
 16 N       10.3560    -1.3590     0.0640 N.3   1 <1>  -0.8100 
 17 C       10.4720    -0.3930     1.1850 C.3   1 <1>   0.1100 
 18 C       11.4860    -2.3140     0.0710 C.3   1 <1>   0.1100 
 19 C       11.8210     0.3660     1.1570 C.3   1 <1>   0.3430 
 20 C       12.8560    -1.5860     0.0610 C.3   1 <1>   0.3430 
 21 N       12.6780    -0.0940     0.0150 N.4   1 <1>  -0.9590 
 22 C       13.9280     0.6900    -0.1250 C.3   1 <1>   0.3430 
 23 C       14.5380     0.4470    -1.5000 C.3   1 <1>  -0.2400 
 24 H       -0.6610     2.2350     0.5660 H     1 <1>   0.0800 
 25 H       -0.6190     2.1440    -1.1910 H     1 <1>   0.0800 
 26 H        2.0570    -1.9770    -0.0320 H     1 <1>   0.1500 
 27 H        3.6690     1.9590    -0.2030 H     1 <1>   0.1500 
 28 H        0.5890     4.3810     0.4830 H     1 <1>   0.0800 
 29 H       -0.8890     4.5080    -0.4390 H     1 <1>   0.0800 
 30 H        0.6310     4.2900    -1.2720 H     1 <1>   0.0800 
 31 H        4.3070    -2.8930     0.0630 H     1 <1>   0.1500 
 32 H        5.9070     1.0550    -0.1010 H     1 <1>   0.1500 
 33 H        6.5460    -2.5630     0.3250 H     1 <1>   0.3700 
 34 H        9.0320    -2.7140    -0.8350 H     1 <1>   0.0800 
 35 H        8.8490    -2.5740     0.8880 H     1 <1>   0.0800 
 36 H       10.3710    -0.9070     2.1260 H     1 <1>   0.0800 
 37 H        9.6790     0.3340     1.1290 H     1 <1>   0.0800 
 38 H       11.4250    -2.9440    -0.8010 H     1 <1>   0.0800 
 39 H       11.4260    -2.9500     0.9380 H     1 <1>   0.0800 
 40 H       12.3340     0.2140     2.0910 H     1 <1>   0.0800 
 41 H       11.6200     1.4210     1.0590 H     1 <1>   0.0800 
 42 H       13.4150    -1.9180    -0.7980 H     1 <1>   0.0800 
 43 H       13.4120    -1.8630     0.9410 H     1 <1>   0.0800 
 44 H       12.0710     0.0570    -0.8090 H     1 <1>   0.4500 
 45 H       14.6290     0.4160     0.6470 H     1 <1>   0.0800 
 46 H       13.7070     1.7410    -0.0240 H     1 <1>   0.0800 
 47 H       14.8690    -0.5690    -1.6110 H     1 <1>   0.0800 
 48 H       15.3960     1.0840    -1.6210 H     1 <1>   0.0800 
 49 H       13.8340     0.6880    -2.2770 H     1 <1>   0.0800 
@<TRIPOS>BOND
  1   1   2  2   
  2   2   3  1   
  3   2   4  1   
  4   3   5  1   
  5   4   6  ar  
  6   4   7  ar  
  7   5   8  1   
  8   5  24  1   
  9   5  25  1   
 10   6   9  ar  
 11   6  26  1   
 12   7  10  ar  
 13   7  27  1   
 14   8  28  1   
 15   8  29  1   
 16   8  30  1   
 17   9  11  ar  
 18   9  31  1   
 19  10  11  ar  
 20  10  32  1   
 21  11  12  1   
 22  12  13  am  
 23  12  33  1   
 24  13  14  2   
 25  13  15  1   
 26  15  16  1   
 27  15  34  1   
 28  15  35  1   
 29  16  17  1   
 30  16  18  1   
 31  17  19  1   
 32  17  36  1   
 33  17  37  1   
 34  18  20  1   
 35  18  38  1   
 36  18  39  1   
 37  19  21  1   
 38  19  40  1   
 39  19  41  1   
 40  20  21  1   
 41  20  42  1   
 42  20  43  1   
 43  21  22  1   
 44  21  44  1   
 45  22  23  1   
 46  22  45  1   
 47  22  46  1   
 48  23  47  1   
 49  23  48  1   
 50  23  49  1   
@<TRIPOS>SUBSTRUCTURE
  1 ****  14 GROUP 4 **** **** 0

# MOE 2024.06 (io_trps.svl 2023.06)
