@<TRIPOS>MOLECULE
Structure2280
31 32 1 0 0 
SMALL
USER_CHARGES


@<TRIPOS>ATOM
  1 F       -1.2470    -1.0910    -1.5240 F     1 <1>  -0.1900 
  2 C       -0.7260    -2.0530    -0.8080 C.ar  1 <1>   0.1900 
  3 C       -1.3400    -2.4290     0.3800 C.ar  1 <1>  -0.1440 
  4 C        0.4230    -2.6600    -1.2790 C.ar  1 <1>  -0.1500 
  5 C       -0.7550    -3.4540     1.1120 C.ar  1 <1>  -0.1500 
  6 C       -2.6110    -1.7500     0.8780 C.3   1 <1>  -0.0160 
  7 C        0.9870    -3.6830    -0.5370 C.ar  1 <1>  -0.1500 
  8 C        0.3980    -4.0760     0.6550 C.ar  1 <1>  -0.1500 
  9 C       -3.8490    -2.1720     0.0610 C.3   1 <1>  -0.0800 
 10 C       -5.1050    -1.4320     0.5500 C.3   1 <1>  -0.1600 
 11 C       -4.0840    -3.6930     0.1070 C.3   1 <1>  -0.1600 
 12 C       -6.3520    -1.8680    -0.2230 C.3   1 <1>   0.3430 
 13 C       -5.3470    -4.0930    -0.6560 C.3   1 <1>   0.3430 
 14 N       -6.5150    -3.3440    -0.1150 N.4   1 <1>  -0.9060 
 15 H        0.8640    -2.3360    -2.2040 H     1 <1>   0.1500 
 16 H       -1.1880    -3.7750     2.0430 H     1 <1>   0.1500 
 17 H       -2.4790    -0.6840     0.8080 H     1 <1>   0.0800 
 18 H       -2.7610    -1.9830     1.9180 H     1 <1>   0.0800 
 19 H        1.8820    -4.1710    -0.8830 H     1 <1>   0.1500 
 20 H        0.8430    -4.8690     1.2320 H     1 <1>   0.1500 
 21 H       -3.6760    -1.8910    -0.9650 H     1 <1>   0.0800 
 22 H       -4.9700    -0.3730     0.4140 H     1 <1>   0.0800 
 23 H       -5.2570    -1.6050     1.6010 H     1 <1>   0.0800 
 24 H       -4.1550    -4.0310     1.1260 H     1 <1>   0.0800 
 25 H       -3.2480    -4.2020    -0.3410 H     1 <1>   0.0800 
 26 H       -6.2470    -1.5870    -1.2590 H     1 <1>   0.0800 
 27 H       -7.2200    -1.3680     0.1780 H     1 <1>   0.0800 
 28 H       -5.5080    -5.1550    -0.5590 H     1 <1>   0.0800 
 29 H       -5.2190    -3.8640    -1.7020 H     1 <1>   0.0800 
 30 H       -7.3700    -3.6350    -0.6060 H     1 <1>   0.4500 
 31 H       -6.6350    -3.5920     0.8740 H     1 <1>   0.4500 
@<TRIPOS>BOND
  1   1   2  1   
  2   2   3  ar  
  3   2   4  ar  
  4   3   5  ar  
  5   3   6  1   
  6   4   7  ar  
  7   4  15  1   
  8   5   8  ar  
  9   5  16  1   
 10   6   9  1   
 11   6  17  1   
 12   6  18  1   
 13   7   8  ar  
 14   7  19  1   
 15   8  20  1   
 16   9  10  1   
 17   9  11  1   
 18   9  21  1   
 19  10  12  1   
 20  10  22  1   
 21  10  23  1   
 22  11  13  1   
 23  11  24  1   
 24  11  25  1   
 25  12  14  1   
 26  12  26  1   
 27  12  27  1   
 28  13  14  1   
 29  13  28  1   
 30  13  29  1   
 31  14  30  1   
 32  14  31  1   
@<TRIPOS>SUBSTRUCTURE
  1 ****   3 GROUP 4 **** **** 0

# MOE 2024.06 (io_trps.svl 2023.06)
