@<TRIPOS>MOLECULE
NONAME
35 36 1 0 0 
SMALL
USER_CHARGES


@<TRIPOS>ATOM
  1 F       -1.9410     1.4880     1.8580 F     1 <1>  -0.1900 
  2 C       -1.0910     2.2350     1.2040 C.ar  1 <1>   0.1900 
  3 C       -1.3500     2.5370    -0.1240 C.ar  1 <1>  -0.1440 
  4 C        0.0250     2.7020     1.8700 C.ar  1 <1>  -0.1500 
  5 C       -0.4410     3.3380    -0.8020 C.ar  1 <1>  -0.1500 
  6 C       -2.5930     2.0000    -0.8020 C.3   1 <1>   0.4870 
  7 C        0.9190     3.5030     1.1820 C.ar  1 <1>  -0.1500 
  8 C        0.6840     3.8170    -0.1480 C.ar  1 <1>  -0.1500 
  9 N       -3.7890     2.6300    -0.1870 N.4   1 <1>  -0.9590 
 10 C       -5.0890     2.0500    -0.6430 C.3   1 <1>   0.3430 
 11 C       -3.8100     4.1320    -0.2990 C.3   1 <1>   0.3430 
 12 C       -6.2670     2.6000     0.2030 C.3   1 <1>   0.2000 
 13 C       -5.1810     4.7460     0.0900 C.3   1 <1>   0.2000 
 14 O       -5.9480     3.8240     0.8170 O.3   1 <1>  -0.5600 
 15 C       -6.6360     1.6480     1.3390 C.3   1 <1>  -0.2400 
 16 C       -5.9900     5.2530    -1.1110 C.3   1 <1>  -0.2400 
 17 H        0.1910     2.4450     2.9020 H     1 <1>   0.1500 
 18 H       -0.5900     3.5960    -1.8370 H     1 <1>   0.1500 
 19 H       -2.6320     0.9300    -0.6700 H     1 <1>   0.0800 
 20 H       -2.5590     2.2150    -1.8570 H     1 <1>   0.0800 
 21 H        1.7980     3.8800     1.6780 H     1 <1>   0.1500 
 22 H        1.3900     4.4390    -0.6770 H     1 <1>   0.1500 
 23 H       -3.7400     2.4380     0.8270 H     1 <1>   0.4500 
 24 H       -5.0730     0.9750    -0.5680 H     1 <1>   0.0800 
 25 H       -5.2570     2.3030    -1.6770 H     1 <1>   0.0800 
 26 H       -3.5730     4.4320    -1.3060 H     1 <1>   0.0800 
 27 H       -3.0500     4.5480     0.3430 H     1 <1>   0.0800 
 28 H       -7.1300     2.7520    -0.4230 H     1 <1>   0.0800 
 29 H       -5.0040     5.5820     0.7460 H     1 <1>   0.0800 
 30 H       -5.8030     1.5020     2.0030 H     1 <1>   0.0800 
 31 H       -6.9380     0.6930     0.9460 H     1 <1>   0.0800 
 32 H       -7.4610     2.0530     1.8990 H     1 <1>   0.0800 
 33 H       -6.1450     4.4880    -1.8490 H     1 <1>   0.0800 
 34 H       -5.4690     6.0690    -1.5810 H     1 <1>   0.0800 
 35 H       -6.9430     5.6230    -0.7750 H     1 <1>   0.0800 
@<TRIPOS>BOND
  1   1   2  1   
  2   2   3  ar  
  3   2   4  ar  
  4   3   5  ar  
  5   3   6  1   
  6   4   7  ar  
  7   4  17  1   
  8   5   8  ar  
  9   5  18  1   
 10   6   9  1   
 11   6  19  1   
 12   6  20  1   
 13   7   8  ar  
 14   7  21  1   
 15   8  22  1   
 16   9  10  1   
 17   9  11  1   
 18   9  23  1   
 19  10  12  1   
 20  10  24  1   
 21  10  25  1   
 22  11  13  1   
 23  11  26  1   
 24  11  27  1   
 25  12  14  1   
 26  12  15  1   
 27  12  28  1   
 28  13  14  1   
 29  13  16  1   
 30  13  29  1   
 31  15  30  1   
 32  15  31  1   
 33  15  32  1   
 34  16  33  1   
 35  16  34  1   
 36  16  35  1   
@<TRIPOS>SUBSTRUCTURE
  1 ****   9 GROUP 4 **** **** 0

# MOE 2024.06 (io_trps.svl 2023.06)
