@<TRIPOS>MOLECULE
NONAME
47 49 1 0 0 
SMALL
USER_CHARGES


@<TRIPOS>ATOM
  1 S        0.1350     0.6550     0.8060 S.o2  1 <1>   1.4470 
  2 O        0.7810    -0.3400    -0.0210 O.2   1 <1>  -0.6500 
  3 O        0.0060     0.4280     2.2300 O.2   1 <1>  -0.6500 
  4 N        1.0100     2.0970     0.6210 N.am  1 <1>  -0.8490 
  5 C       -1.4830     1.0590     0.0910 C.ar  1 <1>  -0.0090 
  6 C        2.4440     1.8770     0.8660 C.3   1 <1>   0.1960 
  7 C        0.5000     3.1640     1.4890 C.3   1 <1>   0.1960 
  8 C       -2.6380     1.0230     0.8330 C.ar  1 <1>  -0.1500 
  9 C       -1.5810     1.4360    -1.2590 C.ar  1 <1>  -0.1500 
 10 C        3.2470     3.1390     0.5280 C.3   1 <1>  -0.0190 
 11 C        1.2150     4.4830     1.1740 C.3   1 <1>  -0.1600 
 12 C       -3.8960     1.3510     0.2910 C.ar  1 <1>   0.0000 
 13 C       -2.7860     1.7610    -1.8200 C.ar  1 <1>  -0.1500 
 14 C        4.7270     2.8910     0.7760 C.2   1 <1>   0.5690 
 15 C        2.7350     4.3460     1.3350 C.3   1 <1>  -0.1600 
 16 C       -3.9730     1.7300    -1.0640 C.ar  1 <1>   0.0000 
 17 C       -5.0820     1.3170     1.0530 C.ar  1 <1>  -0.1500 
 18 O        5.0850     2.4490     1.8400 O.2   1 <1>  -0.5700 
 19 N        5.6120     3.1770    -0.2090 N.am  1 <1>  -0.7300 
 20 C       -5.2310     2.0610    -1.6070 C.ar  1 <1>  -0.1500 
 21 C       -6.2900     1.6430     0.5020 C.ar  1 <1>  -0.1500 
 22 C        7.0650     3.0060    -0.1020 C.3   1 <1>   0.2780 
 23 C       -6.3650     2.0200    -0.8440 C.ar  1 <1>  -0.1500 
 24 C        7.7030     4.1170    -0.9060 C.2   1 <1>  -0.2880 
 25 C        8.4180     3.9530    -2.0230 C.2   1 <1>  -0.3000 
 26 H        2.8010     1.0690     0.2490 H     1 <1>   0.0800 
 27 H        2.6010     1.6010     1.8970 H     1 <1>   0.0800 
 28 H        0.6540     2.9040     2.5250 H     1 <1>   0.0800 
 29 H       -0.5570     3.2950     1.3280 H     1 <1>   0.0800 
 30 H       -2.5970     0.7340     1.8690 H     1 <1>   0.1500 
 31 H       -0.6780     1.4630    -1.8470 H     1 <1>   0.1500 
 32 H        3.1080     3.3380    -0.5190 H     1 <1>   0.0800 
 33 H        0.8500     5.2510     1.8320 H     1 <1>   0.0800 
 34 H        0.9770     4.7740     0.1650 H     1 <1>   0.0800 
 35 H       -2.8460     2.0460    -2.8550 H     1 <1>   0.1500 
 36 H        3.2250     5.2460     1.0050 H     1 <1>   0.0800 
 37 H        2.9700     4.2020     2.3770 H     1 <1>   0.0800 
 38 H       -5.0190     1.0250     2.0870 H     1 <1>   0.1500 
 39 H        5.3010     3.5480    -1.1070 H     1 <1>   0.3700 
 40 H       -5.2840     2.3490    -2.6410 H     1 <1>   0.1500 
 41 H       -7.1920     1.6150     1.0880 H     1 <1>   0.1500 
 42 H        7.3410     2.0440    -0.5000 H     1 <1>   0.0800 
 43 H        7.3760     3.0570     0.9290 H     1 <1>   0.0800 
 44 H       -7.3230     2.2740    -1.2630 H     1 <1>   0.1500 
 45 H        7.5170     5.0860    -0.4730 H     1 <1>   0.1500 
 46 H        8.8620     4.7640    -2.5750 H     1 <1>   0.1500 
 47 H        8.6200     2.9990    -2.4810 H     1 <1>   0.1500 
@<TRIPOS>BOND
  1   1   2  2   
  2   1   3  2   
  3   1   4  am  
  4   1   5  1   
  5   4   6  1   
  6   4   7  1   
  7   5   8  ar  
  8   5   9  ar  
  9   6  10  1   
 10   6  26  1   
 11   6  27  1   
 12   7  11  1   
 13   7  28  1   
 14   7  29  1   
 15   8  12  ar  
 16   8  30  1   
 17   9  13  ar  
 18   9  31  1   
 19  10  14  1   
 20  10  15  1   
 21  10  32  1   
 22  11  15  1   
 23  11  33  1   
 24  11  34  1   
 25  12  16  ar  
 26  12  17  ar  
 27  13  16  ar  
 28  13  35  1   
 29  14  18  2   
 30  14  19  am  
 31  15  36  1   
 32  15  37  1   
 33  16  20  ar  
 34  17  21  ar  
 35  17  38  1   
 36  19  22  1   
 37  19  39  1   
 38  20  23  ar  
 39  20  40  1   
 40  21  23  ar  
 41  21  41  1   
 42  22  24  1   
 43  22  42  1   
 44  22  43  1   
 45  23  44  1   
 46  24  25  2   
 47  24  45  1   
 48  25  46  1   
 49  25  47  1   
@<TRIPOS>SUBSTRUCTURE
  1 ****   4 GROUP 4 **** **** 0

# MOE 2024.06 (io_trps.svl 2023.06)
