@<TRIPOS>MOLECULE
NONAME
34 35 1 0 0 
SMALL
USER_CHARGES


@<TRIPOS>ATOM
  1 CL       0.5120    -0.3720     1.4440 Cl    1 <1>  -0.1770 
  2 C        2.1670    -0.4180     0.8870 C.ar  1 <1>   0.1770 
  3 C        2.4460    -0.1200    -0.4320 C.ar  1 <1>  -0.1500 
  4 C        3.1730    -0.7530     1.7770 C.ar  1 <1>  -0.1500 
  5 C        3.7650    -0.1650    -0.8370 C.ar  1 <1>   0.1900 
  6 C        4.4890    -0.7930     1.3410 C.ar  1 <1>  -0.1500 
  7 F        4.0200     0.1320    -2.0880 F     1 <1>  -0.1900 
  8 C        4.8170    -0.4970     0.0200 C.ar  1 <1>   0.1170 
  9 N        6.1450    -0.5490    -0.4410 N.am  1 <1>  -0.5470 
 10 C        7.3290    -0.3230     0.2000 C.2   1 <1>   0.5690 
 11 O        7.3640     0.0510     1.3520 O.2   1 <1>  -0.5700 
 12 C        8.6350    -0.5040    -0.6040 C.3   1 <1>  -0.0190 
 13 C        8.8880    -1.9710    -1.0490 C.3   1 <1>  -0.1860 
 14 C        9.9050     0.0290     0.1190 C.3   1 <1>  -0.1600 
 15 C        7.8630    -2.5120    -2.0440 C.2   1 <1>   0.9060 
 16 C        9.0740    -2.8860     0.1870 C.3   1 <1>  -0.1600 
 17 C       10.7040    -1.0500     0.8800 C.3   1 <1>  -0.1600 
 18 O        7.7630    -3.7300    -2.2100 O.co2 1 <1>  -0.9000 
 19 O        7.1550    -1.7100    -2.6680 O.co2 1 <1>  -0.9000 
 20 C        9.8130    -2.2040     1.3560 C.3   1 <1>  -0.1600 
 21 H        1.6650     0.1390    -1.1210 H     1 <1>   0.1500 
 22 H        2.9290    -0.9820     2.7990 H     1 <1>   0.1500 
 23 H        5.2690    -1.0620     2.0310 H     1 <1>   0.1500 
 24 H        6.2660    -0.8720    -1.4260 H     1 <1>   0.3700 
 25 H        8.5140     0.0940    -1.4900 H     1 <1>   0.0800 
 26 H        9.8110    -1.9790    -1.5970 H     1 <1>   0.0800 
 27 H        9.6350     0.8220     0.7950 H     1 <1>   0.0800 
 28 H       10.5580     0.4650    -0.6160 H     1 <1>   0.0800 
 29 H        9.6160    -3.7620    -0.1250 H     1 <1>   0.0800 
 30 H        8.1100    -3.2200     0.5320 H     1 <1>   0.0800 
 31 H       11.2050    -0.6030     1.7200 H     1 <1>   0.0800 
 32 H       11.4590    -1.4540     0.2270 H     1 <1>   0.0800 
 33 H       10.4020    -2.9340     1.8830 H     1 <1>   0.0800 
 34 H        9.0890    -1.8130     2.0500 H     1 <1>   0.0800 
@<TRIPOS>BOND
  1   1   2  1   
  2   2   3  ar  
  3   2   4  ar  
  4   3   5  ar  
  5   3  21  1   
  6   4   6  ar  
  7   4  22  1   
  8   5   7  1   
  9   5   8  ar  
 10   6   8  ar  
 11   6  23  1   
 12   8   9  1   
 13   9  10  am  
 14   9  24  1   
 15  10  11  2   
 16  10  12  1   
 17  12  13  1   
 18  12  14  1   
 19  12  25  1   
 20  13  15  1   
 21  13  16  1   
 22  13  26  1   
 23  14  17  1   
 24  14  27  1   
 25  14  28  1   
 26  15  18  ar  
 27  15  19  ar  
 28  16  20  1   
 29  16  29  1   
 30  16  30  1   
 31  17  20  1   
 32  17  31  1   
 33  17  32  1   
 34  20  33  1   
 35  20  34  1   
@<TRIPOS>SUBSTRUCTURE
  1 ****   9 GROUP 4 **** **** 0

# MOE 2024.06 (io_trps.svl 2023.06)
