@<TRIPOS>MOLECULE
NONAME
36 38 1 0 0 
SMALL
USER_CHARGES


@<TRIPOS>ATOM
  1 F        0.6200    -0.1000    -1.5910 F     1 <1>  -0.1900 
  2 C        1.7180     0.3260    -1.0160 C.ar  1 <1>   0.1900 
  3 C        2.6830    -0.5930    -0.6060 C.ar  1 <1>   0.1170 
  4 C        1.8660     1.6900    -0.8570 C.ar  1 <1>  -0.1500 
  5 N        2.5010    -1.9810    -0.7620 N.am  1 <1>  -0.5470 
  6 C        3.8300    -0.0740    -0.0150 C.ar  1 <1>  -0.1500 
  7 C        3.0210     2.1750    -0.2670 C.ar  1 <1>  -0.1500 
  8 C        3.4150    -2.9540    -1.0500 C.2   1 <1>   0.5690 
  9 C        4.0050     1.2930     0.1560 C.ar  1 <1>  -0.1440 
 10 O        4.5480    -2.6570    -1.3610 O.2   1 <1>  -0.5700 
 11 C        3.0400    -4.4460    -1.1200 C.3   1 <1>  -0.0190 
 12 C        5.2730     1.8180     0.8030 C.3   1 <1>  -0.0970 
 13 C        1.8720    -5.0620    -0.2950 C.3   1 <1>  -0.1860 
 14 C        4.2060    -5.2870    -0.5690 C.3   1 <1>   0.2000 
 15 C        0.8770    -4.1540     0.3870 C.2   1 <1>   0.9060 
 16 C        2.6270    -5.9860     0.6720 C.3   1 <1>   0.2000 
 17 O        3.8640    -5.3790     0.7600 O.3   1 <1>  -0.5600 
 18 C        4.1100    -6.7590    -0.9940 C.3   1 <1>  -0.1600 
 19 O        0.2330    -3.3910    -0.3410 O.co2 1 <1>  -0.9000 
 20 O        0.6770    -4.2170     1.6000 O.co2 1 <1>  -0.9000 
 21 C        3.0180    -7.2760    -0.0520 C.3   1 <1>  -0.1600 
 22 H        1.0910     2.3540    -1.1910 H     1 <1>   0.1500 
 23 H        1.5200    -2.3100    -0.6520 H     1 <1>   0.3700 
 24 H        4.5910    -0.7580     0.3160 H     1 <1>   0.1500 
 25 H        3.1500     3.2350    -0.1390 H     1 <1>   0.1500 
 26 H        2.9000    -4.6660    -2.1610 H     1 <1>   0.0800 
 27 H        5.6900     1.0790     1.4640 H     1 <1>   0.0800 
 28 H        5.0650     2.7050     1.3720 H     1 <1>   0.0800 
 29 H        5.9980     2.0500     0.0430 H     1 <1>   0.0800 
 30 H        1.2670    -5.6630    -0.9460 H     1 <1>   0.0800 
 31 H        5.1900    -4.8640    -0.6830 H     1 <1>   0.0800 
 32 H        2.1820    -6.1220     1.6440 H     1 <1>   0.0800 
 33 H        5.0450    -7.2580    -0.8090 H     1 <1>   0.0800 
 34 H        3.8470    -6.8570    -2.0320 H     1 <1>   0.0800 
 35 H        2.1870    -7.7230    -0.5680 H     1 <1>   0.0800 
 36 H        3.4190    -7.9770     0.6580 H     1 <1>   0.0800 
@<TRIPOS>BOND
  1   1   2  1   
  2   2   3  ar  
  3   2   4  ar  
  4   3   5  1   
  5   3   6  ar  
  6   4   7  ar  
  7   4  22  1   
  8   5   8  am  
  9   5  23  1   
 10   6   9  ar  
 11   6  24  1   
 12   7   9  ar  
 13   7  25  1   
 14   8  10  2   
 15   8  11  1   
 16   9  12  1   
 17  11  13  1   
 18  11  14  1   
 19  11  26  1   
 20  12  27  1   
 21  12  28  1   
 22  12  29  1   
 23  13  15  1   
 24  13  16  1   
 25  13  30  1   
 26  14  17  1   
 27  14  18  1   
 28  14  31  1   
 29  15  19  ar  
 30  15  20  ar  
 31  16  17  1   
 32  16  21  1   
 33  16  32  1   
 34  18  21  1   
 35  18  33  1   
 36  18  34  1   
 37  21  35  1   
 38  21  36  1   
@<TRIPOS>SUBSTRUCTURE
  1 ****   5 GROUP 4 **** **** 0

# MOE 2024.06 (io_trps.svl 2023.06)
