@<TRIPOS>MOLECULE
NONAME
42 43 1 0 0 
SMALL
USER_CHARGES


@<TRIPOS>ATOM
  1 O       -1.6340     7.3190    -0.3070 O.3   1 <1>  -0.3630 
  2 C       -0.3960     6.7830    -0.1450 C.ar  1 <1>   0.0830 
  3 C       -2.7890     6.5980     0.0450 C.3   1 <1>   0.1200 
  4 C       -0.1600     5.5210     0.3960 C.ar  1 <1>  -0.1500 
  5 C        0.6760     7.5620    -0.5520 C.ar  1 <1>  -0.1500 
  6 C       -3.9930     7.4900    -0.2730 C.3   1 <1>   0.3430 
  7 C        1.1380     5.0580     0.5200 C.ar  1 <1>  -0.1500 
  8 C        1.9730     7.0980    -0.4270 C.ar  1 <1>  -0.1500 
  9 N       -5.3050     6.8570     0.0890 N.4   1 <1>  -0.9590 
 10 C        2.2100     5.8360     0.1130 C.ar  1 <1>   0.0830 
 11 C       -5.6190     5.6720    -0.7690 C.3   1 <1>   0.3430 
 12 C       -6.3970     7.8730     0.0240 C.3   1 <1>   0.3430 
 13 O        3.4470     5.2990     0.2730 O.3   1 <1>  -0.3630 
 14 C       -6.9090     5.0100    -0.2800 C.3   1 <1>  -0.1600 
 15 C       -7.7040     7.2600     0.5310 C.3   1 <1>  -0.1600 
 16 C        4.6030     6.0080    -0.1070 C.3   1 <1>   0.1200 
 17 C       -8.0810     5.9980    -0.2540 C.3   1 <1>  -0.1600 
 18 C        5.8150     5.1340     0.2030 C.3   1 <1>  -0.2400 
 19 H       -2.7380     6.3810     1.0970 H     1 <1>   0.0800 
 20 H       -2.8030     5.6950    -0.5380 H     1 <1>   0.0800 
 21 H       -0.9570     4.8850     0.7260 H     1 <1>   0.1500 
 22 H        0.4910     8.5360    -0.9680 H     1 <1>   0.1500 
 23 H       -3.9840     7.7260    -1.3250 H     1 <1>   0.0800 
 24 H       -3.8790     8.4090     0.2790 H     1 <1>   0.0800 
 25 H        1.3350     4.0860     0.9360 H     1 <1>   0.1500 
 26 H        2.7800     7.7270    -0.7520 H     1 <1>   0.1500 
 27 H       -5.2620     6.5330     1.0650 H     1 <1>   0.4500 
 28 H       -4.8150     4.9550    -0.7290 H     1 <1>   0.0800 
 29 H       -5.7440     5.9860    -1.7930 H     1 <1>   0.0800 
 30 H       -6.5270     8.2050    -0.9940 H     1 <1>   0.0800 
 31 H       -6.1450     8.7290     0.6300 H     1 <1>   0.0800 
 32 H       -6.7510     4.6000     0.7030 H     1 <1>   0.0800 
 33 H       -7.1510     4.1890    -0.9330 H     1 <1>   0.0800 
 34 H       -8.4930     7.9860     0.4360 H     1 <1>   0.0800 
 35 H       -7.6090     7.0280     1.5780 H     1 <1>   0.0800 
 36 H        4.6420     6.9250     0.4550 H     1 <1>   0.0800 
 37 H        4.5450     6.2160    -1.1610 H     1 <1>   0.0800 
 38 H       -8.9440     5.5320     0.1930 H     1 <1>   0.0800 
 39 H       -8.3450     6.2690    -1.2640 H     1 <1>   0.0800 
 40 H        5.8540     4.9180     1.2560 H     1 <1>   0.0800 
 41 H        6.7160     5.6480    -0.0760 H     1 <1>   0.0800 
 42 H        5.7570     4.2140    -0.3500 H     1 <1>   0.0800 
@<TRIPOS>BOND
  1   1   2  1   
  2   1   3  1   
  3   2   4  ar  
  4   2   5  ar  
  5   3   6  1   
  6   3  19  1   
  7   3  20  1   
  8   4   7  ar  
  9   4  21  1   
 10   5   8  ar  
 11   5  22  1   
 12   6   9  1   
 13   6  23  1   
 14   6  24  1   
 15   7  10  ar  
 16   7  25  1   
 17   8  10  ar  
 18   8  26  1   
 19   9  11  1   
 20   9  12  1   
 21   9  27  1   
 22  10  13  1   
 23  11  14  1   
 24  11  28  1   
 25  11  29  1   
 26  12  15  1   
 27  12  30  1   
 28  12  31  1   
 29  13  16  1   
 30  14  17  1   
 31  14  32  1   
 32  14  33  1   
 33  15  17  1   
 34  15  34  1   
 35  15  35  1   
 36  16  18  1   
 37  16  36  1   
 38  16  37  1   
 39  17  38  1   
 40  17  39  1   
 41  18  40  1   
 42  18  41  1   
 43  18  42  1   
@<TRIPOS>SUBSTRUCTURE
  1 ****   1 GROUP 4 **** **** 0

# MOE 2024.06 (io_trps.svl 2023.06)
