@<TRIPOS>MOLECULE
NONAME
52 53 1 0 0 
SMALL
USER_CHARGES


@<TRIPOS>ATOM
  1 O       -0.5470    -0.7950     1.1380 O.3   1 <1>  -0.3630 
  2 C       -1.7380    -1.1020     0.5730 C.ar  1 <1>   0.0830 
  3 C        0.5980    -1.0350     0.3470 C.3   1 <1>   0.0400 
  4 C       -2.2760    -0.3870    -0.5020 C.ar  1 <1>   0.0830 
  5 C       -2.4290    -2.1790     1.1000 C.ar  1 <1>  -0.1500 
  6 O       -1.6900     0.7090    -1.0480 O.3   1 <1>  -0.3630 
  7 C       -3.4720    -0.7970    -1.0630 C.ar  1 <1>  -0.1500 
  8 C       -3.6410    -2.5790     0.5450 C.ar  1 <1>   0.0830 
  9 C       -1.4400     1.8070    -0.1930 C.3   1 <1>   0.0400 
 10 C       -4.1590    -1.8860    -0.5460 C.ar  1 <1>  -0.1440 
 11 O       -4.3650    -3.6320     1.0260 O.3   1 <1>  -0.3630 
 12 C       -5.4700    -2.3130    -1.1720 C.3   1 <1>   0.4860 
 13 C       -3.7880    -4.5170     1.9700 C.3   1 <1>   0.0400 
 14 N       -6.5400    -2.2150    -0.1310 N.4   1 <1>  -0.9590 
 15 C       -7.7840    -2.9900    -0.4440 C.3   1 <1>   0.4230 
 16 C       -6.7540    -0.7640     0.2040 C.3   1 <1>   0.2630 
 17 C       -8.8290    -2.8000     0.6670 C.3   1 <1>  -0.1600 
 18 C       -7.4580    -4.4860    -0.5900 C.3   1 <1>  -0.1600 
 19 C      -10.0680    -3.6690     0.4480 C.3   1 <1>   0.3430 
 20 C       -8.7150    -5.3340    -0.7880 C.3   1 <1>   0.3430 
 21 N       -9.6710    -5.0990     0.3280 N.4   1 <1>  -0.9590 
 22 C      -10.8880    -5.9620     0.1590 C.3   1 <1>   0.2630 
 23 H        1.4670    -0.7870     0.9290 H     1 <1>   0.0800 
 24 H        0.5590    -0.4200    -0.5340 H     1 <1>   0.0800 
 25 H        0.6210    -2.0750     0.0750 H     1 <1>   0.0800 
 26 H       -1.9880    -2.6830     1.9390 H     1 <1>   0.1500 
 27 H       -3.8470    -0.2440    -1.9070 H     1 <1>   0.1500 
 28 H       -1.1980     2.6580    -0.8030 H     1 <1>   0.0800 
 29 H       -0.6120     1.5780     0.4520 H     1 <1>   0.0800 
 30 H       -2.3230     2.0090     0.3880 H     1 <1>   0.0800 
 31 H       -5.3560    -3.3270    -1.5130 H     1 <1>   0.0800 
 32 H       -5.7040    -1.6880    -2.0180 H     1 <1>   0.0800 
 33 H       -3.6110    -3.9870     2.8900 H     1 <1>   0.0800 
 34 H       -2.8660    -4.9040     1.5720 H     1 <1>   0.0800 
 35 H       -4.4740    -5.3270     2.1440 H     1 <1>   0.0800 
 36 H       -6.0750    -2.6500     0.6880 H     1 <1>   0.4500 
 37 H       -8.1990    -2.6290    -1.3730 H     1 <1>   0.0800 
 38 H       -7.2140    -0.2480    -0.6230 H     1 <1>   0.0800 
 39 H       -5.8110    -0.2870     0.4220 H     1 <1>   0.0800 
 40 H       -7.3820    -0.6620     1.0740 H     1 <1>   0.0800 
 41 H       -9.1660    -1.7790     0.6890 H     1 <1>   0.0800 
 42 H       -8.4040    -3.0350     1.6270 H     1 <1>   0.0800 
 43 H       -6.9310    -4.8410     0.2790 H     1 <1>   0.0800 
 44 H       -6.8340    -4.6520    -1.4490 H     1 <1>   0.0800 
 45 H      -10.5800    -3.3570    -0.4490 H     1 <1>   0.0800 
 46 H      -10.7460    -3.5450     1.2790 H     1 <1>   0.0800 
 47 H       -8.4430    -6.3780    -0.8240 H     1 <1>   0.0800 
 48 H       -9.1820    -5.0800    -1.7270 H     1 <1>   0.0800 
 49 H       -9.2230    -5.3900     1.2120 H     1 <1>   0.4500 
 50 H      -11.4090    -5.7090    -0.7510 H     1 <1>   0.0800 
 51 H      -11.5630    -5.8270     0.9890 H     1 <1>   0.0800 
 52 H      -10.6080    -7.0020     0.1160 H     1 <1>   0.0800 
@<TRIPOS>BOND
  1   1   2  1   
  2   1   3  1   
  3   2   4  ar  
  4   2   5  ar  
  5   3  23  1   
  6   3  24  1   
  7   3  25  1   
  8   4   6  1   
  9   4   7  ar  
 10   5   8  ar  
 11   5  26  1   
 12   6   9  1   
 13   7  10  ar  
 14   7  27  1   
 15   8  10  ar  
 16   8  11  1   
 17   9  28  1   
 18   9  29  1   
 19   9  30  1   
 20  10  12  1   
 21  11  13  1   
 22  12  14  1   
 23  12  31  1   
 24  12  32  1   
 25  13  33  1   
 26  13  34  1   
 27  13  35  1   
 28  14  15  1   
 29  14  16  1   
 30  14  36  1   
 31  15  17  1   
 32  15  18  1   
 33  15  37  1   
 34  16  38  1   
 35  16  39  1   
 36  16  40  1   
 37  17  19  1   
 38  17  41  1   
 39  17  42  1   
 40  18  20  1   
 41  18  43  1   
 42  18  44  1   
 43  19  21  1   
 44  19  45  1   
 45  19  46  1   
 46  20  21  1   
 47  20  47  1   
 48  20  48  1   
 49  21  22  1   
 50  21  49  1   
 51  22  50  1   
 52  22  51  1   
 53  22  52  1   
@<TRIPOS>SUBSTRUCTURE
  1 ****  10 GROUP 4 **** **** 0

# MOE 2024.06 (io_trps.svl 2023.06)
