@<TRIPOS>MOLECULE
NONAME
45 46 1 0 0 
SMALL
USER_CHARGES


@<TRIPOS>ATOM
  1 CL      -0.3960     1.9120    -2.1170 Cl    1 <1>  -0.1770 
  2 C       -0.8930     2.3970    -0.5100 C.ar  1 <1>   0.1770 
  3 C       -0.0530     3.1910     0.2670 C.ar  1 <1>   0.0830 
  4 C       -2.1220     1.9690    -0.0440 C.ar  1 <1>  -0.1500 
  5 O        1.1380     3.5680    -0.2700 O.3   1 <1>  -0.3630 
  6 C       -0.4660     3.5610     1.5470 C.ar  1 <1>  -0.1500 
  7 C       -2.5090     2.3480     1.2270 C.ar  1 <1>   0.1770 
  8 C        2.1280     4.2360     0.4830 C.3   1 <1>   0.1200 
  9 C       -1.6970     3.1360     2.0240 C.ar  1 <1>  -0.1500 
 10 CL      -4.0550     1.8220     1.8410 Cl    1 <1>  -0.1770 
 11 C        3.3650     4.4190    -0.4080 C.3   1 <1>   0.2000 
 12 O        3.6900     3.1930    -0.9960 O.3   1 <1>  -0.6800 
 13 C        4.5880     4.9560     0.3700 C.3   1 <1>   0.3430 
 14 N        5.8630     4.4810    -0.2610 N.4   1 <1>  -0.9590 
 15 C        6.7430     3.8100     0.7330 C.3   1 <1>   0.4230 
 16 C        6.5810     5.4830    -1.0930 C.3   1 <1>   0.4230 
 17 C        7.9600     4.6710     1.1250 C.3   1 <1>  -0.1600 
 18 C        7.1760     2.4750     0.1390 C.3   1 <1>  -0.2400 
 19 C        7.0960     6.6370    -0.2140 C.3   1 <1>  -0.1600 
 20 C        5.7060     5.9770    -2.2410 C.3   1 <1>  -0.2400 
 21 C        7.6280     6.1700     1.1550 C.3   1 <1>  -0.1600 
 22 H       -2.7600     1.3570    -0.6530 H     1 <1>   0.1500 
 23 H        0.1440     4.1750     2.1820 H     1 <1>   0.1500 
 24 H        2.3630     3.6340     1.3440 H     1 <1>   0.0800 
 25 H        1.7370     5.1890     0.7930 H     1 <1>   0.0800 
 26 H       -2.0320     3.4120     3.0080 H     1 <1>   0.1500 
 27 H        3.1180     5.1020    -1.2030 H     1 <1>   0.0800 
 28 H        2.8580     2.7730    -1.3230 H     1 <1>   0.4000 
 29 H        4.5310     4.5880     1.3810 H     1 <1>   0.0800 
 30 H        4.5590     6.0310     0.4140 H     1 <1>   0.0800 
 31 H        5.5270     3.7290    -0.8930 H     1 <1>   0.4500 
 32 H        6.1710     3.6080     1.6240 H     1 <1>   0.0800 
 33 H        7.4390     4.9920    -1.5240 H     1 <1>   0.0800 
 34 H        8.7680     4.5050     0.4320 H     1 <1>   0.0800 
 35 H        8.3120     4.3560     2.0930 H     1 <1>   0.0800 
 36 H        7.7400     2.6160    -0.7660 H     1 <1>   0.0800 
 37 H        6.3180     1.8600    -0.0660 H     1 <1>   0.0800 
 38 H        7.7960     1.9500     0.8440 H     1 <1>   0.0800 
 39 H        6.3280     7.3760    -0.0660 H     1 <1>   0.0800 
 40 H        7.8920     7.1230    -0.7520 H     1 <1>   0.0800 
 41 H        4.8860     6.5750    -1.8900 H     1 <1>   0.0800 
 42 H        5.3320     5.1470    -2.8140 H     1 <1>   0.0800 
 43 H        6.2980     6.5900    -2.8980 H     1 <1>   0.0800 
 44 H        8.5030     6.7390     1.4230 H     1 <1>   0.0800 
 45 H        6.8830     6.3490     1.9110 H     1 <1>   0.0800 
@<TRIPOS>BOND
  1   1   2  1   
  2   2   3  ar  
  3   2   4  ar  
  4   3   5  1   
  5   3   6  ar  
  6   4   7  ar  
  7   4  22  1   
  8   5   8  1   
  9   6   9  ar  
 10   6  23  1   
 11   7   9  ar  
 12   7  10  1   
 13   8  11  1   
 14   8  24  1   
 15   8  25  1   
 16   9  26  1   
 17  11  12  1   
 18  11  13  1   
 19  11  27  1   
 20  12  28  1   
 21  13  14  1   
 22  13  29  1   
 23  13  30  1   
 24  14  15  1   
 25  14  16  1   
 26  14  31  1   
 27  15  17  1   
 28  15  18  1   
 29  15  32  1   
 30  16  19  1   
 31  16  20  1   
 32  16  33  1   
 33  17  21  1   
 34  17  34  1   
 35  17  35  1   
 36  18  36  1   
 37  18  37  1   
 38  18  38  1   
 39  19  21  1   
 40  19  39  1   
 41  19  40  1   
 42  20  41  1   
 43  20  42  1   
 44  20  43  1   
 45  21  44  1   
 46  21  45  1   
@<TRIPOS>SUBSTRUCTURE
  1 ****   8 GROUP 4 **** **** 0

# MOE 2024.06 (io_trps.svl 2023.06)
