@<TRIPOS>MOLECULE
NONAME
40 42 1 0 0 
SMALL
USER_CHARGES


@<TRIPOS>ATOM
  1 CL      -2.3430     3.2000    -2.5340 Cl    1 <1>  -0.1770 
  2 C       -1.0630     3.4330    -1.3700 C.ar  1 <1>   0.1770 
  3 C        0.2490     3.4220    -1.7910 C.ar  1 <1>  -0.1500 
  4 C       -1.3880     3.6260    -0.0440 C.ar  1 <1>  -0.1500 
  5 C        1.3000     3.6050    -0.8890 C.ar  1 <1>   0.0530 
  6 C       -0.3710     3.8100     0.8730 C.ar  1 <1>  -0.1500 
  7 C        0.9650     3.8010     0.4690 C.ar  1 <1>   0.0830 
  8 C        2.6600     3.5830    -1.3980 C.2   1 <1>   0.1330 
  9 O        1.9710     3.9800     1.3730 O.3   1 <1>  -0.3630 
 10 N        3.0200     3.3660    -2.6360 N.2   1 <1>  -0.3380 
 11 N        3.7520     3.7870    -0.6500 N.pl3 1 <1>   0.0330 
 12 C        1.7290     4.1070     2.7610 C.3   1 <1>   0.0400 
 13 N        4.3530     3.4260    -2.7030 N.2   1 <1>  -0.3380 
 14 C        4.7520     3.6780    -1.5090 C.2   1 <1>   0.2430 
 15 S        6.4830     3.8580    -1.0600 S.3   1 <1>  -0.2860 
 16 C        6.4810     4.4120     0.7060 C.3   1 <1>   0.2500 
 17 C        7.9010     4.4630     1.2330 C.2   1 <1>   0.2980 
 18 O        8.7910     5.2120     0.6670 O.3   1 <1>  -0.2800 
 19 N        8.3660     3.8340     2.2430 N.2   1 <1>  -0.3380 
 20 C        9.8550     5.0060     1.3730 C.2   1 <1>   0.2980 
 21 N        9.6480     4.1900     2.3340 N.2   1 <1>  -0.3380 
 22 C       11.1530     5.7050     1.0170 C.3   1 <1>   0.0200 
 23 C       11.6830     5.2530    -0.3520 C.3   1 <1>  -0.1600 
 24 C       13.0020     5.9490    -0.7060 C.3   1 <1>  -0.2400 
 25 H        0.4530     3.2680    -2.8360 H     1 <1>   0.1500 
 26 H       -2.4200     3.6310     0.2570 H     1 <1>   0.1500 
 27 H       -0.6510     3.9600     1.8990 H     1 <1>   0.1500 
 28 H        3.7390     3.9650     0.3540 H     1 <1>   0.2700 
 29 H        2.6750     4.2020     3.2630 H     1 <1>   0.0800 
 30 H        1.2200     3.2260     3.1110 H     1 <1>   0.0800 
 31 H        1.1370     4.9890     2.9350 H     1 <1>   0.0800 
 32 H        5.9010     3.7040     1.2680 H     1 <1>   0.0800 
 33 H        6.0300     5.3860     0.7380 H     1 <1>   0.0800 
 34 H       11.8820     5.4850     1.7770 H     1 <1>   0.0800 
 35 H       10.9830     6.7660     1.0130 H     1 <1>   0.0800 
 36 H       10.9500     5.4720    -1.1100 H     1 <1>   0.0800 
 37 H       11.8340     4.1860    -0.3380 H     1 <1>   0.0800 
 38 H       12.8670     7.0150    -0.7480 H     1 <1>   0.0800 
 39 H       13.3470     5.6110    -1.6680 H     1 <1>   0.0800 
 40 H       13.7570     5.7210     0.0250 H     1 <1>   0.0800 
@<TRIPOS>BOND
  1   1   2  1   
  2   2   3  ar  
  3   2   4  ar  
  4   3   5  ar  
  5   3  25  1   
  6   4   6  ar  
  7   4  26  1   
  8   5   7  ar  
  9   5   8  1   
 10   6   7  ar  
 11   6  27  1   
 12   7   9  1   
 13   8  10  2   
 14   8  11  1   
 15   9  12  1   
 16  10  13  1   
 17  11  14  1   
 18  11  28  1   
 19  12  29  1   
 20  12  30  1   
 21  12  31  1   
 22  13  14  2   
 23  14  15  1   
 24  15  16  1   
 25  16  17  1   
 26  16  32  1   
 27  16  33  1   
 28  17  18  1   
 29  17  19  2   
 30  18  20  1   
 31  19  21  1   
 32  20  21  2   
 33  20  22  1   
 34  22  23  1   
 35  22  34  1   
 36  22  35  1   
 37  23  24  1   
 38  23  36  1   
 39  23  37  1   
 40  24  38  1   
 41  24  39  1   
 42  24  40  1   
@<TRIPOS>SUBSTRUCTURE
  1 ****  11 GROUP 4 **** **** 0

# MOE 2024.06 (io_trps.svl 2023.06)
