@<TRIPOS>MOLECULE
NONAME
38 39 1 0 0 
SMALL
USER_CHARGES


@<TRIPOS>ATOM
  1 S       -0.4020     1.9550     0.2590 S.3   1 <1>  -0.2860 
  2 C        1.2930     1.4160     0.0110 C.2   1 <1>   0.2420 
  3 C       -1.2000     0.4420     0.9950 C.3   1 <1>   0.1310 
  4 N        1.7040     0.2260     0.2660 N.2   1 <1>  -0.3380 
  5 N        2.2440     2.2210    -0.4610 N.pl3 1 <1>   0.0480 
  6 C       -2.6930     0.6400     1.2040 C.2   1 <1>   0.5690 
  7 N        3.0020     0.2170    -0.0500 N.2   1 <1>  -0.3380 
  8 C        3.3040     1.3990    -0.4770 C.2   1 <1>   0.0060 
  9 C        2.1300     3.6390    -0.8560 C.3   1 <1>   0.0160 
 10 O       -3.2390    -0.0410     2.0380 O.2   1 <1>  -0.5700 
 11 N       -3.3430     1.5720     0.4380 N.am  1 <1>  -0.5470 
 12 C        4.6930     1.7960    -0.9390 C.3   1 <1>  -0.0600 
 13 C       -4.6900     1.9570     0.3650 C.ar  1 <1>   0.1170 
 14 C       -5.0030     3.1580    -0.2600 C.ar  1 <1>  -0.1500 
 15 C       -5.7340     1.1930     0.8720 C.ar  1 <1>  -0.1500 
 16 C       -6.3110     3.5980    -0.3800 C.ar  1 <1>  -0.1430 
 17 C       -7.0420     1.6220     0.7600 C.ar  1 <1>  -0.1500 
 18 C       -7.3440     2.8230     0.1360 C.ar  1 <1>  -0.1430 
 19 C       -6.5880     4.9250    -1.0730 C.3   1 <1>  -0.0970 
 20 C       -8.7980     3.2580     0.0340 C.3   1 <1>  -0.0970 
 21 H       -0.7120     0.2500     1.9320 H     1 <1>   0.0800 
 22 H       -1.0240    -0.3750     0.3200 H     1 <1>   0.0800 
 23 H        1.5990     3.7040    -1.7890 H     1 <1>   0.0800 
 24 H        3.1070     4.0700    -0.9680 H     1 <1>   0.0800 
 25 H        1.5900     4.1780    -0.0990 H     1 <1>   0.0800 
 26 H       -2.7170     2.1210    -0.1510 H     1 <1>   0.3700 
 27 H        5.0830     2.5780    -0.3130 H     1 <1>   0.0800 
 28 H        4.6630     2.1340    -1.9590 H     1 <1>   0.0800 
 29 H        5.3530     0.9480    -0.8780 H     1 <1>   0.0800 
 30 H       -4.2050     3.7580    -0.6560 H     1 <1>   0.1500 
 31 H       -5.5330     0.2560     1.3560 H     1 <1>   0.1500 
 32 H       -7.8280     1.0080     1.1640 H     1 <1>   0.1500 
 33 H       -5.6770     5.3870    -1.4060 H     1 <1>   0.0800 
 34 H       -7.0780     5.5990    -0.3940 H     1 <1>   0.0800 
 35 H       -7.2190     4.7680    -1.9290 H     1 <1>   0.0800 
 36 H       -8.9370     4.1970     0.5380 H     1 <1>   0.0800 
 37 H       -9.4510     2.5340     0.4860 H     1 <1>   0.0800 
 38 H       -9.0790     3.3670    -0.9980 H     1 <1>   0.0800 
@<TRIPOS>BOND
  1   1   2  1   
  2   1   3  1   
  3   2   4  2   
  4   2   5  1   
  5   3   6  1   
  6   3  21  1   
  7   3  22  1   
  8   4   7  1   
  9   5   8  1   
 10   5   9  1   
 11   6  10  2   
 12   6  11  am  
 13   7   8  2   
 14   8  12  1   
 15   9  23  1   
 16   9  24  1   
 17   9  25  1   
 18  11  13  1   
 19  11  26  1   
 20  12  27  1   
 21  12  28  1   
 22  12  29  1   
 23  13  14  ar  
 24  13  15  ar  
 25  14  16  ar  
 26  14  30  1   
 27  15  17  ar  
 28  15  31  1   
 29  16  18  ar  
 30  16  19  1   
 31  17  18  ar  
 32  17  32  1   
 33  18  20  1   
 34  19  33  1   
 35  19  34  1   
 36  19  35  1   
 37  20  36  1   
 38  20  37  1   
 39  20  38  1   
@<TRIPOS>SUBSTRUCTURE
  1 ****  11 GROUP 4 **** **** 0

# MOE 2024.06 (io_trps.svl 2023.06)
