@<TRIPOS>MOLECULE
NONAME
48 50 1 0 0 
SMALL
USER_CHARGES


@<TRIPOS>ATOM
  1 O       -7.1260    -2.1700     0.3500 O.3   1 <1>  -0.3630 
  2 C       -8.0880    -1.2250     0.5060 C.ar  1 <1>   0.0830 
  3 C       -7.4420    -3.2780    -0.4860 C.3   1 <1>   0.2000 
  4 C       -9.4070    -1.4700     0.1200 C.ar  1 <1>   0.0830 
  5 C       -7.7430    -0.0010     1.0530 C.ar  1 <1>  -0.1500 
  6 C       -8.8770    -3.7490    -0.2070 C.3   1 <1>   0.1200 
  7 C       -6.4050    -4.3850    -0.2570 C.3   1 <1>   0.1200 
  8 O       -9.7800    -2.6750    -0.3830 O.3   1 <1>  -0.3630 
  9 C      -10.3610    -0.4770     0.2550 C.ar  1 <1>  -0.1500 
 10 C       -8.7040     0.9880     1.1920 C.ar  1 <1>  -0.1500 
 11 O       -5.1300    -3.8580    -0.4780 O.3   1 <1>  -0.5600 
 12 C      -10.0090     0.7510     0.7900 C.ar  1 <1>  -0.1500 
 13 C       -4.0650    -4.6460    -0.0510 C.3   1 <1>   0.1200 
 14 C       -2.8280    -3.7420    -0.0200 C.3   1 <1>   0.2000 
 15 O       -1.7450    -4.4450     0.4890 O.3   1 <1>  -0.6800 
 16 C       -3.0640    -2.5090     0.8800 C.3   1 <1>   0.3430 
 17 N       -3.0210    -1.2040     0.1380 N.4   1 <1>  -0.9590 
 18 C       -2.9430    -0.0580     1.0810 C.3   1 <1>   0.3430 
 19 C       -4.1980    -1.0730    -0.7840 C.3   1 <1>   0.3430 
 20 C       -2.6080     1.2210     0.3020 C.3   1 <1>  -0.1600 
 21 C       -4.4100     0.3740    -1.2560 C.3   1 <1>  -0.1600 
 22 C       -3.1430     1.2320    -1.1430 C.3   1 <1>  -0.1600 
 23 H       -7.3800    -2.9460    -1.5080 H     1 <1>   0.0800 
 24 H       -6.7330     0.1780     1.3680 H     1 <1>   0.1500 
 25 H       -8.9720    -4.1010     0.8050 H     1 <1>   0.0800 
 26 H       -9.1650    -4.5330    -0.8840 H     1 <1>   0.0800 
 27 H       -6.5620    -5.2030    -0.9390 H     1 <1>   0.0800 
 28 H       -6.4750    -4.7420     0.7570 H     1 <1>   0.0800 
 29 H      -11.3730    -0.6710    -0.0540 H     1 <1>   0.1500 
 30 H       -8.4410     1.9430     1.6150 H     1 <1>   0.1500 
 31 H      -10.7530     1.5220     0.8960 H     1 <1>   0.1500 
 32 H       -3.9420    -5.4600    -0.7450 H     1 <1>   0.0800 
 33 H       -4.2760    -5.0200     0.9370 H     1 <1>   0.0800 
 34 H       -2.5700    -3.4440    -1.0210 H     1 <1>   0.0800 
 35 H       -1.5030    -5.2010    -0.0870 H     1 <1>   0.4000 
 36 H       -2.3070    -2.5100     1.6470 H     1 <1>   0.0800 
 37 H       -4.0240    -2.6070     1.3590 H     1 <1>   0.0800 
 38 H       -2.1660    -1.1760    -0.4310 H     1 <1>   0.4500 
 39 H       -2.1890    -0.2330     1.8320 H     1 <1>   0.0800 
 40 H       -3.8940     0.0590     1.5740 H     1 <1>   0.0800 
 41 H       -5.0920    -1.4070    -0.2840 H     1 <1>   0.0800 
 42 H       -4.0520    -1.7120    -1.6400 H     1 <1>   0.0800 
 43 H       -1.5420     1.3640     0.2870 H     1 <1>   0.0800 
 44 H       -3.0260     2.0530     0.8430 H     1 <1>   0.0800 
 45 H       -5.1920     0.8160    -0.6630 H     1 <1>   0.0800 
 46 H       -4.7620     0.3630    -2.2730 H     1 <1>   0.0800 
 47 H       -2.3930     0.8380    -1.8080 H     1 <1>   0.0800 
 48 H       -3.3490     2.2440    -1.4520 H     1 <1>   0.0800 
@<TRIPOS>BOND
  1   1   2  1   
  2   1   3  1   
  3   2   4  ar  
  4   2   5  ar  
  5   3   6  1   
  6   3   7  1   
  7   3  23  1   
  8   4   8  1   
  9   4   9  ar  
 10   5  10  ar  
 11   5  24  1   
 12   6   8  1   
 13   6  25  1   
 14   6  26  1   
 15   7  11  1   
 16   7  27  1   
 17   7  28  1   
 18   9  12  ar  
 19   9  29  1   
 20  10  12  ar  
 21  10  30  1   
 22  11  13  1   
 23  12  31  1   
 24  13  14  1   
 25  13  32  1   
 26  13  33  1   
 27  14  15  1   
 28  14  16  1   
 29  14  34  1   
 30  15  35  1   
 31  16  17  1   
 32  16  36  1   
 33  16  37  1   
 34  17  18  1   
 35  17  19  1   
 36  17  38  1   
 37  18  20  1   
 38  18  39  1   
 39  18  40  1   
 40  19  21  1   
 41  19  41  1   
 42  19  42  1   
 43  20  22  1   
 44  20  43  1   
 45  20  44  1   
 46  21  22  1   
 47  21  45  1   
 48  21  46  1   
 49  22  47  1   
 50  22  48  1   
@<TRIPOS>SUBSTRUCTURE
  1 ****   1 GROUP 4 **** **** 0

# MOE 2024.06 (io_trps.svl 2023.06)
