@<TRIPOS>MOLECULE
NONAME
53 55 1 0 0 
SMALL
USER_CHARGES


@<TRIPOS>ATOM
  1 S        0.4810     1.0850     0.3880 S.o2  1 <1>   1.0900 
  2 O        0.8160     2.4130     0.8480 O.2   1 <1>  -0.6500 
  3 O       -0.8060     0.7810    -0.1900 O.2   1 <1>  -0.6500 
  4 C        1.7840     0.5170    -0.6820 C.3   1 <1>  -0.0550 
  5 C        0.8050    -0.0740     1.7070 C.3   1 <1>  -0.0550 
  6 C        2.3770    -0.7290    -0.0290 C.3   1 <1>   0.2200 
  7 C        2.2210    -0.6100     1.4940 C.3   1 <1>  -0.1600 
  8 N        3.7890    -0.9540    -0.4560 N.am  1 <1>  -0.6600 
  9 C        4.0550    -1.8420    -1.4800 C.2   1 <1>   0.5440 
 10 C        4.8540    -0.0760     0.1250 C.3   1 <1>   0.0600 
 11 O        3.1450    -2.1750    -2.2140 O.2   1 <1>  -0.5700 
 12 C        5.3830    -2.3870    -1.6990 C.ar  1 <1>   0.0860 
 13 C        6.1520    -2.8620    -0.6380 C.ar  1 <1>  -0.1500 
 14 C        5.9330    -2.4650    -2.9760 C.ar  1 <1>  -0.1500 
 15 C        7.4290    -3.3770    -0.8100 C.ar  1 <1>  -0.0090 
 16 C        7.2000    -2.9760    -3.1780 C.ar  1 <1>  -0.1500 
 17 S        8.3900    -3.9780     0.6070 S.o2  1 <1>   1.4470 
 18 C        7.9420    -3.4260    -2.1000 C.ar  1 <1>  -0.1500 
 19 O        7.5850    -3.8860     1.8080 O.2   1 <1>  -0.6500 
 20 O        9.6960    -3.3580     0.5820 O.2   1 <1>  -0.6500 
 21 N        8.5960    -5.6250     0.2680 N.am  1 <1>  -0.8490 
 22 C        7.3430    -6.3770     0.4010 C.3   1 <1>   0.1960 
 23 C        9.6490    -6.2110     1.1020 C.3   1 <1>   0.1960 
 24 C        7.5410    -7.8230    -0.0640 C.3   1 <1>  -0.1600 
 25 C        9.9250    -7.6560     0.6750 C.3   1 <1>  -0.1600 
 26 C        8.6540    -8.5130     0.7350 C.3   1 <1>  -0.0800 
 27 C        8.9190    -9.9230     0.1970 C.3   1 <1>  -0.2400 
 28 H        2.5290     1.2810    -0.7700 H     1 <1>   0.0800 
 29 H        1.4060     0.2770    -1.6580 H     1 <1>   0.0800 
 30 H        0.1080    -0.8890     1.6380 H     1 <1>   0.0800 
 31 H        0.6990     0.3880     2.6700 H     1 <1>   0.0800 
 32 H        1.7780    -1.5720    -0.3380 H     1 <1>   0.0800 
 33 H        2.3560    -1.5610     1.9780 H     1 <1>   0.0800 
 34 H        2.9140     0.1050     1.9010 H     1 <1>   0.0800 
 35 H        5.1540    -0.4530     1.0870 H     1 <1>   0.0800 
 36 H        4.4910     0.9300     0.2410 H     1 <1>   0.0800 
 37 H        5.7150    -0.0450    -0.5210 H     1 <1>   0.0800 
 38 H        5.7330    -2.8300     0.3530 H     1 <1>   0.1500 
 39 H        5.3510    -2.1200    -3.8150 H     1 <1>   0.1500 
 40 H        7.6100    -3.0260    -4.1730 H     1 <1>   0.1500 
 41 H        8.9310    -3.8240    -2.2580 H     1 <1>   0.1500 
 42 H        6.5770    -5.9210    -0.2040 H     1 <1>   0.0800 
 43 H        7.0130    -6.3660     1.4270 H     1 <1>   0.0800 
 44 H        9.3550    -6.1790     2.1390 H     1 <1>   0.0800 
 45 H       10.5590    -5.6420     0.9930 H     1 <1>   0.0800 
 46 H        7.7850    -7.8170    -1.1120 H     1 <1>   0.0800 
 47 H        6.6190    -8.3620     0.0580 H     1 <1>   0.0800 
 48 H       10.6770    -8.0750     1.3190 H     1 <1>   0.0800 
 49 H       10.3190    -7.6470    -0.3270 H     1 <1>   0.0800 
 50 H        8.3420    -8.5920     1.7630 H     1 <1>   0.0800 
 51 H        9.2350    -9.8850    -0.8310 H     1 <1>   0.0800 
 52 H        8.0270   -10.5210     0.2600 H     1 <1>   0.0800 
 53 H        9.6890   -10.4040     0.7740 H     1 <1>   0.0800 
@<TRIPOS>BOND
  1   1   2  2   
  2   1   3  2   
  3   1   4  1   
  4   1   5  1   
  5   4   6  1   
  6   4  28  1   
  7   4  29  1   
  8   5   7  1   
  9   5  30  1   
 10   5  31  1   
 11   6   7  1   
 12   6   8  1   
 13   6  32  1   
 14   7  33  1   
 15   7  34  1   
 16   8   9  am  
 17   8  10  1   
 18   9  11  2   
 19   9  12  1   
 20  10  35  1   
 21  10  36  1   
 22  10  37  1   
 23  12  13  ar  
 24  12  14  ar  
 25  13  15  ar  
 26  13  38  1   
 27  14  16  ar  
 28  14  39  1   
 29  15  17  1   
 30  15  18  ar  
 31  16  18  ar  
 32  16  40  1   
 33  17  19  2   
 34  17  20  2   
 35  17  21  am  
 36  18  41  1   
 37  21  22  1   
 38  21  23  1   
 39  22  24  1   
 40  22  42  1   
 41  22  43  1   
 42  23  25  1   
 43  23  44  1   
 44  23  45  1   
 45  24  26  1   
 46  24  46  1   
 47  24  47  1   
 48  25  26  1   
 49  25  48  1   
 50  25  49  1   
 51  26  27  1   
 52  26  50  1   
 53  27  51  1   
 54  27  52  1   
 55  27  53  1   
@<TRIPOS>SUBSTRUCTURE
  1 ****  13 GROUP 4 **** **** 0

# MOE 2024.06 (io_trps.svl 2023.06)
