@<TRIPOS>MOLECULE
NONAME
33 35 1 0 0 
SMALL
USER_CHARGES


@<TRIPOS>ATOM
  1 O       -0.0920    -2.3370     2.5590 O.2   1 <1>  -0.5700 
  2 C       -0.0130    -1.6610     1.5540 C.2   1 <1>   0.5690 
  3 N        0.7220    -0.5280     1.5440 N.am  1 <1>  -0.5060 
  4 C       -0.8490    -2.0130     0.2930 C.3   1 <1>   0.2040 
  5 C        1.9290    -0.4810     0.8910 C.2   1 <1>   0.8140 
  6 C       -1.5730    -0.7360    -0.1880 C.ar  1 <1>  -0.1440 
  7 C        0.0230    -2.6500    -0.8080 C.3   1 <1>  -0.1600 
  8 C       -1.8410    -3.1700     0.5490 C.3   1 <1>  -0.1600 
  9 N        2.1900     0.5050     0.1180 N.2   1 <1>  -0.6190 
 10 N        2.8350    -1.3940     0.8900 N.2   1 <1>  -0.6190 
 11 C       -0.9800     0.1170    -1.1130 C.ar  1 <1>  -0.1500 
 12 C       -2.8180    -0.3870     0.3240 C.ar  1 <1>  -0.1500 
 13 C        0.2070    -4.1100    -0.3990 C.3   1 <1>  -0.1600 
 14 C       -1.0440    -4.4720     0.4030 C.3   1 <1>  -0.1600 
 15 N        3.3300     0.2140    -0.4130 N.2   1 <1>  -0.2500 
 16 N        3.7220    -0.9370     0.0560 N.2   1 <1>  -0.2500 
 17 C       -1.6200     1.2720    -1.5270 C.ar  1 <1>  -0.1500 
 18 C       -3.4610     0.7660    -0.0910 C.ar  1 <1>  -0.1500 
 19 C       -2.8630     1.5980    -1.0190 C.ar  1 <1>  -0.1500 
 20 H        0.2340     0.2770     1.1720 H     1 <1>   0.3700 
 21 H        0.9720    -2.1620    -0.9440 H     1 <1>   0.0800 
 22 H       -0.5090    -2.6180    -1.7430 H     1 <1>   0.0800 
 23 H       -2.6050    -3.1520    -0.2090 H     1 <1>   0.0800 
 24 H       -2.3110    -3.1040     1.5150 H     1 <1>   0.0800 
 25 H       -0.0030    -0.0940    -1.5190 H     1 <1>   0.1500 
 26 H       -3.3020    -1.0060     1.0580 H     1 <1>   0.1500 
 27 H        1.0770    -4.1920     0.2330 H     1 <1>   0.0800 
 28 H        0.3380    -4.7460    -1.2580 H     1 <1>   0.0800 
 29 H       -1.6290    -5.2250    -0.0970 H     1 <1>   0.0800 
 30 H       -0.7540    -4.8390     1.3740 H     1 <1>   0.0800 
 31 H       -1.1390     1.9180    -2.2410 H     1 <1>   0.1500 
 32 H       -4.4260     1.0180     0.3120 H     1 <1>   0.1500 
 33 H       -3.3600     2.4950    -1.3430 H     1 <1>   0.1500 
@<TRIPOS>BOND
  1   1   2  2   
  2   2   3  am  
  3   2   4  1   
  4   3   5  1   
  5   3  20  1   
  6   4   6  1   
  7   4   7  1   
  8   4   8  1   
  9   5   9  1   
 10   5  10  2   
 11   6  11  ar  
 12   6  12  ar  
 13   7  13  1   
 14   7  21  1   
 15   7  22  1   
 16   8  14  1   
 17   8  23  1   
 18   8  24  1   
 19   9  15  1   
 20  10  16  1   
 21  11  17  ar  
 22  11  25  1   
 23  12  18  ar  
 24  12  26  1   
 25  13  14  1   
 26  13  27  1   
 27  13  28  1   
 28  14  29  1   
 29  14  30  1   
 30  15  16  2   
 31  17  19  ar  
 32  17  31  1   
 33  18  19  ar  
 34  18  32  1   
 35  19  33  1   
@<TRIPOS>SUBSTRUCTURE
  1 ****   4 GROUP 4 **** **** 0

# MOE 2024.06 (io_trps.svl 2023.06)
