@<TRIPOS>MOLECULE
NONAME
47 49 1 0 0 
SMALL
USER_CHARGES


@<TRIPOS>ATOM
  1 CL       0.2460    -0.6890     0.5670 Cl    1 <1>  -0.1770 
  2 C        1.9600    -0.3700     0.4540 C.ar  1 <1>   0.1770 
  3 C        2.8570    -1.4060     0.6310 C.ar  1 <1>  -0.1500 
  4 C        2.3960     0.9140     0.1890 C.ar  1 <1>  -0.1500 
  5 C        4.2140    -1.1490     0.5400 C.ar  1 <1>  -0.1500 
  6 C        3.7550     1.1610     0.0990 C.ar  1 <1>  -0.1500 
  7 C        4.6830     0.1350     0.2750 C.ar  1 <1>   0.1170 
  8 N        6.0660     0.3460     0.1750 N.am  1 <1>  -0.5470 
  9 C        6.8040     1.4710     0.4130 C.2   1 <1>   0.6900 
 10 O        6.3120     2.4350     0.9630 O.2   1 <1>  -0.5700 
 11 N        8.1290     1.5100     0.0430 N.am  1 <1>  -0.6600 
 12 C        8.9590     2.6880     0.4580 C.3   1 <1>   0.1400 
 13 C        8.6890     0.7030    -1.0860 C.3   1 <1>   0.1400 
 14 C       10.4390     2.3150     0.6430 C.3   1 <1>   0.3430 
 15 C       10.1840     0.3790    -0.8760 C.3   1 <1>   0.3430 
 16 N       10.9980     1.6050    -0.5650 N.4   1 <1>  -0.9590 
 17 C       12.4540     1.2890    -0.4760 C.3   1 <1>   0.4230 
 18 C       12.8120     0.4740     0.7780 C.3   1 <1>  -0.1600 
 19 C       13.2770     2.5820    -0.5450 C.3   1 <1>  -0.1600 
 20 C       14.3150     0.1550     0.8040 C.3   1 <1>  -0.1600 
 21 C       14.7810     2.2710    -0.5210 C.3   1 <1>  -0.1600 
 22 C       15.1550     1.4360     0.7110 C.3   1 <1>  -0.1600 
 23 H        2.4910    -2.3960     0.8370 H     1 <1>   0.1500 
 24 H        1.6820     1.7060     0.0560 H     1 <1>   0.1500 
 25 H        4.9100    -1.9560     0.6810 H     1 <1>   0.1500 
 26 H        4.0930     2.1610    -0.1100 H     1 <1>   0.1500 
 27 H        6.6190    -0.4960     0.0740 H     1 <1>   0.3700 
 28 H        8.5920     3.0840     1.3910 H     1 <1>   0.0800 
 29 H        8.8650     3.4640    -0.2810 H     1 <1>   0.0800 
 30 H        8.5690     1.2570    -2.0020 H     1 <1>   0.0800 
 31 H        8.1480    -0.2200    -1.1960 H     1 <1>   0.0800 
 32 H       10.5210     1.6800     1.5100 H     1 <1>   0.0800 
 33 H       11.0010     3.2130     0.8390 H     1 <1>   0.0800 
 34 H       10.5660    -0.0980    -1.7640 H     1 <1>   0.0800 
 35 H       10.2670    -0.3240    -0.0640 H     1 <1>   0.0800 
 36 H       10.8890     2.2480    -1.3600 H     1 <1>   0.4500 
 37 H       12.7270     0.6970    -1.3360 H     1 <1>   0.0800 
 38 H       12.2700    -0.4540     0.7940 H     1 <1>   0.0800 
 39 H       12.5780     1.0260     1.6700 H     1 <1>   0.0800 
 40 H       13.0540     3.2170     0.2940 H     1 <1>   0.0800 
 41 H       13.0520     3.1150    -1.4520 H     1 <1>   0.0800 
 42 H       14.5640    -0.4940    -0.0190 H     1 <1>   0.0800 
 43 H       14.5600    -0.3670     1.7140 H     1 <1>   0.0800 
 44 H       15.3430     3.1910    -0.5110 H     1 <1>   0.0800 
 45 H       15.0570     1.7330    -1.4130 H     1 <1>   0.0800 
 46 H       16.2000     1.1760     0.6630 H     1 <1>   0.0800 
 47 H       15.0120     2.0250     1.6010 H     1 <1>   0.0800 
@<TRIPOS>BOND
  1   1   2  1   
  2   2   3  ar  
  3   2   4  ar  
  4   3   5  ar  
  5   3  23  1   
  6   4   6  ar  
  7   4  24  1   
  8   5   7  ar  
  9   5  25  1   
 10   6   7  ar  
 11   6  26  1   
 12   7   8  1   
 13   8   9  am  
 14   8  27  1   
 15   9  10  2   
 16   9  11  am  
 17  11  12  1   
 18  11  13  1   
 19  12  14  1   
 20  12  28  1   
 21  12  29  1   
 22  13  15  1   
 23  13  30  1   
 24  13  31  1   
 25  14  16  1   
 26  14  32  1   
 27  14  33  1   
 28  15  16  1   
 29  15  34  1   
 30  15  35  1   
 31  16  17  1   
 32  16  36  1   
 33  17  18  1   
 34  17  19  1   
 35  17  37  1   
 36  18  20  1   
 37  18  38  1   
 38  18  39  1   
 39  19  21  1   
 40  19  40  1   
 41  19  41  1   
 42  20  22  1   
 43  20  42  1   
 44  20  43  1   
 45  21  22  1   
 46  21  44  1   
 47  21  45  1   
 48  22  46  1   
 49  22  47  1   
@<TRIPOS>SUBSTRUCTURE
  1 ****  11 GROUP 4 **** **** 0

# MOE 2024.06 (io_trps.svl 2023.06)
