@<TRIPOS>MOLECULE
NONAME
46 47 1 0 0 
SMALL
USER_CHARGES


@<TRIPOS>ATOM
  1 CL      -4.2520     4.4160     2.3720 Cl    1 <1>  -0.1770 
  2 C       -2.6140     4.2760     1.7600 C.ar  1 <1>   0.1770 
  3 C       -2.3800     3.5300     0.6090 C.ar  1 <1>   0.1170 
  4 C       -1.5920     4.9180     2.4300 C.ar  1 <1>  -0.1500 
  5 N       -3.4500     2.8860    -0.0290 N.am  1 <1>  -0.5470 
  6 C       -1.0730     3.4490     0.1400 C.ar  1 <1>  -0.1500 
  7 C       -0.2980     4.8230     1.9470 C.ar  1 <1>  -0.1500 
  8 C       -3.6870     2.6100    -1.3430 C.2   1 <1>   0.5690 
  9 C       -0.0220     4.0850     0.7970 C.ar  1 <1>  -0.1440 
 10 O       -2.8940     2.8120    -2.2280 O.2   1 <1>  -0.5700 
 11 C       -5.0720     2.0520    -1.6830 C.3   1 <1>   0.1710 
 12 C        1.4170     3.9840     0.2580 C.3   1 <1>   1.1640 
 13 N       -6.1500     2.4970    -0.7380 N.3   1 <1>  -0.8100 
 14 F        1.6480     2.8530    -0.3990 F     1 <1>  -0.3400 
 15 F        2.3270     4.0400     1.2230 F     1 <1>  -0.3400 
 16 F        1.7040     4.9710    -0.5800 F     1 <1>  -0.3400 
 17 C       -7.3720     1.6850    -0.8970 C.3   1 <1>   0.1100 
 18 C       -6.4500     3.9410    -0.8970 C.3   1 <1>   0.1100 
 19 C       -8.4700     2.1180     0.0980 C.3   1 <1>   0.3430 
 20 C       -7.5350     4.4060     0.0960 C.3   1 <1>   0.3430 
 21 N       -8.7920     3.5830    -0.0220 N.4   1 <1>  -0.9590 
 22 C       -9.8190     3.9770     0.9810 C.3   1 <1>   0.3430 
 23 C      -10.4060     5.3480     0.6380 C.3   1 <1>  -0.1600 
 24 C      -11.5450     5.7100     1.5980 C.3   1 <1>  -0.2400 
 25 H       -1.8060     5.4870     3.3180 H     1 <1>   0.1500 
 26 H       -4.2800     2.7350     0.5520 H     1 <1>   0.3700 
 27 H       -0.8800     2.8770    -0.7530 H     1 <1>   0.1500 
 28 H        0.4950     5.3300     2.4740 H     1 <1>   0.1500 
 29 H       -4.9920     0.9800    -1.6570 H     1 <1>   0.0800 
 30 H       -5.3210     2.3380    -2.6910 H     1 <1>   0.0800 
 31 H       -7.1350     0.6490    -0.7160 H     1 <1>   0.0800 
 32 H       -7.7440     1.7670    -1.9050 H     1 <1>   0.0800 
 33 H       -6.7740     4.1430    -1.9040 H     1 <1>   0.0800 
 34 H       -5.5590     4.5200    -0.7200 H     1 <1>   0.0800 
 35 H       -8.1230     1.9050     1.0960 H     1 <1>   0.0800 
 36 H       -9.3570     1.5320    -0.0770 H     1 <1>   0.0800 
 37 H       -7.7550     5.4450    -0.0870 H     1 <1>   0.0800 
 38 H       -7.1390     4.3240     1.0950 H     1 <1>   0.0800 
 39 H       -9.1810     3.7400    -0.9600 H     1 <1>   0.4500 
 40 H       -9.3860     3.9990     1.9690 H     1 <1>   0.0800 
 41 H      -10.6190     3.2520     0.9820 H     1 <1>   0.0800 
 42 H      -10.7950     5.3390    -0.3650 H     1 <1>   0.0800 
 43 H       -9.6500     6.1100     0.7110 H     1 <1>   0.0800 
 44 H      -12.3430     4.9900     1.5380 H     1 <1>   0.0800 
 45 H      -11.9470     6.6760     1.3430 H     1 <1>   0.0800 
 46 H      -11.1920     5.7530     2.6140 H     1 <1>   0.0800 
@<TRIPOS>BOND
  1   1   2  1   
  2   2   3  ar  
  3   2   4  ar  
  4   3   5  1   
  5   3   6  ar  
  6   4   7  ar  
  7   4  25  1   
  8   5   8  am  
  9   5  26  1   
 10   6   9  ar  
 11   6  27  1   
 12   7   9  ar  
 13   7  28  1   
 14   8  10  2   
 15   8  11  1   
 16   9  12  1   
 17  11  13  1   
 18  11  29  1   
 19  11  30  1   
 20  12  14  1   
 21  12  15  1   
 22  12  16  1   
 23  13  17  1   
 24  13  18  1   
 25  17  19  1   
 26  17  31  1   
 27  17  32  1   
 28  18  20  1   
 29  18  33  1   
 30  18  34  1   
 31  19  21  1   
 32  19  35  1   
 33  19  36  1   
 34  20  21  1   
 35  20  37  1   
 36  20  38  1   
 37  21  22  1   
 38  21  39  1   
 39  22  23  1   
 40  22  40  1   
 41  22  41  1   
 42  23  24  1   
 43  23  42  1   
 44  23  43  1   
 45  24  44  1   
 46  24  45  1   
 47  24  46  1   
@<TRIPOS>SUBSTRUCTURE
  1 ****   5 GROUP 4 **** **** 0

# MOE 2024.06 (io_trps.svl 2023.06)
