@<TRIPOS>MOLECULE
NONAME
48 49 1 0 0 
SMALL
USER_CHARGES


@<TRIPOS>ATOM
  1 O        8.2860    -0.0880     0.1820 O.3   1 <1>  -0.3630 
  2 C        9.6350    -0.1960     0.0410 C.ar  1 <1>   0.0830 
  3 C        7.6560     1.1600     0.3770 C.3   1 <1>   0.1200 
  4 C       10.1660    -1.4750    -0.0920 C.ar  1 <1>  -0.1440 
  5 C       10.4850     0.9090     0.0270 C.ar  1 <1>  -0.1500 
  6 C        6.1480     0.9200     0.5160 C.3   1 <1>   0.2000 
  7 C       11.5350    -1.6330    -0.2360 C.ar  1 <1>  -0.1500 
  8 C        9.2670    -2.7030    -0.0810 C.3   1 <1>  -0.0960 
  9 C       11.8510     0.7440    -0.1200 C.ar  1 <1>  -0.1430 
 10 O        5.7120     0.1410    -0.5570 O.3   1 <1>  -0.6800 
 11 C        5.3350     2.2330     0.5450 C.3   1 <1>   0.3430 
 12 C       12.3720    -0.5320    -0.2490 C.ar  1 <1>  -0.1500 
 13 C       12.7790     1.9460    -0.1340 C.3   1 <1>  -0.0970 
 14 N        3.9220     1.9800     0.1280 N.4   1 <1>  -0.9590 
 15 C        3.2830     3.1700    -0.5000 C.3   1 <1>   0.3430 
 16 C        3.0950     1.3830     1.2140 C.3   1 <1>   0.3430 
 17 C        1.9240     2.7780    -1.0800 C.3   1 <1>  -0.1600 
 18 C        1.7340     0.9680     0.6550 C.3   1 <1>  -0.1600 
 19 C        1.0130     2.1440    -0.0190 C.3   1 <1>  -0.0800 
 20 C       -0.3060     1.6810    -0.6460 C.3   1 <1>  -0.2400 
 21 H        7.8680     1.7820    -0.4760 H     1 <1>   0.0800 
 22 H        8.0580     1.6070     1.2690 H     1 <1>   0.0800 
 23 H       10.1050     1.9060     0.1280 H     1 <1>   0.1500 
 24 H        5.9680     0.3630     1.4190 H     1 <1>   0.0800 
 25 H       11.9610    -2.6160    -0.3400 H     1 <1>   0.1500 
 26 H        8.7060    -2.7370     0.8360 H     1 <1>   0.0800 
 27 H        9.8430    -3.6070    -0.1600 H     1 <1>   0.0800 
 28 H        8.5820    -2.6600    -0.9080 H     1 <1>   0.0800 
 29 H        6.3930    -0.5530    -0.7280 H     1 <1>   0.4000 
 30 H        5.7910     2.9180    -0.1500 H     1 <1>   0.0800 
 31 H        5.3740     2.6790     1.5250 H     1 <1>   0.0800 
 32 H       13.4330    -0.6750    -0.3610 H     1 <1>   0.1500 
 33 H       12.2630     2.8190    -0.4910 H     1 <1>   0.0800 
 34 H       13.6190     1.7630    -0.7800 H     1 <1>   0.0800 
 35 H       13.1420     2.1370     0.8600 H     1 <1>   0.0800 
 36 H        4.0210     1.2430    -0.5980 H     1 <1>   0.4500 
 37 H        3.9110     3.5530    -1.2880 H     1 <1>   0.0800 
 38 H        3.1490     3.9440     0.2390 H     1 <1>   0.0800 
 39 H        2.9560     2.1010     2.0050 H     1 <1>   0.0800 
 40 H        3.5910     0.5160     1.6210 H     1 <1>   0.0800 
 41 H        2.0740     2.0940    -1.8980 H     1 <1>   0.0800 
 42 H        1.4510     3.6580    -1.4790 H     1 <1>   0.0800 
 43 H        1.1280     0.5900     1.4610 H     1 <1>   0.0800 
 44 H        1.8730     0.1640    -0.0470 H     1 <1>   0.0800 
 45 H        0.7860     2.8860     0.7300 H     1 <1>   0.0800 
 46 H       -0.1320     0.9360    -1.4040 H     1 <1>   0.0800 
 47 H       -0.8190     2.5120    -1.0980 H     1 <1>   0.0800 
 48 H       -0.9510     1.2590     0.1050 H     1 <1>   0.0800 
@<TRIPOS>BOND
  1   1   2  1   
  2   1   3  1   
  3   2   4  ar  
  4   2   5  ar  
  5   3   6  1   
  6   3  21  1   
  7   3  22  1   
  8   4   7  ar  
  9   4   8  1   
 10   5   9  ar  
 11   5  23  1   
 12   6  10  1   
 13   6  11  1   
 14   6  24  1   
 15   7  12  ar  
 16   7  25  1   
 17   8  26  1   
 18   8  27  1   
 19   8  28  1   
 20   9  12  ar  
 21   9  13  1   
 22  10  29  1   
 23  11  14  1   
 24  11  30  1   
 25  11  31  1   
 26  12  32  1   
 27  13  33  1   
 28  13  34  1   
 29  13  35  1   
 30  14  15  1   
 31  14  16  1   
 32  14  36  1   
 33  15  17  1   
 34  15  37  1   
 35  15  38  1   
 36  16  18  1   
 37  16  39  1   
 38  16  40  1   
 39  17  19  1   
 40  17  41  1   
 41  17  42  1   
 42  18  19  1   
 43  18  43  1   
 44  18  44  1   
 45  19  20  1   
 46  19  45  1   
 47  20  46  1   
 48  20  47  1   
 49  20  48  1   
@<TRIPOS>SUBSTRUCTURE
  1 ****   6 GROUP 4 **** **** 0

# MOE 2024.06 (io_trps.svl 2023.06)
