@<TRIPOS>MOLECULE
NONAME
30 30 1 0 0 
SMALL
USER_CHARGES


@<TRIPOS>ATOM
  1 S       -0.3030     0.0670    -0.4290 S.o2  1 <1>   1.3330 
  2 O       -0.2290    -1.3470    -0.6930 O.2   1 <1>  -0.6500 
  3 O        0.3540     0.6420     0.7190 O.2   1 <1>  -0.6500 
  4 N       -1.9360     0.3850    -0.3150 N.am  1 <1>  -0.9140 
  5 C        0.1650     0.9750    -1.8850 C.3   1 <1>  -0.1350 
  6 C       -2.4510     0.1090     0.9980 C.3   1 <1>   0.4190 
  7 C       -3.7610    -0.6490     0.8180 C.ar  1 <1>  -0.1430 
  8 C       -2.6610     1.4280     1.7350 C.3   1 <1>  -0.2400 
  9 C       -4.8170    -0.1040     0.0990 C.ar  1 <1>  -0.1500 
 10 C       -3.9080    -1.9140     1.3680 C.ar  1 <1>  -0.1500 
 11 C       -6.0030    -0.8000    -0.0690 C.ar  1 <1>   0.0830 
 12 C       -5.0900    -2.6180     1.2070 C.ar  1 <1>  -0.1500 
 13 O       -6.9750    -0.1840    -0.7870 O.3   1 <1>  -0.3630 
 14 C       -6.1370    -2.0660     0.4910 C.ar  1 <1>  -0.1500 
 15 C       -8.2250    -0.7980    -1.0050 C.3   1 <1>   0.0400 
 16 H       -2.3620    -0.3460    -0.8830 H     1 <1>   0.4200 
 17 H        1.2090     0.8350    -2.0840 H     1 <1>   0.0800 
 18 H       -0.0220     2.0210    -1.7420 H     1 <1>   0.0800 
 19 H       -0.3970     0.6350    -2.7330 H     1 <1>   0.0800 
 20 H       -1.7690    -0.5100     1.5610 H     1 <1>   0.0800 
 21 H       -3.3020     2.0820     1.1730 H     1 <1>   0.0800 
 22 H       -1.7160     1.9130     1.8990 H     1 <1>   0.0800 
 23 H       -3.1150     1.2370     2.6900 H     1 <1>   0.0800 
 24 H       -4.7290     0.8720    -0.3430 H     1 <1>   0.1500 
 25 H       -3.1030    -2.3630     1.9250 H     1 <1>   0.1500 
 26 H       -5.1920    -3.5980     1.6390 H     1 <1>   0.1500 
 27 H       -7.0420    -2.6330     0.3810 H     1 <1>   0.1500 
 28 H       -8.8300    -0.1280    -1.5890 H     1 <1>   0.0800 
 29 H       -8.6950    -0.9810    -0.0550 H     1 <1>   0.0800 
 30 H       -8.0740    -1.7170    -1.5440 H     1 <1>   0.0800 
@<TRIPOS>BOND
  1   1   2  2   
  2   1   3  2   
  3   1   4  am  
  4   1   5  1   
  5   4   6  1   
  6   4  16  1   
  7   5  17  1   
  8   5  18  1   
  9   5  19  1   
 10   6   7  1   
 11   6   8  1   
 12   6  20  1   
 13   7   9  ar  
 14   7  10  ar  
 15   8  21  1   
 16   8  22  1   
 17   8  23  1   
 18   9  11  ar  
 19   9  24  1   
 20  10  12  ar  
 21  10  25  1   
 22  11  13  1   
 23  11  14  ar  
 24  12  14  ar  
 25  12  26  1   
 26  13  15  1   
 27  14  27  1   
 28  15  28  1   
 29  15  29  1   
 30  15  30  1   
@<TRIPOS>SUBSTRUCTURE
  1 ****   7 GROUP 4 **** **** 0

# MOE 2024.06 (io_trps.svl 2023.06)
