@<TRIPOS>MOLECULE
Structure2626
35 36 1 0 0 
SMALL
USER_CHARGES


@<TRIPOS>ATOM
  1 F       -0.5350     0.2780    -0.7140 F     1 <1>  -0.1900 
  2 C       -1.8180     0.1570    -0.4860 C.ar  1 <1>   0.1900 
  3 C       -2.5260     1.2390     0.0170 C.ar  1 <1>  -0.1440 
  4 C       -2.4140    -1.0600    -0.7610 C.ar  1 <1>  -0.1500 
  5 C       -3.8840     1.0720     0.2450 C.ar  1 <1>  -0.1500 
  6 C       -1.8430     2.5660     0.3110 C.3   1 <1>  -0.0960 
  7 C       -3.7710    -1.2090    -0.5270 C.ar  1 <1>  -0.1500 
  8 C       -4.5100    -0.1390    -0.0230 C.ar  1 <1>   0.0830 
  9 O       -5.8410    -0.1990     0.2330 O.3   1 <1>  -0.3630 
 10 C       -6.5830    -1.3730    -0.0040 C.3   1 <1>   0.1200 
 11 C       -8.0480    -1.1100     0.3820 C.3   1 <1>  -0.0800 
 12 C       -8.9090    -2.3650     0.1560 C.3   1 <1>  -0.1600 
 13 C       -8.6420     0.0790    -0.4000 C.3   1 <1>  -0.1600 
 14 C      -10.3820    -2.1060     0.4790 C.3   1 <1>   0.3430 
 15 C      -10.1180     0.2970    -0.0690 C.3   1 <1>   0.3430 
 16 N      -10.8770    -0.9570    -0.3270 N.4   1 <1>  -0.9060 
 17 H       -1.8220    -1.8690    -1.1490 H     1 <1>   0.1500 
 18 H       -4.4730     1.8810     0.6350 H     1 <1>   0.1500 
 19 H       -1.0660     2.4230     1.0400 H     1 <1>   0.0800 
 20 H       -2.5450     3.2850     0.6940 H     1 <1>   0.0800 
 21 H       -1.4050     2.9590    -0.5890 H     1 <1>   0.0800 
 22 H       -4.2250    -2.1570    -0.7430 H     1 <1>   0.1500 
 23 H       -6.1660    -2.1610     0.5990 H     1 <1>   0.0800 
 24 H       -6.4970    -1.6200    -1.0480 H     1 <1>   0.0800 
 25 H       -8.0650    -0.8750     1.4340 H     1 <1>   0.0800 
 26 H       -8.5520    -3.1600     0.7880 H     1 <1>   0.0800 
 27 H       -8.8210    -2.7000    -0.8630 H     1 <1>   0.0800 
 28 H       -8.5280    -0.0760    -1.4590 H     1 <1>   0.0800 
 29 H       -8.1030     0.9770    -0.1510 H     1 <1>   0.0800 
 30 H      -10.4850    -1.8850     1.5300 H     1 <1>   0.0800 
 31 H      -10.9620    -2.9900     0.2610 H     1 <1>   0.0800 
 32 H      -10.5090     1.1010    -0.6740 H     1 <1>   0.0800 
 33 H      -10.2140     0.5770     0.9690 H     1 <1>   0.0800 
 34 H      -11.8750    -0.8020    -0.1360 H     1 <1>   0.4500 
 35 H      -10.7950    -1.1900    -1.3240 H     1 <1>   0.4500 
@<TRIPOS>BOND
  1   1   2  1   
  2   2   3  ar  
  3   2   4  ar  
  4   3   5  ar  
  5   3   6  1   
  6   4   7  ar  
  7   4  17  1   
  8   5   8  ar  
  9   5  18  1   
 10   6  19  1   
 11   6  20  1   
 12   6  21  1   
 13   7   8  ar  
 14   7  22  1   
 15   8   9  1   
 16   9  10  1   
 17  10  11  1   
 18  10  23  1   
 19  10  24  1   
 20  11  12  1   
 21  11  13  1   
 22  11  25  1   
 23  12  14  1   
 24  12  26  1   
 25  12  27  1   
 26  13  15  1   
 27  13  28  1   
 28  13  29  1   
 29  14  16  1   
 30  14  30  1   
 31  14  31  1   
 32  15  16  1   
 33  15  32  1   
 34  15  33  1   
 35  16  34  1   
 36  16  35  1   
@<TRIPOS>SUBSTRUCTURE
  1 ****   9 GROUP 4 **** **** 0

# MOE 2024.06 (io_trps.svl 2023.06)
