@<TRIPOS>MOLECULE
NONAME
52 54 1 0 0 
SMALL
USER_CHARGES


@<TRIPOS>ATOM
  1 S       -0.4980     0.5160     0.8610 S.o2  1 <1>   1.4470 
  2 O       -1.0450     0.6360     2.1970 O.2   1 <1>  -0.6500 
  3 O       -0.4030    -0.7920     0.2510 O.2   1 <1>  -0.6500 
  4 N       -1.4830     1.4550    -0.1470 N.am  1 <1>  -0.8490 
  5 C        1.1100     1.3480     0.7650 C.ar  1 <1>  -0.0090 
  6 C       -2.7550     0.7660    -0.4350 C.3   1 <1>   0.1960 
  7 C       -1.7640     2.7870     0.4270 C.3   1 <1>   0.1960 
  8 C        1.6710     1.6750    -0.4640 C.ar  1 <1>  -0.1500 
  9 C        1.8210     1.6810     1.9120 C.ar  1 <1>  -0.1500 
 10 C       -3.6690     1.5660    -1.3860 C.3   1 <1>   0.2090 
 11 C       -2.6140     3.6670    -0.5100 C.3   1 <1>   0.2090 
 12 C        2.8940     2.3190    -0.5590 C.ar  1 <1>  -0.1440 
 13 C        3.0440     2.3230     1.8370 C.ar  1 <1>  -0.1500 
 14 N       -3.8640     2.9800    -0.9480 N.pl3 1 <1>  -0.8380 
 15 C        3.5900     2.6480     0.5990 C.ar  1 <1>   0.0830 
 16 C        3.4660     2.6560    -1.9290 C.3   1 <1>  -0.0970 
 17 C       -5.0580     3.3250    -0.3120 C.ar  1 <1>   0.1000 
 18 O        4.7850     3.2780     0.4630 O.3   1 <1>  -0.3630 
 19 C       -5.9970     4.1520    -0.9390 C.ar  1 <1>  -0.1430 
 20 C       -5.3200     2.8470     0.9670 C.ar  1 <1>  -0.1500 
 21 C        5.5930     3.5940     1.5750 C.3   1 <1>   0.0400 
 22 C       -7.1730     4.4940    -0.2730 C.ar  1 <1>  -0.1440 
 23 C       -5.6860     4.6570    -2.3480 C.3   1 <1>  -0.0970 
 24 C       -6.4860     3.1810     1.6220 C.ar  1 <1>  -0.1500 
 25 C       -7.4090     4.0030     1.0020 C.ar  1 <1>  -0.1500 
 26 C       -8.2280     5.4000    -0.8930 C.3   1 <1>  -0.0970 
 27 H       -3.2840     0.5790     0.4840 H     1 <1>   0.0800 
 28 H       -2.5520    -0.1880    -0.8910 H     1 <1>   0.0800 
 29 H       -0.8370     3.2990     0.6220 H     1 <1>   0.0800 
 30 H       -2.2840     2.6840     1.3640 H     1 <1>   0.0800 
 31 H        1.1310     1.4150    -1.3590 H     1 <1>   0.1500 
 32 H        1.4100     1.4340     2.8770 H     1 <1>   0.1500 
 33 H       -4.6270     1.0790    -1.4540 H     1 <1>   0.0800 
 34 H       -3.2330     1.5670    -2.3690 H     1 <1>   0.0800 
 35 H       -2.0330     3.9190    -1.3800 H     1 <1>   0.0800 
 36 H       -2.8690     4.5830    -0.0070 H     1 <1>   0.0800 
 37 H        3.5540     2.5600     2.7510 H     1 <1>   0.1500 
 38 H        2.8030     2.3480    -2.7170 H     1 <1>   0.0800 
 39 H        4.4100     2.1580    -2.0600 H     1 <1>   0.0800 
 40 H        3.6240     3.7170    -2.0060 H     1 <1>   0.0800 
 41 H       -4.6040     2.2130     1.4510 H     1 <1>   0.1500 
 42 H        6.4910     4.0610     1.2120 H     1 <1>   0.0800 
 43 H        5.8380     2.6860     2.0970 H     1 <1>   0.0800 
 44 H        5.0590     4.2760     2.2120 H     1 <1>   0.0800 
 45 H       -5.3850     3.8330    -2.9690 H     1 <1>   0.0800 
 46 H       -4.8740     5.3600    -2.3010 H     1 <1>   0.0800 
 47 H       -6.5230     5.1310    -2.8200 H     1 <1>   0.0800 
 48 H       -6.6780     2.8050     2.6110 H     1 <1>   0.1500 
 49 H       -8.3140     4.2570     1.5250 H     1 <1>   0.1500 
 50 H       -7.7850     6.3360    -1.1810 H     1 <1>   0.0800 
 51 H       -9.0220     5.6050    -0.1980 H     1 <1>   0.0800 
 52 H       -8.6530     4.9270    -1.7600 H     1 <1>   0.0800 
@<TRIPOS>BOND
  1   1   2  2   
  2   1   3  2   
  3   1   4  am  
  4   1   5  1   
  5   4   6  1   
  6   4   7  1   
  7   5   8  ar  
  8   5   9  ar  
  9   6  10  1   
 10   6  27  1   
 11   6  28  1   
 12   7  11  1   
 13   7  29  1   
 14   7  30  1   
 15   8  12  ar  
 16   8  31  1   
 17   9  13  ar  
 18   9  32  1   
 19  10  14  1   
 20  10  33  1   
 21  10  34  1   
 22  11  14  1   
 23  11  35  1   
 24  11  36  1   
 25  12  15  ar  
 26  12  16  1   
 27  13  15  ar  
 28  13  37  1   
 29  14  17  1   
 30  15  18  1   
 31  16  38  1   
 32  16  39  1   
 33  16  40  1   
 34  17  19  ar  
 35  17  20  ar  
 36  18  21  1   
 37  19  22  ar  
 38  19  23  1   
 39  20  24  ar  
 40  20  41  1   
 41  21  42  1   
 42  21  43  1   
 43  21  44  1   
 44  22  25  ar  
 45  22  26  1   
 46  23  45  1   
 47  23  46  1   
 48  23  47  1   
 49  24  25  ar  
 50  24  48  1   
 51  25  49  1   
 52  26  50  1   
 53  26  51  1   
 54  26  52  1   
@<TRIPOS>SUBSTRUCTURE
  1 ****   7 GROUP 4 **** **** 0

# MOE 2024.06 (io_trps.svl 2023.06)
