@<TRIPOS>MOLECULE
NONAME
30 32 1 0 0 
SMALL
USER_CHARGES


@<TRIPOS>ATOM
  1 S        0.0270     0.2280     0.6730 S.3   1 <1>  -0.2850 
  2 C       -1.7350    -0.0290     0.3960 C.2   1 <1>   0.2820 
  3 C        0.8080    -1.2400    -0.1200 C.3   1 <1>   0.2140 
  4 N       -2.6140     0.8840     0.8470 N.2   1 <1>  -0.5650 
  5 C       -2.3270    -1.0680    -0.2370 C.2   1 <1>  -0.3020 
  6 C        2.3170    -1.1300     0.0200 C.ar  1 <1>  -0.1430 
  7 C       -3.7380     0.3700     0.4710 C.2   1 <1>   0.0060 
  8 N       -3.6410    -0.7920    -0.1790 N.pl3 1 <1>   0.0480 
  9 C        3.0310    -0.2690    -0.7990 C.ar  1 <1>  -0.1500 
 10 C        2.9940    -1.8910     0.9620 C.ar  1 <1>  -0.1500 
 11 C       -5.1650     0.8170     0.6180 C.3   1 <1>   0.0200 
 12 C       -4.9320    -1.3470    -0.5850 C.3   1 <1>   0.0960 
 13 C        4.4080    -0.1740    -0.6840 C.ar  1 <1>  -0.1500 
 14 C        4.3700    -1.7970     1.0770 C.ar  1 <1>  -0.1500 
 15 C       -5.9550    -0.3990     0.0830 C.3   1 <1>  -0.1600 
 16 C        5.0780    -0.9400     0.2530 C.ar  1 <1>  -0.1500 
 17 H        0.5090    -1.2400    -1.1520 H     1 <1>   0.0800 
 18 H        0.4230    -2.1110     0.3790 H     1 <1>   0.0800 
 19 H       -1.9210    -1.9440    -0.7020 H     1 <1>   0.1500 
 20 H        2.5160     0.3350    -1.5260 H     1 <1>   0.1500 
 21 H        2.4530    -2.5570     1.6110 H     1 <1>   0.1500 
 22 H       -5.3320     1.6920     0.0140 H     1 <1>   0.0800 
 23 H       -5.3960     1.0300     1.6470 H     1 <1>   0.0800 
 24 H       -5.0280    -2.3570    -0.2300 H     1 <1>   0.0800 
 25 H       -5.0070    -1.3120    -1.6570 H     1 <1>   0.0800 
 26 H        4.9550     0.4960    -1.3230 H     1 <1>   0.1500 
 27 H        4.8900    -2.3890     1.8100 H     1 <1>   0.1500 
 28 H       -6.7170    -0.0980    -0.6140 H     1 <1>   0.0800 
 29 H       -6.4250    -0.9110     0.9040 H     1 <1>   0.0800 
 30 H        6.1480    -0.8660     0.3440 H     1 <1>   0.1500 
@<TRIPOS>BOND
  1   1   2  1   
  2   1   3  1   
  3   2   4  1   
  4   2   5  2   
  5   3   6  1   
  6   3  17  1   
  7   3  18  1   
  8   4   7  2   
  9   5   8  1   
 10   5  19  1   
 11   6   9  ar  
 12   6  10  ar  
 13   7   8  1   
 14   7  11  1   
 15   8  12  1   
 16   9  13  ar  
 17   9  20  1   
 18  10  14  ar  
 19  10  21  1   
 20  11  15  1   
 21  11  22  1   
 22  11  23  1   
 23  12  15  1   
 24  12  24  1   
 25  12  25  1   
 26  13  16  ar  
 27  13  26  1   
 28  14  16  ar  
 29  14  27  1   
 30  15  28  1   
 31  15  29  1   
 32  16  30  1   
@<TRIPOS>SUBSTRUCTURE
  1 ****   1 GROUP 4 **** **** 0

# MOE 2024.06 (io_trps.svl 2023.06)
