@<TRIPOS>MOLECULE
NONAME
36 37 1 0 0 
SMALL
USER_CHARGES


@<TRIPOS>ATOM
  1 S       -0.1170    -0.5460    -0.2090 S.3   1 <1>  -0.3710 
  2 C       -1.4900     0.5970    -0.3080 C.2   1 <1>   0.6510 
  3 C        1.3270     0.6260    -0.1950 C.3   1 <1>   0.1310 
  4 N       -1.1740     1.8360    -0.3590 N.2   1 <1>  -0.6210 
  5 N       -2.7660     0.0720    -0.3190 N.am  1 <1>  -0.4200 
  6 C        2.6980    -0.0390    -0.1320 C.2   1 <1>   0.5690 
  7 C       -2.1830     2.7490    -0.4290 C.2   1 <1>   0.0210 
  8 C       -3.8100     0.9880    -0.3830 C.2   1 <1>   0.6160 
  9 C       -3.0510    -1.3870    -0.2690 C.3   1 <1>   0.1400 
 10 O        2.7850    -1.2210     0.1170 O.2   1 <1>  -0.5700 
 11 N        3.8220     0.7250    -0.3440 N.am  1 <1>  -0.6600 
 12 O       -1.8600     3.9360    -0.4810 O.3   1 <1>  -0.8500 
 13 C       -3.5000     2.3350    -0.4390 C.2   1 <1>  -0.1360 
 14 O       -4.9820     0.5680    -0.3870 O.2   1 <1>  -0.5700 
 15 C       -3.1560    -1.8490     1.1850 C.3   1 <1>  -0.2400 
 16 C        3.8290     2.2030    -0.5850 C.3   1 <1>   0.1400 
 17 C        5.1930     0.1340    -0.3040 C.3   1 <1>   0.1400 
 18 C        4.8270     2.9000     0.3560 C.3   1 <1>   0.1200 
 19 C        6.1050     0.9500     0.6270 C.3   1 <1>   0.1200 
 20 O        6.0920     2.3050     0.2710 O.3   1 <1>  -0.5600 
 21 H        1.1920     1.2650     0.6570 H     1 <1>   0.0800 
 22 H        1.2440     1.2050    -1.0950 H     1 <1>   0.0800 
 23 H       -2.2810    -1.9350    -0.7810 H     1 <1>   0.0800 
 24 H       -3.9760    -1.5910    -0.7810 H     1 <1>   0.0800 
 25 H       -4.2760     3.0680    -0.4910 H     1 <1>   0.1500 
 26 H       -2.2310    -1.6720     1.7030 H     1 <1>   0.0800 
 27 H       -3.3700    -2.9020     1.2150 H     1 <1>   0.0800 
 28 H       -3.9520    -1.3230     1.6820 H     1 <1>   0.0800 
 29 H        2.8560     2.6340    -0.4330 H     1 <1>   0.0800 
 30 H        4.1180     2.3930    -1.6040 H     1 <1>   0.0800 
 31 H        5.6070     0.1340    -1.2960 H     1 <1>   0.0800 
 32 H        5.1580    -0.8850     0.0400 H     1 <1>   0.0800 
 33 H        4.4860     2.8440     1.3760 H     1 <1>   0.0800 
 34 H        4.9300     3.9350     0.0840 H     1 <1>   0.0800 
 35 H        7.1190     0.6000     0.5520 H     1 <1>   0.0800 
 36 H        5.7800     0.8570     1.6480 H     1 <1>   0.0800 
@<TRIPOS>BOND
  1   1   2  1   
  2   1   3  1   
  3   2   4  2   
  4   2   5  1   
  5   3   6  1   
  6   3  21  1   
  7   3  22  1   
  8   4   7  1   
  9   5   8  am  
 10   5   9  1   
 11   6  10  2   
 12   6  11  am  
 13   7  12  1   
 14   7  13  2   
 15   8  13  1   
 16   8  14  2   
 17   9  15  1   
 18   9  23  1   
 19   9  24  1   
 20  11  16  1   
 21  11  17  1   
 22  13  25  1   
 23  15  26  1   
 24  15  27  1   
 25  15  28  1   
 26  16  18  1   
 27  16  29  1   
 28  16  30  1   
 29  17  19  1   
 30  17  31  1   
 31  17  32  1   
 32  18  20  1   
 33  18  33  1   
 34  18  34  1   
 35  19  20  1   
 36  19  35  1   
 37  19  36  1   
@<TRIPOS>SUBSTRUCTURE
  1 ****   3 GROUP 4 **** **** 0

# MOE 2024.06 (io_trps.svl 2023.06)
