@<TRIPOS>MOLECULE
NONAME
41 40 1 0 0 
SMALL
USER_CHARGES


@<TRIPOS>ATOM
  1 O        1.2570     0.7750     1.5740 O.2   1 <1>  -0.5700 
  2 C        1.3290     0.7550     0.3640 C.2   1 <1>   0.7800 
  3 O        1.9270    -0.2280    -0.3010 O.3   1 <1>  -0.4300 
  4 N        0.8220     1.7390    -0.4080 N.am  1 <1>  -0.7300 
  5 C        2.5570    -1.3640     0.2520 C.3   1 <1>   0.2800 
  6 C       -0.0620     2.8300     0.0630 C.3   1 <1>   0.2200 
  7 C        3.7430    -0.9400     1.1260 C.3   1 <1>  -0.2400 
  8 C        1.5380    -2.2140     1.0190 C.3   1 <1>  -0.2400 
  9 C        3.0740    -2.1580    -0.9490 C.3   1 <1>  -0.2400 
 10 C       -1.5220     2.6000    -0.4540 C.3   1 <1>   0.0000 
 11 C        0.5600     4.1910    -0.3270 C.3   1 <1>  -0.1600 
 12 C       -1.6150     2.6220    -1.9930 C.3   1 <1>  -0.2400 
 13 C       -2.4810     3.6720     0.0990 C.3   1 <1>  -0.2400 
 14 C       -2.0450     1.2350     0.0370 C.3   1 <1>  -0.2400 
 15 C        1.9180     4.4790     0.3250 C.3   1 <1>   0.1200 
 16 O        2.8850     3.7050    -0.2800 O.3   1 <1>  -0.6800 
 17 H        0.8430     1.5900    -1.4150 H     1 <1>   0.3700 
 18 H       -0.0980     2.7940     1.1400 H     1 <1>   0.0800 
 19 H        3.4110    -0.4400     2.0170 H     1 <1>   0.0800 
 20 H        4.3980    -0.2870     0.5770 H     1 <1>   0.0800 
 21 H        4.3020    -1.8060     1.4310 H     1 <1>   0.0800 
 22 H        1.2060    -1.7130     1.9100 H     1 <1>   0.0800 
 23 H        1.9870    -3.1430     1.3190 H     1 <1>   0.0800 
 24 H        0.6880    -2.4320     0.3980 H     1 <1>   0.0800 
 25 H        3.7720    -1.5670    -1.5140 H     1 <1>   0.0800 
 26 H        2.2570    -2.4430    -1.5870 H     1 <1>   0.0800 
 27 H        3.5740    -3.0500    -0.6200 H     1 <1>   0.0800 
 28 H       -0.0970     4.9710     0.0060 H     1 <1>   0.0800 
 29 H        0.6480     4.2850    -1.3930 H     1 <1>   0.0800 
 30 H       -1.3190     3.5770    -2.3860 H     1 <1>   0.0800 
 31 H       -2.6270     2.4370    -2.3070 H     1 <1>   0.0800 
 32 H       -0.9910     1.8630    -2.4290 H     1 <1>   0.0800 
 33 H       -2.2670     4.6410    -0.3120 H     1 <1>   0.0800 
 34 H       -2.4060     3.7270     1.1710 H     1 <1>   0.0800 
 35 H       -3.4990     3.4340    -0.1530 H     1 <1>   0.0800 
 36 H       -1.4850     0.4240    -0.3930 H     1 <1>   0.0800 
 37 H       -3.0770     1.0980    -0.2350 H     1 <1>   0.0800 
 38 H       -1.9660     1.1660     1.1080 H     1 <1>   0.0800 
 39 H        1.9040     4.2460     1.3770 H     1 <1>   0.0800 
 40 H        2.1970     5.5100     0.1910 H     1 <1>   0.0800 
 41 H        2.5780     2.7730    -0.2720 H     1 <1>   0.4000 
@<TRIPOS>BOND
  1   1   2  2   
  2   2   3  1   
  3   2   4  am  
  4   3   5  1   
  5   4   6  1   
  6   4  17  1   
  7   5   7  1   
  8   5   8  1   
  9   5   9  1   
 10   6  10  1   
 11   6  11  1   
 12   6  18  1   
 13   7  19  1   
 14   7  20  1   
 15   7  21  1   
 16   8  22  1   
 17   8  23  1   
 18   8  24  1   
 19   9  25  1   
 20   9  26  1   
 21   9  27  1   
 22  10  12  1   
 23  10  13  1   
 24  10  14  1   
 25  11  15  1   
 26  11  28  1   
 27  11  29  1   
 28  12  30  1   
 29  12  31  1   
 30  12  32  1   
 31  13  33  1   
 32  13  34  1   
 33  13  35  1   
 34  14  36  1   
 35  14  37  1   
 36  14  38  1   
 37  15  16  1   
 38  15  39  1   
 39  15  40  1   
 40  16  41  1   
@<TRIPOS>SUBSTRUCTURE
  1 ****   4 GROUP 4 **** **** 0

# MOE 2024.06 (io_trps.svl 2023.06)
