@<TRIPOS>MOLECULE
NONAME
65 66 1 0 0 
SMALL
USER_CHARGES


@<TRIPOS>ATOM
  1 O       11.2550    -3.6750     0.4540 O.2   1 <1>  -0.5700 
  2 C       10.6920    -2.8140    -0.1920 C.2   1 <1>   0.7800 
  3 O       11.3270    -1.6860    -0.5020 O.3   1 <1>  -0.4300 
  4 N        9.3890    -2.9420    -0.5950 N.am  1 <1>  -0.6600 
  5 C       12.6730    -1.4890    -0.1290 C.3   1 <1>   0.1200 
  6 C        8.5850    -4.1490    -0.2470 C.3   1 <1>   0.1400 
  7 C        8.6020    -1.8220    -1.1880 C.3   1 <1>   0.1400 
  8 C       13.1050    -0.1130    -0.6250 C.3   1 <1>  -0.2400 
  9 C        7.4360    -3.7610     0.7000 C.3   1 <1>   0.3430 
 10 C        7.4400    -1.4360    -0.2520 C.3   1 <1>   0.3430 
 11 N        6.6130    -2.6290     0.1430 N.4   1 <1>  -0.9590 
 12 C        5.4490    -2.2800     1.0140 C.3   1 <1>   0.3430 
 13 C        4.3180    -3.3110     0.8150 C.3   1 <1>   0.2000 
 14 O        4.3360    -3.7610    -0.5060 O.3   1 <1>  -0.6800 
 15 C        2.9210    -2.7460     1.1010 C.3   1 <1>   0.1200 
 16 O        1.9930    -3.6340     0.5600 O.3   1 <1>  -0.5600 
 17 C        0.6630    -3.1990     0.5430 C.3   1 <1>   0.2000 
 18 C       -0.2470    -4.4430     0.6570 C.3   1 <1>  -0.0800 
 19 C        0.4050    -2.4090    -0.7600 C.3   1 <1>  -0.1600 
 20 C       -0.1040    -5.1970     2.0090 C.3   1 <1>  -0.0800 
 21 C       -0.0350    -5.3940    -0.5520 C.3   1 <1>  -0.1600 
 22 C       -0.1730    -3.2520    -1.9150 C.3   1 <1>  -0.0800 
 23 C       -1.0770    -6.3850     2.1060 C.3   1 <1>  -0.2400 
 24 C       -0.3450    -4.2820     3.2220 C.3   1 <1>  -0.2400 
 25 C        0.3600    -4.6870    -1.8620 C.3   1 <1>  -0.1600 
 26 C        0.1350    -2.6020    -3.2690 C.3   1 <1>  -0.2400 
 27 H       13.2680    -2.2660    -0.5780 H     1 <1>   0.0800 
 28 H       12.7450    -1.5530     0.9440 H     1 <1>   0.0800 
 29 H        9.2000    -4.8940     0.2290 H     1 <1>   0.0800 
 30 H        8.1860    -4.5850    -1.1460 H     1 <1>   0.0800 
 31 H        8.2140    -2.1300    -2.1440 H     1 <1>   0.0800 
 32 H        9.2240    -0.9600    -1.3550 H     1 <1>   0.0800 
 33 H       13.0210    -0.0610    -1.6960 H     1 <1>   0.0800 
 34 H       14.1310     0.0620    -0.3550 H     1 <1>   0.0800 
 35 H       12.4990     0.6530    -0.1760 H     1 <1>   0.0800 
 36 H        7.8590    -3.4720     1.6480 H     1 <1>   0.0800 
 37 H        6.8100    -4.6230     0.8610 H     1 <1>   0.0800 
 38 H        6.8200    -0.7060    -0.7450 H     1 <1>   0.0800 
 39 H        7.8560    -0.9770     0.6310 H     1 <1>   0.0800 
 40 H        6.1470    -3.0100    -0.7060 H     1 <1>   0.4500 
 41 H        5.0700    -1.3130     0.7300 H     1 <1>   0.0800 
 42 H        5.7400    -2.2320     2.0510 H     1 <1>   0.0800 
 43 H        4.4830    -4.1650     1.4510 H     1 <1>   0.0800 
 44 H        3.4300    -4.1240    -0.6790 H     1 <1>   0.4000 
 45 H        2.8000    -1.7830     0.6370 H     1 <1>   0.0800 
 46 H        2.7440    -2.6630     2.1600 H     1 <1>   0.0800 
 47 H        0.5020    -2.5450     1.3820 H     1 <1>   0.0800 
 48 H       -1.2590    -4.0810     0.6030 H     1 <1>   0.0800 
 49 H        1.3140    -1.9300    -1.0740 H     1 <1>   0.0800 
 50 H       -0.3040    -1.6290    -0.5460 H     1 <1>   0.0800 
 51 H        0.8990    -5.5840     2.0810 H     1 <1>   0.0800 
 52 H       -0.9460    -5.9410    -0.7190 H     1 <1>   0.0800 
 53 H        0.7340    -6.1110    -0.3200 H     1 <1>   0.0800 
 54 H       -1.2440    -3.2960    -1.8040 H     1 <1>   0.0800 
 55 H       -2.0930    -6.0530     1.9830 H     1 <1>   0.0800 
 56 H       -0.9890    -6.8650     3.0650 H     1 <1>   0.0800 
 57 H       -0.8620    -7.1240     1.3560 H     1 <1>   0.0800 
 58 H       -1.3000    -3.7930     3.1440 H     1 <1>   0.0800 
 59 H        0.4240    -3.5370     3.3050 H     1 <1>   0.0800 
 60 H       -0.3320    -4.8570     4.1310 H     1 <1>   0.0800 
 61 H       -0.0130    -5.2550    -2.6980 H     1 <1>   0.0800 
 62 H        1.4330    -4.6620    -1.9410 H     1 <1>   0.0800 
 63 H        1.1960    -2.5630    -3.4410 H     1 <1>   0.0800 
 64 H       -0.2580    -1.6010    -3.3000 H     1 <1>   0.0800 
 65 H       -0.3190    -3.1670    -4.0640 H     1 <1>   0.0800 
@<TRIPOS>BOND
  1   1   2  2   
  2   2   3  1   
  3   2   4  am  
  4   3   5  1   
  5   4   6  1   
  6   4   7  1   
  7   5   8  1   
  8   5  27  1   
  9   5  28  1   
 10   6   9  1   
 11   6  29  1   
 12   6  30  1   
 13   7  10  1   
 14   7  31  1   
 15   7  32  1   
 16   8  33  1   
 17   8  34  1   
 18   8  35  1   
 19   9  11  1   
 20   9  36  1   
 21   9  37  1   
 22  10  11  1   
 23  10  38  1   
 24  10  39  1   
 25  11  12  1   
 26  11  40  1   
 27  12  13  1   
 28  12  41  1   
 29  12  42  1   
 30  13  14  1   
 31  13  15  1   
 32  13  43  1   
 33  14  44  1   
 34  15  16  1   
 35  15  45  1   
 36  15  46  1   
 37  16  17  1   
 38  17  18  1   
 39  17  19  1   
 40  17  47  1   
 41  18  20  1   
 42  18  21  1   
 43  18  48  1   
 44  19  22  1   
 45  19  49  1   
 46  19  50  1   
 47  20  23  1   
 48  20  24  1   
 49  20  51  1   
 50  21  25  1   
 51  21  52  1   
 52  21  53  1   
 53  22  25  1   
 54  22  26  1   
 55  22  54  1   
 56  23  55  1   
 57  23  56  1   
 58  23  57  1   
 59  24  58  1   
 60  24  59  1   
 61  24  60  1   
 62  25  61  1   
 63  25  62  1   
 64  26  63  1   
 65  26  64  1   
 66  26  65  1   
@<TRIPOS>SUBSTRUCTURE
  1 ****  14 GROUP 4 **** **** 0

# MOE 2024.06 (io_trps.svl 2023.06)
