@<TRIPOS>MOLECULE
NONAME
46 48 1 0 0 
SMALL
USER_CHARGES


@<TRIPOS>ATOM
  1 CL       0.4020     1.0940    -0.7480 Cl    1 <1>  -0.1770 
  2 C       -0.9110     2.2160    -0.4930 C.ar  1 <1>   0.1770 
  3 C       -2.1930     1.7360    -0.3310 C.ar  1 <1>  -0.1500 
  4 C       -0.6400     3.5690    -0.4540 C.ar  1 <1>  -0.1500 
  5 C       -3.2480     2.6200    -0.1250 C.ar  1 <1>   0.1170 
  6 C       -1.6820     4.4560    -0.2480 C.ar  1 <1>  -0.1500 
  7 N       -4.5590     2.1570     0.0630 N.am  1 <1>  -0.5470 
  8 C       -2.9800     3.9930    -0.0840 C.ar  1 <1>  -0.1430 
  9 C       -5.1940     1.0410    -0.4000 C.2   1 <1>   0.6900 
 10 C       -4.0970     5.0070     0.1340 C.3   1 <1>  -0.0960 
 11 O       -4.6620     0.3150    -1.2180 O.2   1 <1>  -0.5700 
 12 N       -6.4610     0.7630     0.0470 N.am  1 <1>  -0.6600 
 13 C       -7.0670     1.2980     1.3050 C.3   1 <1>   0.1400 
 14 C       -7.3000    -0.2790    -0.6190 C.3   1 <1>   0.1400 
 15 C       -8.4820     1.8340     1.0430 C.3   1 <1>   0.1400 
 16 C       -8.7290     0.2320    -0.8680 C.3   1 <1>   0.1400 
 17 N       -9.3340     0.7970     0.3820 N.am  1 <1>  -0.6600 
 18 C      -10.5820     0.4740     0.8700 C.2   1 <1>   0.5690 
 19 O      -10.9900     0.9920     1.8880 O.2   1 <1>  -0.5700 
 20 C      -11.4830    -0.5660     0.1500 C.3   1 <1>   0.2610 
 21 O      -11.7600    -0.1750    -1.1690 O.3   1 <1>  -0.5600 
 22 C      -12.8790    -0.7630     0.7440 C.3   1 <1>  -0.1600 
 23 C      -12.8710     0.6650    -1.1900 C.3   1 <1>   0.1200 
 24 C      -13.7180     0.2800     0.0210 C.3   1 <1>  -0.1600 
 25 H       -2.3640     0.6770    -0.3640 H     1 <1>   0.1500 
 26 H        0.3680     3.9170    -0.5840 H     1 <1>   0.1500 
 27 H       -1.4700     5.5110    -0.2180 H     1 <1>   0.1500 
 28 H       -5.1920     2.8230     0.4850 H     1 <1>   0.3700 
 29 H       -4.8660     4.8730    -0.6060 H     1 <1>   0.0800 
 30 H       -3.7250     6.0130     0.0490 H     1 <1>   0.0800 
 31 H       -4.5200     4.8860     1.1140 H     1 <1>   0.0800 
 32 H       -6.4620     2.0770     1.7290 H     1 <1>   0.0800 
 33 H       -7.1260     0.5030     2.0280 H     1 <1>   0.0800 
 34 H       -7.3370    -1.1540     0.0060 H     1 <1>   0.0800 
 35 H       -6.8670    -0.5670    -1.5620 H     1 <1>   0.0800 
 36 H       -8.4260     2.6980     0.4060 H     1 <1>   0.0800 
 37 H       -8.9160     2.1430     1.9780 H     1 <1>   0.0800 
 38 H       -9.3170    -0.5790    -1.2540 H     1 <1>   0.0800 
 39 H       -8.7020     1.0000    -1.6200 H     1 <1>   0.0800 
 40 H      -10.9600    -1.5040     0.1170 H     1 <1>   0.0800 
 41 H      -12.9020    -0.6500     1.8140 H     1 <1>   0.0800 
 42 H      -13.2250    -1.7490     0.4930 H     1 <1>   0.0800 
 43 H      -13.3960     0.5190    -2.1190 H     1 <1>   0.0800 
 44 H      -12.5250     1.6820    -1.1160 H     1 <1>   0.0800 
 45 H      -13.8730     1.1460     0.6420 H     1 <1>   0.0800 
 46 H      -14.6730    -0.1140    -0.2770 H     1 <1>   0.0800 
@<TRIPOS>BOND
  1   1   2  1   
  2   2   3  ar  
  3   2   4  ar  
  4   3   5  ar  
  5   3  25  1   
  6   4   6  ar  
  7   4  26  1   
  8   5   7  1   
  9   5   8  ar  
 10   6   8  ar  
 11   6  27  1   
 12   7   9  am  
 13   7  28  1   
 14   8  10  1   
 15   9  11  2   
 16   9  12  am  
 17  10  29  1   
 18  10  30  1   
 19  10  31  1   
 20  12  13  1   
 21  12  14  1   
 22  13  15  1   
 23  13  32  1   
 24  13  33  1   
 25  14  16  1   
 26  14  34  1   
 27  14  35  1   
 28  15  17  1   
 29  15  36  1   
 30  15  37  1   
 31  16  17  1   
 32  16  38  1   
 33  16  39  1   
 34  17  18  am  
 35  18  19  2   
 36  18  20  1   
 37  20  21  1   
 38  20  22  1   
 39  20  40  1   
 40  21  23  1   
 41  22  24  1   
 42  22  41  1   
 43  22  42  1   
 44  23  24  1   
 45  23  43  1   
 46  23  44  1   
 47  24  45  1   
 48  24  46  1   
@<TRIPOS>SUBSTRUCTURE
  1 ****  12 GROUP 4 **** **** 0

# MOE 2024.06 (io_trps.svl 2023.06)
