@<TRIPOS>MOLECULE
NONAME
56 60 1 0 0 
SMALL
USER_CHARGES


@<TRIPOS>ATOM
  1 O       -0.1070    -0.0630    -0.0730 O.2   1 <1>  -0.5700 
  2 C        0.5950    -0.9230     0.3920 C.2   1 <1>   0.5690 
  3 N        0.2050    -2.1840     0.8130 N.am  1 <1>  -0.4200 
  4 C        2.0660    -0.7750     0.6540 C.3   1 <1>  -0.0190 
  5 C        1.2530    -3.0630     1.0370 C.2   1 <1>   0.5690 
  6 C       -1.2110    -2.5630     0.9990 C.3   1 <1>   0.1400 
  7 C        3.3540     0.3780     0.1030 C.3   1 <1>   0.0580 
  8 C        2.4870    -2.4960     0.3940 C.3   1 <1>  -0.0190 
  9 O        1.1950    -4.1340     1.5830 O.2   1 <1>  -0.5700 
 10 C       -1.7550    -3.1930    -0.2860 C.3   1 <1>  -0.1600 
 11 C        3.7840    -0.6450     0.5270 C.2   1 <1>  -0.2880 
 12 C        5.0130     0.0520    -0.5660 C.3   1 <1>   0.0000 
 13 C        4.2450    -2.5960     0.4140 C.3   1 <1>   0.0580 
 14 C       -3.2270    -3.5930    -0.1270 C.3   1 <1>  -0.1600 
 15 C        4.3100    -1.5510     1.3680 C.2   1 <1>  -0.2880 
 16 C        6.3420     0.1280     0.2920 C.3   1 <1>   0.0530 
 17 C        5.3910    -1.7440    -0.6340 C.3   1 <1>   0.0000 
 18 C       -3.7670    -4.2230    -1.4140 C.3   1 <1>  -0.2400 
 19 C        7.6830     0.8270     0.3090 C.2   1 <1>   0.5770 
 20 C        6.8330    -1.1890    -0.4170 C.3   1 <1>   0.0530 
 21 O        7.8550     2.0130     0.1930 O.2   1 <1>  -0.5700 
 22 N        8.6430    -0.1290     0.5390 N.am  1 <1>  -0.4200 
 23 C        8.1260    -1.3810     0.3290 C.2   1 <1>   0.5770 
 24 C       10.0370     0.1530     0.9330 C.3   1 <1>   0.1400 
 25 O        8.6220    -2.4380     0.6240 O.2   1 <1>  -0.5700 
 26 C       10.9200     0.2530    -0.3140 C.3   1 <1>  -0.1600 
 27 C       12.3770     0.5500     0.0620 C.3   1 <1>  -0.1600 
 28 C       13.2570     0.6490    -1.1870 C.3   1 <1>  -0.2400 
 29 H        1.9790    -0.6000     1.7320 H     1 <1>   0.0800 
 30 H       -1.7830    -1.6850     1.2490 H     1 <1>   0.0800 
 31 H       -1.2870    -3.2630     1.8140 H     1 <1>   0.0800 
 32 H        2.8620     0.7410    -0.7970 H     1 <1>   0.0800 
 33 H        2.2800    -2.7400    -0.6360 H     1 <1>   0.0800 
 34 H       -1.1750    -4.0670    -0.5260 H     1 <1>   0.0800 
 35 H       -1.6660    -2.4840    -1.0930 H     1 <1>   0.0800 
 36 H        3.4380    -0.9920    -0.6580 H     1 <1>   0.1500 
 37 H        5.1590     0.5210    -1.5260 H     1 <1>   0.0000 
 38 H        4.6200    -3.5310     0.7940 H     1 <1>   0.0800 
 39 H       -3.8160    -2.7240     0.1140 H     1 <1>   0.0800 
 40 H       -3.3260    -4.3000     0.6800 H     1 <1>   0.0800 
 41 H        4.6690    -1.6200     2.3830 H     1 <1>   0.1500 
 42 H        6.1390    -0.0270     1.3340 H     1 <1>   0.0000 
 43 H        5.2900    -2.1130    -1.6400 H     1 <1>   0.0000 
 44 H       -3.6990    -3.5260    -2.2310 H     1 <1>   0.0800 
 45 H       -4.8000    -4.4960    -1.2840 H     1 <1>   0.0800 
 46 H       -3.2080    -5.1070    -1.6640 H     1 <1>   0.0800 
 47 H        7.1580    -0.9430    -1.4170 H     1 <1>   0.0000 
 48 H       10.3900    -0.6370     1.5740 H     1 <1>   0.0800 
 49 H       10.0690     1.0790     1.4820 H     1 <1>   0.0800 
 50 H       10.5500     1.0410    -0.9470 H     1 <1>   0.0800 
 51 H       10.8760    -0.6770    -0.8550 H     1 <1>   0.0800 
 52 H       12.7550    -0.2330     0.6980 H     1 <1>   0.0800 
 53 H       12.4300     1.4780     0.6050 H     1 <1>   0.0800 
 54 H       13.2380    -0.2770    -1.7360 H     1 <1>   0.0800 
 55 H       14.2740     0.8580    -0.9060 H     1 <1>   0.0800 
 56 H       12.9110     1.4400    -1.8300 H     1 <1>   0.0800 
@<TRIPOS>BOND
  1   1   2  2   
  2   2   3  am  
  3   2   4  1   
  4   3   5  am  
  5   3   6  1   
  6   4   7  1   
  7   4   8  1   
  8   4  29  1   
  9   5   8  1   
 10   5   9  2   
 11   6  10  1   
 12   6  30  1   
 13   6  31  1   
 14   7  11  1   
 15   7  12  1   
 16   7  32  1   
 17   8  13  1   
 18   8  33  1   
 19  10  14  1   
 20  10  34  1   
 21  10  35  1   
 22  11  15  2   
 23  11  36  1   
 24  12  16  1   
 25  12  17  1   
 26  12  37  1   
 27  13  15  1   
 28  13  17  1   
 29  13  38  1   
 30  14  18  1   
 31  14  39  1   
 32  14  40  1   
 33  15  41  1   
 34  16  19  1   
 35  16  20  1   
 36  16  42  1   
 37  17  20  1   
 38  17  43  1   
 39  18  44  1   
 40  18  45  1   
 41  18  46  1   
 42  19  21  2   
 43  19  22  am  
 44  20  23  1   
 45  20  47  1   
 46  22  23  am  
 47  22  24  1   
 48  23  25  2   
 49  24  26  1   
 50  24  48  1   
 51  24  49  1   
 52  26  27  1   
 53  26  50  1   
 54  26  51  1   
 55  27  28  1   
 56  27  52  1   
 57  27  53  1   
 58  28  54  1   
 59  28  55  1   
 60  28  56  1   
@<TRIPOS>SUBSTRUCTURE
  1 ****  11 GROUP 4 **** **** 0

# MOE 2024.06 (io_trps.svl 2023.06)
