@<TRIPOS>MOLECULE
NONAME
32 33 1 0 0 
SMALL
USER_CHARGES


@<TRIPOS>ATOM
  1 CL      -0.2980     0.5340    -1.5530 Cl    1 <1>  -0.1770 
  2 C       -1.6570     1.1630    -0.6520 C.ar  1 <1>   0.1770 
  3 C       -1.6120     2.4160    -0.0380 C.ar  1 <1>   0.0860 
  4 C       -2.7820     0.3640    -0.5900 C.ar  1 <1>  -0.1500 
  5 C       -0.4680     3.3070    -0.0790 C.2   1 <1>   0.5440 
  6 C       -2.7630     2.8190     0.6430 C.ar  1 <1>  -0.1500 
  7 C       -3.9020     0.8030     0.0910 C.ar  1 <1>  -0.1500 
  8 O       -0.6240     4.5060    -0.1280 O.2   1 <1>  -0.5700 
  9 N        0.8130     2.8770    -0.0350 N.am  1 <1>  -0.8000 
 10 C       -3.9120     2.0410     0.7220 C.ar  1 <1>  -0.0090 
 11 S       -5.3950     2.6360     1.5880 S.o2  1 <1>   1.4470 
 12 O       -5.0430     3.6960     2.5070 O.2   1 <1>  -0.6500 
 13 O       -6.1420     1.4940     2.0690 O.2   1 <1>  -0.6500 
 14 N       -6.3080     3.3380     0.3460 N.am  1 <1>  -0.8490 
 15 C       -5.7720     4.6370    -0.1000 C.3   1 <1>   0.1960 
 16 C       -7.7130     3.5110     0.7480 C.3   1 <1>   0.1960 
 17 C       -6.6450     5.2450    -1.2120 C.3   1 <1>   0.1200 
 18 C       -8.5430     4.1560    -0.3780 C.3   1 <1>   0.1200 
 19 O       -7.9710     5.3680    -0.7820 O.3   1 <1>  -0.5600 
 20 H       -2.7820    -0.5970    -1.0760 H     1 <1>   0.1500 
 21 H       -2.7560     3.7830     1.1290 H     1 <1>   0.1500 
 22 H       -4.7820     0.1800     0.1350 H     1 <1>   0.1500 
 23 H        1.5640     3.5650    -0.0930 H     1 <1>   0.3700 
 24 H        1.0820     1.8970    -0.1350 H     1 <1>   0.3700 
 25 H       -4.7710     4.5090    -0.4760 H     1 <1>   0.0800 
 26 H       -5.7330     5.3300     0.7240 H     1 <1>   0.0800 
 27 H       -7.7710     4.1300     1.6290 H     1 <1>   0.0800 
 28 H       -8.1430     2.5530     0.9870 H     1 <1>   0.0800 
 29 H       -6.6240     4.6260    -2.0920 H     1 <1>   0.0800 
 30 H       -6.2910     6.2280    -1.4690 H     1 <1>   0.0800 
 31 H       -9.5410     4.3610    -0.0340 H     1 <1>   0.0800 
 32 H       -8.5960     3.4990    -1.2290 H     1 <1>   0.0800 
@<TRIPOS>BOND
  1   1   2  1   
  2   2   3  ar  
  3   2   4  ar  
  4   3   5  1   
  5   3   6  ar  
  6   4   7  ar  
  7   4  20  1   
  8   5   8  2   
  9   5   9  am  
 10   6  10  ar  
 11   6  21  1   
 12   7  10  ar  
 13   7  22  1   
 14   9  23  1   
 15   9  24  1   
 16  10  11  1   
 17  11  12  2   
 18  11  13  2   
 19  11  14  am  
 20  14  15  1   
 21  14  16  1   
 22  15  17  1   
 23  15  25  1   
 24  15  26  1   
 25  16  18  1   
 26  16  27  1   
 27  16  28  1   
 28  17  19  1   
 29  17  29  1   
 30  17  30  1   
 31  18  19  1   
 32  18  31  1   
 33  18  32  1   
@<TRIPOS>SUBSTRUCTURE
  1 ****  10 GROUP 4 **** **** 0

# MOE 2024.06 (io_trps.svl 2023.06)
