@<TRIPOS>MOLECULE
NONAME
49 51 1 0 0 
SMALL
USER_CHARGES


@<TRIPOS>ATOM
  1 S       -0.1260     0.6090    -0.4060 S.o2  1 <1>   1.5760 
  2 O       -0.3060     0.8550    -1.8190 O.2   1 <1>  -0.6500 
  3 O        0.0050    -0.7410     0.0940 O.2   1 <1>  -0.6500 
  4 N       -1.3850     1.3670     0.4190 N.am  1 <1>  -0.8490 
  5 N        1.1850     1.5120     0.1530 N.am  1 <1>  -0.8490 
  6 C       -1.5950     2.7450    -0.0630 C.3   1 <1>   0.1960 
  7 C       -2.6290     0.5960     0.2860 C.3   1 <1>   0.1960 
  8 C        1.4600     1.2390     1.5670 C.3   1 <1>   0.1960 
  9 C        2.3700     1.2690    -0.6690 C.3   1 <1>   0.1960 
 10 C       -2.7020     3.4550     0.7310 C.3   1 <1>   0.1400 
 11 C       -3.7850     1.2320     1.0780 C.3   1 <1>   0.1400 
 12 C        2.5620     2.1710     2.0800 C.3   1 <1>  -0.1600 
 13 C        3.5130     2.1950    -0.2400 C.3   1 <1>  -0.1600 
 14 N       -3.9730     2.6660     0.6960 N.am  1 <1>  -0.6600 
 15 C        3.8420     2.0290     1.2490 C.3   1 <1>  -0.1600 
 16 C       -5.1280     3.1640     0.1290 C.2   1 <1>   0.5440 
 17 O       -5.0750     4.2110    -0.4890 O.2   1 <1>  -0.5700 
 18 C       -6.3940     2.4640     0.2350 C.ar  1 <1>   0.0860 
 19 C       -7.1300     2.1420    -0.9030 C.ar  1 <1>  -0.1500 
 20 C       -6.9160     2.0860     1.4720 C.ar  1 <1>  -0.1500 
 21 C       -8.3290     1.4550    -0.8230 C.ar  1 <1>  -0.1440 
 22 C       -8.1120     1.3990     1.5650 C.ar  1 <1>  -0.1500 
 23 C       -8.8160     1.0810     0.4180 C.ar  1 <1>  -0.1500 
 24 C       -9.1110     1.1130    -2.0790 C.3   1 <1>  -0.0970 
 25 H       -1.8630     2.7400    -1.1070 H     1 <1>   0.0800 
 26 H       -0.6840     3.3080     0.0410 H     1 <1>   0.0800 
 27 H       -2.4710    -0.4040     0.6540 H     1 <1>   0.0800 
 28 H       -2.9070     0.5260    -0.7530 H     1 <1>   0.0800 
 29 H        1.7620     0.2120     1.6930 H     1 <1>   0.0800 
 30 H        0.5680     1.3990     2.1490 H     1 <1>   0.0800 
 31 H        2.1390     1.4620    -1.7050 H     1 <1>   0.0800 
 32 H        2.6730     0.2380    -0.5790 H     1 <1>   0.0800 
 33 H       -2.8520     4.4400     0.3250 H     1 <1>   0.0800 
 34 H       -2.3860     3.5670     1.7530 H     1 <1>   0.0800 
 35 H       -3.5650     1.1740     2.1290 H     1 <1>   0.0800 
 36 H       -4.6790     0.6650     0.8920 H     1 <1>   0.0800 
 37 H        2.7720     1.9430     3.1100 H     1 <1>   0.0800 
 38 H        2.2060     3.1860     2.0320 H     1 <1>   0.0800 
 39 H        3.2230     3.2130    -0.4370 H     1 <1>   0.0800 
 40 H        4.3860     1.9820    -0.8300 H     1 <1>   0.0800 
 41 H        4.2690     1.0540     1.4140 H     1 <1>   0.0800 
 42 H        4.5640     2.7680     1.5520 H     1 <1>   0.0800 
 43 H       -6.7430     2.4450    -1.8610 H     1 <1>   0.1500 
 44 H       -6.3740     2.3400     2.3660 H     1 <1>   0.1500 
 45 H       -8.5000     1.1140     2.5280 H     1 <1>   0.1500 
 46 H       -9.7460     0.5450     0.4950 H     1 <1>   0.1500 
 47 H       -8.7680     1.6990    -2.9130 H     1 <1>   0.0800 
 48 H      -10.1560     1.3140    -1.9310 H     1 <1>   0.0800 
 49 H       -8.9870     0.0710    -2.3130 H     1 <1>   0.0800 
@<TRIPOS>BOND
  1   1   2  2   
  2   1   3  2   
  3   1   4  am  
  4   1   5  am  
  5   4   6  1   
  6   4   7  1   
  7   5   8  1   
  8   5   9  1   
  9   6  10  1   
 10   6  25  1   
 11   6  26  1   
 12   7  11  1   
 13   7  27  1   
 14   7  28  1   
 15   8  12  1   
 16   8  29  1   
 17   8  30  1   
 18   9  13  1   
 19   9  31  1   
 20   9  32  1   
 21  10  14  1   
 22  10  33  1   
 23  10  34  1   
 24  11  14  1   
 25  11  35  1   
 26  11  36  1   
 27  12  15  1   
 28  12  37  1   
 29  12  38  1   
 30  13  15  1   
 31  13  39  1   
 32  13  40  1   
 33  14  16  am  
 34  15  41  1   
 35  15  42  1   
 36  16  17  2   
 37  16  18  1   
 38  18  19  ar  
 39  18  20  ar  
 40  19  21  ar  
 41  19  43  1   
 42  20  22  ar  
 43  20  44  1   
 44  21  23  ar  
 45  21  24  1   
 46  22  23  ar  
 47  22  45  1   
 48  23  46  1   
 49  24  47  1   
 50  24  48  1   
 51  24  49  1   
@<TRIPOS>SUBSTRUCTURE
  1 ****   7 GROUP 4 **** **** 0

# MOE 2024.06 (io_trps.svl 2023.06)
