@<TRIPOS>MOLECULE
NONAME
40 41 1 0 0 
SMALL
USER_CHARGES


@<TRIPOS>ATOM
  1 S       -0.9710    -3.5940    -0.5790 S.3   1 <1>  -0.3710 
  2 C       -0.1060    -5.1160    -0.1790 C.2   1 <1>   0.5050 
  3 C       -2.7480    -4.0900    -0.6480 C.3   1 <1>   0.0700 
  4 N       -0.8190    -6.1570    -0.0300 N.2   1 <1>  -0.6960 
  5 C        1.3380    -5.0330    -0.0540 C.ar  1 <1>   0.0860 
  6 C       -3.5680    -2.8470    -0.9840 C.3   1 <1>  -0.2400 
  7 C       -0.1730    -7.4290     0.2800 C.3   1 <1>   0.2460 
  8 C        2.0540    -6.2280    -0.0830 C.ar  1 <1>  -0.1430 
  9 C        2.0550    -3.8470     0.1140 C.ar  1 <1>  -0.1500 
 10 C        1.2630    -7.5120    -0.2960 C.3   1 <1>  -0.0160 
 11 C       -0.1660    -7.5720     1.8050 C.3   1 <1>  -0.2400 
 12 C       -1.0430    -8.5280    -0.3300 C.3   1 <1>  -0.2400 
 13 C        3.4300    -6.2460     0.0550 C.ar  1 <1>  -0.1500 
 14 C        3.4380    -3.8480     0.2500 C.ar  1 <1>   0.0820 
 15 C        4.1360    -5.0590     0.2240 C.ar  1 <1>   0.0820 
 16 O        4.1580    -2.7000     0.4140 O.3   1 <1>  -0.3630 
 17 O        5.4890    -5.0260     0.3640 O.3   1 <1>  -0.3630 
 18 C        3.5510    -1.4280     0.3880 C.3   1 <1>   0.0400 
 19 C        6.2760    -6.1960     0.3530 C.3   1 <1>   0.0400 
 20 H       -3.0060    -4.4940     0.3150 H     1 <1>   0.0800 
 21 H       -2.8400    -4.8500    -1.4050 H     1 <1>   0.0800 
 22 H       -3.4290    -2.0960    -0.2270 H     1 <1>   0.0800 
 23 H       -4.6120    -3.1000    -1.0330 H     1 <1>   0.0800 
 24 H       -3.2630    -2.4490    -1.9360 H     1 <1>   0.0800 
 25 H        1.5120    -2.9240     0.1450 H     1 <1>   0.1500 
 26 H        1.2060    -7.6930    -1.3550 H     1 <1>   0.0800 
 27 H        1.7780    -8.3470     0.1440 H     1 <1>   0.0800 
 28 H        0.4360    -6.8030     2.2540 H     1 <1>   0.0800 
 29 H        0.2360    -8.5270     2.0900 H     1 <1>   0.0800 
 30 H       -1.1670    -7.4970     2.1900 H     1 <1>   0.0800 
 31 H       -0.6310    -9.4960    -0.1160 H     1 <1>   0.0800 
 32 H       -1.1040    -8.4080    -1.3970 H     1 <1>   0.0800 
 33 H       -2.0380    -8.4830     0.0780 H     1 <1>   0.0800 
 34 H        3.9400    -7.1890     0.0240 H     1 <1>   0.1500 
 35 H        4.3230    -0.6890     0.5060 H     1 <1>   0.0800 
 36 H        2.8520    -1.3580     1.2030 H     1 <1>   0.0800 
 37 H        3.0580    -1.2950    -0.5580 H     1 <1>   0.0800 
 38 H        7.3030    -5.9060     0.4830 H     1 <1>   0.0800 
 39 H        6.1530    -6.6900    -0.5940 H     1 <1>   0.0800 
 40 H        5.9690    -6.8300     1.1660 H     1 <1>   0.0800 
@<TRIPOS>BOND
  1   1   2  1   
  2   1   3  1   
  3   2   4  2   
  4   2   5  1   
  5   3   6  1   
  6   3  20  1   
  7   3  21  1   
  8   4   7  1   
  9   5   8  ar  
 10   5   9  ar  
 11   6  22  1   
 12   6  23  1   
 13   6  24  1   
 14   7  10  1   
 15   7  11  1   
 16   7  12  1   
 17   8  10  1   
 18   8  13  ar  
 19   9  14  ar  
 20   9  25  1   
 21  10  26  1   
 22  10  27  1   
 23  11  28  1   
 24  11  29  1   
 25  11  30  1   
 26  12  31  1   
 27  12  32  1   
 28  12  33  1   
 29  13  15  ar  
 30  13  34  1   
 31  14  15  ar  
 32  14  16  1   
 33  15  17  1   
 34  16  18  1   
 35  17  19  1   
 36  18  35  1   
 37  18  36  1   
 38  18  37  1   
 39  19  38  1   
 40  19  39  1   
 41  19  40  1   
@<TRIPOS>SUBSTRUCTURE
  1 ****   5 GROUP 4 **** **** 0

# MOE 2024.06 (io_trps.svl 2023.06)
