@<TRIPOS>MOLECULE
NONAME
45 47 1 0 0 
SMALL
USER_CHARGES


@<TRIPOS>ATOM
  1 S        0.4000    -0.6560    -0.1490 S.3   1 <1>  -0.2860 
  2 C       -1.3360    -0.8310    -0.5480 C.2   1 <1>   0.2420 
  3 C        1.2250    -0.9570    -1.7900 C.3   1 <1>   0.1310 
  4 N       -1.7930    -1.0550    -1.7260 N.2   1 <1>  -0.3380 
  5 N       -2.2780    -0.7390     0.3720 N.pl3 1 <1>   0.0330 
  6 C        2.7340    -0.8060    -1.6890 C.2   1 <1>   0.5690 
  7 N       -3.1200    -1.1180    -1.5880 N.2   1 <1>  -0.3380 
  8 C       -3.4080    -0.9250    -0.3270 C.2   1 <1>   0.1330 
  9 O        3.4270    -1.4480    -2.4400 O.2   1 <1>  -0.5700 
 10 N        3.2620     0.0490    -0.7740 N.am  1 <1>  -0.7300 
 11 C       -4.7310    -0.9220     0.2570 C.ar  1 <1>   0.0530 
 12 C        4.7010     0.2650    -0.5320 C.3   1 <1>   0.2200 
 13 C       -5.7880    -1.5720    -0.3790 C.ar  1 <1>  -0.1500 
 14 C       -5.0080    -0.2810     1.4670 C.ar  1 <1>  -0.1500 
 15 C        5.0550    -0.0890     0.9280 C.3   1 <1>  -0.0800 
 16 C        5.0250     1.7290    -0.8510 C.3   1 <1>  -0.1600 
 17 C       -7.0580    -1.5930     0.1660 C.ar  1 <1>  -0.1500 
 18 C       -6.2760    -0.3000     2.0180 C.ar  1 <1>  -0.1500 
 19 C        6.5310     0.2420     1.2160 C.3   1 <1>  -0.1600 
 20 C        4.7880    -1.5700     1.2440 C.3   1 <1>  -0.2400 
 21 C        6.4960     2.0520    -0.5560 C.3   1 <1>  -0.1600 
 22 C       -7.3050    -0.9580     1.3690 C.ar  1 <1>  -0.1500 
 23 C        6.8550     1.7070     0.8950 C.3   1 <1>  -0.1600 
 24 H        0.8230    -0.2470    -2.4880 H     1 <1>   0.0800 
 25 H        0.9680    -1.9540    -2.0960 H     1 <1>   0.0800 
 26 H       -2.1630    -0.5840     1.3710 H     1 <1>   0.2700 
 27 H        2.6350     0.5200    -0.1210 H     1 <1>   0.3700 
 28 H        5.2740    -0.3660    -1.1920 H     1 <1>   0.0800 
 29 H       -5.6090    -2.0690    -1.3180 H     1 <1>   0.1500 
 30 H       -4.2320     0.2490     1.9880 H     1 <1>   0.1500 
 31 H        4.4490     0.5150     1.5810 H     1 <1>   0.0800 
 32 H        4.3990     2.3740    -0.2600 H     1 <1>   0.0800 
 33 H        4.8240     1.9170    -1.8910 H     1 <1>   0.0800 
 34 H       -7.8550    -2.1040    -0.3470 H     1 <1>   0.1500 
 35 H       -6.4680     0.2000     2.9520 H     1 <1>   0.1500 
 36 H        7.1640    -0.3970     0.6240 H     1 <1>   0.0800 
 37 H        6.7500     0.0510     2.2530 H     1 <1>   0.0800 
 38 H        5.3500    -2.2040     0.5800 H     1 <1>   0.0800 
 39 H        3.7440    -1.8010     1.1290 H     1 <1>   0.0800 
 40 H        5.0700    -1.7950     2.2570 H     1 <1>   0.0800 
 41 H        6.6800     3.0970    -0.7350 H     1 <1>   0.0800 
 42 H        7.1250     1.4870    -1.2220 H     1 <1>   0.0800 
 43 H       -8.2930    -0.9730     1.7960 H     1 <1>   0.1500 
 44 H        7.9040     1.8870     1.0580 H     1 <1>   0.0800 
 45 H        6.3050     2.3490     1.5620 H     1 <1>   0.0800 
@<TRIPOS>BOND
  1   1   2  1   
  2   1   3  1   
  3   2   4  2   
  4   2   5  1   
  5   3   6  1   
  6   3  24  1   
  7   3  25  1   
  8   4   7  1   
  9   5   8  1   
 10   5  26  1   
 11   6   9  2   
 12   6  10  am  
 13   7   8  2   
 14   8  11  1   
 15  10  12  1   
 16  10  27  1   
 17  11  13  ar  
 18  11  14  ar  
 19  12  15  1   
 20  12  16  1   
 21  12  28  1   
 22  13  17  ar  
 23  13  29  1   
 24  14  18  ar  
 25  14  30  1   
 26  15  19  1   
 27  15  20  1   
 28  15  31  1   
 29  16  21  1   
 30  16  32  1   
 31  16  33  1   
 32  17  22  ar  
 33  17  34  1   
 34  18  22  ar  
 35  18  35  1   
 36  19  23  1   
 37  19  36  1   
 38  19  37  1   
 39  20  38  1   
 40  20  39  1   
 41  20  40  1   
 42  21  23  1   
 43  21  41  1   
 44  21  42  1   
 45  22  43  1   
 46  23  44  1   
 47  23  45  1   
@<TRIPOS>SUBSTRUCTURE
  1 ****   1 GROUP 4 **** **** 0

# MOE 2024.06 (io_trps.svl 2023.06)
