@<TRIPOS>MOLECULE
NONAME
46 47 1 0 0 
SMALL
USER_CHARGES


@<TRIPOS>ATOM
  1 N        0.0160     0.0420     0.5370 N.4   1 <1>  -0.9590 
  2 C        1.2280     0.8940     0.7350 C.3   1 <1>   0.4230 
  3 C        0.1210    -1.0080    -0.5300 C.3   1 <1>   0.3430 
  4 C       -1.2200     0.8670     0.3440 C.3   1 <1>   0.3430 
  5 C        1.6820     1.5890    -0.5560 C.3   1 <1>  -0.1600 
  6 C        2.3740     0.0670     1.3220 C.3   1 <1>  -0.1600 
  7 C       -1.0880    -1.9400    -0.4580 C.3   1 <1>  -0.1600 
  8 C       -2.4570    -0.0270     0.4330 C.3   1 <1>  -0.1600 
  9 C        2.9170     2.4520    -0.2950 C.3   1 <1>   0.3430 
 10 C        3.6020     0.9460     1.5670 C.3   1 <1>   0.3430 
 11 C       -2.4070    -1.1680    -0.5920 C.3   1 <1>  -0.0800 
 12 N        4.0100     1.6240     0.3020 N.4   1 <1>  -0.9590 
 13 C       -3.6040    -2.1080    -0.4130 C.3   1 <1>  -0.2400 
 14 C        5.2400     2.4400     0.5460 C.3   1 <1>   0.3430 
 15 C        5.9190     2.7980    -0.7780 C.3   1 <1>  -0.1600 
 16 C        7.2420     3.5290    -0.5280 C.3   1 <1>  -0.2400 
 17 H       -0.1480    -0.4750     1.4130 H     1 <1>   0.4500 
 18 H        0.9810     1.6610     1.4540 H     1 <1>   0.0800 
 19 H        1.0190    -1.5900    -0.4000 H     1 <1>   0.0800 
 20 H        0.1540    -0.5430    -1.5020 H     1 <1>   0.0800 
 21 H       -1.1970     1.3470    -0.6210 H     1 <1>   0.0800 
 22 H       -1.2830     1.6300     1.1040 H     1 <1>   0.0800 
 23 H        0.9010     2.2300    -0.9240 H     1 <1>   0.0800 
 24 H        1.9220     0.8750    -1.3220 H     1 <1>   0.0800 
 25 H        2.6540    -0.7370     0.6650 H     1 <1>   0.0800 
 26 H        2.0700    -0.3560     2.2630 H     1 <1>   0.0800 
 27 H       -1.0660    -2.4850     0.4690 H     1 <1>   0.0800 
 28 H       -1.0180    -2.6620    -1.2540 H     1 <1>   0.0800 
 29 H       -3.3320     0.5740     0.2520 H     1 <1>   0.0800 
 30 H       -2.5430    -0.4230     1.4300 H     1 <1>   0.0800 
 31 H        2.6650     3.2590     0.3760 H     1 <1>   0.0800 
 32 H        3.2490     2.8870    -1.2250 H     1 <1>   0.0800 
 33 H        4.4140     0.3360     1.9350 H     1 <1>   0.0800 
 34 H        3.3760     1.6860     2.3200 H     1 <1>   0.0800 
 35 H       -2.4620    -0.7450    -1.5830 H     1 <1>   0.0800 
 36 H        4.2870     0.9020    -0.3800 H     1 <1>   0.4500 
 37 H       -3.6000    -2.5600     0.5640 H     1 <1>   0.0800 
 38 H       -3.5800    -2.8920    -1.1500 H     1 <1>   0.0800 
 39 H       -4.5280    -1.5680    -0.5330 H     1 <1>   0.0800 
 40 H        5.9380     1.8730     1.1420 H     1 <1>   0.0800 
 41 H        4.9940     3.3400     1.0880 H     1 <1>   0.0800 
 42 H        5.2890     3.4400    -1.3670 H     1 <1>   0.0800 
 43 H        6.1270     1.9030    -1.3390 H     1 <1>   0.0800 
 44 H        7.0800     4.4470     0.0120 H     1 <1>   0.0800 
 45 H        7.7100     3.7730    -1.4670 H     1 <1>   0.0800 
 46 H        7.9230     2.9130     0.0340 H     1 <1>   0.0800 
@<TRIPOS>BOND
  1   1   2  1   
  2   1   3  1   
  3   1   4  1   
  4   1  17  1   
  5   2   5  1   
  6   2   6  1   
  7   2  18  1   
  8   3   7  1   
  9   3  19  1   
 10   3  20  1   
 11   4   8  1   
 12   4  21  1   
 13   4  22  1   
 14   5   9  1   
 15   5  23  1   
 16   5  24  1   
 17   6  10  1   
 18   6  25  1   
 19   6  26  1   
 20   7  11  1   
 21   7  27  1   
 22   7  28  1   
 23   8  11  1   
 24   8  29  1   
 25   8  30  1   
 26   9  12  1   
 27   9  31  1   
 28   9  32  1   
 29  10  12  1   
 30  10  33  1   
 31  10  34  1   
 32  11  13  1   
 33  11  35  1   
 34  12  14  1   
 35  12  36  1   
 36  13  37  1   
 37  13  38  1   
 38  13  39  1   
 39  14  15  1   
 40  14  40  1   
 41  14  41  1   
 42  15  16  1   
 43  15  42  1   
 44  15  43  1   
 45  16  44  1   
 46  16  45  1   
 47  16  46  1   
@<TRIPOS>SUBSTRUCTURE
  1 ****   2 GROUP 4 **** **** 0

# MOE 2024.06 (io_trps.svl 2023.06)
