@<TRIPOS>MOLECULE
NONAME
48 50 1 0 0 
SMALL
USER_CHARGES


@<TRIPOS>ATOM
  1 O        0.9130     0.9350     1.3160 O.2   1 <1>  -0.5700 
  2 C        1.9190     0.4330     0.8570 C.2   1 <1>   0.6340 
  3 O        2.9540     1.2320     0.5680 O.3   1 <1>  -0.4300 
  4 C        2.0640    -0.9860     0.6060 C.ar  1 <1>   0.0860 
  5 C        2.8970     2.6290     0.7800 C.3   1 <1>   0.0400 
  6 C        1.0070    -1.8740     0.8250 C.ar  1 <1>  -0.1500 
  7 C        3.2610    -1.5350     0.1370 C.ar  1 <1>  -0.1500 
  8 C        1.1240    -3.2350     0.5940 C.ar  1 <1>   0.1170 
  9 C        3.3960    -2.8890    -0.0940 C.ar  1 <1>  -0.1500 
 10 N        0.0830    -4.1540     0.8040 N.am  1 <1>  -0.5470 
 11 C        2.3400    -3.7620     0.1350 C.ar  1 <1>   0.1000 
 12 C       -1.2620    -4.0240     0.9870 C.2   1 <1>   0.5690 
 13 N        2.4750    -5.1360    -0.0940 N.pl3 1 <1>  -0.8380 
 14 O       -1.8300    -2.9610     1.0470 O.2   1 <1>  -0.5700 
 15 C       -2.0890    -5.2910     1.1180 C.3   1 <1>   0.0440 
 16 C        2.0700    -5.6340    -1.4440 C.3   1 <1>   0.2090 
 17 C        3.6880    -5.8400     0.4220 C.3   1 <1>   0.2090 
 18 C       -1.7890    -6.3230     0.0340 C.ar  1 <1>  -0.1430 
 19 C        1.9970    -7.1700    -1.4570 C.3   1 <1>   0.1200 
 20 C        3.5240    -7.3660     0.3090 C.3   1 <1>   0.1200 
 21 C       -1.8240    -5.9600    -1.3050 C.ar  1 <1>  -0.1500 
 22 C       -1.4980    -7.6370     0.3720 C.ar  1 <1>  -0.1500 
 23 O        3.1970    -7.7360    -1.0020 O.3   1 <1>  -0.5600 
 24 C       -1.5720    -6.8970    -2.2920 C.ar  1 <1>  -0.1500 
 25 C       -1.2500    -8.5750    -0.6150 C.ar  1 <1>  -0.1500 
 26 C       -1.2870    -8.2060    -1.9480 C.ar  1 <1>  -0.1500 
 27 H        3.8340     3.0590     0.4780 H     1 <1>   0.0800 
 28 H        2.7220     2.8140     1.8260 H     1 <1>   0.0800 
 29 H        2.0930     3.0370     0.1930 H     1 <1>   0.0800 
 30 H        0.0760    -1.4750     1.1880 H     1 <1>   0.1500 
 31 H        4.1010    -0.8890    -0.0520 H     1 <1>   0.1500 
 32 H        4.3280    -3.2730    -0.4630 H     1 <1>   0.1500 
 33 H        0.4320    -5.1080     0.6630 H     1 <1>   0.3700 
 34 H       -3.1300    -5.0280     1.0640 H     1 <1>   0.0800 
 35 H       -1.9100    -5.7050     2.0920 H     1 <1>   0.0800 
 36 H        2.7840    -5.3050    -2.1780 H     1 <1>   0.0800 
 37 H        1.1080    -5.2270    -1.7060 H     1 <1>   0.0800 
 38 H        3.8490    -5.5680     1.4510 H     1 <1>   0.0800 
 39 H        4.5520    -5.5420    -0.1460 H     1 <1>   0.0800 
 40 H        1.8190    -7.5280    -2.4560 H     1 <1>   0.0800 
 41 H        1.2000    -7.5070    -0.8210 H     1 <1>   0.0800 
 42 H        2.7460    -7.7090     0.9680 H     1 <1>   0.0800 
 43 H        4.4430    -7.8590     0.5700 H     1 <1>   0.0800 
 44 H       -2.0540    -4.9450    -1.5850 H     1 <1>   0.1500 
 45 H       -1.4690    -7.9420     1.4040 H     1 <1>   0.1500 
 46 H       -1.6060    -6.6080    -3.3290 H     1 <1>   0.1500 
 47 H       -1.0300    -9.5940    -0.3460 H     1 <1>   0.1500 
 48 H       -1.0980    -8.9370    -2.7150 H     1 <1>   0.1500 
@<TRIPOS>BOND
  1   1   2  2   
  2   2   3  1   
  3   2   4  1   
  4   3   5  1   
  5   4   6  ar  
  6   4   7  ar  
  7   5  27  1   
  8   5  28  1   
  9   5  29  1   
 10   6   8  ar  
 11   6  30  1   
 12   7   9  ar  
 13   7  31  1   
 14   8  10  1   
 15   8  11  ar  
 16   9  11  ar  
 17   9  32  1   
 18  10  12  am  
 19  10  33  1   
 20  11  13  1   
 21  12  14  2   
 22  12  15  1   
 23  13  16  1   
 24  13  17  1   
 25  15  18  1   
 26  15  34  1   
 27  15  35  1   
 28  16  19  1   
 29  16  36  1   
 30  16  37  1   
 31  17  20  1   
 32  17  38  1   
 33  17  39  1   
 34  18  21  ar  
 35  18  22  ar  
 36  19  23  1   
 37  19  40  1   
 38  19  41  1   
 39  20  23  1   
 40  20  42  1   
 41  20  43  1   
 42  21  24  ar  
 43  21  44  1   
 44  22  25  ar  
 45  22  45  1   
 46  24  26  ar  
 47  24  46  1   
 48  25  26  ar  
 49  25  47  1   
 50  26  48  1   
@<TRIPOS>SUBSTRUCTURE
  1 ****   8 GROUP 4 **** **** 0

# MOE 2024.06 (io_trps.svl 2023.06)
