@<TRIPOS>MOLECULE
NONAME
48 49 1 0 0 
SMALL
USER_CHARGES


@<TRIPOS>ATOM
  1 O        0.1350     1.4370    -2.0120 O.2   1 <1>  -0.5700 
  2 C        0.0280     2.2030    -1.0720 C.2   1 <1>   0.5440 
  3 N       -1.1470     2.2100    -0.3470 N.am  1 <1>  -0.6600 
  4 C        1.1420     3.0700    -0.7400 C.ar  1 <1>   0.0860 
  5 C       -1.2570     2.7290     1.0430 C.3   1 <1>   0.1400 
  6 C       -2.3860     1.5710    -0.8640 C.3   1 <1>   0.1400 
  7 C        2.4180     2.5450    -0.5520 C.ar  1 <1>  -0.1500 
  8 C        0.9760     4.4490    -0.6030 C.ar  1 <1>  -0.1500 
  9 C       -2.3880     3.7560     1.1130 C.3   1 <1>  -0.1600 
 10 C       -3.5350     2.5810    -0.8120 C.3   1 <1>  -0.1600 
 11 C        3.4930     3.3610    -0.2160 C.ar  1 <1>   0.0830 
 12 C        2.0370     5.2700    -0.2690 C.ar  1 <1>  -0.1500 
 13 C       -3.7220     3.1700     0.6000 C.3   1 <1>  -0.0190 
 14 O        4.7590     2.9140    -0.0160 O.3   1 <1>  -0.3630 
 15 C        3.2920     4.7240    -0.0730 C.ar  1 <1>  -0.1500 
 16 C       -4.8600     4.1890     0.6200 C.2   1 <1>   0.6590 
 17 C        5.1380     1.5650    -0.1790 C.3   1 <1>   0.2000 
 18 O       -4.6700     5.3750     0.7170 O.2   1 <1>  -0.5700 
 19 O       -6.0810     3.6800     0.5220 O.3   1 <1>  -0.4300 
 20 C        4.8020     0.7990     1.1020 C.3   1 <1>  -0.2400 
 21 C        6.6410     1.5520    -0.4470 C.3   1 <1>  -0.2400 
 22 C       -7.2230     4.5040     0.5170 C.3   1 <1>   0.1200 
 23 C       -8.4510     3.6110     0.3770 C.3   1 <1>  -0.2400 
 24 H       -0.3330     3.1760     1.3670 H     1 <1>   0.0800 
 25 H       -1.4710     1.9060     1.7040 H     1 <1>   0.0800 
 26 H       -2.6160     0.7100    -0.2610 H     1 <1>   0.0800 
 27 H       -2.2470     1.2390    -1.8800 H     1 <1>   0.0800 
 28 H        2.5370     1.4860    -0.6770 H     1 <1>   0.1500 
 29 H        0.0020     4.8750    -0.7650 H     1 <1>   0.1500 
 30 H       -2.1170     4.6140     0.5230 H     1 <1>   0.0800 
 31 H       -2.5070     4.0860     2.1300 H     1 <1>   0.0800 
 32 H       -4.4420     2.0950    -1.1260 H     1 <1>   0.0800 
 33 H       -3.3300     3.3720    -1.5120 H     1 <1>   0.0800 
 34 H        1.8900     6.3310    -0.1640 H     1 <1>   0.1500 
 35 H       -4.0070     2.3710     1.2610 H     1 <1>   0.0800 
 36 H        4.1260     5.3510     0.1880 H     1 <1>   0.1500 
 37 H        4.6260     1.1570    -1.0330 H     1 <1>   0.0800 
 38 H        5.3200     1.2310     1.9400 H     1 <1>   0.0800 
 39 H        5.1040    -0.2280     1.0040 H     1 <1>   0.0800 
 40 H        3.7450     0.8210     1.2930 H     1 <1>   0.0800 
 41 H        7.1730     1.9890     0.3790 H     1 <1>   0.0800 
 42 H        6.8560     2.1080    -1.3420 H     1 <1>   0.0800 
 43 H        6.9820     0.5420    -0.5840 H     1 <1>   0.0800 
 44 H       -7.1450     5.1880    -0.3120 H     1 <1>   0.0800 
 45 H       -7.2480     5.0580     1.4410 H     1 <1>   0.0800 
 46 H       -8.4040     3.0570    -0.5430 H     1 <1>   0.0800 
 47 H       -9.3390     4.2160     0.3680 H     1 <1>   0.0800 
 48 H       -8.5090     2.9290     1.2060 H     1 <1>   0.0800 
@<TRIPOS>BOND
  1   1   2  2   
  2   2   3  am  
  3   2   4  1   
  4   3   5  1   
  5   3   6  1   
  6   4   7  ar  
  7   4   8  ar  
  8   5   9  1   
  9   5  24  1   
 10   5  25  1   
 11   6  10  1   
 12   6  26  1   
 13   6  27  1   
 14   7  11  ar  
 15   7  28  1   
 16   8  12  ar  
 17   8  29  1   
 18   9  13  1   
 19   9  30  1   
 20   9  31  1   
 21  10  13  1   
 22  10  32  1   
 23  10  33  1   
 24  11  14  1   
 25  11  15  ar  
 26  12  15  ar  
 27  12  34  1   
 28  13  16  1   
 29  13  35  1   
 30  14  17  1   
 31  15  36  1   
 32  16  18  2   
 33  16  19  1   
 34  17  20  1   
 35  17  21  1   
 36  17  37  1   
 37  19  22  1   
 38  20  38  1   
 39  20  39  1   
 40  20  40  1   
 41  21  41  1   
 42  21  42  1   
 43  21  43  1   
 44  22  23  1   
 45  22  44  1   
 46  22  45  1   
 47  23  46  1   
 48  23  47  1   
 49  23  48  1   
@<TRIPOS>SUBSTRUCTURE
  1 ****   3 GROUP 4 **** **** 0

# MOE 2024.06 (io_trps.svl 2023.06)
