@<TRIPOS>MOLECULE
NONAME
41 43 1 0 0 
SMALL
USER_CHARGES


@<TRIPOS>ATOM
  1 BR       0.2990     0.5570    -1.8170 Br    1 <1>  -0.1110 
  2 C        0.2000     2.0430    -0.5820 C.ar  1 <1>   0.1110 
  3 C        1.3780     2.6080    -0.1580 C.ar  1 <1>   0.0830 
  4 C       -1.0750     2.4850    -0.1640 C.ar  1 <1>   0.0000 
  5 O        2.5530     2.1030    -0.6220 O.3   1 <1>  -0.3630 
  6 C        1.3180     3.6890     0.7400 C.ar  1 <1>  -0.1500 
  7 C       -1.1110     3.5710     0.7410 C.ar  1 <1>   0.0000 
  8 C       -2.3030     1.9230    -0.5810 C.ar  1 <1>  -0.1500 
  9 C        3.8010     2.5300    -0.1420 C.3   1 <1>   0.1200 
 10 C        0.1030     4.1490     1.1710 C.ar  1 <1>  -0.1500 
 11 C       -2.3600     4.0470     1.1870 C.ar  1 <1>  -0.1500 
 12 C       -3.5000     2.4060    -0.1310 C.ar  1 <1>  -0.1500 
 13 C        4.8570     1.6690    -0.8390 C.3   1 <1>   0.3430 
 14 C       -3.5300     3.4800     0.7640 C.ar  1 <1>  -0.1500 
 15 N        6.2430     2.0220    -0.4030 N.4   1 <1>  -0.9060 
 16 C        7.2830     1.1970    -1.0480 C.3   1 <1>   0.4230 
 17 C        7.3290    -0.1760    -0.3820 C.3   1 <1>  -0.1600 
 18 C        8.6390     1.7890    -0.6850 C.3   1 <1>  -0.1600 
 19 C        8.1120     0.0160     0.9230 C.3   1 <1>  -0.1600 
 20 C        8.9540     1.2840     0.7290 C.3   1 <1>  -0.1600 
 21 H        2.2100     4.1670     1.0960 H     1 <1>   0.1500 
 22 H       -2.2960     1.0970    -1.2690 H     1 <1>   0.1500 
 23 H        3.8180     2.3810     0.9240 H     1 <1>   0.0800 
 24 H        3.9170     3.5700    -0.3930 H     1 <1>   0.0800 
 25 H        0.0500     4.9750     1.8570 H     1 <1>   0.1500 
 26 H       -2.3800     4.8730     1.8750 H     1 <1>   0.1500 
 27 H       -4.4290     1.9710    -0.4560 H     1 <1>   0.1500 
 28 H        4.7660     1.8080    -1.9040 H     1 <1>   0.0800 
 29 H        4.6560     0.6350    -0.6130 H     1 <1>   0.0800 
 30 H       -4.4810     3.8480     1.1090 H     1 <1>   0.1500 
 31 H        6.3550     1.8910     0.6090 H     1 <1>   0.4500 
 32 H        6.4420     3.0070    -0.6090 H     1 <1>   0.4500 
 33 H        7.1370     1.1400    -2.1150 H     1 <1>   0.0800 
 34 H        7.8920    -0.8370    -1.0200 H     1 <1>   0.0800 
 35 H        6.3620    -0.6190    -0.2220 H     1 <1>   0.0800 
 36 H        8.6730     2.8620    -0.7620 H     1 <1>   0.0800 
 37 H        9.3730     1.3840    -1.3620 H     1 <1>   0.0800 
 38 H        8.7390    -0.8390     1.1200 H     1 <1>   0.0800 
 39 H        7.4410     0.1410     1.7560 H     1 <1>   0.0800 
 40 H        8.6860     2.0230     1.4660 H     1 <1>   0.0800 
 41 H       10.0060     1.0710     0.8320 H     1 <1>   0.0800 
@<TRIPOS>BOND
  1   1   2  1   
  2   2   3  ar  
  3   2   4  ar  
  4   3   5  1   
  5   3   6  ar  
  6   4   7  ar  
  7   4   8  ar  
  8   5   9  1   
  9   6  10  ar  
 10   6  21  1   
 11   7  10  ar  
 12   7  11  ar  
 13   8  12  ar  
 14   8  22  1   
 15   9  13  1   
 16   9  23  1   
 17   9  24  1   
 18  10  25  1   
 19  11  14  ar  
 20  11  26  1   
 21  12  14  ar  
 22  12  27  1   
 23  13  15  1   
 24  13  28  1   
 25  13  29  1   
 26  14  30  1   
 27  15  16  1   
 28  15  31  1   
 29  15  32  1   
 30  16  17  1   
 31  16  18  1   
 32  16  33  1   
 33  17  19  1   
 34  17  34  1   
 35  17  35  1   
 36  18  20  1   
 37  18  36  1   
 38  18  37  1   
 39  19  20  1   
 40  19  38  1   
 41  19  39  1   
 42  20  40  1   
 43  20  41  1   
@<TRIPOS>SUBSTRUCTURE
  1 ****   5 GROUP 4 **** **** 0

# MOE 2024.06 (io_trps.svl 2023.06)
