@<TRIPOS>MOLECULE
NONAME
42 43 1 0 0 
SMALL
USER_CHARGES


@<TRIPOS>ATOM
  1 CL      -0.0540     0.0460    -0.5530 Cl    1 <1>  -0.1770 
  2 C        1.6420     0.0900    -0.1440 C.ar  1 <1>   0.1770 
  3 C        2.1310    -0.7840     0.8100 C.ar  1 <1>  -0.1500 
  4 C        2.4680     1.0000    -0.7820 C.ar  1 <1>  -0.1500 
  5 C        3.4780    -0.7460     1.1320 C.ar  1 <1>  -0.1500 
  6 C        3.8150     1.0390    -0.4610 C.ar  1 <1>  -0.1500 
  7 C        4.3090     0.1620     0.4970 C.ar  1 <1>   0.1020 
  8 S        6.0460     0.1430     0.9760 S.3   1 <1>  -0.3320 
  9 C        6.8960     1.4400    -0.0180 C.3   1 <1>   0.0700 
 10 C        8.3690     1.4180     0.3980 C.3   1 <1>  -0.1600 
 11 C        9.1800     2.4480    -0.3840 C.3   1 <1>   0.3430 
 12 N       10.5810     2.4870     0.1150 N.4   1 <1>  -0.9590 
 13 C       11.3510     3.6650    -0.4020 C.3   1 <1>   0.3430 
 14 C       11.3660     1.2230    -0.1390 C.3   1 <1>   0.3430 
 15 C       12.7270     3.7830     0.3070 C.3   1 <1>   0.2000 
 16 C       12.8850     1.3900     0.1350 C.3   1 <1>   0.2000 
 17 O       13.1280     2.5600     0.8700 O.3   1 <1>  -0.5600 
 18 C       12.6840     4.7830     1.4600 C.3   1 <1>  -0.2400 
 19 C       13.7420     1.3950    -1.1370 C.3   1 <1>  -0.2400 
 20 H        1.4670    -1.4800     1.2900 H     1 <1>   0.1500 
 21 H        2.0550     1.6660    -1.5190 H     1 <1>   0.1500 
 22 H        3.8830    -1.4150     1.8710 H     1 <1>   0.1500 
 23 H        4.4490     1.7450    -0.9580 H     1 <1>   0.1500 
 24 H        6.4230     2.3800     0.2120 H     1 <1>   0.0800 
 25 H        6.7620     1.1850    -1.0550 H     1 <1>   0.0800 
 26 H        8.7510     0.4280     0.2200 H     1 <1>   0.0800 
 27 H        8.4270     1.6320     1.4510 H     1 <1>   0.0800 
 28 H        8.7270     3.4180    -0.2570 H     1 <1>   0.0800 
 29 H        9.1690     2.2050    -1.4350 H     1 <1>   0.0800 
 30 H       10.5770     2.6030     1.1400 H     1 <1>   0.4500 
 31 H       10.7980     4.5770    -0.2500 H     1 <1>   0.0800 
 32 H       11.5150     3.5550    -1.4610 H     1 <1>   0.0800 
 33 H       11.2360     0.9060    -1.1600 H     1 <1>   0.0800 
 34 H       10.9910     0.4340     0.4900 H     1 <1>   0.0800 
 35 H       13.4790     4.0940    -0.4000 H     1 <1>   0.0800 
 36 H       13.2120     0.5690     0.7510 H     1 <1>   0.0800 
 37 H       11.9680     4.4830     2.2030 H     1 <1>   0.0800 
 38 H       12.4220     5.7620     1.1000 H     1 <1>   0.0800 
 39 H       13.6560     4.8480     1.9190 H     1 <1>   0.0800 
 40 H       13.4230     2.1440    -1.8390 H     1 <1>   0.0800 
 41 H       13.6770     0.4370    -1.6220 H     1 <1>   0.0800 
 42 H       14.7730     1.5640    -0.8800 H     1 <1>   0.0800 
@<TRIPOS>BOND
  1   1   2  1   
  2   2   3  ar  
  3   2   4  ar  
  4   3   5  ar  
  5   3  20  1   
  6   4   6  ar  
  7   4  21  1   
  8   5   7  ar  
  9   5  22  1   
 10   6   7  ar  
 11   6  23  1   
 12   7   8  1   
 13   8   9  1   
 14   9  10  1   
 15   9  24  1   
 16   9  25  1   
 17  10  11  1   
 18  10  26  1   
 19  10  27  1   
 20  11  12  1   
 21  11  28  1   
 22  11  29  1   
 23  12  13  1   
 24  12  14  1   
 25  12  30  1   
 26  13  15  1   
 27  13  31  1   
 28  13  32  1   
 29  14  16  1   
 30  14  33  1   
 31  14  34  1   
 32  15  17  1   
 33  15  18  1   
 34  15  35  1   
 35  16  17  1   
 36  16  19  1   
 37  16  36  1   
 38  18  37  1   
 39  18  38  1   
 40  18  39  1   
 41  19  40  1   
 42  19  41  1   
 43  19  42  1   
@<TRIPOS>SUBSTRUCTURE
  1 ****  10 GROUP 4 **** **** 0

# MOE 2024.06 (io_trps.svl 2023.06)
