@<TRIPOS>MOLECULE
NONAME
35 35 1 0 0 
SMALL
USER_CHARGES


@<TRIPOS>ATOM
  1 O       -0.4200    -1.1140     1.2010 O.co2 1 <1>  -0.9000 
  2 C       -0.7440    -1.3780     0.0360 C.2   1 <1>   0.9060 
  3 O        0.0910    -1.6490    -0.8340 O.co2 1 <1>  -0.9000 
  4 C       -2.2230    -1.3710    -0.3520 C.3   1 <1>  -0.1860 
  5 C       -2.8550     0.0230    -0.1770 C.3   1 <1>  -0.1600 
  6 C       -3.0260    -2.4240     0.4360 C.3   1 <1>  -0.1600 
  7 C       -4.3400     0.0300    -0.5670 C.3   1 <1>  -0.1600 
  8 C       -4.5090    -2.4160     0.0380 C.3   1 <1>  -0.1600 
  9 C       -5.1410    -1.0250     0.2220 C.3   1 <1>  -0.0800 
 10 C       -6.6240    -1.0700    -0.1970 C.3   1 <1>  -0.1600 
 11 C       -7.3910     0.2230     0.1210 C.3   1 <1>  -0.1600 
 12 C       -8.8850     0.0700    -0.1900 C.3   1 <1>  -0.1600 
 13 C       -9.6500     1.3610     0.1210 C.3   1 <1>  -0.1600 
 14 C      -11.1410     1.2070    -0.1880 C.3   1 <1>  -0.2400 
 15 H       -2.2640    -1.6290    -1.3940 H     1 <1>   0.0800 
 16 H       -2.3150     0.7310    -0.7810 H     1 <1>   0.0800 
 17 H       -2.7490     0.3240     0.8520 H     1 <1>   0.0800 
 18 H       -2.9310    -2.2180     1.4890 H     1 <1>   0.0800 
 19 H       -2.6030    -3.3970     0.2550 H     1 <1>   0.0800 
 20 H       -4.4260    -0.1680    -1.6210 H     1 <1>   0.0800 
 21 H       -4.7310     1.0130    -0.3790 H     1 <1>   0.0800 
 22 H       -5.0330    -3.1370     0.6380 H     1 <1>   0.0800 
 23 H       -4.5930    -2.7160    -0.9930 H     1 <1>   0.0800 
 24 H       -5.0880    -0.7750     1.2690 H     1 <1>   0.0800 
 25 H       -7.0990    -1.8840     0.3240 H     1 <1>   0.0800 
 26 H       -6.6900    -1.2760    -1.2510 H     1 <1>   0.0800 
 27 H       -6.9950     1.0350    -0.4620 H     1 <1>   0.0800 
 28 H       -7.2650     0.4640     1.1630 H     1 <1>   0.0800 
 29 H       -9.2920    -0.7360     0.3970 H     1 <1>   0.0800 
 30 H       -9.0100    -0.1780    -1.2300 H     1 <1>   0.0800 
 31 H       -9.2480     2.1700    -0.4660 H     1 <1>   0.0800 
 32 H       -9.5280     1.6120     1.1620 H     1 <1>   0.0800 
 33 H      -11.2870     0.9770    -1.2290 H     1 <1>   0.0800 
 34 H      -11.6600     2.1220     0.0360 H     1 <1>   0.0800 
 35 H      -11.5680     0.4170     0.4050 H     1 <1>   0.0800 
@<TRIPOS>BOND
  1   1   2  ar  
  2   2   3  ar  
  3   2   4  1   
  4   4   5  1   
  5   4   6  1   
  6   4  15  1   
  7   5   7  1   
  8   5  16  1   
  9   5  17  1   
 10   6   8  1   
 11   6  18  1   
 12   6  19  1   
 13   7   9  1   
 14   7  20  1   
 15   7  21  1   
 16   8   9  1   
 17   8  22  1   
 18   8  23  1   
 19   9  10  1   
 20   9  24  1   
 21  10  11  1   
 22  10  25  1   
 23  10  26  1   
 24  11  12  1   
 25  11  27  1   
 26  11  28  1   
 27  12  13  1   
 28  12  29  1   
 29  12  30  1   
 30  13  14  1   
 31  13  31  1   
 32  13  32  1   
 33  14  33  1   
 34  14  34  1   
 35  14  35  1   
@<TRIPOS>SUBSTRUCTURE
  1 ****   9 GROUP 4 **** **** 0

# MOE 2024.06 (io_trps.svl 2023.06)
