@<TRIPOS>MOLECULE
NONAME
47 48 1 0 0 
SMALL
USER_CHARGES


@<TRIPOS>ATOM
  1 O       -1.6350    -0.6700     1.9650 O.2   1 <1>  -0.5700 
  2 C       -1.2370    -1.3910     1.1010 C.2   1 <1>   0.4480 
  3 C       -2.2000    -1.8880    -0.0620 C.3   1 <1>   0.1220 
  4 C        0.2080    -1.9980     1.1790 C.3   1 <1>   0.0420 
  5 C       -2.6760    -0.6610    -0.8560 C.2   1 <1>   0.6590 
  6 C       -1.3270    -2.8340    -0.9230 C.3   1 <1>  -0.1600 
  7 C       -3.4080    -2.8480     0.5030 C.3   1 <1>  -0.1600 
  8 C        1.1220    -1.0180     0.4720 C.2   1 <1>   0.6590 
  9 C        0.4650    -3.5000     0.6620 C.3   1 <1>  -0.1600 
 10 O       -2.0660    -0.2810    -1.8180 O.2   1 <1>  -0.5700 
 11 O       -3.8170    -0.0570    -0.5330 O.3   1 <1>  -0.4300 
 12 C       -0.5740    -4.0940    -0.4280 C.3   1 <1>   0.1220 
 13 C       -3.1570    -4.4620     0.4600 C.3   1 <1>   0.0420 
 14 O        2.0640    -0.5190     1.0280 O.2   1 <1>  -0.5700 
 15 O        0.8330    -0.7690    -0.7950 O.3   1 <1>  -0.4300 
 16 C       -4.1320     0.4320     0.7530 C.3   1 <1>   0.0400 
 17 C       -1.6940    -5.0440     0.2440 C.2   1 <1>   0.4480 
 18 C        0.1050    -4.8690    -1.5710 C.2   1 <1>   0.6590 
 19 C       -4.0230    -5.1150    -0.6120 C.2   1 <1>   0.6590 
 20 C        1.5710     0.1440    -1.5790 C.3   1 <1>   0.0400 
 21 O       -1.4100    -6.1150     0.6870 O.2   1 <1>  -0.5700 
 22 O       -0.3170    -4.7990    -2.6930 O.2   1 <1>  -0.5700 
 23 O        1.2200    -5.5580    -1.3430 O.3   1 <1>  -0.4300 
 24 O       -4.1330    -4.5910    -1.6850 O.2   1 <1>  -0.5700 
 25 O       -4.7060    -6.2250    -0.3480 O.3   1 <1>  -0.4300 
 26 C        1.3580    -6.5590    -0.3570 C.3   1 <1>   0.0400 
 27 C       -4.3260    -7.2560     0.5410 C.3   1 <1>   0.0400 
 28 H        0.4980    -1.9670     2.2140 H     1 <1>   0.0800 
 29 H       -2.0030    -3.1880    -1.6840 H     1 <1>   0.0800 
 30 H       -1.4610    -3.0810    -0.0210 H     1 <1>   0.0800 
 31 H       -4.3080    -2.6270    -0.0470 H     1 <1>   0.0800 
 32 H       -3.6080    -2.5680     1.5230 H     1 <1>   0.0800 
 33 H        0.4590    -4.1530     1.5180 H     1 <1>   0.0800 
 34 H        1.4640    -3.5400     0.2600 H     1 <1>   0.0800 
 35 H       -3.4990    -4.8330     1.4060 H     1 <1>   0.0800 
 36 H       -5.0500     0.9870     0.6850 H     1 <1>   0.0800 
 37 H       -3.3400     1.0840     1.0810 H     1 <1>   0.0800 
 38 H       -4.2530    -0.3860     1.4380 H     1 <1>   0.0800 
 39 H        2.5860    -0.2030    -1.6560 H     1 <1>   0.0800 
 40 H        1.5400     1.1110    -1.1080 H     1 <1>   0.0800 
 41 H        1.1180     0.1940    -2.5540 H     1 <1>   0.0800 
 42 H        2.3230    -7.0170    -0.4780 H     1 <1>   0.0800 
 43 H        0.5880    -7.2980    -0.5020 H     1 <1>   0.0800 
 44 H        1.2830    -6.1260     0.6230 H     1 <1>   0.0800 
 45 H       -5.0620    -8.0380     0.4760 H     1 <1>   0.0800 
 46 H       -4.2910    -6.8810     1.5480 H     1 <1>   0.0800 
 47 H       -3.3680    -7.6440     0.2410 H     1 <1>   0.0800 
@<TRIPOS>BOND
  1   1   2  2   
  2   2   3  1   
  3   2   4  1   
  4   3   5  1   
  5   3   6  1   
  6   3   7  1   
  7   4   8  1   
  8   4   9  1   
  9   4  28  1   
 10   5  10  2   
 11   5  11  1   
 12   6  12  1   
 13   6  29  1   
 14   6  30  1   
 15   7  13  1   
 16   7  31  1   
 17   7  32  1   
 18   8  14  2   
 19   8  15  1   
 20   9  12  1   
 21   9  33  1   
 22   9  34  1   
 23  11  16  1   
 24  12  17  1   
 25  12  18  1   
 26  13  17  1   
 27  13  19  1   
 28  13  35  1   
 29  15  20  1   
 30  16  36  1   
 31  16  37  1   
 32  16  38  1   
 33  17  21  2   
 34  18  22  2   
 35  18  23  1   
 36  19  24  2   
 37  19  25  1   
 38  20  39  1   
 39  20  40  1   
 40  20  41  1   
 41  23  26  1   
 42  25  27  1   
 43  26  42  1   
 44  26  43  1   
 45  26  44  1   
 46  27  45  1   
 47  27  46  1   
 48  27  47  1   
@<TRIPOS>SUBSTRUCTURE
  1 ****   6 GROUP 4 **** **** 0

# MOE 2024.06 (io_trps.svl 2023.06)
