@<TRIPOS>MOLECULE
NONAME
42 43 1 0 0 
SMALL
USER_CHARGES


@<TRIPOS>ATOM
  1 F        1.3280     0.0800    -1.2530 F     1 <1>  -0.1900 
  2 C        1.6950    -1.1320    -0.9400 C.ar  1 <1>   0.1900 
  3 C        2.4220    -1.8660    -1.8570 C.ar  1 <1>  -0.1500 
  4 C        1.3440    -1.6380     0.2960 C.ar  1 <1>  -0.1500 
  5 C        2.8120    -3.1520    -1.5200 C.ar  1 <1>  -0.1500 
  6 C        1.7390    -2.9240     0.6250 C.ar  1 <1>  -0.1500 
  7 C        2.4770    -3.6830    -0.2780 C.ar  1 <1>  -0.1430 
  8 C        2.9180    -5.0860     0.0990 C.3   1 <1>   0.4870 
  9 N        4.3930    -5.1040     0.2720 N.4   1 <1>  -0.9590 
 10 C        4.9720    -6.4640     0.5270 C.3   1 <1>   0.3430 
 11 C        4.9180    -4.1000     1.2570 C.3   1 <1>   0.3430 
 12 C        6.5210    -6.4110     0.5890 C.3   1 <1>   0.1100 
 13 C        6.4650    -4.0560     1.2190 C.3   1 <1>   0.1100 
 14 N        7.0360    -5.0580     0.2800 N.3   1 <1>  -0.8100 
 15 C        8.5330    -5.0070     0.2250 C.3   1 <1>   0.1710 
 16 C        9.1700    -3.7410    -0.3790 C.2   1 <1>   0.6590 
 17 O        8.5320    -2.7810    -0.7380 O.2   1 <1>  -0.5700 
 18 O       10.4920    -3.7750    -0.4730 O.3   1 <1>  -0.4300 
 19 C       11.2220    -2.6940    -1.0080 C.3   1 <1>   0.1200 
 20 C       12.7030    -3.0560    -0.9680 C.3   1 <1>  -0.2400 
 21 H        2.6730    -1.4350    -2.8110 H     1 <1>   0.1500 
 22 H        0.7730    -1.0330     0.9780 H     1 <1>   0.1500 
 23 H        3.3750    -3.7250    -2.2370 H     1 <1>   0.1500 
 24 H        1.4610    -3.3200     1.5880 H     1 <1>   0.1500 
 25 H        2.6290    -5.7720    -0.6810 H     1 <1>   0.0800 
 26 H        2.4350    -5.3870     1.0140 H     1 <1>   0.0800 
 27 H        4.8360    -4.7990    -0.6090 H     1 <1>   0.4500 
 28 H        4.6810    -7.1380    -0.2620 H     1 <1>   0.0800 
 29 H        4.5950    -6.8610     1.4550 H     1 <1>   0.0800 
 30 H        4.5910    -4.3500     2.2530 H     1 <1>   0.0800 
 31 H        4.5410    -3.1180     1.0230 H     1 <1>   0.0800 
 32 H        6.9190    -7.1180    -0.1190 H     1 <1>   0.0800 
 33 H        6.8500    -6.7140     1.5690 H     1 <1>   0.0800 
 34 H        6.8480    -4.2180     2.2120 H     1 <1>   0.0800 
 35 H        6.7600    -3.0640     0.9210 H     1 <1>   0.0800 
 36 H        8.8810    -5.8310    -0.3710 H     1 <1>   0.0800 
 37 H        8.9320    -5.1350     1.2150 H     1 <1>   0.0800 
 38 H       11.0220    -1.8180    -0.4140 H     1 <1>   0.0800 
 39 H       10.8920    -2.5270    -2.0200 H     1 <1>   0.0800 
 40 H       13.0170    -3.2290     0.0460 H     1 <1>   0.0800 
 41 H       13.2850    -2.2480    -1.3720 H     1 <1>   0.0800 
 42 H       12.8870    -3.9370    -1.5580 H     1 <1>   0.0800 
@<TRIPOS>BOND
  1   1   2  1   
  2   2   3  ar  
  3   2   4  ar  
  4   3   5  ar  
  5   3  21  1   
  6   4   6  ar  
  7   4  22  1   
  8   5   7  ar  
  9   5  23  1   
 10   6   7  ar  
 11   6  24  1   
 12   7   8  1   
 13   8   9  1   
 14   8  25  1   
 15   8  26  1   
 16   9  10  1   
 17   9  11  1   
 18   9  27  1   
 19  10  12  1   
 20  10  28  1   
 21  10  29  1   
 22  11  13  1   
 23  11  30  1   
 24  11  31  1   
 25  12  14  1   
 26  12  32  1   
 27  12  33  1   
 28  13  14  1   
 29  13  34  1   
 30  13  35  1   
 31  14  15  1   
 32  15  16  1   
 33  15  36  1   
 34  15  37  1   
 35  16  17  2   
 36  16  18  1   
 37  18  19  1   
 38  19  20  1   
 39  19  38  1   
 40  19  39  1   
 41  20  40  1   
 42  20  41  1   
 43  20  42  1   
@<TRIPOS>SUBSTRUCTURE
  1 ****  11 GROUP 4 **** **** 0

# MOE 2024.06 (io_trps.svl 2023.06)
