@<TRIPOS>MOLECULE
NONAME
24 24 1 0 0 
SMALL
USER_CHARGES


@<TRIPOS>ATOM
  1 F       -0.3720     0.5670     1.8810 F     1 <1>  -0.3400 
  2 C       -0.8830     1.1450     0.7950 C.3   1 <1>   1.0200 
  3 F       -1.2410     0.1430    -0.0070 F     1 <1>  -0.3400 
  4 F       -2.0240     1.7050     1.1940 F     1 <1>  -0.3400 
  5 C        0.0940     2.1690     0.1440 C.3   1 <1>   0.3440 
  6 O       -0.4120     2.7330    -1.0540 O.3   1 <1>  -0.5600 
  7 C        1.4940     1.6210    -0.1590 C.ar  1 <1>  -0.1440 
  8 C       -0.8530     4.0820    -0.9610 C.3   1 <1>   0.0140 
  9 C        2.5990     2.3040     0.3290 C.ar  1 <1>  -0.1500 
 10 C        1.6960     0.4730    -0.9150 C.ar  1 <1>  -0.1500 
 11 C        0.2010     5.1320    -0.5760 C.2   1 <1>   0.9060 
 12 C        3.8800     1.8350     0.0930 C.ar  1 <1>  -0.1500 
 13 C        2.9760     0.0010    -1.1500 C.ar  1 <1>  -0.1500 
 14 O        0.5750     5.9500    -1.4230 O.co2 1 <1>  -0.9000 
 15 O        0.6020     5.1740     0.5960 O.co2 1 <1>  -0.9000 
 16 C        4.0690     0.6790    -0.6420 C.ar  1 <1>  -0.1500 
 17 H        0.2000     2.9390     0.8800 H     1 <1>   0.0800 
 18 H       -1.6520     4.1290    -0.2460 H     1 <1>   0.0800 
 19 H       -1.2410     4.3540    -1.9230 H     1 <1>   0.0800 
 20 H        2.4630     3.2200     0.8860 H     1 <1>   0.1500 
 21 H        0.8590    -0.0570    -1.3350 H     1 <1>   0.1500 
 22 H        4.7240     2.3790     0.4790 H     1 <1>   0.1500 
 23 H        3.1190    -0.8910    -1.7330 H     1 <1>   0.1500 
 24 H        5.0640     0.3150    -0.8250 H     1 <1>   0.1500 
@<TRIPOS>BOND
  1   1   2  1   
  2   2   3  1   
  3   2   4  1   
  4   2   5  1   
  5   5   6  1   
  6   5   7  1   
  7   5  17  1   
  8   6   8  1   
  9   7   9  ar  
 10   7  10  ar  
 11   8  11  1   
 12   8  18  1   
 13   8  19  1   
 14   9  12  ar  
 15   9  20  1   
 16  10  13  ar  
 17  10  21  1   
 18  11  14  ar  
 19  11  15  ar  
 20  12  16  ar  
 21  12  22  1   
 22  13  16  ar  
 23  13  23  1   
 24  16  24  1   
@<TRIPOS>SUBSTRUCTURE
  1 ****   5 GROUP 4 **** **** 0

# MOE 2024.06 (io_trps.svl 2023.06)
