@<TRIPOS>MOLECULE
NONAME
36 36 1 0 0 
SMALL
USER_CHARGES


@<TRIPOS>ATOM
  1 O       -6.5550     4.0110     0.1950 O.3   1 <1>  -0.3630 
  2 C       -6.1470     2.8570    -0.4160 C.ar  1 <1>   0.0830 
  3 C       -5.6220     5.0230     0.5190 C.3   1 <1>   0.1200 
  4 C       -4.9490     2.1870    -0.1210 C.ar  1 <1>   0.0820 
  5 C       -7.0150     2.3360    -1.3710 C.ar  1 <1>  -0.1440 
  6 C       -6.3680     6.3530     0.5720 C.3   1 <1>  -0.2400 
  7 O       -4.1340     2.6680     0.8610 O.3   1 <1>  -0.3630 
  8 C       -4.6350     1.0270    -0.8240 C.ar  1 <1>  -0.1500 
  9 C       -6.6860     1.1770    -2.0550 C.ar  1 <1>  -0.1500 
 10 C       -8.3230     3.0390    -1.6610 C.3   1 <1>   0.4860 
 11 C       -2.9460     2.0080     1.2460 C.3   1 <1>   0.0400 
 12 C       -5.4960     0.5290    -1.7840 C.ar  1 <1>  -0.1500 
 13 N       -9.1000     3.0240    -0.4100 N.4   1 <1>  -0.9060 
 14 C      -10.3320     3.8140    -0.4340 C.3   1 <1>   0.4810 
 15 C      -10.9780     3.6030     0.9110 C.2   1 <1>  -0.2880 
 16 C      -12.1040     2.9150     1.1280 C.2   1 <1>  -0.3000 
 17 H       -4.8530     5.0440    -0.2350 H     1 <1>   0.0800 
 18 H       -5.1890     4.7940     1.4780 H     1 <1>   0.0800 
 19 H       -6.8020     6.5780    -0.3850 H     1 <1>   0.0800 
 20 H       -5.6770     7.1380     0.8230 H     1 <1>   0.0800 
 21 H       -7.1330     6.3230     1.3260 H     1 <1>   0.0800 
 22 H       -3.7240     0.4880    -0.6400 H     1 <1>   0.1500 
 23 H       -7.3420     0.7640    -2.8040 H     1 <1>   0.1500 
 24 H       -8.8570     2.5330    -2.4490 H     1 <1>   0.0800 
 25 H       -8.1200     4.0530    -1.9640 H     1 <1>   0.0800 
 26 H       -2.4960     2.5690     2.0460 H     1 <1>   0.0800 
 27 H       -2.2750     1.9740     0.4050 H     1 <1>   0.0800 
 28 H       -3.1890     1.0180     1.5890 H     1 <1>   0.0800 
 29 H       -5.2370    -0.3700    -2.3190 H     1 <1>   0.1500 
 30 H       -8.4580     3.3960     0.3080 H     1 <1>   0.4500 
 31 H       -9.3050     2.0610    -0.1280 H     1 <1>   0.4500 
 32 H      -10.9870     3.4600    -1.2140 H     1 <1>   0.0800 
 33 H      -10.1200     4.8590    -0.5940 H     1 <1>   0.0800 
 34 H      -10.4370     4.0770     1.7140 H     1 <1>   0.1500 
 35 H      -12.5450     2.7830     2.1040 H     1 <1>   0.1500 
 36 H      -12.6910     2.4240     0.3680 H     1 <1>   0.1500 
@<TRIPOS>BOND
  1   1   2  1   
  2   1   3  1   
  3   2   4  ar  
  4   2   5  ar  
  5   3   6  1   
  6   3  17  1   
  7   3  18  1   
  8   4   7  1   
  9   4   8  ar  
 10   5   9  ar  
 11   5  10  1   
 12   6  19  1   
 13   6  20  1   
 14   6  21  1   
 15   7  11  1   
 16   8  12  ar  
 17   8  22  1   
 18   9  12  ar  
 19   9  23  1   
 20  10  13  1   
 21  10  24  1   
 22  10  25  1   
 23  11  26  1   
 24  11  27  1   
 25  11  28  1   
 26  12  29  1   
 27  13  14  1   
 28  13  30  1   
 29  13  31  1   
 30  14  15  1   
 31  14  32  1   
 32  14  33  1   
 33  15  16  2   
 34  15  34  1   
 35  16  35  1   
 36  16  36  1   
@<TRIPOS>SUBSTRUCTURE
  1 ****   2 GROUP 4 **** **** 0

# MOE 2024.06 (io_trps.svl 2023.06)
