@<TRIPOS>MOLECULE
NONAME
42 43 1 0 0 
SMALL
USER_CHARGES


@<TRIPOS>ATOM
  1 O        1.2440    -0.6100     0.8260 O.2   1 <1>  -0.5700 
  2 C        1.3610    -1.8180     0.7080 C.2   1 <1>   0.6900 
  3 N        2.5190    -2.4190     1.1270 N.am  1 <1>  -0.6600 
  4 N        0.3460    -2.5620     0.1490 N.am  1 <1>  -0.6600 
  5 C        3.4020    -1.7320     2.1180 C.3   1 <1>   0.1400 
  6 C        3.2760    -3.3100     0.1980 C.3   1 <1>   0.1400 
  7 C       -0.7420    -1.8810    -0.6030 C.3   1 <1>   0.1400 
  8 C        0.0180    -3.9170     0.6710 C.3   1 <1>   0.1400 
  9 C        4.5410    -0.9740     1.4160 C.3   1 <1>   0.2090 
 10 C        4.4300    -2.5540    -0.4850 C.3   1 <1>   0.2090 
 11 C       -0.3150    -1.7150    -2.0590 C.3   1 <1>  -0.2400 
 12 C       -0.0940    -4.9290    -0.4690 C.3   1 <1>  -0.2400 
 13 N        5.3140    -1.8840     0.5150 N.pl3 1 <1>  -0.8380 
 14 C        6.5080    -1.3770     0.0180 C.ar  1 <1>   0.1000 
 15 C        6.5370    -0.2770    -0.8340 C.ar  1 <1>  -0.1500 
 16 C        7.7080    -1.9770     0.3720 C.ar  1 <1>  -0.1500 
 17 C        7.7370     0.2090    -1.3190 C.ar  1 <1>  -0.1500 
 18 C        8.9120    -1.4950    -0.1100 C.ar  1 <1>  -0.1500 
 19 C        8.9280    -0.3990    -0.9570 C.ar  1 <1>  -0.1500 
 20 H        3.8240    -2.4640     2.7830 H     1 <1>   0.0800 
 21 H        2.8250    -1.0420     2.7090 H     1 <1>   0.0800 
 22 H        2.6220    -3.6940    -0.5610 H     1 <1>   0.0800 
 23 H        3.6750    -4.1410     0.7520 H     1 <1>   0.0800 
 24 H       -0.9410    -0.9150    -0.1700 H     1 <1>   0.0800 
 25 H       -1.6490    -2.4570    -0.5490 H     1 <1>   0.0800 
 26 H       -0.9130    -3.8690     1.2110 H     1 <1>   0.0800 
 27 H        0.7760    -4.2410     1.3640 H     1 <1>   0.0800 
 28 H        5.2050    -0.5580     2.1540 H     1 <1>   0.0800 
 29 H        4.1220    -0.1640     0.8450 H     1 <1>   0.0800 
 30 H        4.0200    -1.8160    -1.1530 H     1 <1>   0.0800 
 31 H        5.0150    -3.2440    -1.0680 H     1 <1>   0.0800 
 32 H        0.5700    -1.1050    -2.1130 H     1 <1>   0.0800 
 33 H       -1.0970    -1.2300    -2.6130 H     1 <1>   0.0800 
 34 H       -0.1170    -2.6720    -2.5050 H     1 <1>   0.0800 
 35 H       -0.9170    -4.6840    -1.1150 H     1 <1>   0.0800 
 36 H       -0.2690    -5.9080    -0.0620 H     1 <1>   0.0800 
 37 H        0.8130    -4.9550    -1.0420 H     1 <1>   0.0800 
 38 H        5.6130     0.1930    -1.1130 H     1 <1>   0.1500 
 39 H        7.6830    -2.8250     1.0300 H     1 <1>   0.1500 
 40 H        7.7460     1.0600    -1.9760 H     1 <1>   0.1500 
 41 H        9.8340    -1.9700     0.1740 H     1 <1>   0.1500 
 42 H        9.8630    -0.0220    -1.3330 H     1 <1>   0.1500 
@<TRIPOS>BOND
  1   1   2  2   
  2   2   3  am  
  3   2   4  am  
  4   3   5  1   
  5   3   6  1   
  6   4   7  1   
  7   4   8  1   
  8   5   9  1   
  9   5  20  1   
 10   5  21  1   
 11   6  10  1   
 12   6  22  1   
 13   6  23  1   
 14   7  11  1   
 15   7  24  1   
 16   7  25  1   
 17   8  12  1   
 18   8  26  1   
 19   8  27  1   
 20   9  13  1   
 21   9  28  1   
 22   9  29  1   
 23  10  13  1   
 24  10  30  1   
 25  10  31  1   
 26  11  32  1   
 27  11  33  1   
 28  11  34  1   
 29  12  35  1   
 30  12  36  1   
 31  12  37  1   
 32  13  14  1   
 33  14  15  ar  
 34  14  16  ar  
 35  15  17  ar  
 36  15  38  1   
 37  16  18  ar  
 38  16  39  1   
 39  17  19  ar  
 40  17  40  1   
 41  18  19  ar  
 42  18  41  1   
 43  19  42  1   
@<TRIPOS>SUBSTRUCTURE
  1 ****  10 GROUP 4 **** **** 0

# MOE 2024.06 (io_trps.svl 2023.06)
