@<TRIPOS>MOLECULE
NONAME
45 46 1 0 0 
SMALL
USER_CHARGES


@<TRIPOS>ATOM
  1 O       -5.6680     1.6990    -0.5710 O.3   1 <1>  -0.3620 
  2 C       -7.0210     1.6100    -0.5760 C.ar  1 <1>   0.0830 
  3 C       -5.0170     2.9470    -0.4590 C.3   1 <1>   0.1200 
  4 C       -7.5630     0.3450    -0.7370 C.ar  1 <1>  -0.1500 
  5 C       -7.8720     2.7030    -0.4310 C.ar  1 <1>  -0.1500 
  6 C       -3.5030     2.7070    -0.4930 C.3   1 <1>   0.2000 
  7 C       -8.9350     0.1660    -0.7540 C.ar  1 <1>  -0.1500 
  8 C       -9.2440     2.5180    -0.4480 C.ar  1 <1>  -0.1500 
  9 O       -3.1750     1.7390     0.4590 O.3   1 <1>  -0.6800 
 10 C       -2.6910     3.9880    -0.2050 C.3   1 <1>   0.3430 
 11 C       -9.7830     1.2520    -0.6110 C.ar  1 <1>  -0.1440 
 12 N       -1.3190     3.6370     0.2720 N.4   1 <1>  -0.9590 
 13 C      -11.2910     1.0550    -0.6270 C.3   1 <1>  -0.0170 
 14 C       -0.6400     4.6790     1.0730 C.3   1 <1>   0.3430 
 15 C       -0.3750     3.2190    -0.7880 C.3   1 <1>   0.3430 
 16 C      -11.8160     0.8070     0.7910 C.3   1 <1>  -0.1600 
 17 C        0.8260     4.2650     1.0630 C.3   1 <1>  -0.1600 
 18 C        0.9920     3.3090    -0.1240 C.3   1 <1>  -0.1600 
 19 C      -13.3350     0.6050     0.8030 C.3   1 <1>  -0.2400 
 20 H       -5.3110     3.4000     0.4720 H     1 <1>   0.0800 
 21 H       -5.3250     3.5650    -1.2840 H     1 <1>   0.0800 
 22 H       -6.9090    -0.5000    -0.8490 H     1 <1>   0.1500 
 23 H       -7.4970     3.6980    -0.3020 H     1 <1>   0.1500 
 24 H       -3.2340     2.3190    -1.4600 H     1 <1>   0.0800 
 25 H       -9.3400    -0.8230    -0.8780 H     1 <1>   0.1500 
 26 H       -9.8950     3.3670    -0.3330 H     1 <1>   0.1500 
 27 H       -3.8580     1.0270     0.4240 H     1 <1>   0.4000 
 28 H       -3.2020     4.5390     0.5660 H     1 <1>   0.0800 
 29 H       -2.6450     4.6100    -1.0840 H     1 <1>   0.0800 
 30 H       -1.4720     2.8020     0.8710 H     1 <1>   0.4500 
 31 H      -11.5380     0.2190    -1.2580 H     1 <1>   0.0800 
 32 H      -11.7630     1.9280    -1.0430 H     1 <1>   0.0800 
 33 H       -1.0340     4.7310     2.0760 H     1 <1>   0.0800 
 34 H       -0.7470     5.6380     0.5920 H     1 <1>   0.0800 
 35 H       -0.4210     3.9100    -1.6140 H     1 <1>   0.0800 
 36 H       -0.5860     2.2200    -1.1360 H     1 <1>   0.0800 
 37 H      -11.5620     1.6460     1.4160 H     1 <1>   0.0800 
 38 H      -11.3360    -0.0650     1.2000 H     1 <1>   0.0800 
 39 H        1.0690     3.7650     1.9840 H     1 <1>   0.0800 
 40 H        1.4580     5.1310     0.9690 H     1 <1>   0.0800 
 41 H        1.7290     3.6620    -0.8240 H     1 <1>   0.0800 
 42 H        1.2900     2.3330     0.2220 H     1 <1>   0.0800 
 43 H      -13.8340     1.4770     0.4190 H     1 <1>   0.0800 
 44 H      -13.6740     0.4330     1.8100 H     1 <1>   0.0800 
 45 H      -13.6060    -0.2440     0.2020 H     1 <1>   0.0800 
@<TRIPOS>BOND
  1   1   2  1   
  2   1   3  1   
  3   2   4  ar  
  4   2   5  ar  
  5   3   6  1   
  6   3  20  1   
  7   3  21  1   
  8   4   7  ar  
  9   4  22  1   
 10   5   8  ar  
 11   5  23  1   
 12   6   9  1   
 13   6  10  1   
 14   6  24  1   
 15   7  11  ar  
 16   7  25  1   
 17   8  11  ar  
 18   8  26  1   
 19   9  27  1   
 20  10  12  1   
 21  10  28  1   
 22  10  29  1   
 23  11  13  1   
 24  12  14  1   
 25  12  15  1   
 26  12  30  1   
 27  13  16  1   
 28  13  31  1   
 29  13  32  1   
 30  14  17  1   
 31  14  33  1   
 32  14  34  1   
 33  15  18  1   
 34  15  35  1   
 35  15  36  1   
 36  16  19  1   
 37  16  37  1   
 38  16  38  1   
 39  17  18  1   
 40  17  39  1   
 41  17  40  1   
 42  18  41  1   
 43  18  42  1   
 44  19  43  1   
 45  19  44  1   
 46  19  45  1   
@<TRIPOS>SUBSTRUCTURE
  1 ****   1 GROUP 4 **** **** 0

# MOE 2024.06 (io_trps.svl 2023.06)
