@<TRIPOS>MOLECULE
NONAME
47 49 1 0 0 
SMALL
USER_CHARGES


@<TRIPOS>ATOM
  1 F        1.3900    -0.8290     2.0650 F     1 <1>  -0.3400 
  2 C        2.0520    -0.1240     1.1560 C.3   1 <1>   1.1640 
  3 F        2.7020     0.8250     1.8220 F     1 <1>  -0.3400 
  4 F        1.1320     0.5020     0.4300 F     1 <1>  -0.3400 
  5 C        2.9830    -1.0020     0.3070 C.ar  1 <1>  -0.1440 
  6 C        4.3080    -1.2010     0.6760 C.ar  1 <1>  -0.1500 
  7 C        2.5150    -1.6290    -0.8450 C.ar  1 <1>  -0.1500 
  8 C        5.1660    -1.9950    -0.0730 C.ar  1 <1>   0.1000 
  9 C        3.3560    -2.4240    -1.6030 C.ar  1 <1>  -0.1500 
 10 N        6.4870    -2.1530     0.3380 N.pl3 1 <1>  -0.8380 
 11 C        4.6710    -2.6050    -1.2200 C.ar  1 <1>  -0.1500 
 12 C        7.1700    -3.4850     0.2820 C.3   1 <1>   0.2090 
 13 C        7.4160    -0.9850     0.2660 C.3   1 <1>   0.2090 
 14 C        8.1520    -3.5830    -0.9000 C.3   1 <1>   0.1400 
 15 C        8.3800    -1.0970    -0.9290 C.3   1 <1>   0.1400 
 16 N        9.0890    -2.4160    -0.9410 N.am  1 <1>  -0.6600 
 17 C       10.4130    -2.5680    -0.6230 C.2   1 <1>   0.6900 
 18 O       10.8010    -3.5830    -0.0790 O.2   1 <1>  -0.5700 
 19 N       11.2800    -1.5700    -0.9630 N.am  1 <1>  -0.5470 
 20 C       12.6280    -1.3700    -0.6320 C.ar  1 <1>   0.1170 
 21 C       13.1930    -1.8620     0.5390 C.ar  1 <1>  -0.1500 
 22 C       13.4290    -0.6310    -1.4940 C.ar  1 <1>  -0.1500 
 23 C       14.5220    -1.6280     0.8470 C.ar  1 <1>   0.0830 
 24 C       14.7590    -0.3910    -1.1980 C.ar  1 <1>  -0.1500 
 25 O       14.9810    -2.1460     2.0150 O.3   1 <1>  -0.3630 
 26 C       15.3100    -0.8860    -0.0290 C.ar  1 <1>  -0.1500 
 27 C       16.3350    -2.0300     2.3870 C.3   1 <1>   0.0400 
 28 H        4.7030    -0.7450     1.5670 H     1 <1>   0.1500 
 29 H        1.4920    -1.5020    -1.1590 H     1 <1>   0.1500 
 30 H        2.9860    -2.9030    -2.4930 H     1 <1>   0.1500 
 31 H        5.3180    -3.2180    -1.8160 H     1 <1>   0.1500 
 32 H        6.4350    -4.2680     0.2090 H     1 <1>   0.0800 
 33 H        7.7160    -3.6350     1.1980 H     1 <1>   0.0800 
 34 H        7.9850    -0.9360     1.1780 H     1 <1>   0.0800 
 35 H        6.8480    -0.0750     0.1810 H     1 <1>   0.0800 
 36 H        7.5970    -3.6130    -1.8190 H     1 <1>   0.0800 
 37 H        8.7020    -4.5050    -0.8260 H     1 <1>   0.0800 
 38 H        9.0830    -0.2860    -0.8780 H     1 <1>   0.0800 
 39 H        7.8170    -0.9930    -1.8400 H     1 <1>   0.0800 
 40 H       10.9060    -0.9610    -1.6800 H     1 <1>   0.3700 
 41 H       12.5980    -2.4360     1.2250 H     1 <1>   0.1500 
 42 H       13.0140    -0.2430    -2.4060 H     1 <1>   0.1500 
 43 H       15.3680     0.1810    -1.8770 H     1 <1>   0.1500 
 44 H       16.3430    -0.6870     0.1810 H     1 <1>   0.1500 
 45 H       16.4670    -2.5390     3.3250 H     1 <1>   0.0800 
 46 H       16.5780    -0.9880     2.4980 H     1 <1>   0.0800 
 47 H       16.9450    -2.4920     1.6310 H     1 <1>   0.0800 
@<TRIPOS>BOND
  1   1   2  1   
  2   2   3  1   
  3   2   4  1   
  4   2   5  1   
  5   5   6  ar  
  6   5   7  ar  
  7   6   8  ar  
  8   6  28  1   
  9   7   9  ar  
 10   7  29  1   
 11   8  10  1   
 12   8  11  ar  
 13   9  11  ar  
 14   9  30  1   
 15  10  12  1   
 16  10  13  1   
 17  11  31  1   
 18  12  14  1   
 19  12  32  1   
 20  12  33  1   
 21  13  15  1   
 22  13  34  1   
 23  13  35  1   
 24  14  16  1   
 25  14  36  1   
 26  14  37  1   
 27  15  16  1   
 28  15  38  1   
 29  15  39  1   
 30  16  17  am  
 31  17  18  2   
 32  17  19  am  
 33  19  20  1   
 34  19  40  1   
 35  20  21  ar  
 36  20  22  ar  
 37  21  23  ar  
 38  21  41  1   
 39  22  24  ar  
 40  22  42  1   
 41  23  25  1   
 42  23  26  ar  
 43  24  26  ar  
 44  24  43  1   
 45  25  27  1   
 46  26  44  1   
 47  27  45  1   
 48  27  46  1   
 49  27  47  1   
@<TRIPOS>SUBSTRUCTURE
  1 ****  15 GROUP 4 **** **** 0

# MOE 2024.06 (io_trps.svl 2023.06)
