@<TRIPOS>MOLECULE
NONAME
38 39 1 0 0 
SMALL
USER_CHARGES


@<TRIPOS>ATOM
  1 CL      -0.2340    -0.9020     0.1810 Cl    1 <1>  -0.1770 
  2 C        1.4620    -1.3120     0.2270 C.ar  1 <1>   0.1770 
  3 C        2.3710    -0.5140    -0.4440 C.ar  1 <1>  -0.1500 
  4 C        1.8710    -2.4280     0.9330 C.ar  1 <1>  -0.1500 
  5 C        3.7170    -0.8370    -0.4090 C.ar  1 <1>  -0.1500 
  6 C        3.2170    -2.7490     0.9660 C.ar  1 <1>  -0.1500 
  7 C        4.1450    -1.9610     0.2990 C.ar  1 <1>   0.0830 
  8 O        5.4420    -2.3490     0.3850 O.3   1 <1>  -0.3630 
  9 C        6.4680    -1.6290    -0.2480 C.3   1 <1>   0.1200 
 10 C        7.7800    -2.3480     0.0680 C.3   1 <1>  -0.1600 
 11 C        8.9630    -1.6370    -0.5780 C.3   1 <1>   0.3430 
 12 N       10.2040    -2.3680    -0.2310 N.4   1 <1>  -0.9060 
 13 C       11.4340    -1.7720    -0.7850 C.3   1 <1>   0.4230 
 14 C       12.5840    -2.7310    -0.5040 C.3   1 <1>  -0.1600 
 15 C       11.8170    -0.5410     0.0320 C.3   1 <1>  -0.1600 
 16 C       12.9890    -2.4850     0.9550 C.3   1 <1>  -0.1600 
 17 C       12.4930    -1.0750     1.3010 C.3   1 <1>  -0.1600 
 18 H        2.0220     0.3470    -0.9850 H     1 <1>   0.1500 
 19 H        1.1450    -3.0330     1.4470 H     1 <1>   0.1500 
 20 H        4.4070    -0.2060    -0.9360 H     1 <1>   0.1500 
 21 H        3.5540    -3.6130     1.5100 H     1 <1>   0.1500 
 22 H        6.4660    -0.6250     0.1450 H     1 <1>   0.0800 
 23 H        6.2690    -1.6210    -1.3060 H     1 <1>   0.0800 
 24 H        7.7120    -3.3550    -0.3050 H     1 <1>   0.0800 
 25 H        7.9060    -2.3680     1.1360 H     1 <1>   0.0800 
 26 H        9.0160    -0.6220    -0.2160 H     1 <1>   0.0800 
 27 H        8.8350    -1.6130    -1.6490 H     1 <1>   0.0800 
 28 H       10.1350    -3.3400    -0.5530 H     1 <1>   0.4500 
 29 H       10.3240    -2.4050     0.7880 H     1 <1>   0.4500 
 30 H       11.3300    -1.5610    -1.8380 H     1 <1>   0.0800 
 31 H       13.4120    -2.4570    -1.1370 H     1 <1>   0.0800 
 32 H       12.3420    -3.7610    -0.7020 H     1 <1>   0.0800 
 33 H       10.9930     0.1150     0.2480 H     1 <1>   0.0800 
 34 H       12.5460     0.0180    -0.5300 H     1 <1>   0.0800 
 35 H       14.0580    -2.5610     1.0720 H     1 <1>   0.0800 
 36 H       12.5260    -3.2090     1.6050 H     1 <1>   0.0800 
 37 H       11.7920    -1.1200     2.1170 H     1 <1>   0.0800 
 38 H       13.3120    -0.4370     1.5940 H     1 <1>   0.0800 
@<TRIPOS>BOND
  1   1   2  1   
  2   2   3  ar  
  3   2   4  ar  
  4   3   5  ar  
  5   3  18  1   
  6   4   6  ar  
  7   4  19  1   
  8   5   7  ar  
  9   5  20  1   
 10   6   7  ar  
 11   6  21  1   
 12   7   8  1   
 13   8   9  1   
 14   9  10  1   
 15   9  22  1   
 16   9  23  1   
 17  10  11  1   
 18  10  24  1   
 19  10  25  1   
 20  11  12  1   
 21  11  26  1   
 22  11  27  1   
 23  12  13  1   
 24  12  28  1   
 25  12  29  1   
 26  13  14  1   
 27  13  15  1   
 28  13  30  1   
 29  14  16  1   
 30  14  31  1   
 31  14  32  1   
 32  15  17  1   
 33  15  33  1   
 34  15  34  1   
 35  16  17  1   
 36  16  35  1   
 37  16  36  1   
 38  17  37  1   
 39  17  38  1   
@<TRIPOS>SUBSTRUCTURE
  1 ****   9 GROUP 4 **** **** 0

# MOE 2024.06 (io_trps.svl 2023.06)
