@<TRIPOS>MOLECULE
NONAME
37 38 1 0 0 
SMALL
USER_CHARGES


@<TRIPOS>ATOM
  1 S       -0.0680     0.1530    -0.8530 S.3   1 <1>   0.1810 
  2 N        0.6440     1.6770    -1.1690 N.2   1 <1>  -0.5100 
  3 C       -1.2150     0.7870     0.3050 C.2   1 <1>   0.0960 
  4 C        0.0200     2.5320    -0.4550 C.2   1 <1>   0.3440 
  5 S       -2.3350    -0.3600     1.1330 S.3   1 <1>  -0.2860 
  6 C       -1.0410     2.1150     0.4220 C.2   1 <1>   0.0630 
  7 S        0.4830     4.2670    -0.5590 S.3   1 <1>  -0.2850 
  8 C       -2.0350    -2.0090     0.3560 C.3   1 <1>  -0.0100 
  9 N       -1.7340     2.9980     1.2870 N.am  1 <1>  -0.4930 
 10 C       -1.0970     5.1590    -0.9180 C.3   1 <1>  -0.0100 
 11 C       -3.0690     3.1880     1.4050 C.2   1 <1>   0.7800 
 12 O       -3.5070     4.0180     2.1730 O.2   1 <1>  -0.5700 
 13 O       -3.8770     2.4770     0.6230 O.3   1 <1>  -0.4300 
 14 C       -5.2790     2.5980     0.6810 C.3   1 <1>   0.2000 
 15 C       -5.8750     1.2730     0.1950 C.3   1 <1>  -0.1600 
 16 C       -5.7160     3.7700    -0.2090 C.3   1 <1>  -0.1600 
 17 C       -7.4050     1.3530     0.1020 C.3   1 <1>  -0.1600 
 18 C       -7.2470     3.8510    -0.3040 C.3   1 <1>  -0.1600 
 19 C       -7.8460     2.5230    -0.7880 C.3   1 <1>  -0.1600 
 20 H       -2.7130    -2.7090     0.8110 H     1 <1>   0.0800 
 21 H       -1.0150    -2.2890     0.5480 H     1 <1>   0.0800 
 22 H       -2.2280    -1.9220    -0.6980 H     1 <1>   0.0800 
 23 H       -1.1810     3.6780     1.8050 H     1 <1>   0.3700 
 24 H       -0.8490     6.0460    -1.4740 H     1 <1>   0.0800 
 25 H       -1.5620     5.4140     0.0160 H     1 <1>   0.0800 
 26 H       -1.7220     4.5060    -1.5000 H     1 <1>   0.0800 
 27 H       -5.5740     2.7690     1.7030 H     1 <1>   0.0800 
 28 H       -5.5970     0.4880     0.8760 H     1 <1>   0.0800 
 29 H       -5.4740     1.0400    -0.7760 H     1 <1>   0.0800 
 30 H       -5.3090     3.6370    -1.1960 H     1 <1>   0.0800 
 31 H       -5.3390     4.6920     0.1980 H     1 <1>   0.0800 
 32 H       -7.8160     1.4820     1.0890 H     1 <1>   0.0800 
 33 H       -7.7910     0.4310    -0.2970 H     1 <1>   0.0800 
 34 H       -7.5250     4.6410    -0.9800 H     1 <1>   0.0800 
 35 H       -7.6500     4.0910     0.6660 H     1 <1>   0.0800 
 36 H       -8.9200     2.5910    -0.7880 H     1 <1>   0.0800 
 37 H       -7.5280     2.3390    -1.8000 H     1 <1>   0.0800 
@<TRIPOS>BOND
  1   1   2  1   
  2   1   3  1   
  3   2   4  2   
  4   3   5  1   
  5   3   6  2   
  6   4   6  1   
  7   4   7  1   
  8   5   8  1   
  9   6   9  1   
 10   7  10  1   
 11   8  20  1   
 12   8  21  1   
 13   8  22  1   
 14   9  11  am  
 15   9  23  1   
 16  10  24  1   
 17  10  25  1   
 18  10  26  1   
 19  11  12  2   
 20  11  13  1   
 21  13  14  1   
 22  14  15  1   
 23  14  16  1   
 24  14  27  1   
 25  15  17  1   
 26  15  28  1   
 27  15  29  1   
 28  16  18  1   
 29  16  30  1   
 30  16  31  1   
 31  17  19  1   
 32  17  32  1   
 33  17  33  1   
 34  18  19  1   
 35  18  34  1   
 36  18  35  1   
 37  19  36  1   
 38  19  37  1   
@<TRIPOS>SUBSTRUCTURE
  1 ****  13 GROUP 4 **** **** 0

# MOE 2024.06 (io_trps.svl 2023.06)
