@<TRIPOS>MOLECULE
NONAME
35 37 1 0 0 
SMALL
USER_CHARGES


@<TRIPOS>ATOM
  1 O        0.7740    -0.7050     0.8770 O.3   1 <1>  -0.3630 
  2 C        0.0510    -1.7280     0.4130 C.ar  1 <1>   0.0830 
  3 C        1.7990    -0.4590    -0.0860 C.3   1 <1>   0.4000 
  4 C        0.5370    -2.1400    -0.7920 C.ar  1 <1>   0.0830 
  5 C       -1.0390    -2.3370     1.0010 C.ar  1 <1>  -0.1500 
  6 O        1.5880    -1.3950    -1.1430 O.3   1 <1>  -0.3630 
  7 C       -0.0400    -3.1880    -1.4790 C.ar  1 <1>  -0.1500 
  8 C       -1.6470    -3.3910     0.3230 C.ar  1 <1>  -0.1440 
  9 C       -1.1400    -3.8150    -0.9080 C.ar  1 <1>  -0.1500 
 10 C       -2.8630    -4.0690     0.9210 C.3   1 <1>   0.4870 
 11 N       -4.0720    -3.6000     0.1880 N.4   1 <1>  -0.9590 
 12 C       -4.3000    -2.1350     0.3880 C.3   1 <1>   0.3430 
 13 C       -5.2690    -4.4220     0.5340 C.3   1 <1>   0.3430 
 14 C       -5.4780    -1.6700    -0.4630 C.3   1 <1>  -0.1600 
 15 C       -6.4590    -3.9910    -0.3180 C.3   1 <1>  -0.1600 
 16 C       -6.7180    -2.4980    -0.1420 C.3   1 <1>   0.2000 
 17 O       -7.7290    -2.1250    -0.9920 O.3   1 <1>  -0.6800 
 18 H        2.7630    -0.6310     0.3600 H     1 <1>   0.0800 
 19 H        1.7080     0.5430    -0.4660 H     1 <1>   0.0800 
 20 H       -1.3810    -1.9820     1.9570 H     1 <1>   0.1500 
 21 H        0.3670    -3.4990    -2.4260 H     1 <1>   0.1500 
 22 H       -1.5890    -4.6390    -1.4370 H     1 <1>   0.1500 
 23 H       -2.9430    -3.8300     1.9690 H     1 <1>   0.0800 
 24 H       -2.7570    -5.1370     0.8210 H     1 <1>   0.0800 
 25 H       -3.8640    -3.7310    -0.8110 H     1 <1>   0.4500 
 26 H       -3.4190    -1.5790     0.1070 H     1 <1>   0.0800 
 27 H       -4.5060    -1.9350     1.4280 H     1 <1>   0.0800 
 28 H       -5.5110    -4.2930     1.5770 H     1 <1>   0.0800 
 29 H       -5.0650    -5.4680     0.3610 H     1 <1>   0.0800 
 30 H       -5.2200    -1.7550    -1.5030 H     1 <1>   0.0800 
 31 H       -5.6760    -0.6340    -0.2470 H     1 <1>   0.0800 
 32 H       -7.3300    -4.5410    -0.0070 H     1 <1>   0.0800 
 33 H       -6.2620    -4.2240    -1.3500 H     1 <1>   0.0800 
 34 H       -7.0550    -2.2940     0.8620 H     1 <1>   0.0800 
 35 H       -7.4870    -2.2510    -1.9300 H     1 <1>   0.4000 
@<TRIPOS>BOND
  1   1   2  1   
  2   1   3  1   
  3   2   4  ar  
  4   2   5  ar  
  5   3   6  1   
  6   3  18  1   
  7   3  19  1   
  8   4   6  1   
  9   4   7  ar  
 10   5   8  ar  
 11   5  20  1   
 12   7   9  ar  
 13   7  21  1   
 14   8   9  ar  
 15   8  10  1   
 16   9  22  1   
 17  10  11  1   
 18  10  23  1   
 19  10  24  1   
 20  11  12  1   
 21  11  13  1   
 22  11  25  1   
 23  12  14  1   
 24  12  26  1   
 25  12  27  1   
 26  13  15  1   
 27  13  28  1   
 28  13  29  1   
 29  14  16  1   
 30  14  30  1   
 31  14  31  1   
 32  15  16  1   
 33  15  32  1   
 34  15  33  1   
 35  16  17  1   
 36  16  34  1   
 37  17  35  1   
@<TRIPOS>SUBSTRUCTURE
  1 ****   8 GROUP 4 **** **** 0

# MOE 2024.06 (io_trps.svl 2023.06)
