@<TRIPOS>MOLECULE
NONAME
35 36 1 0 0 
SMALL
USER_CHARGES


@<TRIPOS>ATOM
  1 CL       1.1210     0.5050     1.6910 Cl    1 <1>  -0.1770 
  2 C        0.5710     1.9460     0.8730 C.ar  1 <1>   0.1770 
  3 C       -0.7830     2.1920     0.7670 C.ar  1 <1>  -0.1500 
  4 C        1.5060     2.8150     0.3440 C.ar  1 <1>  -0.1500 
  5 C       -1.2320     3.3370     0.1180 C.ar  1 <1>   0.1170 
  6 C        1.0750     3.9570    -0.3090 C.ar  1 <1>  -0.1500 
  7 N       -2.5940     3.6540    -0.0300 N.am  1 <1>  -0.5470 
  8 C       -0.2880     4.2210    -0.4260 C.ar  1 <1>   0.0830 
  9 C       -3.7380     3.1510     0.5110 C.2   1 <1>   0.6900 
 10 O       -0.7720     5.3300    -1.0650 O.3   1 <1>  -0.3630 
 11 O       -3.7300     2.2550     1.3320 O.2   1 <1>  -0.5700 
 12 N       -4.9070     3.6960     0.1030 N.am  1 <1>  -0.7300 
 13 C        0.0960     6.3020    -1.6060 C.3   1 <1>   0.0400 
 14 C       -6.2440     3.2940     0.5700 C.3   1 <1>   0.2200 
 15 C       -7.0540     2.8080    -0.6250 C.3   1 <1>  -0.1600 
 16 C       -6.9980     4.5370     1.0240 C.3   1 <1>  -0.1600 
 17 C       -7.5840     4.0720    -1.3130 C.3   1 <1>  -0.1600 
 18 C       -7.5490     5.1820    -0.2530 C.3   1 <1>  -0.1600 
 19 H       -1.4710     1.4860     1.1900 H     1 <1>   0.1500 
 20 H        2.5540     2.5950     0.4440 H     1 <1>   0.1500 
 21 H        1.8150     4.6190    -0.7160 H     1 <1>   0.1500 
 22 H       -2.7300     4.4910    -0.5910 H     1 <1>   0.3700 
 23 H       -4.9150     4.3920    -0.6360 H     1 <1>   0.3700 
 24 H       -0.5030     7.0840    -2.0370 H     1 <1>   0.0800 
 25 H        0.7020     5.8460    -2.3690 H     1 <1>   0.0800 
 26 H        0.7070     6.7050    -0.8170 H     1 <1>   0.0800 
 27 H       -6.1740     2.5500     1.3480 H     1 <1>   0.0800 
 28 H       -7.8880     2.2360    -0.2580 H     1 <1>   0.0800 
 29 H       -6.4740     2.1850    -1.2830 H     1 <1>   0.0800 
 30 H       -6.3760     5.2030     1.5960 H     1 <1>   0.0800 
 31 H       -7.8230     4.2250     1.6410 H     1 <1>   0.0800 
 32 H       -8.5810     3.9160    -1.6860 H     1 <1>   0.0800 
 33 H       -6.9430     4.3370    -2.1370 H     1 <1>   0.0800 
 34 H       -6.8940     5.9730    -0.5770 H     1 <1>   0.0800 
 35 H       -8.5300     5.5930    -0.0820 H     1 <1>   0.0800 
@<TRIPOS>BOND
  1   1   2  1   
  2   2   3  ar  
  3   2   4  ar  
  4   3   5  ar  
  5   3  19  1   
  6   4   6  ar  
  7   4  20  1   
  8   5   7  1   
  9   5   8  ar  
 10   6   8  ar  
 11   6  21  1   
 12   7   9  am  
 13   7  22  1   
 14   8  10  1   
 15   9  11  2   
 16   9  12  am  
 17  10  13  1   
 18  12  14  1   
 19  12  23  1   
 20  13  24  1   
 21  13  25  1   
 22  13  26  1   
 23  14  15  1   
 24  14  16  1   
 25  14  27  1   
 26  15  17  1   
 27  15  28  1   
 28  15  29  1   
 29  16  18  1   
 30  16  30  1   
 31  16  31  1   
 32  17  18  1   
 33  17  32  1   
 34  17  33  1   
 35  18  34  1   
 36  18  35  1   
@<TRIPOS>SUBSTRUCTURE
  1 ****   7 GROUP 4 **** **** 0

# MOE 2024.06 (io_trps.svl 2023.06)
