@<TRIPOS>MOLECULE
NONAME
40 41 1 0 0 
SMALL
USER_CHARGES


@<TRIPOS>ATOM
  1 O        0.5050     0.1270     0.4580 O.2   1 <1>  -0.5700 
  2 C        1.5240     0.7870     0.4290 C.2   1 <1>   0.6900 
  3 N        1.7340     1.7850     1.3560 N.am  1 <1>  -0.4200 
  4 N        2.4970     0.5250    -0.5120 N.am  1 <1>  -0.4200 
  5 C        2.8200     2.6200     1.2660 C.2   1 <1>   0.5690 
  6 C        0.8440     1.8570     2.5530 C.3   1 <1>   0.0600 
  7 C        3.5420     1.3930    -0.7300 C.2   1 <1>   0.5690 
  8 C        2.4000    -0.7390    -1.3030 C.3   1 <1>   0.0600 
  9 O        3.2320     3.2180     2.2290 O.2   1 <1>  -0.5700 
 10 C        3.4910     2.7730    -0.0910 C.3   1 <1>   0.0420 
 11 O        4.4650     1.1060    -1.4530 O.2   1 <1>  -0.5700 
 12 C        4.8590     3.5000    -0.0500 C.3   1 <1>  -0.0160 
 13 C        4.6840     5.0120     0.0270 C.ar  1 <1>  -0.1430 
 14 C        4.4350     5.7370    -1.1290 C.ar  1 <1>  -0.1500 
 15 C        4.7730     5.6810     1.2380 C.ar  1 <1>  -0.1500 
 16 C        4.2680     7.1100    -1.0790 C.ar  1 <1>  -0.1500 
 17 C        4.6060     7.0520     1.2920 C.ar  1 <1>  -0.1500 
 18 C        4.3520     7.7780     0.1400 C.ar  1 <1>   0.0820 
 19 O        4.1980     9.1170     0.2840 O.3   1 <1>  -0.3630 
 20 C        3.9500     9.9480    -0.8250 C.3   1 <1>   0.2580 
 21 C        3.8290    11.3750    -0.3290 C.2   1 <1>  -0.2880 
 22 C        4.5650    12.4090    -0.7480 C.2   1 <1>  -0.3000 
 23 H        1.1040     1.0720     3.2410 H     1 <1>   0.0800 
 24 H       -0.1840     1.7390     2.2570 H     1 <1>   0.0800 
 25 H        0.9490     2.8070     3.0490 H     1 <1>   0.0800 
 26 H        1.6960    -0.6060    -2.1060 H     1 <1>   0.0800 
 27 H        2.0600    -1.5420    -0.6720 H     1 <1>   0.0800 
 28 H        3.3550    -1.0140    -1.7150 H     1 <1>   0.0800 
 29 H        2.8330     3.3590    -0.7040 H     1 <1>   0.0800 
 30 H        5.4220     3.2930    -0.9430 H     1 <1>   0.0800 
 31 H        5.4460     3.1440     0.7790 H     1 <1>   0.0800 
 32 H        4.3720     5.2340    -2.0780 H     1 <1>   0.1500 
 33 H        4.9670     5.1360     2.1460 H     1 <1>   0.1500 
 34 H        4.0770     7.6360    -1.9940 H     1 <1>   0.1500 
 35 H        4.6710     7.5690     2.2330 H     1 <1>   0.1500 
 36 H        3.0310     9.6310    -1.2870 H     1 <1>   0.0800 
 37 H        4.7690     9.8490    -1.5160 H     1 <1>   0.0800 
 38 H        3.0650    11.4730     0.4240 H     1 <1>   0.1500 
 39 H        4.4570    13.4130    -0.3720 H     1 <1>   0.1500 
 40 H        5.3380    12.3430    -1.4940 H     1 <1>   0.1500 
@<TRIPOS>BOND
  1   1   2  2   
  2   2   3  am  
  3   2   4  am  
  4   3   5  am  
  5   3   6  1   
  6   4   7  am  
  7   4   8  1   
  8   5   9  2   
  9   5  10  1   
 10   6  23  1   
 11   6  24  1   
 12   6  25  1   
 13   7  10  1   
 14   7  11  2   
 15   8  26  1   
 16   8  27  1   
 17   8  28  1   
 18  10  12  1   
 19  10  29  1   
 20  12  13  1   
 21  12  30  1   
 22  12  31  1   
 23  13  14  ar  
 24  13  15  ar  
 25  14  16  ar  
 26  14  32  1   
 27  15  17  ar  
 28  15  33  1   
 29  16  18  ar  
 30  16  34  1   
 31  17  18  ar  
 32  17  35  1   
 33  18  19  1   
 34  19  20  1   
 35  20  21  1   
 36  20  36  1   
 37  20  37  1   
 38  21  22  2   
 39  21  38  1   
 40  22  39  1   
 41  22  40  1   
@<TRIPOS>SUBSTRUCTURE
  1 ****  13 GROUP 4 **** **** 0

# MOE 2024.06 (io_trps.svl 2023.06)
