@<TRIPOS>MOLECULE
NONAME
66 70 1 0 0 
SMALL
USER_CHARGES


@<TRIPOS>ATOM
  1 O       -5.1530    -1.0790    -1.7680 O.3   1 <1>  -0.3630 
  2 C       -4.7530    -1.4050    -0.5060 C.ar  1 <1>   0.0830 
  3 C       -4.1840    -0.4950    -2.6160 C.3   1 <1>   0.0400 
  4 C       -5.3810    -0.7980     0.5870 C.ar  1 <1>   0.0830 
  5 C       -3.7520    -2.3540    -0.2770 C.ar  1 <1>   0.0830 
  6 O       -6.3950     0.0890     0.4140 O.3   1 <1>  -0.3630 
  7 C       -4.9970    -1.1110     1.8890 C.ar  1 <1>  -0.1430 
  8 O       -3.1100    -3.0130    -1.2730 O.3   1 <1>  -0.3630 
  9 C       -3.3690    -2.6550     1.0180 C.ar  1 <1>  -0.1500 
 10 C       -6.0660     1.3320    -0.1690 C.3   1 <1>   0.0400 
 11 C       -3.9850    -2.0390     2.0910 C.ar  1 <1>  -0.1500 
 12 C       -5.6200    -0.4320     3.1070 C.3   1 <1>   0.2530 
 13 C       -3.8570    -3.9620    -2.0000 C.3   1 <1>   0.0400 
 14 N       -6.9190    -1.0070     3.5240 N.3   1 <1>  -0.8100 
 15 C       -7.0010    -2.4790     3.5730 C.3   1 <1>   0.1100 
 16 C       -8.1160    -0.3510     2.9510 C.3   1 <1>   0.1100 
 17 C       -7.3630    -3.1300     2.2160 C.3   1 <1>   0.3430 
 18 C       -9.0160    -1.2810     2.1070 C.3   1 <1>   0.3430 
 19 N       -8.2380    -2.2900     1.3150 N.4   1 <1>  -0.9590 
 20 C       -9.1300    -3.0910     0.4070 C.3   1 <1>   0.4230 
 21 C       -8.4360    -4.3260    -0.2290 C.3   1 <1>  -0.0800 
 22 C       -9.7120    -2.2110    -0.7300 C.3   1 <1>  -0.0800 
 23 C       -7.3290    -3.8900    -1.2080 C.3   1 <1>  -0.1600 
 24 C       -9.4900    -5.1390    -1.0110 C.3   1 <1>  -0.1600 
 25 C       -8.6030    -1.7770    -1.7140 C.3   1 <1>  -0.1600 
 26 C      -10.7600    -3.0330    -1.5090 C.3   1 <1>  -0.1600 
 27 C       -7.9250    -3.0160    -2.3270 C.3   1 <1>  -0.0800 
 28 C      -10.1020    -4.2780    -2.1300 C.3   1 <1>  -0.0800 
 29 C       -8.9830    -3.8340    -3.0910 C.3   1 <1>  -0.1600 
 30 H       -4.6910    -0.0760    -3.4660 H     1 <1>   0.0800 
 31 H       -3.4910    -1.2470    -2.9430 H     1 <1>   0.0800 
 32 H       -3.6660     0.2790    -2.0770 H     1 <1>   0.0800 
 33 H       -2.5830    -3.3720     1.1780 H     1 <1>   0.1500 
 34 H       -6.8470     2.0330     0.0630 H     1 <1>   0.0800 
 35 H       -5.9940     1.2140    -1.2350 H     1 <1>   0.0800 
 36 H       -5.1300     1.6770     0.2350 H     1 <1>   0.0800 
 37 H       -3.6620    -2.2830     3.0890 H     1 <1>   0.1500 
 38 H       -5.7270     0.6230     2.9210 H     1 <1>   0.0800 
 39 H       -4.9390    -0.5240     3.9360 H     1 <1>   0.0800 
 40 H       -3.1990    -4.4360    -2.7060 H     1 <1>   0.0800 
 41 H       -4.6540    -3.4640    -2.5230 H     1 <1>   0.0800 
 42 H       -4.2510    -4.6920    -1.3170 H     1 <1>   0.0800 
 43 H       -7.7610    -2.7470     4.2860 H     1 <1>   0.0800 
 44 H       -6.0760    -2.8890     3.9390 H     1 <1>   0.0800 
 45 H       -7.8290     0.4950     2.3540 H     1 <1>   0.0800 
 46 H       -8.7070     0.0400     3.7620 H     1 <1>   0.0800 
 47 H       -7.8510    -4.0670     2.4260 H     1 <1>   0.0800 
 48 H       -6.4490    -3.3580     1.6940 H     1 <1>   0.0800 
 49 H       -9.6130    -0.6680     1.4550 H     1 <1>   0.0800 
 50 H       -9.6870    -1.7970     2.7730 H     1 <1>   0.0800 
 51 H       -7.5850    -1.7400     0.7280 H     1 <1>   0.4500 
 52 H       -9.9550    -3.4580     0.9950 H     1 <1>   0.0800 
 53 H       -8.0290    -4.9760     0.5220 H     1 <1>   0.0800 
 54 H      -10.2070    -1.3440    -0.3350 H     1 <1>   0.0800 
 55 H       -6.5660    -3.3450    -0.6860 H     1 <1>   0.0800 
 56 H       -6.8650    -4.7590    -1.6420 H     1 <1>   0.0800 
 57 H      -10.2660    -5.4780    -0.3470 H     1 <1>   0.0800 
 58 H       -9.0310    -6.0140    -1.4410 H     1 <1>   0.0800 
 59 H       -7.8690    -1.1710    -1.2200 H     1 <1>   0.0800 
 60 H       -9.0280    -1.1770    -2.5000 H     1 <1>   0.0800 
 61 H      -11.1910    -2.4290    -2.2900 H     1 <1>   0.0800 
 62 H      -11.5600    -3.3320    -0.8550 H     1 <1>   0.0800 
 63 H       -7.1470    -2.7060    -3.0040 H     1 <1>   0.0800 
 64 H      -10.8370    -4.8500    -2.6720 H     1 <1>   0.0800 
 65 H       -8.5230    -4.6970    -3.5410 H     1 <1>   0.0800 
 66 H       -9.3990    -3.2400    -3.8860 H     1 <1>   0.0800 
@<TRIPOS>BOND
  1   1   2  1   
  2   1   3  1   
  3   2   4  ar  
  4   2   5  ar  
  5   3  30  1   
  6   3  31  1   
  7   3  32  1   
  8   4   6  1   
  9   4   7  ar  
 10   5   8  1   
 11   5   9  ar  
 12   6  10  1   
 13   7  11  ar  
 14   7  12  1   
 15   8  13  1   
 16   9  11  ar  
 17   9  33  1   
 18  10  34  1   
 19  10  35  1   
 20  10  36  1   
 21  11  37  1   
 22  12  14  1   
 23  12  38  1   
 24  12  39  1   
 25  13  40  1   
 26  13  41  1   
 27  13  42  1   
 28  14  15  1   
 29  14  16  1   
 30  15  17  1   
 31  15  43  1   
 32  15  44  1   
 33  16  18  1   
 34  16  45  1   
 35  16  46  1   
 36  17  19  1   
 37  17  47  1   
 38  17  48  1   
 39  18  19  1   
 40  18  49  1   
 41  18  50  1   
 42  19  20  1   
 43  19  51  1   
 44  20  21  1   
 45  20  22  1   
 46  20  52  1   
 47  21  23  1   
 48  21  24  1   
 49  21  53  1   
 50  22  25  1   
 51  22  26  1   
 52  22  54  1   
 53  23  27  1   
 54  23  55  1   
 55  23  56  1   
 56  24  28  1   
 57  24  57  1   
 58  24  58  1   
 59  25  27  1   
 60  25  59  1   
 61  25  60  1   
 62  26  28  1   
 63  26  61  1   
 64  26  62  1   
 65  27  29  1   
 66  27  63  1   
 67  28  29  1   
 68  28  64  1   
 69  29  65  1   
 70  29  66  1   
@<TRIPOS>SUBSTRUCTURE
  1 ****  19 GROUP 4 **** **** 0

# MOE 2024.06 (io_trps.svl 2023.06)
