@<TRIPOS>MOLECULE
NONAME
40 41 1 0 0 
SMALL
USER_CHARGES


@<TRIPOS>ATOM
  1 O       -2.2440     3.0340    -2.1640 O.2   1 <1>  -0.5700 
  2 C       -1.3620     2.5420    -1.4830 C.2   1 <1>   0.5440 
  3 N       -1.5110     1.2430    -1.0950 N.am  1 <1>  -0.7300 
  4 C       -0.1850     3.3210    -1.1200 C.ar  1 <1>   0.0860 
  5 C       -2.7000     0.3950    -1.2860 C.3   1 <1>   0.2200 
  6 C        0.6170     3.0580     0.0060 C.ar  1 <1>   0.0830 
  7 C        0.1850     4.3980    -1.9300 C.ar  1 <1>  -0.1500 
  8 C       -3.3740     0.1700     0.0890 C.3   1 <1>   0.2000 
  9 C       -2.2270    -0.8860    -1.9810 C.3   1 <1>  -0.2400 
 10 O        0.2730     2.0330     0.8260 O.3   1 <1>  -0.3630 
 11 C        1.7360     3.8460     0.2740 C.ar  1 <1>  -0.1500 
 12 C        1.2930     5.1770    -1.6590 C.ar  1 <1>  -0.1500 
 13 O       -2.5360    -0.5240     0.9660 O.3   1 <1>  -0.5600 
 14 C       -4.6660    -0.6380     0.0880 C.3   1 <1>  -0.1600 
 15 C        0.9780     1.6920     1.9960 C.3   1 <1>   0.1200 
 16 C        2.0730     4.8990    -0.5530 C.ar  1 <1>  -0.1500 
 17 C       -3.2760    -1.1080     1.9900 C.3   1 <1>   0.1200 
 18 C       -4.7280    -1.1530     1.5150 C.3   1 <1>  -0.1600 
 19 C        0.2610     0.5110     2.6410 C.3   1 <1>  -0.2400 
 20 H       -0.8970     0.9140    -0.3400 H     1 <1>   0.3700 
 21 H       -3.3980     0.9020    -1.9300 H     1 <1>   0.0800 
 22 H       -0.4140     4.6260    -2.7960 H     1 <1>   0.1500 
 23 H       -3.5700     1.1310     0.5340 H     1 <1>   0.0800 
 24 H       -1.5700    -1.4410    -1.3360 H     1 <1>   0.0800 
 25 H       -1.7060    -0.6350    -2.8870 H     1 <1>   0.0800 
 26 H       -3.0630    -1.5070    -2.2390 H     1 <1>   0.0800 
 27 H        2.3610     3.6570     1.1260 H     1 <1>   0.1500 
 28 H        1.5470     5.9980    -2.3070 H     1 <1>   0.1500 
 29 H       -4.5960    -1.4660    -0.5930 H     1 <1>   0.0800 
 30 H       -5.5150    -0.0320    -0.1720 H     1 <1>   0.0800 
 31 H        0.9790     2.5430     2.6550 H     1 <1>   0.0800 
 32 H        1.9850     1.4250     1.7230 H     1 <1>   0.0800 
 33 H        2.9380     5.5030    -0.3390 H     1 <1>   0.1500 
 34 H       -3.1680    -0.5040     2.8750 H     1 <1>   0.0800 
 35 H       -2.8810    -2.0940     2.1670 H     1 <1>   0.0800 
 36 H       -5.1300    -2.1490     1.5690 H     1 <1>   0.0800 
 37 H       -5.3230    -0.5010     2.1300 H     1 <1>   0.0800 
 38 H       -0.7480     0.7860     2.8930 H     1 <1>   0.0800 
 39 H        0.7730     0.2170     3.5390 H     1 <1>   0.0800 
 40 H        0.2420    -0.3260     1.9650 H     1 <1>   0.0800 
@<TRIPOS>BOND
  1   1   2  2   
  2   2   3  am  
  3   2   4  1   
  4   3   5  1   
  5   3  20  1   
  6   4   6  ar  
  7   4   7  ar  
  8   5   8  1   
  9   5   9  1   
 10   5  21  1   
 11   6  10  1   
 12   6  11  ar  
 13   7  12  ar  
 14   7  22  1   
 15   8  13  1   
 16   8  14  1   
 17   8  23  1   
 18   9  24  1   
 19   9  25  1   
 20   9  26  1   
 21  10  15  1   
 22  11  16  ar  
 23  11  27  1   
 24  12  16  ar  
 25  12  28  1   
 26  13  17  1   
 27  14  18  1   
 28  14  29  1   
 29  14  30  1   
 30  15  19  1   
 31  15  31  1   
 32  15  32  1   
 33  16  33  1   
 34  17  18  1   
 35  17  34  1   
 36  17  35  1   
 37  18  36  1   
 38  18  37  1   
 39  19  38  1   
 40  19  39  1   
 41  19  40  1   
@<TRIPOS>SUBSTRUCTURE
  1 ****   3 GROUP 4 **** **** 0

# MOE 2024.06 (io_trps.svl 2023.06)
