@<TRIPOS>MOLECULE
NONAME
34 35 1 0 0 
SMALL
USER_CHARGES


@<TRIPOS>ATOM
  1 S        0.6630    -0.0230     1.6790 S.3   1 <1>  -0.0800 
  2 C        0.8190     1.4730     0.8180 C.2   1 <1>   0.4420 
  3 C       -0.3550    -0.5720     0.3940 C.2   1 <1>   0.1980 
  4 N        0.1550     1.4700    -0.2780 N.2   1 <1>  -0.3380 
  5 N        1.6100     2.4380     1.4020 N.am  1 <1>  -0.4940 
  6 N       -0.5100     0.3000    -0.5160 N.2   1 <1>  -0.3380 
  7 C       -0.9290    -1.9680     0.4830 C.3   1 <1>  -0.0600 
  8 C        1.9770     3.7110     1.0770 C.2   1 <1>   0.5690 
  9 O        2.6540     4.3030     1.8800 O.2   1 <1>  -0.5700 
 10 C        1.6020     4.4670    -0.2050 C.3   1 <1>   0.2110 
 11 S       -0.2250     4.7770    -0.2560 S.3   1 <1>  -0.2860 
 12 C        2.0820     3.8530    -1.5360 C.3   1 <1>  -0.1600 
 13 C       -0.3320     6.5640    -0.1270 C.2   1 <1>   0.2420 
 14 C        1.9770     4.8430    -2.7060 C.3   1 <1>  -0.2400 
 15 N       -0.7870     7.2910    -1.0910 N.2   1 <1>  -0.5650 
 16 N        0.0650     7.2400     0.9780 N.pl3 1 <1>   0.0480 
 17 C       -0.6810     8.5390    -0.5930 C.2   1 <1>   0.0770 
 18 C       -0.1660     8.5290     0.6590 C.2   1 <1>  -0.3020 
 19 C        0.5850     6.7360     2.2620 C.3   1 <1>   0.0160 
 20 H        2.0030     2.1640     2.3000 H     1 <1>   0.3700 
 21 H       -0.1330    -2.6890     0.5220 H     1 <1>   0.0800 
 22 H       -1.5370    -2.1660    -0.3810 H     1 <1>   0.0800 
 23 H       -1.5350    -2.0590     1.3650 H     1 <1>   0.0800 
 24 H        2.0420     5.4440    -0.1270 H     1 <1>   0.0800 
 25 H        1.5140     2.9760    -1.7770 H     1 <1>   0.0800 
 26 H        3.1110     3.5580    -1.4290 H     1 <1>   0.0800 
 27 H        0.9520     5.1280    -2.8740 H     1 <1>   0.0800 
 28 H        2.3500     4.3880    -3.6070 H     1 <1>   0.0800 
 29 H        2.5510     5.7310    -2.5080 H     1 <1>   0.0800 
 30 H       -0.9880     9.3940    -1.1720 H     1 <1>   0.1500 
 31 H        0.0390     9.3500     1.3210 H     1 <1>   0.1500 
 32 H        0.2140     5.7440     2.4420 H     1 <1>   0.0800 
 33 H        0.2610     7.3830     3.0570 H     1 <1>   0.0800 
 34 H        1.6590     6.7200     2.2300 H     1 <1>   0.0800 
@<TRIPOS>BOND
  1   1   2  1   
  2   1   3  1   
  3   2   4  2   
  4   2   5  1   
  5   3   6  2   
  6   3   7  1   
  7   4   6  1   
  8   5   8  am  
  9   5  20  1   
 10   7  21  1   
 11   7  22  1   
 12   7  23  1   
 13   8   9  2   
 14   8  10  1   
 15  10  11  1   
 16  10  12  1   
 17  10  24  1   
 18  11  13  1   
 19  12  14  1   
 20  12  25  1   
 21  12  26  1   
 22  13  15  2   
 23  13  16  1   
 24  14  27  1   
 25  14  28  1   
 26  14  29  1   
 27  15  17  1   
 28  16  18  1   
 29  16  19  1   
 30  17  18  2   
 31  17  30  1   
 32  18  31  1   
 33  19  32  1   
 34  19  33  1   
 35  19  34  1   
@<TRIPOS>SUBSTRUCTURE
  1 ****  11 GROUP 4 **** **** 0

# MOE 2024.06 (io_trps.svl 2023.06)
