@<TRIPOS>MOLECULE
NONAME
54 56 1 0 0 
SMALL
USER_CHARGES


@<TRIPOS>ATOM
  1 O       -0.0220    -0.2560    -1.6100 O.2   1 <1>  -0.5700 
  2 C        0.8860    -0.8070    -1.0060 C.2   1 <1>   0.5440 
  3 N        1.6810    -0.0440    -0.1700 N.am  1 <1>  -0.6600 
  4 C        1.0700    -2.2390    -1.1550 C.ar  1 <1>   0.0860 
  5 C        1.7140     1.4400    -0.2920 C.3   1 <1>   0.1400 
  6 C        2.3800    -0.6250     1.0150 C.3   1 <1>   0.1400 
  7 C       -0.0070    -3.1250    -0.9850 C.ar  1 <1>   0.1170 
  8 C        2.3230    -2.7710    -1.4660 C.ar  1 <1>  -0.1500 
  9 C        2.8910     1.8510    -1.1800 C.3   1 <1>  -0.1600 
 10 C        3.7410     0.0210     1.3160 C.3   1 <1>  -0.1600 
 11 N       -1.2810    -2.5960    -0.7540 N.am  1 <1>  -0.5470 
 12 C        0.2100    -4.4960    -1.0830 C.ar  1 <1>  -0.1500 
 13 C        2.5240    -4.1340    -1.5680 C.ar  1 <1>  -0.1500 
 14 C        4.2680     1.7460    -0.5030 C.3   1 <1>  -0.1600 
 15 C        4.5960     0.3640     0.0840 C.3   1 <1>  -0.1600 
 16 C       -2.3750    -3.0350    -0.0480 C.2   1 <1>   0.5440 
 17 C        1.4630    -5.0000    -1.3680 C.ar  1 <1>  -0.1500 
 18 O       -2.3740    -4.1520     0.4330 O.2   1 <1>  -0.5700 
 19 C       -3.5150    -2.1510     0.1180 C.ar  1 <1>   0.0860 
 20 C       -3.4120    -0.7670    -0.0560 C.ar  1 <1>  -0.1500 
 21 C       -4.7690    -2.6550     0.4640 C.ar  1 <1>  -0.1500 
 22 C       -4.5080     0.0750     0.0830 C.ar  1 <1>   0.0820 
 23 C       -5.8700    -1.8320     0.6160 C.ar  1 <1>  -0.1500 
 24 O       -4.4160     1.4240    -0.1040 O.3   1 <1>  -0.3630 
 25 C       -5.7530    -0.4590     0.4250 C.ar  1 <1>   0.0820 
 26 C       -3.2550     2.0250    -0.6370 C.3   1 <1>   0.0400 
 27 O       -6.8060     0.3910     0.5580 O.3   1 <1>  -0.3630 
 28 C       -8.0940    -0.0570     0.9150 C.3   1 <1>   0.0400 
 29 H        1.7920     1.8960     0.6800 H     1 <1>   0.0800 
 30 H        0.8000     1.7920    -0.7390 H     1 <1>   0.0800 
 31 H        2.5340    -1.6790     0.8700 H     1 <1>   0.0800 
 32 H        1.7430    -0.5170     1.8760 H     1 <1>   0.0800 
 33 H        3.1470    -2.0990    -1.6270 H     1 <1>   0.1500 
 34 H        2.7450     2.8740    -1.4760 H     1 <1>   0.0800 
 35 H        2.8760     1.2570    -2.0770 H     1 <1>   0.0800 
 36 H        4.2910    -0.6710     1.9310 H     1 <1>   0.0800 
 37 H        3.5940     0.9020     1.9150 H     1 <1>   0.0800 
 38 H       -1.3650    -1.6370    -1.1140 H     1 <1>   0.3700 
 39 H       -0.6120    -5.1750    -0.9430 H     1 <1>   0.1500 
 40 H        3.5000    -4.5240    -1.8020 H     1 <1>   0.1500 
 41 H        4.3360     2.4860     0.2760 H     1 <1>   0.0800 
 42 H        5.0180     1.9910    -1.2350 H     1 <1>   0.0800 
 43 H        4.4970    -0.3970    -0.6700 H     1 <1>   0.0800 
 44 H        5.6290     0.3790     0.3890 H     1 <1>   0.0800 
 45 H        1.6130    -6.0640    -1.4410 H     1 <1>   0.1500 
 46 H       -2.4540    -0.3490    -0.2940 H     1 <1>   0.1500 
 47 H       -4.8780    -3.7160     0.6140 H     1 <1>   0.1500 
 48 H       -6.8080    -2.2790     0.8830 H     1 <1>   0.1500 
 49 H       -3.4560     3.0720    -0.7740 H     1 <1>   0.0800 
 50 H       -3.0270     1.5700    -1.5850 H     1 <1>   0.0800 
 51 H       -2.4430     1.8980     0.0570 H     1 <1>   0.0800 
 52 H       -8.7420     0.7990     0.9600 H     1 <1>   0.0800 
 53 H       -8.0440    -0.5290     1.8800 H     1 <1>   0.0800 
 54 H       -8.4450    -0.7430     0.1650 H     1 <1>   0.0800 
@<TRIPOS>BOND
  1   1   2  2   
  2   2   3  am  
  3   2   4  1   
  4   3   5  1   
  5   3   6  1   
  6   4   7  ar  
  7   4   8  ar  
  8   5   9  1   
  9   5  29  1   
 10   5  30  1   
 11   6  10  1   
 12   6  31  1   
 13   6  32  1   
 14   7  11  1   
 15   7  12  ar  
 16   8  13  ar  
 17   8  33  1   
 18   9  14  1   
 19   9  34  1   
 20   9  35  1   
 21  10  15  1   
 22  10  36  1   
 23  10  37  1   
 24  11  16  am  
 25  11  38  1   
 26  12  17  ar  
 27  12  39  1   
 28  13  17  ar  
 29  13  40  1   
 30  14  15  1   
 31  14  41  1   
 32  14  42  1   
 33  15  43  1   
 34  15  44  1   
 35  16  18  2   
 36  16  19  1   
 37  17  45  1   
 38  19  20  ar  
 39  19  21  ar  
 40  20  22  ar  
 41  20  46  1   
 42  21  23  ar  
 43  21  47  1   
 44  22  24  1   
 45  22  25  ar  
 46  23  25  ar  
 47  23  48  1   
 48  24  26  1   
 49  25  27  1   
 50  26  49  1   
 51  26  50  1   
 52  26  51  1   
 53  27  28  1   
 54  28  52  1   
 55  28  53  1   
 56  28  54  1   
@<TRIPOS>SUBSTRUCTURE
  1 ****  11 GROUP 4 **** **** 0

# MOE 2024.06 (io_trps.svl 2023.06)
