@<TRIPOS>MOLECULE
NONAME
41 42 1 0 0 
SMALL
USER_CHARGES


@<TRIPOS>ATOM
  1 O       -0.3970     0.3310     0.1490 O.3   1 <1>  -0.5600 
  2 C       -1.5820    -0.3590    -0.1100 C.3   1 <1>   0.1200 
  3 C       -0.4510     1.6930    -0.1640 C.3   1 <1>   0.1200 
  4 C       -2.7380     0.2220     0.7270 C.3   1 <1>   0.2090 
  5 C       -1.5430     2.3950     0.6620 C.3   1 <1>   0.2090 
  6 N       -2.8790     1.7050     0.5060 N.pl3 1 <1>  -0.8380 
  7 C       -4.0060     2.3960     0.1820 C.ar  1 <1>   0.7710 
  8 N       -3.9140     3.6790    -0.1400 N.ar  1 <1>  -0.6200 
  9 N       -5.1940     1.7620     0.2030 N.ar  1 <1>  -0.1790 
 10 C       -5.0160     4.3270    -0.4540 C.ar  1 <1>   0.4100 
 11 C       -6.3520     2.3900    -0.1120 C.ar  1 <1>   0.2180 
 12 N       -4.9330     5.6290    -0.7880 N.pl3 1 <1>  -0.8690 
 13 C       -6.2720     3.6980    -0.4510 C.ar  1 <1>  -0.1500 
 14 C       -7.6540     1.6070    -0.0680 C.3   1 <1>  -0.0970 
 15 C       -3.7090     6.4650    -0.8200 C.3   1 <1>   0.2090 
 16 C       -3.9890     7.7720    -0.0790 C.3   1 <1>  -0.1600 
 17 C       -2.7570     8.6870    -0.0770 C.3   1 <1>  -0.1600 
 18 C       -3.0450     9.9960     0.6640 C.3   1 <1>  -0.2400 
 19 H       -1.4180    -1.3910     0.1450 H     1 <1>   0.0800 
 20 H       -1.7960    -0.2930    -1.1630 H     1 <1>   0.0800 
 21 H       -0.6410     1.8020    -1.2180 H     1 <1>   0.0800 
 22 H        0.5120     2.1180     0.0570 H     1 <1>   0.0800 
 23 H       -2.5300     0.0360     1.7680 H     1 <1>   0.0800 
 24 H       -3.6370    -0.3050     0.4680 H     1 <1>   0.0800 
 25 H       -1.5810     3.4270     0.3630 H     1 <1>   0.0800 
 26 H       -1.2540     2.3750     1.6990 H     1 <1>   0.0800 
 27 H       -5.1710     0.7950     0.4940 H     1 <1>   0.4570 
 28 H       -5.7740     6.1460    -1.0580 H     1 <1>   0.4000 
 29 H       -7.1360     4.2790    -0.7160 H     1 <1>   0.1500 
 30 H       -7.8340     1.2330     0.9250 H     1 <1>   0.0800 
 31 H       -7.6210     0.7810    -0.7560 H     1 <1>   0.0800 
 32 H       -8.4810     2.2390    -0.3420 H     1 <1>   0.0800 
 33 H       -3.4450     6.6700    -1.8440 H     1 <1>   0.0800 
 34 H       -2.8850     5.9530    -0.3520 H     1 <1>   0.0800 
 35 H       -4.2640     7.5460     0.9360 H     1 <1>   0.0800 
 36 H       -4.8070     8.2830    -0.5550 H     1 <1>   0.0800 
 37 H       -2.4690     8.9130    -1.0910 H     1 <1>   0.0800 
 38 H       -1.9320     8.1860     0.4010 H     1 <1>   0.0800 
 39 H       -3.8510    10.5290     0.1910 H     1 <1>   0.0800 
 40 H       -2.1710    10.6230     0.6570 H     1 <1>   0.0800 
 41 H       -3.3130     9.7980     1.6870 H     1 <1>   0.0800 
@<TRIPOS>BOND
  1   1   2  1   
  2   1   3  1   
  3   2   4  1   
  4   2  19  1   
  5   2  20  1   
  6   3   5  1   
  7   3  21  1   
  8   3  22  1   
  9   4   6  1   
 10   4  23  1   
 11   4  24  1   
 12   5   6  1   
 13   5  25  1   
 14   5  26  1   
 15   6   7  1   
 16   7   8  ar  
 17   7   9  ar  
 18   8  10  ar  
 19   9  11  ar  
 20   9  27  1   
 21  10  12  1   
 22  10  13  ar  
 23  11  13  ar  
 24  11  14  1   
 25  12  15  1   
 26  12  28  1   
 27  13  29  1   
 28  14  30  1   
 29  14  31  1   
 30  14  32  1   
 31  15  16  1   
 32  15  33  1   
 33  15  34  1   
 34  16  17  1   
 35  16  35  1   
 36  16  36  1   
 37  17  18  1   
 38  17  37  1   
 39  17  38  1   
 40  18  39  1   
 41  18  40  1   
 42  18  41  1   
@<TRIPOS>SUBSTRUCTURE
  1 ****   8 GROUP 4 **** **** 0

# MOE 2024.06 (io_trps.svl 2023.06)
