@<TRIPOS>MOLECULE
NONAME
39 39 1 0 0 
SMALL
USER_CHARGES


@<TRIPOS>ATOM
  1 O        0.1980    -0.3740     0.8000 O.2   1 <1>  -0.5700 
  2 C        0.0740    -1.2600    -0.0240 C.2   1 <1>   0.6900 
  3 N       -1.1570    -1.6600    -0.4120 N.am  1 <1>  -0.7300 
  4 N        1.1450    -1.8600    -0.5850 N.am  1 <1>  -0.7300 
  5 C       -2.3910    -1.1050     0.1530 C.3   1 <1>   0.2200 
  6 C        2.5530    -1.5490    -0.2640 C.3   1 <1>   0.1400 
  7 C       -3.5040    -2.1480     0.1040 C.3   1 <1>  -0.1600 
  8 C       -2.7850     0.1450    -0.6290 C.3   1 <1>  -0.1600 
  9 C        3.2890    -2.8490     0.0640 C.3   1 <1>  -0.1600 
 10 C       -4.8060    -1.5480     0.6300 C.3   1 <1>   0.3430 
 11 C       -4.0910     0.7140    -0.0870 C.3   1 <1>   0.3430 
 12 C        4.7590    -2.5840     0.4070 C.3   1 <1>  -0.2400 
 13 N       -5.1640    -0.3240    -0.1540 N.4   1 <1>  -0.9590 
 14 C       -6.4620     0.2570     0.2800 C.3   1 <1>   0.3430 
 15 C       -7.6080    -0.6350    -0.1830 C.3   1 <1>  -0.2400 
 16 H       -1.2320    -2.3470    -1.1570 H     1 <1>   0.3700 
 17 H        1.0020    -2.6110    -1.2550 H     1 <1>   0.3700 
 18 H       -2.2090    -0.8340     1.1820 H     1 <1>   0.0800 
 19 H        2.6020    -0.8780     0.5780 H     1 <1>   0.0800 
 20 H        3.0110    -1.0660    -1.1110 H     1 <1>   0.0800 
 21 H       -3.2320    -2.9850     0.7230 H     1 <1>   0.0800 
 22 H       -3.6510    -2.5010    -0.9010 H     1 <1>   0.0800 
 23 H       -2.8900    -0.0780    -1.6760 H     1 <1>   0.0800 
 24 H       -2.0130     0.8870    -0.5180 H     1 <1>   0.0800 
 25 H        3.2400    -3.5150    -0.7790 H     1 <1>   0.0800 
 26 H        2.8130    -3.3200     0.9070 H     1 <1>   0.0800 
 27 H       -4.6880    -1.2910     1.6710 H     1 <1>   0.0800 
 28 H       -5.5910    -2.2830     0.5530 H     1 <1>   0.0800 
 29 H       -4.3730     1.5770    -0.6680 H     1 <1>   0.0800 
 30 H       -3.9470     1.0260     0.9350 H     1 <1>   0.0800 
 31 H        5.2640    -2.1240    -0.4250 H     1 <1>   0.0800 
 32 H        5.2560    -3.5100     0.6390 H     1 <1>   0.0800 
 33 H        4.8340    -1.9330     1.2610 H     1 <1>   0.0800 
 34 H       -5.2640    -0.6000    -1.1400 H     1 <1>   0.4500 
 35 H       -6.5860     1.2350    -0.1600 H     1 <1>   0.0800 
 36 H       -6.4840     0.3660     1.3530 H     1 <1>   0.0800 
 37 H       -7.5860    -0.7670    -1.2510 H     1 <1>   0.0800 
 38 H       -8.5420    -0.1650     0.0700 H     1 <1>   0.0800 
 39 H       -7.5870    -1.5930     0.3030 H     1 <1>   0.0800 
@<TRIPOS>BOND
  1   1   2  2   
  2   2   3  am  
  3   2   4  am  
  4   3   5  1   
  5   3  16  1   
  6   4   6  1   
  7   4  17  1   
  8   5   7  1   
  9   5   8  1   
 10   5  18  1   
 11   6   9  1   
 12   6  19  1   
 13   6  20  1   
 14   7  10  1   
 15   7  21  1   
 16   7  22  1   
 17   8  11  1   
 18   8  23  1   
 19   8  24  1   
 20   9  12  1   
 21   9  25  1   
 22   9  26  1   
 23  10  13  1   
 24  10  27  1   
 25  10  28  1   
 26  11  13  1   
 27  11  29  1   
 28  11  30  1   
 29  12  31  1   
 30  12  32  1   
 31  12  33  1   
 32  13  14  1   
 33  13  34  1   
 34  14  15  1   
 35  14  35  1   
 36  14  36  1   
 37  15  37  1   
 38  15  38  1   
 39  15  39  1   
@<TRIPOS>SUBSTRUCTURE
  1 ****   5 GROUP 4 **** **** 0

# MOE 2024.06 (io_trps.svl 2023.06)
