@<TRIPOS>MOLECULE
NONAME
40 42 1 0 0 
SMALL
USER_CHARGES


@<TRIPOS>ATOM
  1 S       -1.7060     2.4040     1.3260 S.3   1 <1>  -0.0800 
  2 C       -2.1110     1.1740     0.1360 C.2   1 <1>  -0.1400 
  3 C       -0.1250     2.6410     0.6090 C.2   1 <1>  -0.1100 
  4 C       -1.0860     0.9840    -0.7180 C.2   1 <1>  -0.1810 
  5 C       -3.4790     0.5390     0.2590 C.3   1 <1>   0.5230 
  6 C        0.0410     1.8250    -0.4470 C.2   1 <1>  -0.1500 
  7 C       -1.0140     0.0040    -1.8770 C.3   1 <1>  -0.0590 
  8 N       -4.4240     1.2730    -0.6230 N.4   1 <1>  -0.9590 
  9 C       -4.7070     2.6600    -0.1000 C.3   1 <1>   0.3430 
 10 C       -5.7050     0.5040    -0.8180 C.3   1 <1>   0.3430 
 11 C       -5.7020     3.4460    -0.9810 C.3   1 <1>   0.2090 
 12 C       -6.7170     1.2410    -1.7220 C.3   1 <1>   0.2090 
 13 N       -6.9320     2.6560    -1.2950 N.pl3 1 <1>  -0.8380 
 14 C       -8.0840     2.9360    -0.5460 C.ar  1 <1>   0.1000 
 15 C       -8.2720     2.5730     0.7940 C.ar  1 <1>   0.1900 
 16 C       -9.1240     3.6210    -1.1600 C.ar  1 <1>  -0.1500 
 17 F       -7.3220     1.9230     1.4260 F     1 <1>  -0.1900 
 18 C       -9.4230     2.8680     1.4970 C.ar  1 <1>  -0.1500 
 19 C      -10.2880     3.9260    -0.4720 C.ar  1 <1>  -0.1500 
 20 C      -10.4410     3.5520     0.8540 C.ar  1 <1>  -0.1500 
 21 H        0.5230     3.3720     1.0600 H     1 <1>   0.1500 
 22 H       -3.8120     0.5620     1.2840 H     1 <1>   0.0800 
 23 H       -3.4100    -0.4890    -0.0570 H     1 <1>   0.0800 
 24 H        0.9300     1.7790    -1.0540 H     1 <1>   0.1500 
 25 H       -1.9170    -0.5710    -1.9630 H     1 <1>   0.0800 
 26 H       -0.1920    -0.6740    -1.7280 H     1 <1>   0.0800 
 27 H       -0.8530     0.5360    -2.7980 H     1 <1>   0.0800 
 28 H       -3.9560     1.3840    -1.5300 H     1 <1>   0.4500 
 29 H       -3.7910     3.2240    -0.0390 H     1 <1>   0.0800 
 30 H       -5.1160     2.5950     0.8940 H     1 <1>   0.0800 
 31 H       -6.1720     0.3380     0.1380 H     1 <1>   0.0800 
 32 H       -5.4930    -0.4600    -1.2500 H     1 <1>   0.0800 
 33 H       -5.2230     3.7270    -1.9030 H     1 <1>   0.0800 
 34 H       -5.9800     4.3550    -0.4740 H     1 <1>   0.0800 
 35 H       -7.6580     0.7160    -1.7000 H     1 <1>   0.0800 
 36 H       -6.3680     1.2330    -2.7390 H     1 <1>   0.0800 
 37 H       -9.0150     3.9160    -2.1890 H     1 <1>   0.1500 
 38 H       -9.5250     2.5700     2.5250 H     1 <1>   0.1500 
 39 H      -11.0800     4.4580    -0.9720 H     1 <1>   0.1500 
 40 H      -11.3490     3.7940     1.3810 H     1 <1>   0.1500 
@<TRIPOS>BOND
  1   1   2  1   
  2   1   3  1   
  3   2   4  2   
  4   2   5  1   
  5   3   6  2   
  6   3  21  1   
  7   4   6  1   
  8   4   7  1   
  9   5   8  1   
 10   5  22  1   
 11   5  23  1   
 12   6  24  1   
 13   7  25  1   
 14   7  26  1   
 15   7  27  1   
 16   8   9  1   
 17   8  10  1   
 18   8  28  1   
 19   9  11  1   
 20   9  29  1   
 21   9  30  1   
 22  10  12  1   
 23  10  31  1   
 24  10  32  1   
 25  11  13  1   
 26  11  33  1   
 27  11  34  1   
 28  12  13  1   
 29  12  35  1   
 30  12  36  1   
 31  13  14  1   
 32  14  15  ar  
 33  14  16  ar  
 34  15  17  1   
 35  15  18  ar  
 36  16  19  ar  
 37  16  37  1   
 38  18  20  ar  
 39  18  38  1   
 40  19  20  ar  
 41  19  39  1   
 42  20  40  1   
@<TRIPOS>SUBSTRUCTURE
  1 ****   9 GROUP 4 **** **** 0

# MOE 2024.06 (io_trps.svl 2023.06)
