@<TRIPOS>MOLECULE
NONAME
35 35 1 0 0 
SMALL
USER_CHARGES


@<TRIPOS>ATOM
  1 S       -0.9480     2.8130    -0.4800 S.3   1 <1>  -0.4100 
  2 C       -1.9020     1.3520    -0.0010 C.3   1 <1>   0.0700 
  3 C       -3.3790     1.6530    -0.2600 C.3   1 <1>  -0.1600 
  4 C       -4.2630     0.4580     0.1220 C.3   1 <1>  -0.1600 
  5 C       -5.7390     0.7580    -0.1380 C.3   1 <1>   0.1200 
  6 O       -6.4870    -0.3760     0.2330 O.3   1 <1>  -0.3630 
  7 C       -7.8420    -0.4210     0.1090 C.ar  1 <1>   0.0830 
  8 C       -8.4950    -1.5970     0.4810 C.ar  1 <1>  -0.1440 
  9 C       -8.5770     0.6570    -0.3790 C.ar  1 <1>  -0.1500 
 10 C       -9.8780    -1.6860     0.3410 C.ar  1 <1>  -0.1430 
 11 C       -7.6870    -2.7760     1.0270 C.3   1 <1>  -0.0970 
 12 C       -9.9510     0.5710    -0.5040 C.ar  1 <1>  -0.1430 
 13 C      -10.5910    -0.6010    -0.1470 C.ar  1 <1>  -0.1500 
 14 C      -10.6500    -2.9480     0.7030 C.3   1 <1>  -0.0970 
 15 C      -10.7540     1.7450    -1.0350 C.3   1 <1>  -0.0970 
 16 H        0.3350     2.4300    -0.2080 H     1 <1>   0.1800 
 17 H       -1.7090     1.1680     1.0420 H     1 <1>   0.0800 
 18 H       -1.5520     0.5280    -0.5980 H     1 <1>   0.0800 
 19 H       -3.5130     1.8820    -1.3030 H     1 <1>   0.0800 
 20 H       -3.6680     2.5150     0.3170 H     1 <1>   0.0800 
 21 H       -4.1330     0.2320     1.1660 H     1 <1>   0.0800 
 22 H       -3.9760    -0.4020    -0.4580 H     1 <1>   0.0800 
 23 H       -5.9120     0.9510    -1.1830 H     1 <1>   0.0800 
 24 H       -6.0700     1.5910     0.4580 H     1 <1>   0.0800 
 25 H       -8.0950     1.5700    -0.6670 H     1 <1>   0.1500 
 26 H       -6.7890    -2.4400     1.5120 H     1 <1>   0.0800 
 27 H       -7.4150    -3.4290     0.2180 H     1 <1>   0.0800 
 28 H       -8.2470    -3.3310     1.7550 H     1 <1>   0.0800 
 29 H      -11.6590    -0.6670    -0.2520 H     1 <1>   0.1500 
 30 H      -10.1960    -3.8050     0.2400 H     1 <1>   0.0800 
 31 H      -11.6690    -2.8880     0.3650 H     1 <1>   0.0800 
 32 H      -10.6540    -3.0800     1.7690 H     1 <1>   0.0800 
 33 H      -10.2230     2.6680    -0.8870 H     1 <1>   0.0800 
 34 H      -11.6970     1.8120    -0.5240 H     1 <1>   0.0800 
 35 H      -10.9370     1.6130    -2.0870 H     1 <1>   0.0800 
@<TRIPOS>BOND
  1   1   2  1   
  2   1  16  1   
  3   2   3  1   
  4   2  17  1   
  5   2  18  1   
  6   3   4  1   
  7   3  19  1   
  8   3  20  1   
  9   4   5  1   
 10   4  21  1   
 11   4  22  1   
 12   5   6  1   
 13   5  23  1   
 14   5  24  1   
 15   6   7  1   
 16   7   8  ar  
 17   7   9  ar  
 18   8  10  ar  
 19   8  11  1   
 20   9  12  ar  
 21   9  25  1   
 22  10  13  ar  
 23  10  14  1   
 24  11  26  1   
 25  11  27  1   
 26  11  28  1   
 27  12  13  ar  
 28  12  15  1   
 29  13  29  1   
 30  14  30  1   
 31  14  31  1   
 32  14  32  1   
 33  15  33  1   
 34  15  34  1   
 35  15  35  1   
@<TRIPOS>SUBSTRUCTURE
  1 ****   6 GROUP 4 **** **** 0

# MOE 2024.06 (io_trps.svl 2023.06)
