@<TRIPOS>MOLECULE
NONAME
54 56 1 0 0 
SMALL
USER_CHARGES


@<TRIPOS>ATOM
  1 S       -0.0460     1.1470     1.6920 S.o2  1 <1>   1.4470 
  2 O       -0.5780     2.4010     1.2110 O.2   1 <1>  -0.6500 
  3 O       -0.5660     0.5430     2.8970 O.2   1 <1>  -0.6500 
  4 N       -0.2490    -0.0470     0.5270 N.am  1 <1>  -0.9140 
  5 C        1.7570     1.2770     1.8070 C.ar  1 <1>  -0.0090 
  6 C       -1.4770    -0.0850    -0.2540 C.3   1 <1>   0.2760 
  7 C        2.5210     1.5580     0.6810 C.ar  1 <1>  -0.1500 
  8 C        2.4210     1.1080     3.0180 C.ar  1 <1>  -0.1500 
  9 C       -1.4580     0.9300    -1.4050 C.3   1 <1>  -0.1600 
 10 C       -2.7520     0.0280     0.5940 C.3   1 <1>  -0.1600 
 11 C        3.8980     1.6620     0.7570 C.ar  1 <1>  -0.1500 
 12 C        3.7980     1.2100     3.1070 C.ar  1 <1>  -0.1500 
 13 C       -2.7110     0.7780    -2.2810 C.3   1 <1>  -0.1600 
 14 C       -4.0010    -0.1260    -0.2870 C.3   1 <1>  -0.1600 
 15 C        4.5460     1.4900     1.9680 C.ar  1 <1>   0.0830 
 16 C       -3.9920     0.8870    -1.4410 C.3   1 <1>  -0.1600 
 17 O        5.8930     1.6110     1.9600 O.3   1 <1>  -0.3620 
 18 C        6.6580     1.4720     3.1500 C.3   1 <1>   0.1810 
 19 C        8.1430     1.6790     2.8780 C.2   1 <1>   0.5690 
 20 O        8.9280     1.5080     3.7790 O.2   1 <1>  -0.5700 
 21 N        8.5530     2.0490     1.6400 N.am  1 <1>  -0.7300 
 22 C        9.9510     2.2290     1.2270 C.3   1 <1>   0.2840 
 23 C       10.0070     2.1680    -0.2880 C.ar  1 <1>  -0.1430 
 24 C       10.0360     3.3330    -1.0390 C.ar  1 <1>  -0.1500 
 25 C       10.0210     0.9410    -0.9350 C.ar  1 <1>  -0.1500 
 26 C       10.0840     3.2730    -2.4210 C.ar  1 <1>  -0.1500 
 27 C       10.0690     0.8800    -2.3170 C.ar  1 <1>  -0.1500 
 28 C       10.1010     2.0470    -3.0610 C.ar  1 <1>  -0.1500 
 29 H       -0.2540    -0.8950     1.0890 H     1 <1>   0.4200 
 30 H       -1.5030    -1.0570    -0.7200 H     1 <1>   0.0800 
 31 H        2.0280     1.6950    -0.2670 H     1 <1>   0.1500 
 32 H        1.8490     0.8920     3.9060 H     1 <1>   0.1500 
 33 H       -0.5800     0.7740    -2.0060 H     1 <1>   0.0800 
 34 H       -1.4360     1.9340    -1.0250 H     1 <1>   0.0800 
 35 H       -2.8010     0.9910     1.0710 H     1 <1>   0.0800 
 36 H       -2.7570    -0.7320     1.3550 H     1 <1>   0.0800 
 37 H        4.4760     1.8790    -0.1240 H     1 <1>   0.1500 
 38 H        4.2630     1.0700     4.0650 H     1 <1>   0.1500 
 39 H       -2.6890    -0.1780    -2.7760 H     1 <1>   0.0800 
 40 H       -2.7130     1.5410    -3.0400 H     1 <1>   0.0800 
 41 H       -4.8840     0.0210     0.3130 H     1 <1>   0.0800 
 42 H       -4.0390    -1.1250    -0.6880 H     1 <1>   0.0800 
 43 H       -4.8500     0.7240    -2.0700 H     1 <1>   0.0800 
 44 H       -4.0660     1.8830    -1.0380 H     1 <1>   0.0800 
 45 H        6.5040     0.4830     3.5410 H     1 <1>   0.0800 
 46 H        6.3240     2.2070     3.8580 H     1 <1>   0.0800 
 47 H        7.8590     2.1470     0.8940 H     1 <1>   0.3700 
 48 H       10.5600     1.4520     1.6580 H     1 <1>   0.0800 
 49 H       10.3090     3.1790     1.5820 H     1 <1>   0.0800 
 50 H       10.0210     4.2930    -0.5510 H     1 <1>   0.1500 
 51 H        9.9930     0.0300    -0.3630 H     1 <1>   0.1500 
 52 H       10.1080     4.1810    -2.9990 H     1 <1>   0.1500 
 53 H       10.0810    -0.0750    -2.8130 H     1 <1>   0.1500 
 54 H       10.1390     2.0000    -4.1350 H     1 <1>   0.1500 
@<TRIPOS>BOND
  1   1   2  2   
  2   1   3  2   
  3   1   4  am  
  4   1   5  1   
  5   4   6  1   
  6   4  29  1   
  7   5   7  ar  
  8   5   8  ar  
  9   6   9  1   
 10   6  10  1   
 11   6  30  1   
 12   7  11  ar  
 13   7  31  1   
 14   8  12  ar  
 15   8  32  1   
 16   9  13  1   
 17   9  33  1   
 18   9  34  1   
 19  10  14  1   
 20  10  35  1   
 21  10  36  1   
 22  11  15  ar  
 23  11  37  1   
 24  12  15  ar  
 25  12  38  1   
 26  13  16  1   
 27  13  39  1   
 28  13  40  1   
 29  14  16  1   
 30  14  41  1   
 31  14  42  1   
 32  15  17  1   
 33  16  43  1   
 34  16  44  1   
 35  17  18  1   
 36  18  19  1   
 37  18  45  1   
 38  18  46  1   
 39  19  20  2   
 40  19  21  am  
 41  21  22  1   
 42  21  47  1   
 43  22  23  1   
 44  22  48  1   
 45  22  49  1   
 46  23  24  ar  
 47  23  25  ar  
 48  24  26  ar  
 49  24  50  1   
 50  25  27  ar  
 51  25  51  1   
 52  26  28  ar  
 53  26  52  1   
 54  27  28  ar  
 55  27  53  1   
 56  28  54  1   
@<TRIPOS>SUBSTRUCTURE
  1 ****  11 GROUP 4 **** **** 0

# MOE 2024.06 (io_trps.svl 2023.06)
