@<TRIPOS>MOLECULE
NONAME
36 37 1 0 0 
SMALL
USER_CHARGES


@<TRIPOS>ATOM
  1 O        0.5520     1.4540     2.1060 O.2   1 <1>  -0.5700 
  2 C        0.9150     1.6660     0.9620 C.2   1 <1>   0.5440 
  3 N       -0.0060     2.1340     0.0400 N.am  1 <1>  -0.6600 
  4 C        2.3140     1.4810     0.6350 C.ar  1 <1>   0.0860 
  5 C       -1.4690     2.1080     0.3450 C.3   1 <1>   0.2200 
  6 C        0.4160     2.6540    -1.2950 C.3   1 <1>   0.0600 
  7 C        2.7690     0.5520    -0.3120 C.ar  1 <1>   0.0820 
  8 C        3.2780     2.2470     1.2910 C.ar  1 <1>  -0.1500 
  9 C       -2.2760     1.4530    -0.7870 C.3   1 <1>  -0.1600 
 10 C       -1.9790     3.5230     0.6500 C.3   1 <1>  -0.1600 
 11 O        1.9050    -0.2400    -0.9680 O.3   1 <1>  -0.5330 
 12 C        4.1200     0.4150    -0.5930 C.ar  1 <1>  -0.1500 
 13 C        4.6260     2.1140     1.0140 C.ar  1 <1>  -0.1500 
 14 C       -3.7740     1.4310    -0.4470 C.3   1 <1>  -0.1600 
 15 C       -3.4790     3.5070     0.9810 C.3   1 <1>  -0.1600 
 16 C        5.0490     1.1970     0.0670 C.ar  1 <1>  -0.1500 
 17 C       -4.2920     2.8430    -0.1400 C.3   1 <1>  -0.1600 
 18 H       -1.6290     1.5100     1.2270 H     1 <1>   0.0800 
 19 H        1.4340     3.0000    -1.2630 H     1 <1>   0.0800 
 20 H       -0.2070     3.4780    -1.5920 H     1 <1>   0.0800 
 21 H        0.3370     1.8700    -2.0260 H     1 <1>   0.0800 
 22 H        2.9510     2.9540     2.0340 H     1 <1>   0.1500 
 23 H       -1.9260     0.4460    -0.9320 H     1 <1>   0.0800 
 24 H       -2.1460     1.9990    -1.7030 H     1 <1>   0.0800 
 25 H       -1.8160     4.1640    -0.1950 H     1 <1>   0.0800 
 26 H       -1.4330     3.9160     1.4900 H     1 <1>   0.0800 
 27 H        2.3280    -0.9110    -1.5310 H     1 <1>   0.4500 
 28 H        4.4550    -0.2990    -1.3230 H     1 <1>   0.1500 
 29 H        5.3460     2.7210     1.5360 H     1 <1>   0.1500 
 30 H       -3.9340     0.7980     0.4100 H     1 <1>   0.0800 
 31 H       -4.3250     1.0140    -1.2720 H     1 <1>   0.0800 
 32 H       -3.8260     4.5140     1.1330 H     1 <1>   0.0800 
 33 H       -3.6320     2.9650     1.8990 H     1 <1>   0.0800 
 34 H        6.0990     1.0930    -0.1480 H     1 <1>   0.1500 
 35 H       -5.3270     2.7920     0.1490 H     1 <1>   0.0800 
 36 H       -4.2280     3.4470    -1.0300 H     1 <1>   0.0800 
@<TRIPOS>BOND
  1   1   2  2   
  2   2   3  am  
  3   2   4  1   
  4   3   5  1   
  5   3   6  1   
  6   4   7  ar  
  7   4   8  ar  
  8   5   9  1   
  9   5  10  1   
 10   5  18  1   
 11   6  19  1   
 12   6  20  1   
 13   6  21  1   
 14   7  11  1   
 15   7  12  ar  
 16   8  13  ar  
 17   8  22  1   
 18   9  14  1   
 19   9  23  1   
 20   9  24  1   
 21  10  15  1   
 22  10  25  1   
 23  10  26  1   
 24  11  27  1   
 25  12  16  ar  
 26  12  28  1   
 27  13  16  ar  
 28  13  29  1   
 29  14  17  1   
 30  14  30  1   
 31  14  31  1   
 32  15  17  1   
 33  15  32  1   
 34  15  33  1   
 35  16  34  1   
 36  17  35  1   
 37  17  36  1   
@<TRIPOS>SUBSTRUCTURE
  1 ****   3 GROUP 4 **** **** 0

# MOE 2024.06 (io_trps.svl 2023.06)
