@<TRIPOS>MOLECULE
NONAME
40 42 1 0 0 
SMALL
USER_CHARGES


@<TRIPOS>ATOM
  1 S       -1.3020     1.1240    -1.9270 S.3   1 <1>  -0.0800 
  2 C       -1.7270     0.9250    -0.2320 C.2   1 <1>  -0.1400 
  3 C        0.1160     2.0620    -1.5080 C.2   1 <1>  -0.1100 
  4 C       -0.8230     1.5370     0.5590 C.2   1 <1>  -0.1810 
  5 C       -2.9750     0.1230     0.0630 C.3   1 <1>   0.5230 
  6 C        0.2230     2.1870    -0.1730 C.2   1 <1>  -0.1500 
  7 C       -0.8040     1.5900     2.0780 C.3   1 <1>  -0.0590 
  8 N       -4.1250     1.0580     0.1830 N.4   1 <1>  -0.9590 
  9 C       -5.3240     0.3880     0.8090 C.3   1 <1>   0.3430 
 10 C       -4.4820     1.6820    -1.1480 C.3   1 <1>   0.3430 
 11 C       -6.5450     1.3270     0.9140 C.3   1 <1>   0.2090 
 12 C       -5.7040     2.6200    -1.0630 C.3   1 <1>   0.2090 
 13 N       -6.8570     1.9320    -0.4120 N.pl3 1 <1>  -0.8380 
 14 C       -8.0940     2.5550    -0.5300 C.ar  1 <1>   0.1000 
 15 C       -8.3700     3.7520     0.1310 C.ar  1 <1>  -0.1500 
 16 C       -9.0770     1.9720    -1.3240 C.ar  1 <1>  -0.1500 
 17 C       -9.6080     4.3580     0.0030 C.ar  1 <1>  -0.1500 
 18 C      -10.3200     2.5660    -1.4620 C.ar  1 <1>  -0.1500 
 19 C      -10.5610     3.7510    -0.7930 C.ar  1 <1>   0.1900 
 20 F      -11.7330     4.3200    -0.9180 F     1 <1>  -0.1900 
 21 H        0.7310     2.4250    -2.3130 H     1 <1>   0.1500 
 22 H       -2.8340    -0.4020     0.9940 H     1 <1>   0.0800 
 23 H       -3.1460    -0.6020    -0.7160 H     1 <1>   0.0800 
 24 H        1.0120     2.7170     0.3340 H     1 <1>   0.1500 
 25 H       -1.6330     1.0540     2.5010 H     1 <1>   0.0800 
 26 H       -0.8440     2.6120     2.4100 H     1 <1>   0.0800 
 27 H        0.1080     1.1500     2.4440 H     1 <1>   0.0800 
 28 H       -3.8120     1.8220     0.7940 H     1 <1>   0.4500 
 29 H       -5.0740     0.0300     1.7940 H     1 <1>   0.0800 
 30 H       -5.6130    -0.4610     0.2120 H     1 <1>   0.0800 
 31 H       -4.7070     0.9060    -1.8610 H     1 <1>   0.0800 
 32 H       -3.6450     2.2440    -1.5270 H     1 <1>   0.0800 
 33 H       -6.3520     2.1050     1.6320 H     1 <1>   0.0800 
 34 H       -7.4000     0.7660     1.2550 H     1 <1>   0.0800 
 35 H       -5.9890     2.9260    -2.0560 H     1 <1>   0.0800 
 36 H       -5.4480     3.5050    -0.5060 H     1 <1>   0.0800 
 37 H       -7.6160     4.2080     0.7440 H     1 <1>   0.1500 
 38 H       -8.8600     1.0510    -1.8320 H     1 <1>   0.1500 
 39 H       -9.8370     5.2800     0.5050 H     1 <1>   0.1500 
 40 H      -11.0870     2.1260    -2.0720 H     1 <1>   0.1500 
@<TRIPOS>BOND
  1   1   2  1   
  2   1   3  1   
  3   2   4  2   
  4   2   5  1   
  5   3   6  2   
  6   3  21  1   
  7   4   6  1   
  8   4   7  1   
  9   5   8  1   
 10   5  22  1   
 11   5  23  1   
 12   6  24  1   
 13   7  25  1   
 14   7  26  1   
 15   7  27  1   
 16   8   9  1   
 17   8  10  1   
 18   8  28  1   
 19   9  11  1   
 20   9  29  1   
 21   9  30  1   
 22  10  12  1   
 23  10  31  1   
 24  10  32  1   
 25  11  13  1   
 26  11  33  1   
 27  11  34  1   
 28  12  13  1   
 29  12  35  1   
 30  12  36  1   
 31  13  14  1   
 32  14  15  ar  
 33  14  16  ar  
 34  15  17  ar  
 35  15  37  1   
 36  16  18  ar  
 37  16  38  1   
 38  17  19  ar  
 39  17  39  1   
 40  18  19  ar  
 41  18  40  1   
 42  19  20  1   
@<TRIPOS>SUBSTRUCTURE
  1 ****  12 GROUP 4 **** **** 0

# MOE 2024.06 (io_trps.svl 2023.06)
