@<TRIPOS>MOLECULE
NONAME
44 45 1 0 0 
SMALL
USER_CHARGES


@<TRIPOS>ATOM
  1 S       -0.4080     0.1000     1.0660 S.o2  1 <1>   1.4470 
  2 O       -0.7820     0.2960     2.4480 O.2   1 <1>  -0.6500 
  3 O       -0.3730    -1.2280     0.4990 O.2   1 <1>  -0.6500 
  4 N       -1.5130     0.9240     0.1110 N.am  1 <1>  -0.9140 
  5 C        1.1600     0.9470     0.7290 C.ar  1 <1>  -0.0090 
  6 C       -2.8510     1.0230     0.6570 C.3   1 <1>   0.2760 
  7 C        2.3340     0.2270     0.5470 C.ar  1 <1>  -0.1500 
  8 C        1.2330     2.3330     0.6680 C.ar  1 <1>  -0.1500 
  9 C       -3.5790    -0.3170     0.5630 C.3   1 <1>  -0.1600 
 10 C       -3.6640     1.9030    -0.2840 C.3   1 <1>  -0.1600 
 11 C        3.5490     0.8480     0.2860 C.ar  1 <1>   0.1170 
 12 C        2.4340     2.9800     0.4320 C.ar  1 <1>  -0.1500 
 13 C       -4.0360    -0.4430    -0.8940 C.3   1 <1>  -0.1600 
 14 C       -4.1110     0.9910    -1.4340 C.3   1 <1>  -0.1600 
 15 N        4.7330     0.1150     0.0930 N.am  1 <1>  -0.5470 
 16 C        3.5980     2.2440     0.2450 C.ar  1 <1>   0.0830 
 17 C        5.0230    -1.0540    -0.5350 C.2   1 <1>   0.5690 
 18 O        4.8140     2.8220     0.0230 O.3   1 <1>  -0.3630 
 19 O        6.1570    -1.4580    -0.5530 O.2   1 <1>  -0.5700 
 20 C        3.9630    -1.8600    -1.2500 C.3   1 <1>  -0.1790 
 21 C        4.9650     4.2190    -0.0750 C.3   1 <1>   0.1200 
 22 C        6.4370     4.5150    -0.3460 C.3   1 <1>  -0.2400 
 23 H       -1.6020     0.3430    -0.7200 H     1 <1>   0.4200 
 24 H       -2.8350     1.4250     1.6590 H     1 <1>   0.0800 
 25 H        2.2930    -0.8430     0.6230 H     1 <1>   0.1500 
 26 H        0.3360     2.9140     0.8120 H     1 <1>   0.1500 
 27 H       -4.4500    -0.2660     1.1920 H     1 <1>   0.0800 
 28 H       -2.9900    -1.1570     0.8880 H     1 <1>   0.0800 
 29 H       -3.1090     2.7590    -0.6250 H     1 <1>   0.0800 
 30 H       -4.5350     2.2490     0.2440 H     1 <1>   0.0800 
 31 H        2.4370     4.0540     0.4010 H     1 <1>   0.1500 
 32 H       -4.9900    -0.9390    -0.9560 H     1 <1>   0.0800 
 33 H       -3.3140    -1.0090    -1.4580 H     1 <1>   0.0800 
 34 H       -3.4420     1.1000    -2.2710 H     1 <1>   0.0800 
 35 H       -5.1090     1.2400    -1.7540 H     1 <1>   0.0800 
 36 H        5.5780     0.6370     0.3360 H     1 <1>   0.3700 
 37 H        3.2600    -1.2100    -1.7340 H     1 <1>   0.0800 
 38 H        3.4560    -2.4940    -0.5480 H     1 <1>   0.0800 
 39 H        4.4290    -2.4780    -1.9960 H     1 <1>   0.0800 
 40 H        4.6540     4.6630     0.8550 H     1 <1>   0.0800 
 41 H        4.3520     4.5730    -0.8850 H     1 <1>   0.0800 
 42 H        7.0450     4.1460     0.4610 H     1 <1>   0.0800 
 43 H        6.5870     5.5760    -0.4290 H     1 <1>   0.0800 
 44 H        6.7450     4.0520    -1.2670 H     1 <1>   0.0800 
@<TRIPOS>BOND
  1   1   2  2   
  2   1   3  2   
  3   1   4  am  
  4   1   5  1   
  5   4   6  1   
  6   4  23  1   
  7   5   7  ar  
  8   5   8  ar  
  9   6   9  1   
 10   6  10  1   
 11   6  24  1   
 12   7  11  ar  
 13   7  25  1   
 14   8  12  ar  
 15   8  26  1   
 16   9  13  1   
 17   9  27  1   
 18   9  28  1   
 19  10  14  1   
 20  10  29  1   
 21  10  30  1   
 22  11  15  1   
 23  11  16  ar  
 24  12  16  ar  
 25  12  31  1   
 26  13  14  1   
 27  13  32  1   
 28  13  33  1   
 29  14  34  1   
 30  14  35  1   
 31  15  17  am  
 32  15  36  1   
 33  16  18  1   
 34  17  19  2   
 35  17  20  1   
 36  18  21  1   
 37  20  37  1   
 38  20  38  1   
 39  20  39  1   
 40  21  22  1   
 41  21  40  1   
 42  21  41  1   
 43  22  42  1   
 44  22  43  1   
 45  22  44  1   
@<TRIPOS>SUBSTRUCTURE
  1 ****   5 GROUP 4 **** **** 0

# MOE 2024.06 (io_trps.svl 2023.06)
