@<TRIPOS>MOLECULE
NONAME
54 56 1 0 0 
SMALL
USER_CHARGES


@<TRIPOS>ATOM
  1 O        0.3290    -3.1400     2.7340 O.2   1 <1>  -0.5700 
  2 C       -0.3350    -2.6690     1.8420 C.2   1 <1>   0.5690 
  3 N        0.1480    -1.8630     0.8510 N.am  1 <1>  -0.5470 
  4 C       -1.8350    -2.9680     1.7810 C.3   1 <1>   0.1710 
  5 C        1.4130    -1.3410     0.5470 C.ar  1 <1>   0.1170 
  6 N       -2.5920    -1.9650     0.9750 N.3   1 <1>  -0.8100 
  7 C        1.5100    -0.4140    -0.4810 C.ar  1 <1>  -0.1500 
  8 C        2.5740    -1.7070     1.2200 C.ar  1 <1>  -0.1500 
  9 C       -3.8980    -2.4890     0.5210 C.3   1 <1>   0.1100 
 10 C       -2.8120    -0.7130     1.7410 C.3   1 <1>   0.1100 
 11 C        2.7260     0.1440    -0.8360 C.ar  1 <1>   0.0820 
 12 C        3.7960    -1.1580     0.8750 C.ar  1 <1>  -0.1500 
 13 C       -4.6470    -1.4640    -0.3530 C.3   1 <1>   0.2090 
 14 C       -3.5420     0.3520     0.9030 C.3   1 <1>   0.2090 
 15 O        2.7100     1.0420    -1.8530 O.3   1 <1>  -0.3630 
 16 C        3.8780    -0.2320    -0.1510 C.ar  1 <1>  -0.1500 
 17 N       -4.8350    -0.1670     0.3640 N.pl3 1 <1>  -0.8380 
 18 C        3.9000     1.6430    -2.3140 C.3   1 <1>   0.0400 
 19 C       -5.6010     0.7800    -0.3310 C.ar  1 <1>   0.1000 
 20 C       -5.2100     1.3890    -1.5380 C.ar  1 <1>   0.0820 
 21 C       -6.8230     1.1370     0.2210 C.ar  1 <1>  -0.1500 
 22 O       -4.0090     1.0540    -2.0970 O.3   1 <1>  -0.3620 
 23 C       -6.0440     2.3150    -2.1520 C.ar  1 <1>  -0.1500 
 24 C       -7.6470     2.0650    -0.3900 C.ar  1 <1>  -0.1500 
 25 C       -3.2470     2.0400    -2.7520 C.3   1 <1>   0.1200 
 26 C       -7.2580     2.6550    -1.5780 C.ar  1 <1>  -0.1500 
 27 C       -1.8180     1.5210    -2.8780 C.3   1 <1>  -0.2400 
 28 H       -0.6210    -1.5470     0.2500 H     1 <1>   0.3700 
 29 H       -2.2280    -3.0170     2.7820 H     1 <1>   0.0800 
 30 H       -1.9420    -3.9400     1.3350 H     1 <1>   0.0800 
 31 H        0.6310    -0.1150    -1.0200 H     1 <1>   0.1500 
 32 H        2.5300    -2.4260     2.0180 H     1 <1>   0.1500 
 33 H       -4.5130    -2.7350     1.3700 H     1 <1>   0.0800 
 34 H       -3.7450    -3.3830    -0.0570 H     1 <1>   0.0800 
 35 H       -1.8680    -0.3090     2.0610 H     1 <1>   0.0800 
 36 H       -3.4010    -0.9190     2.6190 H     1 <1>   0.0800 
 37 H        4.6830    -1.4530     1.4070 H     1 <1>   0.1500 
 38 H       -5.6110    -1.8580    -0.6230 H     1 <1>   0.0800 
 39 H       -4.0880    -1.3030    -1.2580 H     1 <1>   0.0800 
 40 H       -2.9030     0.6530     0.0930 H     1 <1>   0.0800 
 41 H       -3.7380     1.2160     1.5120 H     1 <1>   0.0800 
 42 H        4.8380     0.1790    -0.3990 H     1 <1>   0.1500 
 43 H        3.6500     2.3010    -3.1260 H     1 <1>   0.0800 
 44 H        4.5670     0.8730    -2.6610 H     1 <1>   0.0800 
 45 H        4.3420     2.2040    -1.5100 H     1 <1>   0.0800 
 46 H       -7.1200     0.6740     1.1440 H     1 <1>   0.1500 
 47 H       -5.7670     2.7740    -3.0820 H     1 <1>   0.1500 
 48 H       -8.5890     2.3250     0.0600 H     1 <1>   0.1500 
 49 H       -3.2750     2.9420    -2.1650 H     1 <1>   0.0800 
 50 H       -3.6770     2.2130    -3.7230 H     1 <1>   0.0800 
 51 H       -7.9000     3.3730    -2.0580 H     1 <1>   0.1500 
 52 H       -1.4020     1.3450    -1.9020 H     1 <1>   0.0800 
 53 H       -1.2080     2.2470    -3.3840 H     1 <1>   0.0800 
 54 H       -1.8040     0.6070    -3.4440 H     1 <1>   0.0800 
@<TRIPOS>BOND
  1   1   2  2   
  2   2   3  am  
  3   2   4  1   
  4   3   5  1   
  5   3  28  1   
  6   4   6  1   
  7   4  29  1   
  8   4  30  1   
  9   5   7  ar  
 10   5   8  ar  
 11   6   9  1   
 12   6  10  1   
 13   7  11  ar  
 14   7  31  1   
 15   8  12  ar  
 16   8  32  1   
 17   9  13  1   
 18   9  33  1   
 19   9  34  1   
 20  10  14  1   
 21  10  35  1   
 22  10  36  1   
 23  11  15  1   
 24  11  16  ar  
 25  12  16  ar  
 26  12  37  1   
 27  13  17  1   
 28  13  38  1   
 29  13  39  1   
 30  14  17  1   
 31  14  40  1   
 32  14  41  1   
 33  15  18  1   
 34  16  42  1   
 35  17  19  1   
 36  18  43  1   
 37  18  44  1   
 38  18  45  1   
 39  19  20  ar  
 40  19  21  ar  
 41  20  22  1   
 42  20  23  ar  
 43  21  24  ar  
 44  21  46  1   
 45  22  25  1   
 46  23  26  ar  
 47  23  47  1   
 48  24  26  ar  
 49  24  48  1   
 50  25  27  1   
 51  25  49  1   
 52  25  50  1   
 53  26  51  1   
 54  27  52  1   
 55  27  53  1   
 56  27  54  1   
@<TRIPOS>SUBSTRUCTURE
  1 ****  14 GROUP 4 **** **** 0

# MOE 2024.06 (io_trps.svl 2023.06)
