@<TRIPOS>MOLECULE
NONAME
29 31 1 0 0 
SMALL
USER_CHARGES


@<TRIPOS>ATOM
  1 O       -0.3040    -0.0680     0.9550 O.2   1 <1>  -0.5700 
  2 C       -0.7220    -1.1480     0.6180 C.2   1 <1>   0.6300 
  3 N        0.0630    -2.1830     0.2000 N.am  1 <1>  -0.5470 
  4 C       -2.2200    -1.4040     0.6810 C.3   1 <1>  -0.1000 
  5 C        1.4550    -2.2900     0.0240 C.ar  1 <1>   0.1170 
  6 C       -2.9460    -2.1720    -0.3870 C.3   1 <1>  -0.1950 
  7 C       -3.1500    -0.6970    -0.2710 C.3   1 <1>  -0.2000 
  8 C        2.0320    -3.5430     0.0180 C.ar  1 <1>  -0.1500 
  9 C        2.2760    -1.1600    -0.1630 C.ar  1 <1>  -0.1500 
 10 C       -4.0800    -3.1330    -0.0280 C.3   1 <1>  -0.1450 
 11 C        3.4130    -3.6820    -0.1650 C.ar  1 <1>   0.0000 
 12 C        3.6330    -1.2830    -0.3420 C.ar  1 <1>  -0.1500 
 13 C        4.1950    -2.5620    -0.3400 C.ar  1 <1>  -0.1520 
 14 C        4.3240    -4.7510    -0.2250 C.2   1 <1>   0.1390 
 15 N        5.4730    -3.0180    -0.4880 N.pl3 1 <1>   0.3000 
 16 N        5.5430    -4.3680    -0.4160 N.2   1 <1>  -0.7070 
 17 H       -0.4590    -3.0350     0.0090 H     1 <1>   0.3700 
 18 H       -2.5560    -1.4940     1.6980 H     1 <1>   0.1000 
 19 H       -2.3910    -2.5000    -1.2510 H     1 <1>   0.1000 
 20 H       -2.7190    -0.0470    -1.0140 H     1 <1>   0.1000 
 21 H       -4.0780    -0.3150     0.1170 H     1 <1>   0.1000 
 22 H        1.4400    -4.4280     0.1570 H     1 <1>   0.1500 
 23 H        1.8310    -0.1820    -0.1680 H     1 <1>   0.1500 
 24 H       -4.6430    -2.7640     0.8120 H     1 <1>   0.0800 
 25 H       -3.6820    -4.1000     0.2230 H     1 <1>   0.0800 
 26 H       -4.7470    -3.2410    -0.8650 H     1 <1>   0.0800 
 27 H        4.2540    -0.4150    -0.4810 H     1 <1>   0.1500 
 28 H        4.0320    -5.7820    -0.1220 H     1 <1>   0.1500 
 29 H        6.2990    -2.4280    -0.6340 H     1 <1>   0.2700 
@<TRIPOS>BOND
  1   1   2  2   
  2   2   3  am  
  3   2   4  1   
  4   3   5  1   
  5   3  17  1   
  6   4   6  1   
  7   4   7  1   
  8   4  18  1   
  9   5   8  ar  
 10   5   9  ar  
 11   6   7  1   
 12   6  10  1   
 13   6  19  1   
 14   7  20  1   
 15   7  21  1   
 16   8  11  ar  
 17   8  22  1   
 18   9  12  ar  
 19   9  23  1   
 20  10  24  1   
 21  10  25  1   
 22  10  26  1   
 23  11  13  ar  
 24  11  14  1   
 25  12  13  ar  
 26  12  27  1   
 27  13  15  1   
 28  14  16  2   
 29  14  28  1   
 30  15  16  1   
 31  15  29  1   
@<TRIPOS>SUBSTRUCTURE
  1 ****   5 GROUP 4 **** **** 0

# MOE 2024.06 (io_trps.svl 2023.06)
