@<TRIPOS>MOLECULE
NONAME
39 42 1 0 0 
SMALL
USER_CHARGES


@<TRIPOS>ATOM
  1 N       -0.2770    -0.1950     0.9430 N.2   1 <1>  -0.5030 
  2 N        0.0610     1.0840     1.2600 N.pl3 1 <1>  -0.5690 
  3 C       -1.4680    -0.4430     0.5370 C.2   1 <1>   0.3030 
  4 C       -2.5170     0.5350     0.3790 C.ar  1 <1>   0.0860 
  5 C       -1.8150    -1.8910     0.1890 C.3   1 <1>   0.0610 
  6 C       -2.6970     1.2140    -0.8260 C.ar  1 <1>  -0.1500 
  7 C       -3.3820     0.8410     1.4310 C.ar  1 <1>  -0.1500 
  8 C       -0.6090    -2.8160     0.4100 C.3   1 <1>   0.3430 
  9 C       -2.9540    -2.4460     1.0590 C.3   1 <1>   0.1100 
 10 C       -2.2250    -2.0570    -1.2830 C.3   1 <1>   0.1100 
 11 C       -3.7150     2.1350    -0.9860 C.ar  1 <1>  -0.1500 
 12 C       -4.4020     1.7610     1.2760 C.ar  1 <1>  -0.1500 
 13 N       -0.9760    -4.2280     0.0620 N.4   1 <1>  -0.9590 
 14 N       -3.2100    -3.8490     0.6730 N.3   1 <1>  -0.8100 
 15 N       -2.5220    -3.4820    -1.5380 N.3   1 <1>  -0.8100 
 16 C       -4.5720     2.4070     0.0650 C.ar  1 <1>  -0.1500 
 17 C       -2.0740    -4.7120     0.9140 C.3   1 <1>   0.6130 
 18 C       -1.3680    -4.3350    -1.3530 C.3   1 <1>   0.6130 
 19 C       -3.6360    -3.9440    -0.7190 C.3   1 <1>   0.3800 
 20 H       -0.5960     1.8740     1.1900 H     1 <1>   0.3110 
 21 H        1.0050     1.3310     1.5890 H     1 <1>   0.3110 
 22 H       -2.0260     1.0230    -1.6460 H     1 <1>   0.1500 
 23 H       -3.2500     0.3560     2.3830 H     1 <1>   0.1500 
 24 H       -0.3010    -2.7540     1.4410 H     1 <1>   0.0800 
 25 H        0.2100    -2.4810    -0.2040 H     1 <1>   0.0800 
 26 H       -2.6920    -2.3940     2.1030 H     1 <1>   0.0800 
 27 H       -3.8540    -1.8710     0.9120 H     1 <1>   0.0800 
 28 H       -1.4360    -1.7230    -1.9360 H     1 <1>   0.0800 
 29 H       -3.1050    -1.4710    -1.4970 H     1 <1>   0.0800 
 30 H       -3.8420     2.6470    -1.9260 H     1 <1>   0.1500 
 31 H       -5.0640     1.9820     2.0970 H     1 <1>   0.1500 
 32 H       -0.1650    -4.8300     0.2140 H     1 <1>   0.4500 
 33 H       -5.3670     3.1240    -0.0580 H     1 <1>   0.1500 
 34 H       -2.3310    -5.7300     0.6680 H     1 <1>   0.0800 
 35 H       -1.7980    -4.6650     1.9570 H     1 <1>   0.0800 
 36 H       -1.6250    -5.3530    -1.6040 H     1 <1>   0.0800 
 37 H       -0.5680    -4.0080    -1.9980 H     1 <1>   0.0800 
 38 H       -4.5050    -3.3260    -0.8860 H     1 <1>   0.0800 
 39 H       -3.8940    -4.9620    -0.9680 H     1 <1>   0.0800 
@<TRIPOS>BOND
  1   1   2  1   
  2   1   3  2   
  3   2  20  1   
  4   2  21  1   
  5   3   4  1   
  6   3   5  1   
  7   4   6  ar  
  8   4   7  ar  
  9   5   8  1   
 10   5   9  1   
 11   5  10  1   
 12   6  11  ar  
 13   6  22  1   
 14   7  12  ar  
 15   7  23  1   
 16   8  13  1   
 17   8  24  1   
 18   8  25  1   
 19   9  14  1   
 20   9  26  1   
 21   9  27  1   
 22  10  15  1   
 23  10  28  1   
 24  10  29  1   
 25  11  16  ar  
 26  11  30  1   
 27  12  16  ar  
 28  12  31  1   
 29  13  17  1   
 30  13  18  1   
 31  13  32  1   
 32  14  17  1   
 33  14  19  1   
 34  15  18  1   
 35  15  19  1   
 36  16  33  1   
 37  17  34  1   
 38  17  35  1   
 39  18  36  1   
 40  18  37  1   
 41  19  38  1   
 42  19  39  1   
@<TRIPOS>SUBSTRUCTURE
  1 ****   5 GROUP 4 **** **** 0

# MOE 2024.06 (io_trps.svl 2023.06)
