@<TRIPOS>MOLECULE
NONAME
38 39 1 0 0 
SMALL
USER_CHARGES


@<TRIPOS>ATOM
  1 O       -0.5900    -0.2980     0.8650 O.2   1 <1>  -0.5700 
  2 C       -1.6950    -0.1000     0.4180 C.2   1 <1>   0.6900 
  3 N       -2.6330    -1.0740     0.5020 N.am  1 <1>  -0.5470 
  4 N       -1.9590     1.0620    -0.1920 N.am  1 <1>  -0.8000 
  5 C       -3.9930    -1.0600     0.1950 C.ar  1 <1>   0.1170 
  6 C       -4.5680    -2.1480    -0.4480 C.ar  1 <1>  -0.1500 
  7 C       -4.8100     0.0150     0.5260 C.ar  1 <1>  -0.1500 
  8 C       -5.9140    -2.1530    -0.7600 C.ar  1 <1>  -0.1500 
  9 C       -6.1550     0.0070     0.2110 C.ar  1 <1>  -0.1500 
 10 C       -6.7480    -1.0800    -0.4390 C.ar  1 <1>   0.0860 
 11 C       -8.1600    -1.1060    -0.7710 C.2   1 <1>   0.5440 
 12 O       -8.5630    -1.7660    -1.7090 O.2   1 <1>  -0.5700 
 13 N       -9.0650    -0.3990    -0.0280 N.am  1 <1>  -0.7300 
 14 C      -10.5150    -0.3310    -0.2790 C.3   1 <1>   0.2200 
 15 C      -10.9290     1.1410    -0.3740 C.3   1 <1>  -0.1600 
 16 C      -11.2490    -1.0440     0.8610 C.3   1 <1>  -0.1600 
 17 C      -12.4510     1.2800    -0.5270 C.3   1 <1>  -0.1600 
 18 C      -12.7710    -0.9090     0.7110 C.3   1 <1>  -0.1600 
 19 C      -13.1910     0.5640     0.6120 C.3   1 <1>  -0.1600 
 20 H       -2.2320    -1.9510     0.8280 H     1 <1>   0.3700 
 21 H       -1.1940     1.7170    -0.3420 H     1 <1>   0.3700 
 22 H       -2.7880     1.1680    -0.7720 H     1 <1>   0.3700 
 23 H       -3.9560    -2.9920    -0.7120 H     1 <1>   0.1500 
 24 H       -4.3860     0.8600     1.0410 H     1 <1>   0.1500 
 25 H       -6.3410    -3.0030    -1.2660 H     1 <1>   0.1500 
 26 H       -6.7560     0.8610     0.4680 H     1 <1>   0.1500 
 27 H       -8.7620     0.0490     0.8340 H     1 <1>   0.3700 
 28 H      -10.7500    -0.8220    -1.2100 H     1 <1>   0.0800 
 29 H      -10.4450     1.5900    -1.2230 H     1 <1>   0.0800 
 30 H      -10.6190     1.6620     0.5140 H     1 <1>   0.0800 
 31 H      -10.9520    -0.6200     1.8040 H     1 <1>   0.0800 
 32 H      -10.9830    -2.0860     0.8540 H     1 <1>   0.0800 
 33 H      -12.7540     0.8550    -1.4690 H     1 <1>   0.0800 
 34 H      -12.7210     2.3220    -0.5340 H     1 <1>   0.0800 
 35 H      -13.2600    -1.3690     1.5530 H     1 <1>   0.0800 
 36 H      -13.0870    -1.4290    -0.1780 H     1 <1>   0.0800 
 37 H      -14.2530     0.6250     0.4460 H     1 <1>   0.0800 
 38 H      -12.9760     1.0590     1.5440 H     1 <1>   0.0800 
@<TRIPOS>BOND
  1   1   2  2   
  2   2   3  am  
  3   2   4  am  
  4   3   5  1   
  5   3  20  1   
  6   4  21  1   
  7   4  22  1   
  8   5   6  ar  
  9   5   7  ar  
 10   6   8  ar  
 11   6  23  1   
 12   7   9  ar  
 13   7  24  1   
 14   8  10  ar  
 15   8  25  1   
 16   9  10  ar  
 17   9  26  1   
 18  10  11  1   
 19  11  12  2   
 20  11  13  am  
 21  13  14  1   
 22  13  27  1   
 23  14  15  1   
 24  14  16  1   
 25  14  28  1   
 26  15  17  1   
 27  15  29  1   
 28  15  30  1   
 29  16  18  1   
 30  16  31  1   
 31  16  32  1   
 32  17  19  1   
 33  17  33  1   
 34  17  34  1   
 35  18  19  1   
 36  18  35  1   
 37  18  36  1   
 38  19  37  1   
 39  19  38  1   
@<TRIPOS>SUBSTRUCTURE
  1 ****  10 GROUP 4 **** **** 0

# MOE 2024.06 (io_trps.svl 2023.06)
