@<TRIPOS>MOLECULE
Structure678
28 29 1 0 0 
SMALL
USER_CHARGES


@<TRIPOS>ATOM
  1 CL      -0.0310    -0.4210     1.7140 Cl    1 <1>  -0.1770 
  2 C        0.9160    -1.6300     0.8980 C.ar  1 <1>   0.4870 
  3 N        0.2580    -2.5840     0.2780 N.ar  1 <1>  -0.6200 
  4 C        2.2770    -1.5410     0.9340 C.ar  1 <1>  -0.1500 
  5 C        1.0360    -3.4680    -0.3140 C.ar  1 <1>   0.4700 
  6 C        2.9820    -2.5220     0.2710 C.ar  1 <1>   0.4100 
  7 N        2.3560    -3.4980    -0.3560 N.ar  1 <1>  -0.6200 
  8 N        4.3610    -2.5210     0.2310 N.pl3 1 <1>  -0.8380 
  9 C        5.0560    -1.3510    -0.3880 C.3   1 <1>   0.2090 
 10 C        5.0660    -3.8340     0.0620 C.3   1 <1>   0.2090 
 11 C        6.5510    -1.3020     0.0030 C.3   1 <1>   0.3430 
 12 C        6.5550    -3.7400     0.4500 C.3   1 <1>   0.3430 
 13 N        7.2640    -2.6070    -0.2530 N.4   1 <1>  -0.9590 
 14 C        8.7000    -2.5320     0.1570 C.3   1 <1>   0.2630 
 15 H        2.7680    -0.7510     1.4610 H     1 <1>   0.1500 
 16 H        0.5280    -4.2670    -0.8310 H     1 <1>   0.1500 
 17 H        4.5820    -0.4370    -0.0750 H     1 <1>   0.0800 
 18 H        4.9650    -1.4150    -1.4590 H     1 <1>   0.0800 
 19 H        4.9750    -4.1580    -0.9610 H     1 <1>   0.0800 
 20 H        4.5880    -4.5760     0.6800 H     1 <1>   0.0800 
 21 H        6.6140    -1.0580     1.0500 H     1 <1>   0.0800 
 22 H        7.0290    -0.5090    -0.5480 H     1 <1>   0.0800 
 23 H        7.0360    -4.6750     0.2170 H     1 <1>   0.0800 
 24 H        6.6140    -3.5960     1.5160 H     1 <1>   0.0800 
 25 H        7.2130    -2.7960    -1.2640 H     1 <1>   0.4500 
 26 H        8.7790    -2.3380     1.2140 H     1 <1>   0.0800 
 27 H        9.2020    -1.7410    -0.3770 H     1 <1>   0.0800 
 28 H        9.2010    -3.4610    -0.0610 H     1 <1>   0.0800 
@<TRIPOS>BOND
  1   1   2  1   
  2   2   3  ar  
  3   2   4  ar  
  4   3   5  ar  
  5   4   6  ar  
  6   4  15  1   
  7   5   7  ar  
  8   5  16  1   
  9   6   7  ar  
 10   6   8  1   
 11   8   9  1   
 12   8  10  1   
 13   9  11  1   
 14   9  17  1   
 15   9  18  1   
 16  10  12  1   
 17  10  19  1   
 18  10  20  1   
 19  11  13  1   
 20  11  21  1   
 21  11  22  1   
 22  12  13  1   
 23  12  23  1   
 24  12  24  1   
 25  13  14  1   
 26  13  25  1   
 27  14  26  1   
 28  14  27  1   
 29  14  28  1   
@<TRIPOS>SUBSTRUCTURE
  1 ****   8 GROUP 4 **** **** 0

# MOE 2024.06 (io_trps.svl 2023.06)
