@<TRIPOS>MOLECULE
NONAME
46 48 1 0 0 
SMALL
USER_CHARGES


@<TRIPOS>ATOM
  1 F       -1.0060     2.7100    -1.8710 F     1 <1>  -0.1900 
  2 C       -0.8020     2.7080    -0.5750 C.ar  1 <1>   0.1900 
  3 C       -1.8610     2.3720     0.2690 C.ar  1 <1>   0.1170 
  4 C        0.4580     3.0390    -0.1190 C.ar  1 <1>  -0.1500 
  5 N       -3.1150     2.0480    -0.2900 N.am  1 <1>  -0.5470 
  6 C       -1.5950     2.3850     1.6370 C.ar  1 <1>  -0.1500 
  7 C        0.6910     3.0420     1.2460 C.ar  1 <1>  -0.1500 
  8 C       -4.3000     1.6440     0.2620 C.2   1 <1>   0.5690 
  9 C       -0.3370     2.7150     2.1170 C.ar  1 <1>  -0.1500 
 10 O       -4.4640     1.4830     1.4460 O.2   1 <1>  -0.5700 
 11 C       -5.4640     1.3750    -0.6930 C.3   1 <1>  -0.0190 
 12 C       -6.7730     2.0250    -0.2040 C.3   1 <1>  -0.1600 
 13 C       -5.6670    -0.1370    -0.8970 C.3   1 <1>  -0.1600 
 14 C       -7.9470     1.7120    -1.1360 C.3   1 <1>   0.1400 
 15 C       -6.8420    -0.4290    -1.8340 C.3   1 <1>   0.1400 
 16 N       -8.0670     0.2380    -1.3160 N.am  1 <1>  -0.6600 
 17 C       -9.2070    -0.4770    -1.0030 C.2   1 <1>   0.5440 
 18 O       -9.2470    -1.6700    -1.2420 O.2   1 <1>  -0.5700 
 19 C      -10.3590     0.1640    -0.4000 C.ar  1 <1>   0.0860 
 20 C      -10.5220     0.2500     0.9880 C.ar  1 <1>  -0.1430 
 21 C      -11.3380     0.7320    -1.2140 C.ar  1 <1>  -0.1500 
 22 C      -11.6220     0.9010     1.5230 C.ar  1 <1>  -0.1500 
 23 C       -9.4950    -0.3780     1.9210 C.3   1 <1>  -0.0970 
 24 C      -12.4350     1.3800    -0.6770 C.ar  1 <1>  -0.1500 
 25 C      -12.5750     1.4670     0.6950 C.ar  1 <1>  -0.1500 
 26 H        1.2390     3.2900    -0.8150 H     1 <1>   0.1500 
 27 H       -3.1160     2.1170    -1.3080 H     1 <1>   0.3700 
 28 H       -2.3650     2.1390     2.3430 H     1 <1>   0.1500 
 29 H        1.6640     3.2970     1.6300 H     1 <1>   0.1500 
 30 H       -0.1580     2.7170     3.1790 H     1 <1>   0.1500 
 31 H       -5.2230     1.8090    -1.6470 H     1 <1>   0.0800 
 32 H       -6.6460     3.0910    -0.1390 H     1 <1>   0.0800 
 33 H       -7.0120     1.6690     0.7820 H     1 <1>   0.0800 
 34 H       -5.8580    -0.6100     0.0520 H     1 <1>   0.0800 
 35 H       -4.7730    -0.5760    -1.3040 H     1 <1>   0.0800 
 36 H       -7.7810     2.1660    -2.0980 H     1 <1>   0.0800 
 37 H       -8.8490     2.1300    -0.7250 H     1 <1>   0.0800 
 38 H       -6.9850    -1.4940    -1.9050 H     1 <1>   0.0800 
 39 H       -6.6320    -0.0570    -2.8220 H     1 <1>   0.0800 
 40 H      -11.2290     0.6590    -2.2810 H     1 <1>   0.1500 
 41 H      -11.7460     0.9700     2.5890 H     1 <1>   0.1500 
 42 H       -8.5300     0.0680     1.7690 H     1 <1>   0.0800 
 43 H       -9.4200    -1.4330     1.7230 H     1 <1>   0.0800 
 44 H       -9.7720    -0.2460     2.9510 H     1 <1>   0.0800 
 45 H      -13.1780     1.8120    -1.3240 H     1 <1>   0.1500 
 46 H      -13.4270     1.9700     1.1200 H     1 <1>   0.1500 
@<TRIPOS>BOND
  1   1   2  1   
  2   2   3  ar  
  3   2   4  ar  
  4   3   5  1   
  5   3   6  ar  
  6   4   7  ar  
  7   4  26  1   
  8   5   8  am  
  9   5  27  1   
 10   6   9  ar  
 11   6  28  1   
 12   7   9  ar  
 13   7  29  1   
 14   8  10  2   
 15   8  11  1   
 16   9  30  1   
 17  11  12  1   
 18  11  13  1   
 19  11  31  1   
 20  12  14  1   
 21  12  32  1   
 22  12  33  1   
 23  13  15  1   
 24  13  34  1   
 25  13  35  1   
 26  14  16  1   
 27  14  36  1   
 28  14  37  1   
 29  15  16  1   
 30  15  38  1   
 31  15  39  1   
 32  16  17  am  
 33  17  18  2   
 34  17  19  1   
 35  19  20  ar  
 36  19  21  ar  
 37  20  22  ar  
 38  20  23  1   
 39  21  24  ar  
 40  21  40  1   
 41  22  25  ar  
 42  22  41  1   
 43  23  42  1   
 44  23  43  1   
 45  23  44  1   
 46  24  25  ar  
 47  24  45  1   
 48  25  46  1   
@<TRIPOS>SUBSTRUCTURE
  1 ****  11 GROUP 4 **** **** 0

# MOE 2024.06 (io_trps.svl 2023.06)
