@<TRIPOS>MOLECULE
NONAME
62 66 1 0 0 
SMALL
USER_CHARGES


@<TRIPOS>ATOM
  1 O       -2.3410    -1.2520    -2.6370 O.2   1 <1>  -0.5700 
  2 C       -2.5530    -1.4750    -1.4680 C.2   1 <1>   0.5690 
  3 N       -2.0460    -2.5990    -0.8580 N.am  1 <1>  -0.6600 
  4 C       -3.4270    -0.4660    -0.7300 C.3   1 <1>  -0.0990 
  5 C       -2.2430    -3.0240     0.5630 C.3   1 <1>   0.1400 
  6 C       -1.2210    -3.5840    -1.6260 C.3   1 <1>   0.1400 
  7 C       -2.6780     0.7430    -0.1180 C.3   1 <1>   0.0000 
  8 C       -2.7370    -4.4790     0.6290 C.3   1 <1>   0.1200 
  9 C       -1.7650    -5.0100    -1.4390 C.3   1 <1>   0.1200 
 10 C       -2.0070     1.5940    -1.2220 C.3   1 <1>  -0.1600 
 11 C       -3.6970     1.6360     0.6250 C.3   1 <1>  -0.1600 
 12 C       -1.5910     0.3040     0.8890 C.3   1 <1>  -0.1600 
 13 O       -1.8770    -5.3240    -0.0790 O.3   1 <1>  -0.5600 
 14 C       -1.2960     2.8380    -0.6400 C.3   1 <1>   0.0000 
 15 C       -3.0040     2.8650     1.2390 C.3   1 <1>  -0.0800 
 16 C       -0.8870     1.5300     1.4990 C.3   1 <1>  -0.0800 
 17 C       -2.3430     3.6860     0.1190 C.3   1 <1>  -0.1600 
 18 C       -0.2340     2.3530     0.3730 C.3   1 <1>  -0.1600 
 19 C       -0.6710     3.6460    -1.8050 C.3   1 <1>  -0.0990 
 20 C       -1.9230     2.4000     2.2290 C.3   1 <1>  -0.1600 
 21 C        0.1140     4.8870    -1.3940 C.2   1 <1>   0.5690 
 22 O       -0.5180     5.9080    -1.2510 O.2   1 <1>  -0.5700 
 23 N        1.4780     4.8690    -1.2170 N.am  1 <1>  -0.6600 
 24 C        2.2100     6.0970    -0.7800 C.3   1 <1>   0.1400 
 25 C        2.3960     3.7090    -1.4310 C.3   1 <1>   0.1400 
 26 C        3.1510     5.7800     0.3930 C.3   1 <1>   0.1200 
 27 C        3.3290     3.5240    -0.2210 C.3   1 <1>   0.1200 
 28 O        4.0010     4.7150     0.0730 O.3   1 <1>  -0.5600 
 29 H       -4.0060    -0.9620     0.0220 H     1 <1>   0.0800 
 30 H       -4.1380    -0.0930    -1.4440 H     1 <1>   0.0800 
 31 H       -2.9460    -2.3950     1.0720 H     1 <1>   0.0800 
 32 H       -1.3040    -2.9520     1.0830 H     1 <1>   0.0800 
 33 H       -0.2050    -3.5440    -1.2760 H     1 <1>   0.0800 
 34 H       -1.2180    -3.3470    -2.6750 H     1 <1>   0.0800 
 35 H       -3.7260    -4.5640     0.2110 H     1 <1>   0.0800 
 36 H       -2.7620    -4.8170     1.6490 H     1 <1>   0.0800 
 37 H       -1.0970    -5.7230    -1.8870 H     1 <1>   0.0800 
 38 H       -2.7340    -5.1070    -1.8980 H     1 <1>   0.0800 
 39 H       -1.2880     0.9950    -1.7520 H     1 <1>   0.0800 
 40 H       -2.7510     1.9050    -1.9350 H     1 <1>   0.0800 
 41 H       -4.1790     1.0750     1.4070 H     1 <1>   0.0800 
 42 H       -4.4620     1.9660    -0.0570 H     1 <1>   0.0800 
 43 H       -0.8570    -0.3110     0.3980 H     1 <1>   0.0800 
 44 H       -2.0340    -0.2750     1.6790 H     1 <1>   0.0800 
 45 H       -3.7290     3.4740     1.7520 H     1 <1>   0.0800 
 46 H       -0.1320     1.2060     2.1950 H     1 <1>   0.0800 
 47 H       -3.0970     4.0360    -0.5650 H     1 <1>   0.0800 
 48 H       -1.8760     4.5530     0.5520 H     1 <1>   0.0800 
 49 H        0.2730     3.1960     0.8070 H     1 <1>   0.0800 
 50 H        0.4970     1.7420    -0.1250 H     1 <1>   0.0800 
 51 H       -1.4670     3.9800    -2.4460 H     1 <1>   0.0800 
 52 H       -0.0590     3.0090    -2.4110 H     1 <1>   0.0800 
 53 H       -1.4390     3.2550     2.6660 H     1 <1>   0.0800 
 54 H       -2.3770     1.8380     3.0270 H     1 <1>   0.0800 
 55 H        1.5220     6.8660    -0.4770 H     1 <1>   0.0800 
 56 H        2.7870     6.4780    -1.6050 H     1 <1>   0.0800 
 57 H        2.9940     3.8920    -2.3060 H     1 <1>   0.0800 
 58 H        1.8540     2.7980    -1.5890 H     1 <1>   0.0800 
 59 H        2.5840     5.5200     1.2700 H     1 <1>   0.0800 
 60 H        3.7640     6.6340     0.6180 H     1 <1>   0.0800 
 61 H        4.0700     2.7750    -0.4360 H     1 <1>   0.0800 
 62 H        2.7710     3.2200     0.6470 H     1 <1>   0.0800 
@<TRIPOS>BOND
  1   1   2  2   
  2   2   3  am  
  3   2   4  1   
  4   3   5  1   
  5   3   6  1   
  6   4   7  1   
  7   4  29  1   
  8   4  30  1   
  9   5   8  1   
 10   5  31  1   
 11   5  32  1   
 12   6   9  1   
 13   6  33  1   
 14   6  34  1   
 15   7  10  1   
 16   7  11  1   
 17   7  12  1   
 18   8  13  1   
 19   8  35  1   
 20   8  36  1   
 21   9  13  1   
 22   9  37  1   
 23   9  38  1   
 24  10  14  1   
 25  10  39  1   
 26  10  40  1   
 27  11  15  1   
 28  11  41  1   
 29  11  42  1   
 30  12  16  1   
 31  12  43  1   
 32  12  44  1   
 33  14  17  1   
 34  14  18  1   
 35  14  19  1   
 36  15  17  1   
 37  15  20  1   
 38  15  45  1   
 39  16  18  1   
 40  16  20  1   
 41  16  46  1   
 42  17  47  1   
 43  17  48  1   
 44  18  49  1   
 45  18  50  1   
 46  19  21  1   
 47  19  51  1   
 48  19  52  1   
 49  20  53  1   
 50  20  54  1   
 51  21  22  2   
 52  21  23  am  
 53  23  24  1   
 54  23  25  1   
 55  24  26  1   
 56  24  55  1   
 57  24  56  1   
 58  25  27  1   
 59  25  57  1   
 60  25  58  1   
 61  26  28  1   
 62  26  59  1   
 63  26  60  1   
 64  27  28  1   
 65  27  61  1   
 66  27  62  1   
@<TRIPOS>SUBSTRUCTURE
  1 ****  18 GROUP 4 **** **** 0

# MOE 2024.06 (io_trps.svl 2023.06)
