@<TRIPOS>MOLECULE
NONAME
37 38 1 0 0 
SMALL
USER_CHARGES


@<TRIPOS>ATOM
  1 S       -0.0090     0.1530    -0.9150 S.3   1 <1>  -0.3710 
  2 C       -1.4950     1.0560    -0.5600 C.2   1 <1>   0.6510 
  3 C        1.0960     0.6940     0.4610 C.3   1 <1>   0.2140 
  4 N       -1.5330     1.8240     0.4560 N.2   1 <1>  -0.6210 
  5 N       -2.5030     0.8440    -1.4320 N.am  1 <1>  -0.4900 
  6 C        2.4380    -0.0030     0.2950 C.ar  1 <1>  -0.1430 
  7 C       -2.7050     2.4970     0.6850 C.2   1 <1>   0.0210 
  8 C       -3.6880     1.4860    -1.2530 C.2   1 <1>   0.6160 
  9 C        2.6680    -1.2300     0.8970 C.ar  1 <1>  -0.1500 
 10 C        3.4410     0.5820    -0.4620 C.ar  1 <1>  -0.1500 
 11 O       -2.7030     3.2290     1.6800 O.3   1 <1>  -0.8500 
 12 C       -3.8090     2.3480    -0.1610 C.2   1 <1>  -0.1240 
 13 O       -4.5550     1.2260    -2.1030 O.2   1 <1>  -0.5700 
 14 C        3.8900    -1.8640     0.7490 C.ar  1 <1>  -0.1500 
 15 C        4.6630    -0.0500    -0.6120 C.ar  1 <1>  -0.1500 
 16 C       -5.1050     3.1180     0.1270 C.3   1 <1>   0.0580 
 17 C        4.8890    -1.2730    -0.0060 C.ar  1 <1>  -0.1500 
 18 C       -6.2580     2.1470     0.4510 C.3   1 <1>  -0.1600 
 19 C       -5.4380     4.0800    -1.0230 C.3   1 <1>  -0.2400 
 20 C       -7.5260     2.8470     0.9600 C.3   1 <1>  -0.2400 
 21 H        0.6130     0.4280     1.3850 H     1 <1>   0.0800 
 22 H        1.1860     1.7650     0.3990 H     1 <1>   0.0800 
 23 H       -2.4050     0.2200    -2.2180 H     1 <1>   0.3700 
 24 H        1.8930    -1.6940     1.4820 H     1 <1>   0.1500 
 25 H        3.2680     1.5320    -0.9390 H     1 <1>   0.1500 
 26 H        4.0620    -2.8160     1.2190 H     1 <1>   0.1500 
 27 H        5.4370     0.4100    -1.2010 H     1 <1>   0.1500 
 28 H       -4.9440     3.7230     1.0030 H     1 <1>   0.0800 
 29 H        5.8380    -1.7660    -0.1230 H     1 <1>   0.1500 
 30 H       -5.9120     1.4700     1.2130 H     1 <1>   0.0800 
 31 H       -6.5000     1.5640    -0.4190 H     1 <1>   0.0800 
 32 H       -5.7310     3.5390    -1.9040 H     1 <1>   0.0800 
 33 H       -4.5690     4.6710    -1.2520 H     1 <1>   0.0800 
 34 H       -6.2310     4.7460    -0.7400 H     1 <1>   0.0800 
 35 H       -7.2920     3.4610     1.8120 H     1 <1>   0.0800 
 36 H       -8.2530     2.1120     1.2550 H     1 <1>   0.0800 
 37 H       -7.9570     3.4630     0.1920 H     1 <1>   0.0800 
@<TRIPOS>BOND
  1   1   2  1   
  2   1   3  1   
  3   2   4  2   
  4   2   5  1   
  5   3   6  1   
  6   3  21  1   
  7   3  22  1   
  8   4   7  1   
  9   5   8  am  
 10   5  23  1   
 11   6   9  ar  
 12   6  10  ar  
 13   7  11  1   
 14   7  12  2   
 15   8  12  1   
 16   8  13  2   
 17   9  14  ar  
 18   9  24  1   
 19  10  15  ar  
 20  10  25  1   
 21  12  16  1   
 22  14  17  ar  
 23  14  26  1   
 24  15  17  ar  
 25  15  27  1   
 26  16  18  1   
 27  16  19  1   
 28  16  28  1   
 29  17  29  1   
 30  18  20  1   
 31  18  30  1   
 32  18  31  1   
 33  19  32  1   
 34  19  33  1   
 35  19  34  1   
 36  20  35  1   
 37  20  36  1   
 38  20  37  1   
@<TRIPOS>SUBSTRUCTURE
  1 ****   2 GROUP 4 **** **** 0

# MOE 2024.06 (io_trps.svl 2023.06)
