@<TRIPOS>MOLECULE
NONAME
47 49 1 0 0 
SMALL
USER_CHARGES


@<TRIPOS>ATOM
  1 O       -0.3730    -1.2150    -1.3860 O.3   1 <1>  -0.3630 
  2 C       -1.3610    -1.3220    -0.4410 C.ar  1 <1>   0.0830 
  3 C       -0.4570    -0.2620    -2.4240 C.3   1 <1>   0.0400 
  4 C       -1.1950    -2.2590     0.5970 C.ar  1 <1>   0.1000 
  5 C       -2.5110    -0.5390    -0.4810 C.ar  1 <1>  -0.1500 
  6 N       -0.0770    -3.0950     0.7270 N.pl3 1 <1>  -0.8380 
  7 C       -2.1890    -2.3740     1.5580 C.ar  1 <1>  -0.1500 
  8 C       -3.4890    -0.6730     0.4910 C.ar  1 <1>  -0.1500 
  9 C        1.1950    -2.3760     1.0390 C.3   1 <1>   0.2090 
 10 C        0.0540    -4.1180    -0.3520 C.3   1 <1>   0.2090 
 11 C       -3.3270    -1.5910     1.5110 C.ar  1 <1>  -0.1500 
 12 C        2.3370    -3.3690     1.3290 C.3   1 <1>   0.3430 
 13 C        1.2040    -5.0990    -0.0500 C.3   1 <1>   0.3430 
 14 N        2.5040    -4.3910     0.2280 N.4   1 <1>  -0.9590 
 15 C        3.6110    -5.3380     0.5180 C.3   1 <1>   0.4860 
 16 C        4.9020    -4.5490     0.6000 C.ar  1 <1>  -0.1430 
 17 C        5.4900    -4.0470    -0.5530 C.ar  1 <1>  -0.1500 
 18 C        5.4980    -4.3120     1.8300 C.ar  1 <1>  -0.1500 
 19 C        6.6550    -3.3030    -0.4810 C.ar  1 <1>  -0.1430 
 20 C        6.6610    -3.5680     1.9050 C.ar  1 <1>  -0.1500 
 21 C        7.2350    -3.0630     0.7530 C.ar  1 <1>  -0.1500 
 22 C        7.3000    -2.7520    -1.7410 C.3   1 <1>  -0.0970 
 23 H        0.4290    -0.3430    -3.0280 H     1 <1>   0.0800 
 24 H       -0.5140     0.7220    -1.9930 H     1 <1>   0.0800 
 25 H       -1.3260    -0.4720    -3.0230 H     1 <1>   0.0800 
 26 H       -2.6750     0.1840    -1.2560 H     1 <1>   0.1500 
 27 H       -2.0640    -3.0870     2.3520 H     1 <1>   0.1500 
 28 H       -4.3750    -0.0630     0.4520 H     1 <1>   0.1500 
 29 H        1.0410    -1.7480     1.9000 H     1 <1>   0.0800 
 30 H        1.4710    -1.7410     0.2160 H     1 <1>   0.0800 
 31 H        0.2310    -3.6350    -1.2970 H     1 <1>   0.0800 
 32 H       -0.8710    -4.6630    -0.4310 H     1 <1>   0.0800 
 33 H       -4.0860    -1.6960     2.2670 H     1 <1>   0.1500 
 34 H        2.1160    -3.8700     2.2570 H     1 <1>   0.0800 
 35 H        3.2520    -2.8160     1.4600 H     1 <1>   0.0800 
 36 H        1.3190    -5.7690    -0.8860 H     1 <1>   0.0800 
 37 H        0.9210    -5.6850     0.8090 H     1 <1>   0.0800 
 38 H        2.7710    -3.8630    -0.6110 H     1 <1>   0.4500 
 39 H        3.6920    -6.0710    -0.2680 H     1 <1>   0.0800 
 40 H        3.4320    -5.8500     1.4490 H     1 <1>   0.0800 
 41 H        5.0510    -4.2320    -1.5190 H     1 <1>   0.1500 
 42 H        5.0720    -4.7000     2.7400 H     1 <1>   0.1500 
 43 H        7.1270    -3.3820     2.8580 H     1 <1>   0.1500 
 44 H        8.1410    -2.4840     0.8210 H     1 <1>   0.1500 
 45 H        7.0540    -3.3580    -2.5940 H     1 <1>   0.0800 
 46 H        8.3710    -2.7380    -1.6370 H     1 <1>   0.0800 
 47 H        6.9600    -1.7470    -1.9180 H     1 <1>   0.0800 
@<TRIPOS>BOND
  1   1   2  1   
  2   1   3  1   
  3   2   4  ar  
  4   2   5  ar  
  5   3  23  1   
  6   3  24  1   
  7   3  25  1   
  8   4   6  1   
  9   4   7  ar  
 10   5   8  ar  
 11   5  26  1   
 12   6   9  1   
 13   6  10  1   
 14   7  11  ar  
 15   7  27  1   
 16   8  11  ar  
 17   8  28  1   
 18   9  12  1   
 19   9  29  1   
 20   9  30  1   
 21  10  13  1   
 22  10  31  1   
 23  10  32  1   
 24  11  33  1   
 25  12  14  1   
 26  12  34  1   
 27  12  35  1   
 28  13  14  1   
 29  13  36  1   
 30  13  37  1   
 31  14  15  1   
 32  14  38  1   
 33  15  16  1   
 34  15  39  1   
 35  15  40  1   
 36  16  17  ar  
 37  16  18  ar  
 38  17  19  ar  
 39  17  41  1   
 40  18  20  ar  
 41  18  42  1   
 42  19  21  ar  
 43  19  22  1   
 44  20  21  ar  
 45  20  43  1   
 46  21  44  1   
 47  22  45  1   
 48  22  46  1   
 49  22  47  1   
@<TRIPOS>SUBSTRUCTURE
  1 ****   9 GROUP 4 **** **** 0

# MOE 2024.06 (io_trps.svl 2023.06)
