@<TRIPOS>MOLECULE
NONAME
36 37 1 0 0 
SMALL
USER_CHARGES


@<TRIPOS>ATOM
  1 O       -5.7770     7.9840     0.1840 O.2   1 <1>  -0.5770 
  2 C       -5.0070     7.1130    -0.1210 C.2   1 <1>   0.6530 
  3 O       -3.9000     6.8630     0.5790 O.3   1 <1>  -0.4380 
  4 C       -5.2400     6.2220    -1.3450 C.3   1 <1>   0.4070 
  5 C       -3.5550     7.6420     1.7110 C.3   1 <1>   0.0290 
  6 N       -5.7230     4.8320    -1.0360 N.pl3 1 <1>  -0.7690 
  7 C       -5.1270     3.8890    -0.3060 C.cat 1 <1>   1.0680 
  8 C       -6.8890     4.2760    -1.5510 C.ar  1 <1>   0.3000 
  9 N       -4.0000     4.0480     0.3460 N.pl3 1 <1>  -0.8410 
 10 N       -5.8190     2.7540    -0.3220 N.pl3 1 <1>  -0.7690 
 11 C       -6.9430     2.9660    -1.1090 C.ar  1 <1>   0.3000 
 12 C       -7.8980     4.7910    -2.3600 C.ar  1 <1>  -0.1200 
 13 C       -5.5200     1.4780     0.3620 C.3   1 <1>   0.3450 
 14 C       -7.9970     2.1340    -1.4720 C.ar  1 <1>  -0.1200 
 15 C       -8.9470     3.9660    -2.7190 C.ar  1 <1>  -0.1600 
 16 C       -4.7100     0.5790    -0.5740 C.3   1 <1>  -0.1700 
 17 C       -8.9960     2.6430    -2.2780 C.ar  1 <1>  -0.1600 
 18 C       -4.3470    -0.7500     0.0980 C.3   1 <1>  -0.2500 
 19 H       -4.3200     6.1560    -1.8970 H     1 <1>   0.0690 
 20 H       -5.9560     6.7180    -1.9750 H     1 <1>   0.0690 
 21 H       -2.6250     7.2800     2.1120 H     1 <1>   0.0690 
 22 H       -3.4480     8.6700     1.4090 H     1 <1>   0.0690 
 23 H       -4.3350     7.5560     2.4480 H     1 <1>   0.0690 
 24 H       -3.5620     3.2910     0.8620 H     1 <1>   0.4420 
 25 H       -3.5590     4.9650     0.4500 H     1 <1>   0.4420 
 26 H       -7.8700     5.8090    -2.7010 H     1 <1>   0.1400 
 27 H       -6.4390     0.9900     0.6370 H     1 <1>   0.0690 
 28 H       -4.9640     1.6650     1.2650 H     1 <1>   0.0690 
 29 H       -8.0320     1.1150    -1.1320 H     1 <1>   0.1400 
 30 H       -9.7410     4.3410    -3.3450 H     1 <1>   0.1400 
 31 H       -3.8030     1.0780    -0.8660 H     1 <1>   0.0690 
 32 H       -5.2860     0.3720    -1.4600 H     1 <1>   0.0690 
 33 H       -9.8240     2.0190    -2.5730 H     1 <1>   0.1400 
 34 H       -3.7480    -0.5850     0.9780 H     1 <1>   0.0690 
 35 H       -3.7820    -1.3630    -0.5830 H     1 <1>   0.0690 
 36 H       -5.2340    -1.2900     0.3790 H     1 <1>   0.0690 
@<TRIPOS>BOND
  1   1   2  2   
  2   2   3  1   
  3   2   4  1   
  4   3   5  1   
  5   4   6  1   
  6   4  19  1   
  7   4  20  1   
  8   5  21  1   
  9   5  22  1   
 10   5  23  1   
 11   6   7  ar  
 12   6   8  1   
 13   7   9  ar  
 14   7  10  ar  
 15   8  11  ar  
 16   8  12  ar  
 17   9  24  1   
 18   9  25  1   
 19  10  11  1   
 20  10  13  1   
 21  11  14  ar  
 22  12  15  ar  
 23  12  26  1   
 24  13  16  1   
 25  13  27  1   
 26  13  28  1   
 27  14  17  ar  
 28  14  29  1   
 29  15  17  ar  
 30  15  30  1   
 31  16  18  1   
 32  16  31  1   
 33  16  32  1   
 34  17  33  1   
 35  18  34  1   
 36  18  35  1   
 37  18  36  1   
@<TRIPOS>SUBSTRUCTURE
  1 ****   6 GROUP 4 **** **** 0

# MOE 2024.06 (io_trps.svl 2023.06)
