@<TRIPOS>MOLECULE
NONAME
48 51 1 0 0 
SMALL
USER_CHARGES


@<TRIPOS>ATOM
  1 O       -0.7700    -0.2630     0.3220 O.2   1 <1>  -0.5700 
  2 C       -1.8220    -0.8350     0.1540 C.2   1 <1>   0.6900 
  3 N       -3.0440    -0.2210     0.3800 N.am  1 <1>  -0.4360 
  4 N       -1.7940    -2.1310    -0.2740 N.am  1 <1>  -0.4900 
  5 C       -4.1920    -0.9700     0.1610 C.2   1 <1>   0.4260 
  6 C       -3.1330     1.1900     0.8570 C.3   1 <1>   0.0600 
  7 C       -2.9120    -2.8810    -0.4970 C.2   1 <1>   0.7030 
  8 N       -5.4810    -0.5920     0.3100 N.pl3 1 <1>  -0.7000 
  9 C       -4.1850    -2.2600    -0.2590 C.2   1 <1>   0.2770 
 10 O       -2.7910    -4.0250    -0.8860 O.2   1 <1>  -0.5700 
 11 C       -6.2680    -1.6140    -0.0050 C.cat 1 <1>   0.6560 
 12 N       -5.5210    -2.6660    -0.3570 N.pl3 1 <1>  -0.7640 
 13 C       -7.7980    -1.4430     0.0750 C.3   1 <1>   0.2540 
 14 C       -5.8910    -4.0520    -0.7810 C.3   1 <1>   0.4970 
 15 N       -8.1630    -0.0100     0.2480 N.3   1 <1>  -0.8100 
 16 C       -7.2980    -4.4060    -0.3330 C.ar  1 <1>  -0.1440 
 17 C       -9.3380     0.1910     1.1280 C.3   1 <1>   0.1100 
 18 C       -8.3580     0.7120    -1.0260 C.3   1 <1>   0.1100 
 19 C       -7.5580    -4.6660     1.0060 C.ar  1 <1>  -0.1500 
 20 C       -8.3370    -4.4670    -1.2530 C.ar  1 <1>  -0.1500 
 21 C       -9.8650     1.6460     1.1050 C.3   1 <1>   0.1200 
 22 C       -8.6070     2.2230    -0.7940 C.3   1 <1>   0.1200 
 23 C       -8.8430    -4.9640     1.4220 C.ar  1 <1>  -0.1500 
 24 C       -9.6220    -4.7640    -0.8340 C.ar  1 <1>  -0.1500 
 25 O       -8.9290     2.5160     0.5380 O.3   1 <1>  -0.5600 
 26 C       -9.8750    -5.0100     0.5030 C.ar  1 <1>  -0.1500 
 27 H       -0.8800    -2.5510    -0.4330 H     1 <1>   0.3700 
 28 H       -2.1540     1.6290     0.9450 H     1 <1>   0.0800 
 29 H       -3.6080     1.2200     1.8220 H     1 <1>   0.0800 
 30 H       -3.7070     1.7760     0.1600 H     1 <1>   0.0800 
 31 H       -5.8940     0.3040     0.6020 H     1 <1>   0.4500 
 32 H       -8.1470    -2.0050     0.9230 H     1 <1>   0.0800 
 33 H       -8.2670    -1.8360    -0.8080 H     1 <1>   0.0800 
 34 H       -5.2060    -4.7600    -0.3440 H     1 <1>   0.0800 
 35 H       -5.8070    -4.1340    -1.8520 H     1 <1>   0.0800 
 36 H       -9.0660    -0.0590     2.1390 H     1 <1>   0.0800 
 37 H      -10.1390    -0.4680     0.8360 H     1 <1>   0.0800 
 38 H       -9.2050     0.3010    -1.5490 H     1 <1>   0.0800 
 39 H       -7.4970     0.5960    -1.6610 H     1 <1>   0.0800 
 40 H       -6.7650    -4.6410     1.7350 H     1 <1>   0.1500 
 41 H       -8.1610    -4.2870    -2.3010 H     1 <1>   0.1500 
 42 H      -10.0720     1.9840     2.1040 H     1 <1>   0.0800 
 43 H      -10.7740     1.7090     0.5320 H     1 <1>   0.0800 
 44 H       -9.4090     2.5720    -1.4220 H     1 <1>   0.0800 
 45 H       -7.7230     2.7840    -1.0370 H     1 <1>   0.0800 
 46 H       -9.0430    -5.1670     2.4610 H     1 <1>   0.1500 
 47 H      -10.4270    -4.8120    -1.5490 H     1 <1>   0.1500 
 48 H      -10.8760    -5.2450     0.8270 H     1 <1>   0.1500 
@<TRIPOS>BOND
  1   1   2  2   
  2   2   3  am  
  3   2   4  am  
  4   3   5  1   
  5   3   6  1   
  6   4   7  am  
  7   4  27  1   
  8   5   8  1   
  9   5   9  2   
 10   6  28  1   
 11   6  29  1   
 12   6  30  1   
 13   7   9  1   
 14   7  10  2   
 15   8  11  ar  
 16   8  31  1   
 17   9  12  1   
 18  11  12  ar  
 19  11  13  1   
 20  12  14  1   
 21  13  15  1   
 22  13  32  1   
 23  13  33  1   
 24  14  16  1   
 25  14  34  1   
 26  14  35  1   
 27  15  17  1   
 28  15  18  1   
 29  16  19  ar  
 30  16  20  ar  
 31  17  21  1   
 32  17  36  1   
 33  17  37  1   
 34  18  22  1   
 35  18  38  1   
 36  18  39  1   
 37  19  23  ar  
 38  19  40  1   
 39  20  24  ar  
 40  20  41  1   
 41  21  25  1   
 42  21  42  1   
 43  21  43  1   
 44  22  25  1   
 45  22  44  1   
 46  22  45  1   
 47  23  26  ar  
 48  23  46  1   
 49  24  26  ar  
 50  24  47  1   
 51  26  48  1   
@<TRIPOS>SUBSTRUCTURE
  1 ****  11 GROUP 4 **** **** 0

# MOE 2024.06 (io_trps.svl 2023.06)
