@<TRIPOS>MOLECULE
NONAME
50 52 1 0 0 
SMALL
USER_CHARGES


@<TRIPOS>ATOM
  1 S        0.4800     0.8530    -2.2720 S.o2  1 <1>   1.4470 
  2 O       -0.2230     2.0350    -1.8330 O.2   1 <1>  -0.6500 
  3 O        1.2100     0.8670    -3.5160 O.2   1 <1>  -0.6500 
  4 N        1.6840     0.5540    -1.0880 N.am  1 <1>  -0.7570 
  5 C       -0.5820    -0.6130    -2.1650 C.ar  1 <1>  -0.0090 
  6 C        1.3870     0.4420     0.2610 C.ar  1 <1>   0.1990 
  7 C       -1.3710    -0.8370    -1.0470 C.ar  1 <1>  -0.1500 
  8 C       -0.6220    -1.5590    -3.1810 C.ar  1 <1>  -0.1500 
  9 C        1.3770    -0.7990     0.9010 C.ar  1 <1>  -0.1440 
 10 C        1.0710     1.5830     0.9890 C.ar  1 <1>  -0.1500 
 11 C       -2.1770    -1.9630    -0.9020 C.ar  1 <1>   0.0860 
 12 C       -1.4190    -2.6840    -3.0740 C.ar  1 <1>  -0.1500 
 13 C        1.0280    -0.8760     2.2400 C.ar  1 <1>  -0.1500 
 14 C        1.7360    -2.0850     0.1640 C.3   1 <1>  -0.0970 
 15 C        0.7320     1.4990     2.3260 C.ar  1 <1>  -0.1500 
 16 C       -2.1940    -2.8930    -1.9470 C.ar  1 <1>  -0.1430 
 17 C       -2.9510    -2.1290     0.3160 C.2   1 <1>   0.5440 
 18 C        0.7070     0.2670     2.9520 C.ar  1 <1>  -0.1500 
 19 C       -3.0580    -4.1440    -1.8570 C.3   1 <1>  -0.0970 
 20 O       -2.7020    -3.0580     1.0630 O.2   1 <1>  -0.5700 
 21 N       -3.9550    -1.2460     0.6520 N.am  1 <1>  -0.6600 
 22 C       -4.4650    -0.2100    -0.2970 C.3   1 <1>   0.1400 
 23 C       -4.6140    -1.3310     1.9900 C.3   1 <1>   0.1400 
 24 C       -5.9470     0.0740    -0.0370 C.3   1 <1>  -0.1600 
 25 C       -5.1750     0.0340     2.4040 C.3   1 <1>  -0.1600 
 26 C       -6.2040     0.5750     1.3960 C.3   1 <1>  -0.1600 
 27 H        2.4820     1.1360    -1.3130 H     1 <1>   0.4200 
 28 H       -1.3550    -0.1190    -0.2430 H     1 <1>   0.1500 
 29 H       -0.0200    -1.4160    -4.0640 H     1 <1>   0.1500 
 30 H        1.0790     2.5410     0.5020 H     1 <1>   0.1500 
 31 H       -1.4280    -3.3990    -3.8800 H     1 <1>   0.1500 
 32 H        1.0020    -1.8290     2.7390 H     1 <1>   0.1500 
 33 H        0.8910    -2.4390    -0.3970 H     1 <1>   0.0800 
 34 H        2.0250    -2.8530     0.8580 H     1 <1>   0.0800 
 35 H        2.5570    -1.9190    -0.5100 H     1 <1>   0.0800 
 36 H        0.4850     2.3900     2.8780 H     1 <1>   0.1500 
 37 H        0.4370     0.1940     3.9920 H     1 <1>   0.1500 
 38 H       -4.0750    -3.8780    -1.6280 H     1 <1>   0.0800 
 39 H       -2.6890    -4.7870    -1.0760 H     1 <1>   0.0800 
 40 H       -3.0500    -4.6920    -2.7810 H     1 <1>   0.0800 
 41 H       -4.3440    -0.5500    -1.3120 H     1 <1>   0.0800 
 42 H       -3.8950     0.6940    -0.1700 H     1 <1>   0.0800 
 43 H       -3.9000    -1.6630     2.7250 H     1 <1>   0.0800 
 44 H       -5.4080    -2.0560     1.9420 H     1 <1>   0.0800 
 45 H       -6.4970    -0.8360    -0.2040 H     1 <1>   0.0800 
 46 H       -6.3060     0.8020    -0.7430 H     1 <1>   0.0800 
 47 H       -4.3510     0.7210     2.4850 H     1 <1>   0.0800 
 48 H       -5.6270    -0.0430     3.3770 H     1 <1>   0.0800 
 49 H       -7.1940     0.2760     1.6920 H     1 <1>   0.0800 
 50 H       -6.1700     1.6510     1.4150 H     1 <1>   0.0800 
@<TRIPOS>BOND
  1   1   2  2   
  2   1   3  2   
  3   1   4  am  
  4   1   5  1   
  5   4   6  1   
  6   4  27  1   
  7   5   7  ar  
  8   5   8  ar  
  9   6   9  ar  
 10   6  10  ar  
 11   7  11  ar  
 12   7  28  1   
 13   8  12  ar  
 14   8  29  1   
 15   9  13  ar  
 16   9  14  1   
 17  10  15  ar  
 18  10  30  1   
 19  11  16  ar  
 20  11  17  1   
 21  12  16  ar  
 22  12  31  1   
 23  13  18  ar  
 24  13  32  1   
 25  14  33  1   
 26  14  34  1   
 27  14  35  1   
 28  15  18  ar  
 29  15  36  1   
 30  16  19  1   
 31  17  20  2   
 32  17  21  am  
 33  18  37  1   
 34  19  38  1   
 35  19  39  1   
 36  19  40  1   
 37  21  22  1   
 38  21  23  1   
 39  22  24  1   
 40  22  41  1   
 41  22  42  1   
 42  23  25  1   
 43  23  43  1   
 44  23  44  1   
 45  24  26  1   
 46  24  45  1   
 47  24  46  1   
 48  25  26  1   
 49  25  47  1   
 50  25  48  1   
 51  26  49  1   
 52  26  50  1   
@<TRIPOS>SUBSTRUCTURE
  1 ****   7 GROUP 4 **** **** 0

# MOE 2024.06 (io_trps.svl 2023.06)
