@<TRIPOS>MOLECULE
NONAME
51 53 1 0 0 
SMALL
USER_CHARGES


@<TRIPOS>ATOM
  1 CL       0.7770    -0.7020    -0.1990 Cl    1 <1>  -0.1770 
  2 C       -0.4370    -1.9700    -0.0970 C.ar  1 <1>   0.1770 
  3 C       -0.0270    -3.2730     0.0410 C.ar  1 <1>   0.0830 
  4 C       -1.8030    -1.6220    -0.1640 C.ar  1 <1>   0.0000 
  5 O        1.2790    -3.6090     0.1080 O.3   1 <1>  -0.3630 
  6 C       -0.9720    -4.2920     0.1330 C.ar  1 <1>  -0.1500 
  7 C       -2.7580    -2.6650    -0.0800 C.ar  1 <1>   0.0000 
  8 C       -2.2640    -0.2930    -0.3110 C.ar  1 <1>  -0.1500 
  9 C        1.9180    -3.8530    -1.1390 C.3   1 <1>   0.1810 
 10 C       -2.3160    -4.0110     0.0730 C.ar  1 <1>   0.1000 
 11 C       -4.1250    -2.3210    -0.1500 C.ar  1 <1>  -0.1500 
 12 C       -3.5970     0.0010    -0.3760 C.ar  1 <1>  -0.1500 
 13 C        3.3860    -4.2130    -0.9530 C.2   1 <1>   0.5690 
 14 N       -3.2390    -5.0490     0.1620 N.pl3 1 <1>  -0.8380 
 15 C       -4.5400    -1.0260    -0.2940 C.ar  1 <1>  -0.1500 
 16 O        3.9690    -4.7150    -1.8850 O.2   1 <1>  -0.5700 
 17 N        3.9780    -3.9520     0.2450 N.am  1 <1>  -0.7300 
 18 C       -3.3260    -5.9910    -0.9920 C.3   1 <1>   0.2090 
 19 C       -3.3570    -5.7480     1.4750 C.3   1 <1>   0.2090 
 20 C        5.3550    -4.1850     0.6800 C.3   1 <1>   0.3000 
 21 C       -4.5410    -6.9250    -0.8470 C.3   1 <1>   0.1200 
 22 C       -4.5700    -6.6970     1.4850 C.3   1 <1>   0.1200 
 23 C        5.6640    -5.6810     0.6280 C.3   1 <1>  -0.2400 
 24 C        5.4470    -3.6880     2.1210 C.3   1 <1>  -0.2400 
 25 C        6.3150    -3.3860    -0.2030 C.3   1 <1>  -0.2400 
 26 O       -4.5260    -7.5770     0.3940 O.3   1 <1>  -0.5600 
 27 H       -0.6330    -5.3030     0.2550 H     1 <1>   0.1500 
 28 H       -1.5470     0.5060    -0.3740 H     1 <1>   0.1500 
 29 H        1.8440    -2.9660    -1.7410 H     1 <1>   0.0800 
 30 H        1.4100    -4.6630    -1.6290 H     1 <1>   0.0800 
 31 H       -4.8530    -3.1100    -0.0860 H     1 <1>   0.1500 
 32 H       -3.9370     1.0160    -0.4880 H     1 <1>   0.1500 
 33 H       -5.5870    -0.7840    -0.3460 H     1 <1>   0.1500 
 34 H        3.3770    -3.5520     0.9680 H     1 <1>   0.3700 
 35 H       -2.4290    -6.5840    -1.0450 H     1 <1>   0.0800 
 36 H       -3.4120    -5.4280    -1.9050 H     1 <1>   0.0800 
 37 H       -3.4660    -5.0170     2.2580 H     1 <1>   0.0800 
 38 H       -2.4640    -6.3160     1.6660 H     1 <1>   0.0800 
 39 H       -4.5240    -7.6780    -1.6140 H     1 <1>   0.0800 
 40 H       -5.4550    -6.3640    -0.9310 H     1 <1>   0.0800 
 41 H       -5.4850    -6.1330     1.4360 H     1 <1>   0.0800 
 42 H       -4.5730    -7.2860     2.3840 H     1 <1>   0.0800 
 43 H        5.6300    -6.0390    -0.3840 H     1 <1>   0.0800 
 44 H        4.9550    -6.2320     1.2180 H     1 <1>   0.0800 
 45 H        6.6500    -5.8690     1.0130 H     1 <1>   0.0800 
 46 H        4.7670    -4.2320     2.7520 H     1 <1>   0.0800 
 47 H        5.2180    -2.6390     2.1740 H     1 <1>   0.0800 
 48 H        6.4430    -3.8330     2.4980 H     1 <1>   0.0800 
 49 H        6.2830    -3.7430    -1.2160 H     1 <1>   0.0800 
 50 H        7.3220    -3.4930     0.1550 H     1 <1>   0.0800 
 51 H        6.0560    -2.3430    -0.1920 H     1 <1>   0.0800 
@<TRIPOS>BOND
  1   1   2  1   
  2   2   3  ar  
  3   2   4  ar  
  4   3   5  1   
  5   3   6  ar  
  6   4   7  ar  
  7   4   8  ar  
  8   5   9  1   
  9   6  10  ar  
 10   6  27  1   
 11   7  10  ar  
 12   7  11  ar  
 13   8  12  ar  
 14   8  28  1   
 15   9  13  1   
 16   9  29  1   
 17   9  30  1   
 18  10  14  1   
 19  11  15  ar  
 20  11  31  1   
 21  12  15  ar  
 22  12  32  1   
 23  13  16  2   
 24  13  17  am  
 25  14  18  1   
 26  14  19  1   
 27  15  33  1   
 28  17  20  1   
 29  17  34  1   
 30  18  21  1   
 31  18  35  1   
 32  18  36  1   
 33  19  22  1   
 34  19  37  1   
 35  19  38  1   
 36  20  23  1   
 37  20  24  1   
 38  20  25  1   
 39  21  26  1   
 40  21  39  1   
 41  21  40  1   
 42  22  26  1   
 43  22  41  1   
 44  22  42  1   
 45  23  43  1   
 46  23  44  1   
 47  23  45  1   
 48  24  46  1   
 49  24  47  1   
 50  24  48  1   
 51  25  49  1   
 52  25  50  1   
 53  25  51  1   
@<TRIPOS>SUBSTRUCTURE
  1 ****   3 GROUP 4 **** **** 0

# MOE 2024.06 (io_trps.svl 2023.06)
