@<TRIPOS>MOLECULE
NONAME
45 47 1 0 0 
SMALL
USER_CHARGES


@<TRIPOS>ATOM
  1 N       -0.0120    -0.2770    -0.5170 N.ar  1 <1>  -0.6200 
  2 C        0.3000    -1.5630    -0.4190 C.ar  1 <1>   0.7200 
  3 C       -1.0540     0.1180     0.1740 C.ar  1 <1>   0.1600 
  4 N       -0.3020    -2.4720     0.3460 N.ar  1 <1>  -0.6200 
  5 N        1.3850    -1.9880    -1.1500 N.pl3 1 <1>  -0.8380 
  6 C       -1.7670    -0.7430     0.9720 C.ar  1 <1>  -0.1500 
  7 C       -1.3420    -2.0480     1.0270 C.ar  1 <1>   0.1600 
  8 C        2.6490    -1.2010    -1.0700 C.3   1 <1>   0.2090 
  9 C        1.6040    -3.4420    -1.3970 C.3   1 <1>   0.2090 
 10 C        3.5530    -1.7840     0.0380 C.3   1 <1>   0.3430 
 11 C        2.4900    -4.0300    -0.2790 C.3   1 <1>   0.3430 
 12 N        3.7870    -3.2720    -0.1140 N.4   1 <1>  -0.9590 
 13 C        4.5920    -3.8180     1.0010 C.3   1 <1>   0.4810 
 14 C        5.9690    -3.1900     0.9190 C.2   1 <1>  -0.2760 
 15 C        6.8340    -3.4880    -0.0700 C.2   1 <1>  -0.1780 
 16 C        6.2600    -2.2100     2.0550 C.3   1 <1>  -0.1020 
 17 C        8.1730    -2.9890    -0.2740 C.ar  1 <1>   0.0280 
 18 C        9.1500    -3.0960     0.7120 C.ar  1 <1>  -0.1500 
 19 C        8.5260    -2.3980    -1.4830 C.ar  1 <1>  -0.1500 
 20 C       10.4300    -2.6160     0.5040 C.ar  1 <1>  -0.1500 
 21 C        9.8050    -1.9170    -1.6970 C.ar  1 <1>  -0.1500 
 22 C       10.7590    -2.0240    -0.7020 C.ar  1 <1>  -0.1500 
 23 H       -1.3470     1.1520     0.1020 H     1 <1>   0.1500 
 24 H       -2.6220    -0.4080     1.5310 H     1 <1>   0.1500 
 25 H       -1.8700    -2.7560     1.6440 H     1 <1>   0.1500 
 26 H        3.1540    -1.2370    -2.0190 H     1 <1>   0.0800 
 27 H        2.4440    -0.1670    -0.8530 H     1 <1>   0.0800 
 28 H        0.6620    -3.9630    -1.4310 H     1 <1>   0.0800 
 29 H        2.0780    -3.5760    -2.3540 H     1 <1>   0.0800 
 30 H        3.0790    -1.5900     0.9850 H     1 <1>   0.0800 
 31 H        4.4960    -1.2630     0.0270 H     1 <1>   0.0800 
 32 H        2.6920    -5.0650    -0.4980 H     1 <1>   0.0800 
 33 H        1.9260    -3.9880     0.6390 H     1 <1>   0.0800 
 34 H        4.3500    -3.3960    -0.9610 H     1 <1>   0.4500 
 35 H        4.1280    -3.6040     1.9510 H     1 <1>   0.0800 
 36 H        4.6850    -4.8880     0.8970 H     1 <1>   0.0800 
 37 H        6.5560    -4.1860    -0.8410 H     1 <1>   0.1500 
 38 H        6.3370    -2.7370     2.9900 H     1 <1>   0.0800 
 39 H        5.4830    -1.4720     2.1430 H     1 <1>   0.0800 
 40 H        7.1840    -1.6830     1.8950 H     1 <1>   0.0800 
 41 H        8.9060    -3.5630     1.6490 H     1 <1>   0.1500 
 42 H        7.7950    -2.3100    -2.2660 H     1 <1>   0.1500 
 43 H       11.1730    -2.7050     1.2790 H     1 <1>   0.1500 
 44 H       10.0620    -1.4600    -2.6370 H     1 <1>   0.1500 
 45 H       11.7550    -1.6500    -0.8650 H     1 <1>   0.1500 
@<TRIPOS>BOND
  1   1   2  ar  
  2   1   3  ar  
  3   2   4  ar  
  4   2   5  1   
  5   3   6  ar  
  6   3  23  1   
  7   4   7  ar  
  8   5   8  1   
  9   5   9  1   
 10   6   7  ar  
 11   6  24  1   
 12   7  25  1   
 13   8  10  1   
 14   8  26  1   
 15   8  27  1   
 16   9  11  1   
 17   9  28  1   
 18   9  29  1   
 19  10  12  1   
 20  10  30  1   
 21  10  31  1   
 22  11  12  1   
 23  11  32  1   
 24  11  33  1   
 25  12  13  1   
 26  12  34  1   
 27  13  14  1   
 28  13  35  1   
 29  13  36  1   
 30  14  15  2   
 31  14  16  1   
 32  15  17  1   
 33  15  37  1   
 34  16  38  1   
 35  16  39  1   
 36  16  40  1   
 37  17  18  ar  
 38  17  19  ar  
 39  18  20  ar  
 40  18  41  1   
 41  19  21  ar  
 42  19  42  1   
 43  20  22  ar  
 44  20  43  1   
 45  21  22  ar  
 46  21  44  1   
 47  22  45  1   
@<TRIPOS>SUBSTRUCTURE
  1 ****  10 GROUP 4 **** **** 0

# MOE 2024.06 (io_trps.svl 2023.06)
