@<TRIPOS>MOLECULE
NONAME
37 38 1 0 0 
SMALL
USER_CHARGES


@<TRIPOS>ATOM
  1 S       -0.2340     0.2730     1.2210 S.3   1 <1>  -0.0800 
  2 C        0.0890    -1.2920     0.5010 C.2   1 <1>  -0.1400 
  3 C       -1.9060    -0.1460     1.4870 C.2   1 <1>  -0.1100 
  4 C       -1.0280    -2.0460     0.4830 C.2   1 <1>  -0.1810 
  5 C        1.5190    -1.5210     0.0510 C.3   1 <1>  -0.0600 
  6 C       -2.1920    -1.3910     1.0370 C.2   1 <1>  -0.0860 
  7 C       -1.1400    -3.4710    -0.0380 C.3   1 <1>  -0.0590 
  8 C       -3.4990    -2.0090     1.0890 C.2   1 <1>   0.7160 
  9 O       -3.8490    -2.5830     2.1030 O.2   1 <1>  -0.5700 
 10 N       -4.3550    -1.9600     0.0100 N.am  1 <1>  -0.6600 
 11 C       -5.6570    -2.6860     0.0330 C.3   1 <1>   0.2840 
 12 C       -4.0300    -1.2240    -1.2420 C.3   1 <1>   0.1400 
 13 C       -6.8020    -1.7210     0.2950 C.ar  1 <1>  -0.1430 
 14 C       -4.4510     0.2400    -1.1260 C.3   1 <1>  -0.2400 
 15 C       -7.7730    -1.4500    -0.6490 C.ar  1 <1>  -0.1500 
 16 C       -6.9250    -1.0640     1.5030 C.ar  1 <1>  -0.1500 
 17 C       -8.7880    -0.5560    -0.3470 C.ar  1 <1>   0.1600 
 18 C       -7.9790    -0.1890     1.7020 C.ar  1 <1>   0.1600 
 19 N       -8.9140     0.0820     0.8050 N.ar  1 <1>  -0.6200 
 20 H       -2.5330     0.5890     1.9590 H     1 <1>   0.1500 
 21 H        2.1820    -1.4350     0.8930 H     1 <1>   0.0800 
 22 H        1.7920    -0.7820    -0.6810 H     1 <1>   0.0800 
 23 H        1.6390    -2.4950    -0.3820 H     1 <1>   0.0800 
 24 H       -0.1900    -3.8360    -0.3810 H     1 <1>   0.0800 
 25 H       -1.8370    -3.5140    -0.8550 H     1 <1>   0.0800 
 26 H       -1.4860    -4.1190     0.7480 H     1 <1>   0.0800 
 27 H       -5.6530    -3.4420     0.8010 H     1 <1>   0.0800 
 28 H       -5.8020    -3.1880    -0.9060 H     1 <1>   0.0800 
 29 H       -4.5330    -1.6810    -2.0760 H     1 <1>   0.0800 
 30 H       -2.9710    -1.2750    -1.4340 H     1 <1>   0.0800 
 31 H       -5.5140     0.3250    -0.9940 H     1 <1>   0.0800 
 32 H       -4.1810     0.7640    -2.0240 H     1 <1>   0.0800 
 33 H       -3.9550     0.7120    -0.2990 H     1 <1>   0.0800 
 34 H       -7.7510    -1.9200    -1.6140 H     1 <1>   0.1500 
 35 H       -6.2060    -1.2270     2.2860 H     1 <1>   0.1500 
 36 H       -9.5360    -0.3550    -1.0940 H     1 <1>   0.1500 
 37 H       -8.0550     0.3150     2.6510 H     1 <1>   0.1500 
@<TRIPOS>BOND
  1   1   2  1   
  2   1   3  1   
  3   2   4  2   
  4   2   5  1   
  5   3   6  2   
  6   3  20  1   
  7   4   6  1   
  8   4   7  1   
  9   5  21  1   
 10   5  22  1   
 11   5  23  1   
 12   6   8  1   
 13   7  24  1   
 14   7  25  1   
 15   7  26  1   
 16   8   9  2   
 17   8  10  am  
 18  10  11  1   
 19  10  12  1   
 20  11  13  1   
 21  11  27  1   
 22  11  28  1   
 23  12  14  1   
 24  12  29  1   
 25  12  30  1   
 26  13  15  ar  
 27  13  16  ar  
 28  14  31  1   
 29  14  32  1   
 30  14  33  1   
 31  15  17  ar  
 32  15  34  1   
 33  16  18  ar  
 34  16  35  1   
 35  17  19  ar  
 36  17  36  1   
 37  18  19  ar  
 38  18  37  1   
@<TRIPOS>SUBSTRUCTURE
  1 ****  10 GROUP 4 **** **** 0

# MOE 2024.06 (io_trps.svl 2023.06)
