@<TRIPOS>MOLECULE
NONAME
30 30 1 0 0 
SMALL
USER_CHARGES


@<TRIPOS>ATOM
  1 F       -0.5360    -0.6560     0.6560 F     1 <1>  -0.3400 
  2 C       -0.4800    -1.8810     0.1450 C.3   1 <1>   1.1640 
  3 F       -1.1200    -1.8290    -1.0160 F     1 <1>  -0.3400 
  4 F       -1.2180    -2.6460     0.9420 F     1 <1>  -0.3400 
  5 C        0.9570    -2.4040    -0.0150 C.ar  1 <1>  -0.1440 
  6 C        1.2190    -3.7710    -0.0220 C.ar  1 <1>  -0.1500 
  7 C        2.0290    -1.5300    -0.1660 C.ar  1 <1>  -0.1500 
  8 C        2.5100    -4.2440    -0.1690 C.ar  1 <1>  -0.1500 
  9 C        3.3180    -2.0080    -0.3130 C.ar  1 <1>  -0.1500 
 10 C        3.5820    -3.3730    -0.3130 C.ar  1 <1>   0.1170 
 11 N        4.8710    -3.9010    -0.4720 N.am  1 <1>  -0.5470 
 12 C        6.0960    -3.3600    -0.2130 C.2   1 <1>   0.6900 
 13 O        6.2260    -2.2880     0.3410 O.2   1 <1>  -0.5700 
 14 N        7.1850    -4.0740    -0.5930 N.am  1 <1>  -0.7300 
 15 C        8.5820    -3.6540    -0.3620 C.3   1 <1>   0.1400 
 16 C        9.4260    -4.8840    -0.0300 C.3   1 <1>  -0.1600 
 17 C       10.8900    -4.5040     0.2180 C.3   1 <1>  -0.2400 
 18 H        0.4120    -4.4780     0.0880 H     1 <1>   0.1500 
 19 H        1.8700    -0.4640    -0.1700 H     1 <1>   0.1500 
 20 H        2.6850    -5.3050    -0.1670 H     1 <1>   0.1500 
 21 H        4.1260    -1.3080    -0.4320 H     1 <1>   0.1500 
 22 H        4.9080    -4.8840    -0.7140 H     1 <1>   0.3700 
 23 H        7.0670    -4.8670    -1.2170 H     1 <1>   0.3700 
 24 H        8.6230    -2.9490     0.4530 H     1 <1>   0.0800 
 25 H        8.9570    -3.1700    -1.2480 H     1 <1>   0.0800 
 26 H        9.3800    -5.5850    -0.8460 H     1 <1>   0.0800 
 27 H        9.0310    -5.3550     0.8540 H     1 <1>   0.0800 
 28 H       11.3140    -4.0430    -0.6570 H     1 <1>   0.0800 
 29 H       11.4640    -5.3830     0.4540 H     1 <1>   0.0800 
 30 H       10.9640    -3.8170     1.0430 H     1 <1>   0.0800 
@<TRIPOS>BOND
  1   1   2  1   
  2   2   3  1   
  3   2   4  1   
  4   2   5  1   
  5   5   6  ar  
  6   5   7  ar  
  7   6   8  ar  
  8   6  18  1   
  9   7   9  ar  
 10   7  19  1   
 11   8  10  ar  
 12   8  20  1   
 13   9  10  ar  
 14   9  21  1   
 15  10  11  1   
 16  11  12  am  
 17  11  22  1   
 18  12  13  2   
 19  12  14  am  
 20  14  15  1   
 21  14  23  1   
 22  15  16  1   
 23  15  24  1   
 24  15  25  1   
 25  16  17  1   
 26  16  26  1   
 27  16  27  1   
 28  17  28  1   
 29  17  29  1   
 30  17  30  1   
@<TRIPOS>SUBSTRUCTURE
  1 ****  10 GROUP 4 **** **** 0

# MOE 2024.06 (io_trps.svl 2023.06)
