@<TRIPOS>MOLECULE
NONAME
42 43 1 0 0 
SMALL
USER_CHARGES


@<TRIPOS>ATOM
  1 O        0.6370     0.9090     1.3800 O.2   1 <1>  -0.5700 
  2 C        0.8240     1.4860     0.3370 C.2   1 <1>   0.5690 
  3 N       -0.1590     2.1460    -0.3510 N.am  1 <1>  -0.5470 
  4 C        2.2320     1.5130    -0.2600 C.3   1 <1>  -0.0190 
  5 C       -1.5310     2.2970    -0.0950 C.ar  1 <1>   0.1170 
  6 C        3.0120     0.2080     0.0020 C.3   1 <1>  -0.1600 
  7 C        3.0310     2.7170     0.2720 C.3   1 <1>  -0.1600 
  8 C       -2.2170     3.3210    -0.7390 C.ar  1 <1>  -0.1500 
  9 C       -2.2480     1.4630     0.7580 C.ar  1 <1>  -0.1500 
 10 C        4.4270     0.2700    -0.5770 C.3   1 <1>   0.1400 
 11 C        4.4500     2.7560    -0.3050 C.3   1 <1>   0.1400 
 12 C       -3.5720     3.5110    -0.5350 C.ar  1 <1>  -0.1500 
 13 C       -3.6030     1.6520     0.9630 C.ar  1 <1>  -0.1500 
 14 N        5.1350     1.4620    -0.0330 N.am  1 <1>  -0.6600 
 15 C       -4.2750     2.6780     0.3200 C.ar  1 <1>  -0.1430 
 16 C        6.3040     1.4250     0.6850 C.2   1 <1>   0.5690 
 17 C       -5.7640     2.8840     0.5470 C.3   1 <1>  -0.0170 
 18 O        6.8530     2.4280     1.0750 O.2   1 <1>  -0.5700 
 19 C        6.9620     0.1080     1.0220 C.3   1 <1>  -0.1790 
 20 C       -6.5790     2.0850    -0.4720 C.3   1 <1>  -0.2400 
 21 H        0.1620     2.6500    -1.1730 H     1 <1>   0.3700 
 22 H        2.1340     1.6210    -1.3250 H     1 <1>   0.0800 
 23 H        2.4830    -0.6220    -0.4320 H     1 <1>   0.0800 
 24 H        3.0820     0.0300     1.0620 H     1 <1>   0.0800 
 25 H        3.0970     2.6610     1.3460 H     1 <1>   0.0800 
 26 H        2.5260     3.6330     0.0260 H     1 <1>   0.0800 
 27 H       -1.6920     3.9800    -1.4040 H     1 <1>   0.1500 
 28 H       -1.7540     0.6570     1.2660 H     1 <1>   0.1500 
 29 H        4.3800     0.3530    -1.6490 H     1 <1>   0.0800 
 30 H        4.9490    -0.6390    -0.3400 H     1 <1>   0.0800 
 31 H        4.9920     3.5760     0.1360 H     1 <1>   0.0800 
 32 H        4.4150     2.9170    -1.3680 H     1 <1>   0.0800 
 33 H       -4.0810     4.3100    -1.0450 H     1 <1>   0.1500 
 34 H       -4.1320     0.9930     1.6280 H     1 <1>   0.1500 
 35 H       -6.0030     3.9300     0.4610 H     1 <1>   0.0800 
 36 H       -6.0250     2.5710     1.5430 H     1 <1>   0.0800 
 37 H        6.2870    -0.5020     1.5910 H     1 <1>   0.0800 
 38 H        7.8440     0.2850     1.6110 H     1 <1>   0.0800 
 39 H        7.2470    -0.3990     0.1200 H     1 <1>   0.0800 
 40 H       -6.3380     2.4020    -1.4710 H     1 <1>   0.0800 
 41 H       -7.6310     2.2330    -0.3040 H     1 <1>   0.0800 
 42 H       -6.3580     1.0360    -0.3810 H     1 <1>   0.0800 
@<TRIPOS>BOND
  1   1   2  2   
  2   2   3  am  
  3   2   4  1   
  4   3   5  1   
  5   3  21  1   
  6   4   6  1   
  7   4   7  1   
  8   4  22  1   
  9   5   8  ar  
 10   5   9  ar  
 11   6  10  1   
 12   6  23  1   
 13   6  24  1   
 14   7  11  1   
 15   7  25  1   
 16   7  26  1   
 17   8  12  ar  
 18   8  27  1   
 19   9  13  ar  
 20   9  28  1   
 21  10  14  1   
 22  10  29  1   
 23  10  30  1   
 24  11  14  1   
 25  11  31  1   
 26  11  32  1   
 27  12  15  ar  
 28  12  33  1   
 29  13  15  ar  
 30  13  34  1   
 31  14  16  am  
 32  15  17  1   
 33  16  18  2   
 34  16  19  1   
 35  17  20  1   
 36  17  35  1   
 37  17  36  1   
 38  19  37  1   
 39  19  38  1   
 40  19  39  1   
 41  20  40  1   
 42  20  41  1   
 43  20  42  1   
@<TRIPOS>SUBSTRUCTURE
  1 ****   2 GROUP 4 **** **** 0

# MOE 2024.06 (io_trps.svl 2023.06)
