@<TRIPOS>MOLECULE
NONAME
41 43 1 0 0 
SMALL
USER_CHARGES


@<TRIPOS>ATOM
  1 BR       1.2330    -0.4140     2.7070 Br    1 <1>  -0.1110 
  2 C        2.7060     0.4210     1.7880 C.ar  1 <1>   0.1110 
  3 C        3.9840     0.3100     2.3040 C.ar  1 <1>   0.1600 
  4 C        2.4650     1.1200     0.6270 C.ar  1 <1>  -0.1500 
  5 N        5.0530     0.8520     1.7370 N.ar  1 <1>  -0.6200 
  6 C        3.5740     1.6840     0.0360 C.ar  1 <1>  -0.1500 
  7 C        4.8380     1.5280     0.6140 C.ar  1 <1>   0.4270 
  8 N        5.9890     2.0630     0.0810 N.am  1 <1>  -0.5470 
  9 C        6.2980     2.6400    -1.1130 C.2   1 <1>   0.5690 
 10 O        5.5000     2.8300    -1.9980 O.2   1 <1>  -0.5700 
 11 C        7.7560     3.0600    -1.3180 C.3   1 <1>   0.1710 
 12 N        8.7200     2.3580    -0.4200 N.3   1 <1>  -0.8100 
 13 C       10.0230     3.0620    -0.3880 C.3   1 <1>   0.1100 
 14 C        8.9310     0.9500    -0.8500 C.3   1 <1>   0.1100 
 15 C       11.0460     2.3550     0.5230 C.3   1 <1>   0.2090 
 16 C        9.9360     0.2080     0.0510 C.3   1 <1>   0.2090 
 17 N       11.2380     0.9380     0.1110 N.pl3 1 <1>  -0.8380 
 18 C       12.3240     0.2810     0.6560 C.ar  1 <1>   0.4100 
 19 N       12.0880    -0.5970     1.6250 N.ar  1 <1>  -0.6200 
 20 C       13.6020     0.5700     0.1850 C.ar  1 <1>  -0.1500 
 21 C       13.1520    -1.1950     2.1340 C.ar  1 <1>   0.1600 
 22 C       14.7000    -0.0580     0.7230 C.ar  1 <1>  -0.1500 
 23 C       14.4560    -0.9690     1.7310 C.ar  1 <1>  -0.1500 
 24 H        4.1290    -0.2440     3.2150 H     1 <1>   0.1500 
 25 H        1.4750     1.2150     0.2170 H     1 <1>   0.1500 
 26 H        3.4600     2.2480    -0.8700 H     1 <1>   0.1500 
 27 H        6.8090     1.9180     0.6750 H     1 <1>   0.3700 
 28 H        7.8040     4.1180    -1.1290 H     1 <1>   0.0800 
 29 H        8.0250     2.8970    -2.3460 H     1 <1>   0.0800 
 30 H        9.8770     4.0640    -0.0240 H     1 <1>   0.0800 
 31 H       10.4320     3.1210    -1.3820 H     1 <1>   0.0800 
 32 H        9.3020     0.9270    -1.8610 H     1 <1>   0.0800 
 33 H        7.9970     0.4160    -0.8270 H     1 <1>   0.0800 
 34 H       10.6970     2.3840     1.5410 H     1 <1>   0.0800 
 35 H       11.9870     2.8760     0.4780 H     1 <1>   0.0800 
 36 H       10.1020    -0.7840    -0.3320 H     1 <1>   0.0800 
 37 H        9.5280     0.1180     1.0430 H     1 <1>   0.0800 
 38 H       13.7080     1.2860    -0.6070 H     1 <1>   0.1500 
 39 H       12.9720    -1.9080     2.9200 H     1 <1>   0.1500 
 40 H       15.6980     0.1460     0.3770 H     1 <1>   0.1500 
 41 H       15.2670    -1.4980     2.1980 H     1 <1>   0.1500 
@<TRIPOS>BOND
  1   1   2  1   
  2   2   3  ar  
  3   2   4  ar  
  4   3   5  ar  
  5   3  24  1   
  6   4   6  ar  
  7   4  25  1   
  8   5   7  ar  
  9   6   7  ar  
 10   6  26  1   
 11   7   8  1   
 12   8   9  am  
 13   8  27  1   
 14   9  10  2   
 15   9  11  1   
 16  11  12  1   
 17  11  28  1   
 18  11  29  1   
 19  12  13  1   
 20  12  14  1   
 21  13  15  1   
 22  13  30  1   
 23  13  31  1   
 24  14  16  1   
 25  14  32  1   
 26  14  33  1   
 27  15  17  1   
 28  15  34  1   
 29  15  35  1   
 30  16  17  1   
 31  16  36  1   
 32  16  37  1   
 33  17  18  1   
 34  18  19  ar  
 35  18  20  ar  
 36  19  21  ar  
 37  20  22  ar  
 38  20  38  1   
 39  21  23  ar  
 40  21  39  1   
 41  22  23  ar  
 42  22  40  1   
 43  23  41  1   
@<TRIPOS>SUBSTRUCTURE
  1 ****  14 GROUP 4 **** **** 0

# MOE 2024.06 (io_trps.svl 2023.06)
