@<TRIPOS>MOLECULE
NONAME
37 38 1 0 0 
SMALL
USER_CHARGES


@<TRIPOS>ATOM
  1 S       -0.3040    -0.4780     0.9610 S.o2  1 <1>   1.4470 
  2 O       -0.9450     0.7630     1.3300 O.2   1 <1>  -0.6500 
  3 O       -0.4870    -1.6590     1.7730 O.2   1 <1>  -0.6500 
  4 N       -0.9360    -0.8120    -0.5580 N.am  1 <1>  -0.9140 
  5 C        1.4580    -0.2110     0.6290 C.ar  1 <1>  -0.0090 
  6 C       -2.1240    -1.6770    -0.5560 C.3   1 <1>   0.1960 
  7 C        2.2400    -1.2120     0.0680 C.ar  1 <1>  -0.1500 
  8 C        2.0780     0.9990     0.9210 C.ar  1 <1>  -0.1500 
  9 C       -3.3510    -1.0480     0.1350 C.3   1 <1>   0.2000 
 10 C        3.5830    -1.0130    -0.1930 C.ar  1 <1>  -0.1500 
 11 C        3.4220     1.1980     0.6610 C.ar  1 <1>  -0.1500 
 12 O       -4.4560    -1.8580    -0.0850 O.3   1 <1>  -0.5600 
 13 C       -3.7810     0.3080    -0.4160 C.3   1 <1>  -0.1600 
 14 C        4.2070     0.1970     0.0960 C.ar  1 <1>   0.0280 
 15 C       -5.6230    -1.1350     0.1400 C.3   1 <1>   0.1200 
 16 C       -5.2840     0.3190    -0.1790 C.3   1 <1>  -0.1600 
 17 C        5.6090     0.3750    -0.1900 C.2   1 <1>  -0.1780 
 18 C        6.3870     1.4700    -0.0140 C.2   1 <1>  -0.4000 
 19 C        7.7830     1.6080    -0.3120 C.2   1 <1>   1.0500 
 20 O        8.3490     2.6890    -0.0890 O.co2 1 <1>  -0.9000 
 21 O        8.4240     0.6580    -0.7890 O.co2 1 <1>  -0.9000 
 22 H       -1.2210     0.1010    -0.9070 H     1 <1>   0.4200 
 23 H       -2.3870    -1.8900    -1.5770 H     1 <1>   0.0800 
 24 H       -1.8910    -2.6130    -0.0750 H     1 <1>   0.0800 
 25 H        1.7880    -2.1610    -0.1680 H     1 <1>   0.1500 
 26 H        1.5030     1.7970     1.3600 H     1 <1>   0.1500 
 27 H       -3.2020    -0.9980     1.2010 H     1 <1>   0.0800 
 28 H        4.1640    -1.8070    -0.6290 H     1 <1>   0.1500 
 29 H        3.8700     2.1450     0.9000 H     1 <1>   0.1500 
 30 H       -3.2850     1.1190     0.0870 H     1 <1>   0.0800 
 31 H       -3.5750     0.3590    -1.4710 H     1 <1>   0.0800 
 32 H       -6.3990    -1.5250    -0.4960 H     1 <1>   0.0800 
 33 H       -5.8960    -1.2550     1.1740 H     1 <1>   0.0800 
 34 H       -5.8170     0.6570    -1.0500 H     1 <1>   0.0800 
 35 H       -5.5440     0.9440     0.6570 H     1 <1>   0.0800 
 36 H        6.0900    -0.4980    -0.6020 H     1 <1>   0.1500 
 37 H        5.9970     2.3800     0.3860 H     1 <1>   0.1500 
@<TRIPOS>BOND
  1   1   2  2   
  2   1   3  2   
  3   1   4  am  
  4   1   5  1   
  5   4   6  1   
  6   4  22  1   
  7   5   7  ar  
  8   5   8  ar  
  9   6   9  1   
 10   6  23  1   
 11   6  24  1   
 12   7  10  ar  
 13   7  25  1   
 14   8  11  ar  
 15   8  26  1   
 16   9  12  1   
 17   9  13  1   
 18   9  27  1   
 19  10  14  ar  
 20  10  28  1   
 21  11  14  ar  
 22  11  29  1   
 23  12  15  1   
 24  13  16  1   
 25  13  30  1   
 26  13  31  1   
 27  14  17  1   
 28  15  16  1   
 29  15  32  1   
 30  15  33  1   
 31  16  34  1   
 32  16  35  1   
 33  17  18  2   
 34  17  36  1   
 35  18  19  1   
 36  18  37  1   
 37  19  20  ar  
 38  19  21  ar  
@<TRIPOS>SUBSTRUCTURE
  1 ****   5 GROUP 4 **** **** 0

# MOE 2024.06 (io_trps.svl 2023.06)
