@<TRIPOS>MOLECULE
NONAME
40 41 1 0 0 
SMALL
USER_CHARGES


@<TRIPOS>ATOM
  1 O        0.8740     0.0630     1.0830 O.2   1 <1>  -0.5700 
  2 C        1.9280    -0.4750     0.7830 C.2   1 <1>   0.7060 
  3 O        3.0460     0.2120     0.7210 O.3   1 <1>  -0.3000 
  4 C        2.2280    -1.8180     0.4550 C.2   1 <1>   0.1850 
  5 C        4.0050    -0.6550     0.3700 C.2   1 <1>   0.5140 
  6 N        3.5830    -1.8560     0.2010 N.2   1 <1>  -0.6210 
  7 C        1.3360    -2.8630     0.4030 C.2   1 <1>  -0.0500 
  8 C        5.3620    -0.1720     0.2200 C.ar  1 <1>   0.0860 
  9 N        1.5330    -4.1870     0.0970 N.pl3 1 <1>  -0.8380 
 10 C        6.3920    -1.0370    -0.1530 C.ar  1 <1>  -0.1500 
 11 C        5.6980     1.1650     0.4370 C.ar  1 <1>  -0.1500 
 12 C        2.8670    -4.7460    -0.2550 C.3   1 <1>   0.1290 
 13 C        0.4110    -5.1620     0.1000 C.3   1 <1>   0.1290 
 14 C        7.7030    -0.6000    -0.3000 C.ar  1 <1>   0.0830 
 15 C        6.9920     1.6290     0.2910 C.ar  1 <1>   0.0830 
 16 O        8.7140    -1.4410    -0.6680 O.3   1 <1>  -0.3630 
 17 C        8.0130     0.7410    -0.0630 C.ar  1 <1>   0.0830 
 18 O        7.1700     2.9590     0.5220 O.3   1 <1>  -0.3630 
 19 C        8.4630    -2.7570    -1.1100 C.3   1 <1>   0.0400 
 20 O        9.2990     1.1660    -0.1780 O.3   1 <1>  -0.3630 
 21 C        8.0010     3.7110    -0.3360 C.3   1 <1>   0.0400 
 22 C       10.1420     0.8740     0.9120 C.3   1 <1>   0.0400 
 23 H        0.3160    -2.6060     0.6400 H     1 <1>   0.1500 
 24 H        6.1380    -2.0660    -0.3230 H     1 <1>   0.1500 
 25 H        4.9400     1.8720     0.7240 H     1 <1>   0.1500 
 26 H        2.7990    -5.8010    -0.4520 H     1 <1>   0.0800 
 27 H        3.5510    -4.5850     0.5610 H     1 <1>   0.0800 
 28 H        3.2450    -4.2490    -1.1310 H     1 <1>   0.0800 
 29 H        0.6070    -5.9410     0.8160 H     1 <1>   0.0800 
 30 H        0.3050    -5.5970    -0.8790 H     1 <1>   0.0800 
 31 H       -0.5110    -4.6740     0.3630 H     1 <1>   0.0800 
 32 H        9.3980    -3.1870    -1.4210 H     1 <1>   0.0800 
 33 H        7.7840    -2.7230    -1.9440 H     1 <1>   0.0800 
 34 H        8.0520    -3.3280    -0.2970 H     1 <1>   0.0800 
 35 H        7.6980     4.7410    -0.2790 H     1 <1>   0.0800 
 36 H        7.8920     3.3490    -1.3430 H     1 <1>   0.0800 
 37 H        9.0200     3.6150    -0.0080 H     1 <1>   0.0800 
 38 H       11.1090     1.2970     0.7120 H     1 <1>   0.0800 
 39 H       10.2230    -0.1930     1.0190 H     1 <1>   0.0800 
 40 H        9.7220     1.3110     1.8010 H     1 <1>   0.0800 
@<TRIPOS>BOND
  1   1   2  2   
  2   2   3  1   
  3   2   4  1   
  4   3   5  1   
  5   4   6  1   
  6   4   7  2   
  7   5   6  2   
  8   5   8  1   
  9   7   9  1   
 10   7  23  1   
 11   8  10  ar  
 12   8  11  ar  
 13   9  12  1   
 14   9  13  1   
 15  10  14  ar  
 16  10  24  1   
 17  11  15  ar  
 18  11  25  1   
 19  12  26  1   
 20  12  27  1   
 21  12  28  1   
 22  13  29  1   
 23  13  30  1   
 24  13  31  1   
 25  14  16  1   
 26  14  17  ar  
 27  15  17  ar  
 28  15  18  1   
 29  16  19  1   
 30  17  20  1   
 31  18  21  1   
 32  19  32  1   
 33  19  33  1   
 34  19  34  1   
 35  20  22  1   
 36  21  35  1   
 37  21  36  1   
 38  21  37  1   
 39  22  38  1   
 40  22  39  1   
 41  22  40  1   
@<TRIPOS>SUBSTRUCTURE
  1 ****   8 GROUP 4 **** **** 0

# MOE 2024.06 (io_trps.svl 2023.06)
