@<TRIPOS>MOLECULE
NONAME
49 51 1 0 0 
SMALL
USER_CHARGES


@<TRIPOS>ATOM
  1 O       -0.3350    -0.8250    -2.1870 O.2   1 <1>  -0.5700 
  2 C       -0.1640    -1.0940    -1.0130 C.2   1 <1>   0.5690 
  3 N        1.1300    -1.0100    -0.5040 N.am  1 <1>  -0.6600 
  4 C       -1.4280    -1.4890    -0.1490 C.3   1 <1>   0.6280 
  5 C        2.1550    -0.1890    -1.2200 C.3   1 <1>   0.1400 
  6 C        1.5880    -1.6010     0.7860 C.3   1 <1>   0.1400 
  7 O       -2.5890    -1.4360    -0.9780 O.3   1 <1>  -0.5600 
  8 C       -1.5870    -0.3680     0.9240 C.ar  1 <1>  -0.1440 
  9 C       -1.3510    -2.9600     0.3620 C.ar  1 <1>  -0.1440 
 10 C        3.3990    -0.9920    -1.6200 C.3   1 <1>  -0.1600 
 11 C        2.4590    -2.8360     0.5320 C.3   1 <1>  -0.1600 
 12 C       -3.8370    -1.7610    -0.4360 C.3   1 <1>   0.0400 
 13 C       -1.2440    -0.4980     2.2700 C.ar  1 <1>  -0.1500 
 14 C       -2.0700     0.8690     0.5040 C.ar  1 <1>  -0.1500 
 15 C       -2.0020    -3.3930     1.5160 C.ar  1 <1>  -0.1500 
 16 C       -0.6460    -3.9100    -0.3720 C.ar  1 <1>  -0.1500 
 17 C        4.3260    -1.2920    -0.4320 C.3   1 <1>  -0.1600 
 18 C        3.9600    -2.5520     0.3660 C.3   1 <1>  -0.1600 
 19 C       -1.4000     0.5530     3.1560 C.ar  1 <1>  -0.1500 
 20 C       -2.2270     1.9230     1.3860 C.ar  1 <1>  -0.1500 
 21 C       -1.9080    -4.7050     1.9470 C.ar  1 <1>  -0.1500 
 22 C       -0.5500    -5.2230     0.0530 C.ar  1 <1>  -0.1500 
 23 C       -1.8940     1.7660     2.7170 C.ar  1 <1>  -0.1500 
 24 C       -1.1760    -5.6220     1.2190 C.ar  1 <1>  -0.1500 
 25 H        2.4390     0.6360    -0.5900 H     1 <1>   0.0800 
 26 H        1.7310     0.2370    -2.1120 H     1 <1>   0.0800 
 27 H        0.7470    -1.9180     1.3650 H     1 <1>   0.0800 
 28 H        2.1210    -0.8660     1.3640 H     1 <1>   0.0800 
 29 H        3.9500    -0.3870    -2.3170 H     1 <1>   0.0800 
 30 H        3.1140    -1.8910    -2.1380 H     1 <1>   0.0800 
 31 H        2.0940    -3.3500    -0.3390 H     1 <1>   0.0800 
 32 H        2.3410    -3.5100     1.3620 H     1 <1>   0.0800 
 33 H       -3.9890    -1.2340     0.4890 H     1 <1>   0.0800 
 34 H       -3.8950    -2.8250    -0.2870 H     1 <1>   0.0800 
 35 H       -4.5900    -1.4650    -1.1450 H     1 <1>   0.0800 
 36 H       -0.8440    -1.4140     2.6610 H     1 <1>   0.1500 
 37 H       -2.3270     1.0190    -0.5320 H     1 <1>   0.1500 
 38 H       -2.6060    -2.7140     2.0910 H     1 <1>   0.1500 
 39 H       -0.1640    -3.6420    -1.2980 H     1 <1>   0.1500 
 40 H        4.3410    -0.4420     0.2290 H     1 <1>   0.0800 
 41 H        5.3300    -1.4160    -0.8000 H     1 <1>   0.0800 
 42 H        4.4030    -3.4070    -0.1160 H     1 <1>   0.0800 
 43 H        4.4110    -2.4730     1.3400 H     1 <1>   0.0800 
 44 H       -1.1340     0.4280     4.1920 H     1 <1>   0.1500 
 45 H       -2.6060     2.8660     1.0320 H     1 <1>   0.1500 
 46 H       -2.4120    -5.0140     2.8470 H     1 <1>   0.1500 
 47 H        0.0090    -5.9360    -0.5280 H     1 <1>   0.1500 
 48 H       -2.0160     2.5840     3.4050 H     1 <1>   0.1500 
 49 H       -1.1000    -6.6420     1.5520 H     1 <1>   0.1500 
@<TRIPOS>BOND
  1   1   2  2   
  2   2   3  am  
  3   2   4  1   
  4   3   5  1   
  5   3   6  1   
  6   4   7  1   
  7   4   8  1   
  8   4   9  1   
  9   5  10  1   
 10   5  25  1   
 11   5  26  1   
 12   6  11  1   
 13   6  27  1   
 14   6  28  1   
 15   7  12  1   
 16   8  13  ar  
 17   8  14  ar  
 18   9  15  ar  
 19   9  16  ar  
 20  10  17  1   
 21  10  29  1   
 22  10  30  1   
 23  11  18  1   
 24  11  31  1   
 25  11  32  1   
 26  12  33  1   
 27  12  34  1   
 28  12  35  1   
 29  13  19  ar  
 30  13  36  1   
 31  14  20  ar  
 32  14  37  1   
 33  15  21  ar  
 34  15  38  1   
 35  16  22  ar  
 36  16  39  1   
 37  17  18  1   
 38  17  40  1   
 39  17  41  1   
 40  18  42  1   
 41  18  43  1   
 42  19  23  ar  
 43  19  44  1   
 44  20  23  ar  
 45  20  45  1   
 46  21  24  ar  
 47  21  46  1   
 48  22  24  ar  
 49  22  47  1   
 50  23  48  1   
 51  24  49  1   
@<TRIPOS>SUBSTRUCTURE
  1 ****   4 GROUP 4 **** **** 0

# MOE 2024.06 (io_trps.svl 2023.06)
