@<TRIPOS>MOLECULE
NONAME
43 45 1 0 0 
SMALL
USER_CHARGES


@<TRIPOS>ATOM
  1 S        0.0840     0.4710     0.6660 S.3   1 <1>  -0.0800 
  2 C        1.2040     1.1340    -0.4780 C.2   1 <1>   0.4420 
  3 C       -1.1500     1.4180    -0.0960 C.2   1 <1>   0.1980 
  4 N        0.6390     1.9520    -1.2880 N.2   1 <1>  -0.3380 
  5 N        2.5110     0.7100    -0.3700 N.am  1 <1>  -0.4940 
  6 N       -0.7010     2.1090    -1.0650 N.2   1 <1>  -0.3380 
  7 C       -2.5660     1.3160     0.4630 C.3   1 <1>   0.1000 
  8 C        3.6040     1.0510    -1.1160 C.2   1 <1>   0.5690 
  9 C       -3.2320     0.0020     0.0140 C.3   1 <1>  -0.1600 
 10 C       -3.4300     2.5230     0.0510 C.3   1 <1>  -0.1600 
 11 O        3.5680     1.8280    -2.0350 O.2   1 <1>  -0.5700 
 12 C        4.9420     0.4070    -0.7570 C.3   1 <1>  -0.0190 
 13 C       -4.6670    -0.1190     0.5480 C.3   1 <1>  -0.1600 
 14 C       -4.8630     2.4060     0.5910 C.3   1 <1>  -0.1600 
 15 C        4.9080    -1.1260    -0.9300 C.3   1 <1>  -0.1600 
 16 C        5.4020     0.7890     0.6650 C.3   1 <1>  -0.1600 
 17 C       -5.5150     1.0930     0.1420 C.3   1 <1>  -0.1600 
 18 C        6.2610    -1.7600    -0.5820 C.3   1 <1>  -0.1600 
 19 C        6.7540     0.1490     1.0080 C.3   1 <1>  -0.1600 
 20 C        6.7080    -1.3750     0.8350 C.3   1 <1>  -0.1600 
 21 H        2.6870     0.0450     0.3740 H     1 <1>   0.3700 
 22 H       -2.4940     1.3130     1.5360 H     1 <1>   0.0800 
 23 H       -2.6540    -0.8370     0.3600 H     1 <1>   0.0800 
 24 H       -3.2500    -0.0320    -1.0620 H     1 <1>   0.0800 
 25 H       -2.9790     3.4290     0.4180 H     1 <1>   0.0800 
 26 H       -3.4630     2.5870    -1.0240 H     1 <1>   0.0800 
 27 H        5.6700     0.7950    -1.4490 H     1 <1>   0.0800 
 28 H       -5.1190    -1.0180     0.1660 H     1 <1>   0.0800 
 29 H       -4.6450    -0.1940     1.6220 H     1 <1>   0.0800 
 30 H       -5.4480     3.2380     0.2370 H     1 <1>   0.0800 
 31 H       -4.8460     2.4490     1.6660 H     1 <1>   0.0800 
 32 H        4.1510    -1.5550    -0.2960 H     1 <1>   0.0800 
 33 H        4.6570    -1.3640    -1.9500 H     1 <1>   0.0800 
 34 H        4.6740     0.4700     1.3900 H     1 <1>   0.0800 
 35 H        5.4890     1.8610     0.7350 H     1 <1>   0.0800 
 36 H       -6.4960     1.0100     0.5780 H     1 <1>   0.0800 
 37 H       -5.6320     1.1020    -0.9290 H     1 <1>   0.0800 
 38 H        7.0030    -1.4290    -1.2900 H     1 <1>   0.0800 
 39 H        6.1900    -2.8310    -0.6590 H     1 <1>   0.0800 
 40 H        7.5150     0.5570     0.3640 H     1 <1>   0.0800 
 41 H        7.0210     0.3890     2.0230 H     1 <1>   0.0800 
 42 H        7.6840    -1.7870     1.0280 H     1 <1>   0.0800 
 43 H        6.0260    -1.7970     1.5530 H     1 <1>   0.0800 
@<TRIPOS>BOND
  1   1   2  1   
  2   1   3  1   
  3   2   4  2   
  4   2   5  1   
  5   3   6  2   
  6   3   7  1   
  7   4   6  1   
  8   5   8  am  
  9   5  21  1   
 10   7   9  1   
 11   7  10  1   
 12   7  22  1   
 13   8  11  2   
 14   8  12  1   
 15   9  13  1   
 16   9  23  1   
 17   9  24  1   
 18  10  14  1   
 19  10  25  1   
 20  10  26  1   
 21  12  15  1   
 22  12  16  1   
 23  12  27  1   
 24  13  17  1   
 25  13  28  1   
 26  13  29  1   
 27  14  17  1   
 28  14  30  1   
 29  14  31  1   
 30  15  18  1   
 31  15  32  1   
 32  15  33  1   
 33  16  19  1   
 34  16  34  1   
 35  16  35  1   
 36  17  36  1   
 37  17  37  1   
 38  18  20  1   
 39  18  38  1   
 40  18  39  1   
 41  19  20  1   
 42  19  40  1   
 43  19  41  1   
 44  20  42  1   
 45  20  43  1   
@<TRIPOS>SUBSTRUCTURE
  1 ****   2 GROUP 4 **** **** 0

# MOE 2024.06 (io_trps.svl 2023.06)
