@<TRIPOS>MOLECULE
NONAME
48 49 1 0 0 
SMALL
USER_CHARGES


@<TRIPOS>ATOM
  1 O        0.2580    -0.8480    -1.1710 O.2   1 <1>  -0.5700 
  2 C        0.2670    -1.7190    -0.3300 C.2   1 <1>   0.5690 
  3 N        1.4470    -2.1280     0.2460 N.am  1 <1>  -0.6600 
  4 C       -1.0780    -2.3610     0.0550 C.3   1 <1>  -0.0190 
  5 C        1.6460    -3.3470     1.1010 C.3   1 <1>   0.1400 
  6 C        2.7360    -1.4200    -0.0510 C.3   1 <1>   0.1400 
  7 C       -1.3410    -3.5470    -0.9050 C.3   1 <1>  -0.1600 
  8 C       -2.2250    -1.3150     0.0680 C.3   1 <1>  -0.1600 
  9 C        2.7140    -4.2850     0.5100 C.3   1 <1>   0.2090 
 10 C        3.7820    -2.3770    -0.6480 C.3   1 <1>   0.2090 
 11 C       -2.5740    -4.3970    -0.5690 C.3   1 <1>  -0.1600 
 12 C       -3.2840    -1.5600     1.1540 C.3   1 <1>  -0.2400 
 13 N        3.9900    -3.5590     0.2370 N.pl3 1 <1>  -0.8380 
 14 C       -2.6260    -5.6600    -1.4360 C.3   1 <1>  -0.1600 
 15 C        5.1270    -4.3110     0.0080 C.ar  1 <1>   0.4100 
 16 C       -3.8650    -6.4990    -1.1130 C.3   1 <1>  -0.2400 
 17 N        4.9680    -5.5040    -0.5540 N.ar  1 <1>  -0.6200 
 18 C        6.3710    -3.7940     0.3620 C.ar  1 <1>  -0.1500 
 19 C        6.0770    -6.1920    -0.7710 C.ar  1 <1>   0.1600 
 20 C        7.5160    -4.5200     0.1290 C.ar  1 <1>  -0.1500 
 21 C        7.3520    -5.7580    -0.4580 C.ar  1 <1>  -0.1500 
 22 H       -0.9890    -2.7310     1.0570 H     1 <1>   0.0800 
 23 H        0.7370    -3.9060     1.2080 H     1 <1>   0.0800 
 24 H        1.9630    -3.0370     2.0810 H     1 <1>   0.0800 
 25 H        3.1240    -1.0040     0.8610 H     1 <1>   0.0800 
 26 H        2.5760    -0.6070    -0.7380 H     1 <1>   0.0800 
 27 H       -0.4740    -4.1850    -0.8950 H     1 <1>   0.0800 
 28 H       -1.4380    -3.1670    -1.9080 H     1 <1>   0.0800 
 29 H       -2.6880    -1.2680    -0.9030 H     1 <1>   0.0800 
 30 H       -1.8050    -0.3410     0.2590 H     1 <1>   0.0800 
 31 H        2.3450    -4.7140    -0.4060 H     1 <1>   0.0800 
 32 H        2.9040    -5.0900     1.1990 H     1 <1>   0.0800 
 33 H        4.7110    -1.8510    -0.7800 H     1 <1>   0.0800 
 34 H        3.4470    -2.7100    -1.6150 H     1 <1>   0.0800 
 35 H       -3.4650    -3.8220    -0.7490 H     1 <1>   0.0800 
 36 H       -2.5490    -4.6780     0.4700 H     1 <1>   0.0800 
 37 H       -3.7820    -2.5020     1.0260 H     1 <1>   0.0800 
 38 H       -4.0270    -0.7820     1.1140 H     1 <1>   0.0800 
 39 H       -2.8310    -1.5410     2.1290 H     1 <1>   0.0800 
 40 H       -1.7430    -6.2540    -1.2690 H     1 <1>   0.0800 
 41 H       -2.6480    -5.3830    -2.4770 H     1 <1>   0.0800 
 42 H       -3.8530    -6.8060    -0.0810 H     1 <1>   0.0800 
 43 H       -3.8840    -7.3800    -1.7310 H     1 <1>   0.0800 
 44 H       -4.7610    -5.9330    -1.2960 H     1 <1>   0.0800 
 45 H        6.4160    -2.8270     0.8210 H     1 <1>   0.1500 
 46 H        5.9610    -7.1600    -1.2280 H     1 <1>   0.1500 
 47 H        8.4890    -4.1450     0.3930 H     1 <1>   0.1500 
 48 H        8.2040    -6.3800    -0.6680 H     1 <1>   0.1500 
@<TRIPOS>BOND
  1   1   2  2   
  2   2   3  am  
  3   2   4  1   
  4   3   5  1   
  5   3   6  1   
  6   4   7  1   
  7   4   8  1   
  8   4  22  1   
  9   5   9  1   
 10   5  23  1   
 11   5  24  1   
 12   6  10  1   
 13   6  25  1   
 14   6  26  1   
 15   7  11  1   
 16   7  27  1   
 17   7  28  1   
 18   8  12  1   
 19   8  29  1   
 20   8  30  1   
 21   9  13  1   
 22   9  31  1   
 23   9  32  1   
 24  10  13  1   
 25  10  33  1   
 26  10  34  1   
 27  11  14  1   
 28  11  35  1   
 29  11  36  1   
 30  12  37  1   
 31  12  38  1   
 32  12  39  1   
 33  13  15  1   
 34  14  16  1   
 35  14  40  1   
 36  14  41  1   
 37  15  17  ar  
 38  15  18  ar  
 39  16  42  1   
 40  16  43  1   
 41  16  44  1   
 42  17  19  ar  
 43  18  20  ar  
 44  18  45  1   
 45  19  21  ar  
 46  19  46  1   
 47  20  21  ar  
 48  20  47  1   
 49  21  48  1   
@<TRIPOS>SUBSTRUCTURE
  1 ****   5 GROUP 4 **** **** 0

# MOE 2024.06 (io_trps.svl 2023.06)
