@<TRIPOS>MOLECULE
NONAME
42 42 1 0 0 
SMALL
USER_CHARGES


@<TRIPOS>ATOM
  1 O        1.2220    -4.6590    -1.6930 O.2   1 <1>  -0.5700 
  2 C        1.2370    -3.7220    -0.9220 C.2   1 <1>   0.6340 
  3 O        0.0630    -3.2960    -0.4370 O.3   1 <1>  -0.4300 
  4 C        2.4510    -3.0450    -0.5020 C.ar  1 <1>   0.0860 
  5 C       -1.1440    -3.9210    -0.8220 C.3   1 <1>   0.1200 
  6 C        2.4340    -1.9710     0.3920 C.ar  1 <1>  -0.1500 
  7 C        3.6990    -3.4480    -0.9830 C.ar  1 <1>  -0.1500 
  8 C       -2.3050    -3.2350    -0.0930 C.3   1 <1>   0.3430 
  9 C        3.5990    -1.3360     0.7830 C.ar  1 <1>  -0.1500 
 10 C        4.8650    -2.8150    -0.5950 C.ar  1 <1>  -0.1500 
 11 N       -3.6580    -3.7420    -0.5350 N.4   1 <1>  -0.9590 
 12 C        4.8230    -1.7530     0.2910 C.ar  1 <1>  -0.1430 
 13 C       -4.7970    -2.8970    -0.0630 C.3   1 <1>   0.5030 
 14 C       -3.8040    -5.2010    -0.1930 C.3   1 <1>   0.2630 
 15 C        6.1030    -1.0580     0.7190 C.3   1 <1>  -0.0970 
 16 C       -6.1040    -3.4530    -0.6380 C.3   1 <1>  -0.2400 
 17 C       -4.8740    -2.8720     1.4670 C.3   1 <1>  -0.2400 
 18 C       -4.6180    -1.4720    -0.5970 C.3   1 <1>  -0.2400 
 19 H       -1.0720    -4.9610    -0.5560 H     1 <1>   0.0800 
 20 H       -1.2420    -3.8160    -1.8890 H     1 <1>   0.0800 
 21 H        1.4990    -1.6230     0.7920 H     1 <1>   0.1500 
 22 H        3.7550    -4.2720    -1.6740 H     1 <1>   0.1500 
 23 H       -2.2290    -2.1810    -0.2930 H     1 <1>   0.0800 
 24 H       -2.1900    -3.3880     0.9670 H     1 <1>   0.0800 
 25 H        3.5510    -0.5120     1.4750 H     1 <1>   0.1500 
 26 H        5.8090    -3.1550    -0.9860 H     1 <1>   0.1500 
 27 H       -3.6890    -3.6620    -1.5590 H     1 <1>   0.4500 
 28 H       -3.7910    -5.3390     0.8760 H     1 <1>   0.0800 
 29 H       -2.9980    -5.7740    -0.6220 H     1 <1>   0.0800 
 30 H       -4.7300    -5.5920    -0.5800 H     1 <1>   0.0800 
 31 H        5.9130    -0.0240     0.9450 H     1 <1>   0.0800 
 32 H        6.8360    -1.1030    -0.0650 H     1 <1>   0.0800 
 33 H        6.5010    -1.5370     1.5950 H     1 <1>   0.0800 
 34 H       -6.3660    -4.4000    -0.2030 H     1 <1>   0.0800 
 35 H       -6.0460    -3.5520    -1.7070 H     1 <1>   0.0800 
 36 H       -6.9160    -2.7810    -0.4170 H     1 <1>   0.0800 
 37 H       -3.9890    -2.4470     1.9030 H     1 <1>   0.0800 
 38 H       -5.0330    -3.8550     1.8720 H     1 <1>   0.0800 
 39 H       -5.7050    -2.2620     1.7740 H     1 <1>   0.0800 
 40 H       -3.7980    -0.9630    -0.1270 H     1 <1>   0.0800 
 41 H       -5.4990    -0.8910    -0.3860 H     1 <1>   0.0800 
 42 H       -4.4780    -1.4730    -1.6640 H     1 <1>   0.0800 
@<TRIPOS>BOND
  1   1   2  2   
  2   2   3  1   
  3   2   4  1   
  4   3   5  1   
  5   4   6  ar  
  6   4   7  ar  
  7   5   8  1   
  8   5  19  1   
  9   5  20  1   
 10   6   9  ar  
 11   6  21  1   
 12   7  10  ar  
 13   7  22  1   
 14   8  11  1   
 15   8  23  1   
 16   8  24  1   
 17   9  12  ar  
 18   9  25  1   
 19  10  12  ar  
 20  10  26  1   
 21  11  13  1   
 22  11  14  1   
 23  11  27  1   
 24  12  15  1   
 25  13  16  1   
 26  13  17  1   
 27  13  18  1   
 28  14  28  1   
 29  14  29  1   
 30  14  30  1   
 31  15  31  1   
 32  15  32  1   
 33  15  33  1   
 34  16  34  1   
 35  16  35  1   
 36  16  36  1   
 37  17  37  1   
 38  17  38  1   
 39  17  39  1   
 40  18  40  1   
 41  18  41  1   
 42  18  42  1   
@<TRIPOS>SUBSTRUCTURE
  1 ****   3 GROUP 4 **** **** 0

# MOE 2024.06 (io_trps.svl 2023.06)
