@<TRIPOS>MOLECULE
NONAME
38 40 1 0 0 
SMALL
USER_CHARGES


@<TRIPOS>ATOM
  1 S       -0.5870     0.4130    -1.1460 S.3   1 <1>  -0.0800 
  2 C       -1.7160     0.6110     0.1550 C.2   1 <1>   0.4420 
  3 C        0.6300     1.0330    -0.0860 C.2   1 <1>   0.1980 
  4 N       -1.1610     1.0870     1.2090 N.2   1 <1>  -0.3380 
  5 N       -3.0210     0.2450    -0.1020 N.am  1 <1>  -0.4940 
  6 N        0.1790     1.3250     1.0640 N.2   1 <1>  -0.3380 
  7 C        2.0420     1.1580    -0.6140 C.3   1 <1>  -0.0600 
  8 C       -4.1090     0.2910     0.7230 C.2   1 <1>   0.5690 
  9 O       -4.0650     0.6910     1.8570 O.2   1 <1>  -0.5700 
 10 C       -5.4360    -0.1860     0.1500 C.3   1 <1>  -0.0190 
 11 C       -6.6360    -0.0280     1.1020 C.3   1 <1>   0.1400 
 12 C       -5.4400    -1.6740    -0.2540 C.3   1 <1>  -0.0990 
 13 N       -7.4980    -1.1710     0.7510 N.am  1 <1>  -0.6600 
 14 C       -6.8640    -2.0830    -0.0130 C.2   1 <1>   0.5690 
 15 C       -8.9350    -1.1970     1.1000 C.3   1 <1>   0.2840 
 16 O       -7.3480    -3.0850    -0.4750 O.2   1 <1>  -0.5700 
 17 C       -9.6390    -0.0300     0.4250 C.ar  1 <1>  -0.1440 
 18 C       -9.8570    -0.0570    -0.9440 C.ar  1 <1>  -0.1500 
 19 C      -10.0620     1.0680     1.1600 C.ar  1 <1>  -0.1500 
 20 C      -10.4890     1.0010    -1.5740 C.ar  1 <1>  -0.1500 
 21 C      -10.6940     2.1270     0.5310 C.ar  1 <1>  -0.1500 
 22 C      -10.9070     2.0940    -0.8360 C.ar  1 <1>  -0.1500 
 23 H       -3.1810    -0.1080    -1.0400 H     1 <1>   0.3700 
 24 H        2.4090     0.1920    -0.9090 H     1 <1>   0.0800 
 25 H        2.6810     1.5550     0.1540 H     1 <1>   0.0800 
 26 H        2.0590     1.8200    -1.4590 H     1 <1>   0.0800 
 27 H       -5.6540     0.4050    -0.7210 H     1 <1>   0.0800 
 28 H       -7.1390     0.9110     0.9400 H     1 <1>   0.0800 
 29 H       -6.3470    -0.1140     2.1360 H     1 <1>   0.0800 
 30 H       -4.8060    -2.2590     0.3880 H     1 <1>   0.0800 
 31 H       -5.1700    -1.8200    -1.2830 H     1 <1>   0.0800 
 32 H       -9.0430    -1.1370     2.1690 H     1 <1>   0.0800 
 33 H       -9.3730    -2.1230     0.7690 H     1 <1>   0.0800 
 34 H       -9.5300    -0.9060    -1.5210 H     1 <1>   0.1500 
 35 H       -9.9000     1.1050     2.2230 H     1 <1>   0.1500 
 36 H      -10.6550     0.9720    -2.6360 H     1 <1>   0.1500 
 37 H      -11.0200     2.9770     1.1050 H     1 <1>   0.1500 
 38 H      -11.3990     2.9170    -1.3240 H     1 <1>   0.1500 
@<TRIPOS>BOND
  1   1   2  1   
  2   1   3  1   
  3   2   4  2   
  4   2   5  1   
  5   3   6  2   
  6   3   7  1   
  7   4   6  1   
  8   5   8  am  
  9   5  23  1   
 10   7  24  1   
 11   7  25  1   
 12   7  26  1   
 13   8   9  2   
 14   8  10  1   
 15  10  11  1   
 16  10  12  1   
 17  10  27  1   
 18  11  13  1   
 19  11  28  1   
 20  11  29  1   
 21  12  14  1   
 22  12  30  1   
 23  12  31  1   
 24  13  14  am  
 25  13  15  1   
 26  14  16  2   
 27  15  17  1   
 28  15  32  1   
 29  15  33  1   
 30  17  18  ar  
 31  17  19  ar  
 32  18  20  ar  
 33  18  34  1   
 34  19  21  ar  
 35  19  35  1   
 36  20  22  ar  
 37  20  36  1   
 38  21  22  ar  
 39  21  37  1   
 40  22  38  1   
@<TRIPOS>SUBSTRUCTURE
  1 ****  10 GROUP 4 **** **** 0

# MOE 2024.06 (io_trps.svl 2023.06)
