@<TRIPOS>MOLECULE
NONAME
63 64 1 0 0 
SMALL
USER_CHARGES


@<TRIPOS>ATOM
  1 N       -1.1880    -0.1610    -0.6990 N.4   1 <1>  -0.9590 
  2 C       -2.1730    -1.2860    -0.8240 C.3   1 <1>   0.3430 
  3 C       -1.5670     0.9710    -1.6050 C.3   1 <1>   0.3430 
  4 C        0.2200    -0.5830    -0.9600 C.3   1 <1>   0.3430 
  5 C       -3.5150    -0.9490    -0.1560 C.3   1 <1>  -0.0800 
  6 C       -1.8020     2.2580    -0.8020 C.3   1 <1>  -0.0800 
  7 C        0.7780    -1.4110     0.2070 C.3   1 <1>  -0.1600 
  8 C       -3.3570    -0.6870     1.3570 C.3   1 <1>  -0.0220 
  9 C       -4.5180    -2.0920    -0.3940 C.3   1 <1>  -0.1600 
 10 C       -2.2740     3.3680    -1.7600 C.3   1 <1>  -0.0220 
 11 C       -0.5580     2.7250    -0.0140 C.3   1 <1>  -0.1600 
 12 C        2.2590    -1.7450    -0.0270 C.3   1 <1>   0.3430 
 13 C       -4.7040    -0.6420     2.0500 C.2   1 <1>  -0.2880 
 14 C       -5.9150    -1.7310     0.1340 C.3   1 <1>  -0.0220 
 15 C       -2.3050     4.7160    -1.0670 C.2   1 <1>  -0.2880 
 16 C       -0.8770     3.9520     0.8550 C.3   1 <1>  -0.0220 
 17 N        2.8480    -2.4590     1.1470 N.4   1 <1>  -0.9590 
 18 C       -5.8410    -1.0900     1.5120 C.2   1 <1>  -0.2760 
 19 C       -1.7000     4.9800     0.0940 C.2   1 <1>  -0.2760 
 20 C        4.3460    -2.4800     1.0470 C.3   1 <1>   0.2630 
 21 C        2.3490    -3.8670     1.2990 C.3   1 <1>   0.2630 
 22 C       -7.1800    -1.0040     2.2230 C.3   1 <1>  -0.1020 
 23 C       -1.7760     6.3360     0.7740 C.3   1 <1>  -0.1020 
 24 H       -1.2630     0.2100     0.2580 H     1 <1>   0.4500 
 25 H       -1.7830    -2.1730    -0.3550 H     1 <1>   0.0800 
 26 H       -2.3400    -1.5110    -1.8660 H     1 <1>   0.0800 
 27 H       -2.4720     0.7290    -2.1400 H     1 <1>   0.0800 
 28 H       -0.7930     1.1450    -2.3340 H     1 <1>   0.0800 
 29 H        0.8310     0.2980    -1.0840 H     1 <1>   0.0800 
 30 H        0.2660    -1.1500    -1.8770 H     1 <1>   0.0800 
 31 H       -3.9330    -0.0700    -0.6150 H     1 <1>   0.0800 
 32 H       -2.6040     2.0880    -0.1040 H     1 <1>   0.0800 
 33 H        0.2190    -2.3240     0.2970 H     1 <1>   0.0800 
 34 H        0.6880    -0.8400     1.1140 H     1 <1>   0.0800 
 35 H       -2.8650     0.2550     1.5200 H     1 <1>   0.0800 
 36 H       -2.7720    -1.4640     1.8180 H     1 <1>   0.0800 
 37 H       -4.1820    -2.9790     0.1160 H     1 <1>   0.0800 
 38 H       -4.5960    -2.3210    -1.4440 H     1 <1>   0.0800 
 39 H       -3.2630     3.1380    -2.1160 H     1 <1>   0.0800 
 40 H       -1.6190     3.4450    -2.6110 H     1 <1>   0.0800 
 41 H        0.2180     2.9990    -0.7090 H     1 <1>   0.0800 
 42 H       -0.1780     1.9540     0.6280 H     1 <1>   0.0800 
 43 H        2.8040    -0.8270    -0.1870 H     1 <1>   0.0800 
 44 H        2.3680    -2.3530    -0.9120 H     1 <1>   0.0800 
 45 H       -4.6600    -0.2080     3.0360 H     1 <1>   0.1500 
 46 H       -6.5110    -2.6260     0.1780 H     1 <1>   0.0800 
 47 H       -6.3980    -1.0450    -0.5410 H     1 <1>   0.0800 
 48 H       -2.8710     5.4560    -1.6100 H     1 <1>   0.1500 
 49 H        0.0460     4.3980     1.1830 H     1 <1>   0.0800 
 50 H       -1.4290     3.6520     1.7300 H     1 <1>   0.0800 
 51 H        2.6130    -1.9420     2.0100 H     1 <1>   0.4500 
 52 H        4.6580    -3.0200     0.1670 H     1 <1>   0.0800 
 53 H        4.7720    -2.9620     1.9130 H     1 <1>   0.0800 
 54 H        4.7360    -1.4760     0.9920 H     1 <1>   0.0800 
 55 H        2.5800    -4.4450     0.4180 H     1 <1>   0.0800 
 56 H        1.2830    -3.8790     1.4530 H     1 <1>   0.0800 
 57 H        2.8180    -4.3390     2.1480 H     1 <1>   0.0800 
 58 H       -7.5870    -1.9880     2.3730 H     1 <1>   0.0800 
 59 H       -7.8750    -0.4260     1.6390 H     1 <1>   0.0800 
 60 H       -7.0710    -0.5330     3.1840 H     1 <1>   0.0800 
 61 H       -0.7930     6.7600     0.8740 H     1 <1>   0.0800 
 62 H       -2.2140     6.2380     1.7510 H     1 <1>   0.0800 
 63 H       -2.3800     7.0150     0.1990 H     1 <1>   0.0800 
@<TRIPOS>BOND
  1   1   2  1   
  2   1   3  1   
  3   1   4  1   
  4   1  24  1   
  5   2   5  1   
  6   2  25  1   
  7   2  26  1   
  8   3   6  1   
  9   3  27  1   
 10   3  28  1   
 11   4   7  1   
 12   4  29  1   
 13   4  30  1   
 14   5   8  1   
 15   5   9  1   
 16   5  31  1   
 17   6  10  1   
 18   6  11  1   
 19   6  32  1   
 20   7  12  1   
 21   7  33  1   
 22   7  34  1   
 23   8  13  1   
 24   8  35  1   
 25   8  36  1   
 26   9  14  1   
 27   9  37  1   
 28   9  38  1   
 29  10  15  1   
 30  10  39  1   
 31  10  40  1   
 32  11  16  1   
 33  11  41  1   
 34  11  42  1   
 35  12  17  1   
 36  12  43  1   
 37  12  44  1   
 38  13  18  2   
 39  13  45  1   
 40  14  18  1   
 41  14  46  1   
 42  14  47  1   
 43  15  19  2   
 44  15  48  1   
 45  16  19  1   
 46  16  49  1   
 47  16  50  1   
 48  17  20  1   
 49  17  21  1   
 50  17  51  1   
 51  18  22  1   
 52  19  23  1   
 53  20  52  1   
 54  20  53  1   
 55  20  54  1   
 56  21  55  1   
 57  21  56  1   
 58  21  57  1   
 59  22  58  1   
 60  22  59  1   
 61  22  60  1   
 62  23  61  1   
 63  23  62  1   
 64  23  63  1   
@<TRIPOS>SUBSTRUCTURE
  1 ****   1 GROUP 4 **** **** 0

# MOE 2024.06 (io_trps.svl 2023.06)
