@<TRIPOS>MOLECULE
NONAME
31 32 1 0 0 
SMALL
USER_CHARGES


@<TRIPOS>ATOM
  1 F       -1.2270    -0.6890     1.2050 F     1 <1>  -0.3400 
  2 C       -0.7650    -1.3210     0.1300 C.3   1 <1>   1.0200 
  3 F       -1.8280    -1.8800    -0.4480 F     1 <1>  -0.3400 
  4 F       -0.3690    -0.3700    -0.7140 F     1 <1>  -0.3400 
  5 C        0.3680    -2.3710     0.4280 C.3   1 <1>   0.6410 
  6 O        0.0310    -3.3670     1.3510 O.3   1 <1>  -0.6800 
  7 N        0.8630    -3.1620    -0.7200 N.am  1 <1>  -0.7300 
  8 C        1.6370    -1.5980     0.8050 C.2   1 <1>   0.5690 
  9 C        2.1100    -2.7680    -1.0320 C.2   1 <1>   0.6900 
 10 O        1.7570    -0.8650     1.7580 O.2   1 <1>  -0.5700 
 11 N        2.6090    -1.8880    -0.1140 N.am  1 <1>  -0.4200 
 12 O        2.6770    -3.1350    -2.0330 O.2   1 <1>  -0.5700 
 13 C        3.9740    -1.3150    -0.2000 C.3   1 <1>   0.2200 
 14 C        4.8000    -1.6760     1.0440 C.3   1 <1>  -0.1600 
 15 C        3.9160     0.2050    -0.4160 C.3   1 <1>  -0.1600 
 16 C        6.2130    -1.0780     0.9560 C.3   1 <1>  -0.1600 
 17 C        5.3290     0.8010    -0.5030 C.3   1 <1>  -0.1600 
 18 C        6.1590     0.4400     0.7370 C.3   1 <1>  -0.1600 
 19 H        0.7570    -4.0170     1.3810 H     1 <1>   0.4000 
 20 H        0.2270    -3.5440    -1.4210 H     1 <1>   0.3700 
 21 H        4.4700    -1.7460    -1.0550 H     1 <1>   0.0800 
 22 H        4.8740    -2.7450     1.1310 H     1 <1>   0.0800 
 23 H        4.3210    -1.2910     1.9270 H     1 <1>   0.0800 
 24 H        3.3970     0.6730     0.4030 H     1 <1>   0.0800 
 25 H        3.3850     0.4200    -1.3270 H     1 <1>   0.0800 
 26 H        6.7460    -1.5370     0.1410 H     1 <1>   0.0800 
 27 H        6.7510    -1.2920     1.8640 H     1 <1>   0.0800 
 28 H        5.2630     1.8720    -0.5920 H     1 <1>   0.0800 
 29 H        5.8230     0.4270    -1.3840 H     1 <1>   0.0800 
 30 H        7.1590     0.8240     0.6260 H     1 <1>   0.0800 
 31 H        5.7230     0.9080     1.6040 H     1 <1>   0.0800 
@<TRIPOS>BOND
  1   1   2  1   
  2   2   3  1   
  3   2   4  1   
  4   2   5  1   
  5   5   6  1   
  6   5   7  1   
  7   5   8  1   
  8   6  19  1   
  9   7   9  am  
 10   7  20  1   
 11   8  10  2   
 12   8  11  am  
 13   9  11  am  
 14   9  12  2   
 15  11  13  1   
 16  13  14  1   
 17  13  15  1   
 18  13  21  1   
 19  14  16  1   
 20  14  22  1   
 21  14  23  1   
 22  15  17  1   
 23  15  24  1   
 24  15  25  1   
 25  16  18  1   
 26  16  26  1   
 27  16  27  1   
 28  17  18  1   
 29  17  28  1   
 30  17  29  1   
 31  18  30  1   
 32  18  31  1   
@<TRIPOS>SUBSTRUCTURE
  1 ****  11 GROUP 4 **** **** 0

# MOE 2024.06 (io_trps.svl 2023.06)
