@<TRIPOS>MOLECULE
NONAME
41 42 1 0 0 
SMALL
USER_CHARGES


@<TRIPOS>ATOM
  1 O        0.0740    -1.1520     0.1010 O.3   1 <1>  -0.3630 
  2 C       -1.2430    -1.2050    -0.2400 C.ar  1 <1>   0.0830 
  3 C        1.0360    -0.5330    -0.7180 C.3   1 <1>   0.1200 
  4 C       -2.1230    -1.8420     0.6370 C.ar  1 <1>  -0.1440 
  5 C       -1.7220    -0.6540    -1.4260 C.ar  1 <1>  -0.1500 
  6 C        2.3940    -0.6520    -0.0290 C.3   1 <1>  -0.1600 
  7 C       -3.4740    -1.9360     0.3080 C.ar  1 <1>  -0.1440 
  8 C       -1.5890    -2.4350     1.9420 C.3   1 <1>  -0.0960 
  9 C       -3.0640    -0.7410    -1.7400 C.ar  1 <1>  -0.1500 
 10 C        3.4980     0.0120    -0.8580 C.3   1 <1>   0.0210 
 11 C       -3.9330    -1.3810    -0.8770 C.ar  1 <1>  -0.1500 
 12 C       -4.4820    -2.6390     1.2070 C.3   1 <1>  -0.0970 
 13 C        4.8370    -0.1130    -0.1520 C.2   1 <1>  -0.1810 
 14 C        5.3760     0.7790     0.7740 C.2   1 <1>   0.1080 
 15 C        5.7640    -1.0890    -0.2690 C.2   1 <1>  -0.3320 
 16 N        6.5400     0.4030     1.1980 N.2   1 <1>  -0.7070 
 17 C        4.7240     2.0530     1.2610 C.3   1 <1>  -0.0590 
 18 N        6.7790    -0.7510     0.5540 N.pl3 1 <1>   0.3000 
 19 C        5.7680    -2.3510    -1.1140 C.3   1 <1>  -0.0600 
 20 H        0.7600     0.5000    -0.8410 H     1 <1>   0.0800 
 21 H        1.0440    -1.0360    -1.6690 H     1 <1>   0.0800 
 22 H       -1.0720    -0.1560    -2.1180 H     1 <1>   0.1500 
 23 H        2.6340    -1.6920     0.1070 H     1 <1>   0.0800 
 24 H        2.3440    -0.1830     0.9380 H     1 <1>   0.0800 
 25 H       -0.7440    -1.8770     2.3030 H     1 <1>   0.0800 
 26 H       -1.2810    -3.4510     1.7750 H     1 <1>   0.0800 
 27 H       -2.3290    -2.4160     2.7190 H     1 <1>   0.0800 
 28 H       -3.4340    -0.3150    -2.6550 H     1 <1>   0.1500 
 29 H        3.2720     1.0520    -1.0130 H     1 <1>   0.0800 
 30 H        3.5610    -0.4560    -1.8240 H     1 <1>   0.0800 
 31 H       -4.9750    -1.4440    -1.1380 H     1 <1>   0.1500 
 32 H       -4.1220    -3.6170     1.4740 H     1 <1>   0.0800 
 33 H       -5.4280    -2.7570     0.7110 H     1 <1>   0.0800 
 34 H       -4.6380    -2.0630     2.1020 H     1 <1>   0.0800 
 35 H        4.7410     2.7890     0.4790 H     1 <1>   0.0800 
 36 H        5.2620     2.4350     2.1100 H     1 <1>   0.0800 
 37 H        3.7090     1.8610     1.5520 H     1 <1>   0.0800 
 38 H        7.6440    -1.2850     0.6990 H     1 <1>   0.2700 
 39 H        4.8430    -2.4510    -1.6530 H     1 <1>   0.0800 
 40 H        5.8860    -3.2160    -0.4850 H     1 <1>   0.0800 
 41 H        6.5760    -2.3200    -1.8230 H     1 <1>   0.0800 
@<TRIPOS>BOND
  1   1   2  1   
  2   1   3  1   
  3   2   4  ar  
  4   2   5  ar  
  5   3   6  1   
  6   3  20  1   
  7   3  21  1   
  8   4   7  ar  
  9   4   8  1   
 10   5   9  ar  
 11   5  22  1   
 12   6  10  1   
 13   6  23  1   
 14   6  24  1   
 15   7  11  ar  
 16   7  12  1   
 17   8  25  1   
 18   8  26  1   
 19   8  27  1   
 20   9  11  ar  
 21   9  28  1   
 22  10  13  1   
 23  10  29  1   
 24  10  30  1   
 25  11  31  1   
 26  12  32  1   
 27  12  33  1   
 28  12  34  1   
 29  13  14  1   
 30  13  15  2   
 31  14  16  2   
 32  14  17  1   
 33  15  18  1   
 34  15  19  1   
 35  16  18  1   
 36  17  35  1   
 37  17  36  1   
 38  17  37  1   
 39  18  38  1   
 40  19  39  1   
 41  19  40  1   
 42  19  41  1   
@<TRIPOS>SUBSTRUCTURE
  1 ****   3 GROUP 4 **** **** 0

# MOE 2024.06 (io_trps.svl 2023.06)
