@<TRIPOS>MOLECULE
NONAME
39 40 1 0 0 
SMALL
USER_CHARGES


@<TRIPOS>ATOM
  1 O        1.0330     0.9030    -2.1980 O.2   1 <1>  -0.5700 
  2 C        1.3660     1.2160    -1.0810 C.2   1 <1>   0.5690 
  3 N        0.9100     2.2850    -0.3920 N.am  1 <1>  -0.6600 
  4 C        2.3620     0.4410    -0.2650 C.3   1 <1>  -0.0990 
  5 C        1.5010     2.4000     0.9510 C.3   1 <1>   0.1400 
  6 C       -0.0360     3.2930    -0.9140 C.3   1 <1>   0.1400 
  7 C        2.2680     1.0820     1.1310 C.3   1 <1>  -0.1600 
  8 C       -1.4560     2.9320    -0.4780 C.3   1 <1>  -0.1600 
  9 C       -2.4650     3.9050    -1.0820 C.3   1 <1>   0.1400 
 10 N       -3.8250     3.5310    -0.6390 N.am  1 <1>  -0.7300 
 11 C       -4.7520     4.3790    -0.0840 C.2   1 <1>   0.7160 
 12 O       -4.4220     5.5390     0.0970 O.2   1 <1>  -0.5700 
 13 C       -6.0740     3.8740     0.2710 C.2   1 <1>   0.2030 
 14 N       -7.2140     4.5430     0.2530 N.2   1 <1>  -0.7070 
 15 C       -6.3130     2.5540     0.6820 C.2   1 <1>  -0.1500 
 16 N       -8.1570     3.6800     0.6440 N.pl3 1 <1>   0.3140 
 17 C       -7.6370     2.4680     0.9080 C.2   1 <1>  -0.3020 
 18 C       -9.5760     4.0730     0.7600 C.3   1 <1>   0.0960 
 19 C      -10.3980     3.5470    -0.4230 C.3   1 <1>  -0.2400 
 20 H        3.3390     0.5740    -0.6920 H     1 <1>   0.0800 
 21 H        2.1060    -0.6020    -0.2480 H     1 <1>   0.0800 
 22 H        0.7340     2.5130     1.6980 H     1 <1>   0.0800 
 23 H        2.1710     3.2430     0.9780 H     1 <1>   0.0800 
 24 H        0.0220     3.3000    -1.9900 H     1 <1>   0.0800 
 25 H        0.2370     4.2690    -0.5510 H     1 <1>   0.0800 
 26 H        3.2400     1.2500     1.5620 H     1 <1>   0.0800 
 27 H        1.7070     0.4390     1.7870 H     1 <1>   0.0800 
 28 H       -1.5210     2.9740     0.5950 H     1 <1>   0.0800 
 29 H       -1.6790     1.9350    -0.8130 H     1 <1>   0.0800 
 30 H       -2.4220     3.8670    -2.1580 H     1 <1>   0.0800 
 31 H       -2.2370     4.9110    -0.7690 H     1 <1>   0.0800 
 32 H       -4.1350     2.5960    -0.9030 H     1 <1>   0.3700 
 33 H       -5.5680     1.7870     0.7950 H     1 <1>   0.1500 
 34 H       -8.2300     1.6350     1.2370 H     1 <1>   0.1500 
 35 H       -9.6240     5.1470     0.7910 H     1 <1>   0.0800 
 36 H       -9.9620     3.6880     1.6860 H     1 <1>   0.0800 
 37 H      -10.0060     3.9400    -1.3450 H     1 <1>   0.0800 
 38 H      -11.4210     3.8620    -0.3250 H     1 <1>   0.0800 
 39 H      -10.3700     2.4720    -0.4540 H     1 <1>   0.0800 
@<TRIPOS>BOND
  1   1   2  2   
  2   2   3  am  
  3   2   4  1   
  4   3   5  1   
  5   3   6  1   
  6   4   7  1   
  7   4  20  1   
  8   4  21  1   
  9   5   7  1   
 10   5  22  1   
 11   5  23  1   
 12   6   8  1   
 13   6  24  1   
 14   6  25  1   
 15   7  26  1   
 16   7  27  1   
 17   8   9  1   
 18   8  28  1   
 19   8  29  1   
 20   9  10  1   
 21   9  30  1   
 22   9  31  1   
 23  10  11  am  
 24  10  32  1   
 25  11  12  2   
 26  11  13  1   
 27  13  14  2   
 28  13  15  1   
 29  14  16  1   
 30  15  17  2   
 31  15  33  1   
 32  16  17  1   
 33  16  18  1   
 34  17  34  1   
 35  18  19  1   
 36  18  35  1   
 37  18  36  1   
 38  19  37  1   
 39  19  38  1   
 40  19  39  1   
@<TRIPOS>SUBSTRUCTURE
  1 ****  10 GROUP 4 **** **** 0

# MOE 2024.06 (io_trps.svl 2023.06)
