@<TRIPOS>MOLECULE
NONAME
40 42 1 0 0 
SMALL
USER_CHARGES


@<TRIPOS>ATOM
  1 BR      -1.7510     2.2920     3.0680 Br    1 <1>  -0.1110 
  2 C       -2.4440     2.0300     1.2940 C.ar  1 <1>   0.1110 
  3 C       -3.5800     1.2600     1.1350 C.ar  1 <1>  -0.1500 
  4 C       -1.7920     2.6170     0.2280 C.ar  1 <1>  -0.1500 
  5 C       -4.0900     1.0740    -0.1430 C.ar  1 <1>  -0.1440 
  6 C       -2.2990     2.4210    -1.0450 C.ar  1 <1>  -0.1500 
  7 C       -3.4390     1.6530    -1.2280 C.ar  1 <1>  -0.1500 
  8 C       -5.3480     0.2520    -0.3550 C.3   1 <1>   0.4870 
  9 N       -6.5170     1.0400     0.1190 N.4   1 <1>  -0.9590 
 10 C       -7.7880     0.2280     0.0960 C.3   1 <1>   0.3430 
 11 C       -6.6830     2.3240    -0.6630 C.3   1 <1>   0.3430 
 12 C       -9.0110     1.0340     0.5820 C.3   1 <1>   0.2090 
 13 C       -7.8930     3.1530    -0.1860 C.3   1 <1>   0.2090 
 14 N       -9.1350     2.3220    -0.1640 N.pl3 1 <1>  -0.8380 
 15 C      -10.3380     3.0190     0.0060 C.ar  1 <1>   0.1000 
 16 C      -10.7290     3.6520     1.1940 C.ar  1 <1>   0.1770 
 17 C      -11.2090     3.0920    -1.0740 C.ar  1 <1>  -0.1500 
 18 CL      -9.6950     3.6130     2.6110 Cl    1 <1>  -0.1770 
 19 C      -11.9310     4.3250     1.2980 C.ar  1 <1>  -0.1500 
 20 C      -12.4150     3.7640    -0.9790 C.ar  1 <1>  -0.1500 
 21 C      -12.7800     4.3820     0.2060 C.ar  1 <1>  -0.1500 
 22 H       -4.0360     0.8220     2.0060 H     1 <1>   0.1500 
 23 H       -0.9080     3.2100     0.3910 H     1 <1>   0.1500 
 24 H       -1.8010     2.8640    -1.8920 H     1 <1>   0.1500 
 25 H       -3.8070     1.5130    -2.2310 H     1 <1>   0.1500 
 26 H       -5.2690    -0.6680     0.2010 H     1 <1>   0.0800 
 27 H       -5.4580     0.0110    -1.4000 H     1 <1>   0.0800 
 28 H       -6.3270     1.3140     1.0910 H     1 <1>   0.4500 
 29 H       -7.6780    -0.6460     0.7160 H     1 <1>   0.0800 
 30 H       -7.9870    -0.1010    -0.9100 H     1 <1>   0.0800 
 31 H       -6.8250     2.0960    -1.7060 H     1 <1>   0.0800 
 32 H       -5.7940     2.9270    -0.5750 H     1 <1>   0.0800 
 33 H       -8.9200     1.2260     1.6370 H     1 <1>   0.0800 
 34 H       -9.9050     0.4520     0.4310 H     1 <1>   0.0800 
 35 H       -8.0380     3.9870    -0.8520 H     1 <1>   0.0800 
 36 H       -7.6950     3.5460     0.7950 H     1 <1>   0.0800 
 37 H      -10.9340     2.6160    -1.9980 H     1 <1>   0.1500 
 38 H      -12.2010     4.8000     2.2240 H     1 <1>   0.1500 
 39 H      -13.0750     3.8080    -1.8300 H     1 <1>   0.1500 
 40 H      -13.7190     4.9040     0.2760 H     1 <1>   0.1500 
@<TRIPOS>BOND
  1   1   2  1   
  2   2   3  ar  
  3   2   4  ar  
  4   3   5  ar  
  5   3  22  1   
  6   4   6  ar  
  7   4  23  1   
  8   5   7  ar  
  9   5   8  1   
 10   6   7  ar  
 11   6  24  1   
 12   7  25  1   
 13   8   9  1   
 14   8  26  1   
 15   8  27  1   
 16   9  10  1   
 17   9  11  1   
 18   9  28  1   
 19  10  12  1   
 20  10  29  1   
 21  10  30  1   
 22  11  13  1   
 23  11  31  1   
 24  11  32  1   
 25  12  14  1   
 26  12  33  1   
 27  12  34  1   
 28  13  14  1   
 29  13  35  1   
 30  13  36  1   
 31  14  15  1   
 32  15  16  ar  
 33  15  17  ar  
 34  16  18  1   
 35  16  19  ar  
 36  17  20  ar  
 37  17  37  1   
 38  19  21  ar  
 39  19  38  1   
 40  20  21  ar  
 41  20  39  1   
 42  21  40  1   
@<TRIPOS>SUBSTRUCTURE
  1 ****  11 GROUP 4 **** **** 0

# MOE 2024.06 (io_trps.svl 2023.06)
