@<TRIPOS>MOLECULE
NONAME
47 49 1 0 0 
SMALL
USER_CHARGES


@<TRIPOS>ATOM
  1 S       -0.4140     0.2830     0.5010 S.3   1 <1>  -0.2860 
  2 C        1.1800     1.0860     0.6710 C.2   1 <1>   0.2420 
  3 C       -1.5010     1.2900     1.6290 C.3   1 <1>   0.1310 
  4 N        1.3730     2.1330     1.3910 N.2   1 <1>  -0.3380 
  5 N        2.2760     0.6520     0.0580 N.pl3 1 <1>   0.0480 
  6 C       -2.9440     0.8120     1.5920 C.2   1 <1>   0.5690 
  7 N        2.6660     2.4280     1.2600 N.2   1 <1>  -0.3380 
  8 C        3.2040     1.5380     0.4710 C.2   1 <1>   0.1330 
  9 C        2.4130    -0.4860    -0.8770 C.3   1 <1>   0.0160 
 10 O       -3.6490     1.0390     2.5450 O.2   1 <1>  -0.5700 
 11 N       -3.4070     0.1560     0.4950 N.am  1 <1>  -0.7300 
 12 C        4.5920     1.5140     0.0840 C.ar  1 <1>   0.0530 
 13 C       -4.7700    -0.3690     0.3160 C.3   1 <1>   0.2200 
 14 C        5.3820     0.3760     0.2500 C.ar  1 <1>   0.1600 
 15 C        5.1990     2.6280    -0.4750 C.ar  1 <1>  -0.1500 
 16 C       -4.6710    -1.8930     0.1690 C.3   1 <1>  -0.1600 
 17 C       -5.3910     0.3580    -0.8830 C.3   1 <1>  -0.1600 
 18 N        6.6480     0.2510    -0.1130 N.ar  1 <1>  -0.6200 
 19 C        6.5210     2.5260    -0.8490 C.ar  1 <1>  -0.1500 
 20 C       -6.0380    -2.5840     0.3010 C.3   1 <1>  -0.1600 
 21 C       -6.7960    -0.1250    -1.2800 C.3   1 <1>  -0.1600 
 22 C        7.1910     1.3310    -0.6530 C.ar  1 <1>   0.1600 
 23 C       -6.8340    -2.7000    -1.0090 C.3   1 <1>  -0.1600 
 24 C       -6.7730    -1.4990    -1.9650 C.3   1 <1>  -0.1600 
 25 H       -1.4390     2.3130     1.3060 H     1 <1>   0.0800 
 26 H       -1.1010     1.1980     2.6210 H     1 <1>   0.0800 
 27 H        1.5070    -0.5990    -1.4460 H     1 <1>   0.0800 
 28 H        2.5970    -1.3860    -0.3190 H     1 <1>   0.0800 
 29 H        3.2290    -0.3070    -1.5540 H     1 <1>   0.0800 
 30 H       -2.7570    -0.0500    -0.2650 H     1 <1>   0.3700 
 31 H       -5.3490    -0.1420     1.1960 H     1 <1>   0.0800 
 32 H        4.9330    -0.4840     0.7150 H     1 <1>   0.1500 
 33 H        4.6440     3.5420    -0.6070 H     1 <1>   0.1500 
 34 H       -4.0530    -2.2560     0.9720 H     1 <1>   0.0800 
 35 H       -4.2010    -2.1610    -0.7600 H     1 <1>   0.0800 
 36 H       -4.7380     0.2750    -1.7330 H     1 <1>   0.0800 
 37 H       -5.4610     1.4010    -0.6270 H     1 <1>   0.0800 
 38 H        7.0310     3.3650    -1.2870 H     1 <1>   0.1500 
 39 H       -6.6300    -2.0630     1.0340 H     1 <1>   0.0800 
 40 H       -5.8850    -3.5790     0.6810 H     1 <1>   0.0800 
 41 H       -7.1950     0.5860    -1.9830 H     1 <1>   0.0800 
 42 H       -7.4550    -0.1330    -0.4280 H     1 <1>   0.0800 
 43 H        8.2230     1.2600    -0.9520 H     1 <1>   0.1500 
 44 H       -7.8630    -2.8840    -0.7520 H     1 <1>   0.0800 
 45 H       -6.4880    -3.5670    -1.5460 H     1 <1>   0.0800 
 46 H       -5.8940    -1.5770    -2.5820 H     1 <1>   0.0800 
 47 H       -7.6190    -1.5670    -2.6280 H     1 <1>   0.0800 
@<TRIPOS>BOND
  1   1   2  1   
  2   1   3  1   
  3   2   4  2   
  4   2   5  1   
  5   3   6  1   
  6   3  25  1   
  7   3  26  1   
  8   4   7  1   
  9   5   8  1   
 10   5   9  1   
 11   6  10  2   
 12   6  11  am  
 13   7   8  2   
 14   8  12  1   
 15   9  27  1   
 16   9  28  1   
 17   9  29  1   
 18  11  13  1   
 19  11  30  1   
 20  12  14  ar  
 21  12  15  ar  
 22  13  16  1   
 23  13  17  1   
 24  13  31  1   
 25  14  18  ar  
 26  14  32  1   
 27  15  19  ar  
 28  15  33  1   
 29  16  20  1   
 30  16  34  1   
 31  16  35  1   
 32  17  21  1   
 33  17  36  1   
 34  17  37  1   
 35  18  22  ar  
 36  19  22  ar  
 37  19  38  1   
 38  20  23  1   
 39  20  39  1   
 40  20  40  1   
 41  21  24  1   
 42  21  41  1   
 43  21  42  1   
 44  22  43  1   
 45  23  24  1   
 46  23  44  1   
 47  23  45  1   
 48  24  46  1   
 49  24  47  1   
@<TRIPOS>SUBSTRUCTURE
  1 ****   1 GROUP 4 **** **** 0

# MOE 2024.06 (io_trps.svl 2023.06)
