@<TRIPOS>MOLECULE
NONAME
40 42 1 0 0 
SMALL
USER_CHARGES


@<TRIPOS>ATOM
  1 O       -2.2630     2.5550    -2.3350 O.2   1 <1>  -0.5700 
  2 C       -1.4590     2.5110    -1.4220 C.2   1 <1>   0.5440 
  3 N       -1.5860     1.5120    -0.4810 N.am  1 <1>  -0.6600 
  4 C       -0.4100     3.5130    -1.3420 C.ar  1 <1>   0.0860 
  5 C       -2.6610     0.4990    -0.5480 C.3   1 <1>   0.1400 
  6 C       -0.9170     1.4850     0.8420 C.3   1 <1>   0.1400 
  7 C        0.9070     3.1750    -1.0510 C.ar  1 <1>  -0.1500 
  8 C       -0.6890     4.8600    -1.5570 C.ar  1 <1>  -0.1500 
  9 C       -2.5260    -0.3070     0.7400 C.3   1 <1>  -0.1600 
 10 C       -1.8320     0.6380     1.7170 C.3   1 <1>  -0.1600 
 11 C        1.9090     4.1270    -0.9180 C.ar  1 <1>   0.1170 
 12 C        0.2980     5.8230    -1.4560 C.ar  1 <1>  -0.1500 
 13 N        3.2170     3.7480    -0.5850 N.am  1 <1>  -0.5470 
 14 C        1.5970     5.4700    -1.1320 C.ar  1 <1>  -0.1430 
 15 C        3.6620     2.7540     0.2560 C.2   1 <1>   0.7150 
 16 C        2.6530     6.5620    -1.0100 C.3   1 <1>  -0.0970 
 17 O        2.8540     2.1000     0.8920 O.2   1 <1>  -0.5700 
 18 C        5.0860     2.5290     0.3720 C.2   1 <1>   0.0550 
 19 O        5.5860     1.7470     1.3250 O.3   1 <1>  -0.2800 
 20 C        6.1270     3.0050    -0.3720 C.2   1 <1>  -0.1500 
 21 C        6.8930     1.7140     1.2140 C.2   1 <1>  -0.0100 
 22 C        7.2960     2.4760     0.1770 C.2   1 <1>  -0.1500 
 23 H       -2.5460    -0.1190    -1.4220 H     1 <1>   0.0800 
 24 H       -3.6130     1.0010    -0.5860 H     1 <1>   0.0800 
 25 H       -0.7920     2.4770     1.2420 H     1 <1>   0.0800 
 26 H        0.0450     1.0080     0.7450 H     1 <1>   0.0800 
 27 H        1.1510     2.1370    -0.9280 H     1 <1>   0.1500 
 28 H       -1.6970     5.1450    -1.8060 H     1 <1>   0.1500 
 29 H       -1.9010    -1.1610     0.5510 H     1 <1>   0.0800 
 30 H       -3.4820    -0.6430     1.1010 H     1 <1>   0.0800 
 31 H       -2.5570     1.2790     2.1860 H     1 <1>   0.0800 
 32 H       -1.2810     0.1130     2.4780 H     1 <1>   0.0800 
 33 H        0.0400     6.8540    -1.6290 H     1 <1>   0.1500 
 34 H        3.9430     4.3760    -0.9150 H     1 <1>   0.3700 
 35 H        3.1210     6.5170    -0.0430 H     1 <1>   0.0800 
 36 H        2.2120     7.5360    -1.1210 H     1 <1>   0.0800 
 37 H        3.4000     6.4410    -1.7730 H     1 <1>   0.0800 
 38 H        6.0980     3.6560    -1.2270 H     1 <1>   0.1500 
 39 H        7.4620     1.1230     1.9120 H     1 <1>   0.1500 
 40 H        8.2980     2.6540    -0.1740 H     1 <1>   0.1500 
@<TRIPOS>BOND
  1   1   2  2   
  2   2   3  am  
  3   2   4  1   
  4   3   5  1   
  5   3   6  1   
  6   4   7  ar  
  7   4   8  ar  
  8   5   9  1   
  9   5  23  1   
 10   5  24  1   
 11   6  10  1   
 12   6  25  1   
 13   6  26  1   
 14   7  11  ar  
 15   7  27  1   
 16   8  12  ar  
 17   8  28  1   
 18   9  10  1   
 19   9  29  1   
 20   9  30  1   
 21  10  31  1   
 22  10  32  1   
 23  11  13  1   
 24  11  14  ar  
 25  12  14  ar  
 26  12  33  1   
 27  13  15  am  
 28  13  34  1   
 29  14  16  1   
 30  15  17  2   
 31  15  18  1   
 32  16  35  1   
 33  16  36  1   
 34  16  37  1   
 35  18  19  1   
 36  18  20  2   
 37  19  21  1   
 38  20  22  1   
 39  20  38  1   
 40  21  22  2   
 41  21  39  1   
 42  22  40  1   
@<TRIPOS>SUBSTRUCTURE
  1 ****   7 GROUP 4 **** **** 0

# MOE 2024.06 (io_trps.svl 2023.06)
