@<TRIPOS>MOLECULE
NONAME
53 56 1 0 0 
SMALL
USER_CHARGES


@<TRIPOS>ATOM
  1 O      -17.9360    -1.0830     0.6250 O.3   1 <1>  -0.3630 
  2 C      -17.3030    -2.0590    -0.0350 C.ar  1 <1>   0.0830 
  3 C      -18.9140    -0.5560    -0.2690 C.3   1 <1>   0.4000 
  4 C      -17.8190    -2.1910    -1.2900 C.ar  1 <1>   0.0830 
  5 C      -16.2720    -2.8620     0.4090 C.ar  1 <1>  -0.1500 
  6 O      -18.8030    -1.3040    -1.4790 O.3   1 <1>  -0.3630 
  7 C      -17.3310    -3.1320    -2.1730 C.ar  1 <1>  -0.1500 
  8 C      -15.7610    -3.8210    -0.4600 C.ar  1 <1>  -0.1440 
  9 C      -16.2920    -3.9490    -1.7450 C.ar  1 <1>  -0.1500 
 10 C      -14.6280    -4.7220    -0.0010 C.3   1 <1>   0.2640 
 11 O      -13.4990    -3.9270     0.1990 O.3   1 <1>  -0.5600 
 12 C      -12.3520    -4.6130     0.5950 C.3   1 <1>   0.1200 
 13 C      -11.2250    -3.5840     0.7670 C.3   1 <1>   0.2000 
 14 O      -11.2310    -2.7380    -0.3420 O.3   1 <1>  -0.6800 
 15 C       -9.8270    -4.2210     0.9070 C.3   1 <1>   0.3430 
 16 N       -8.7680    -3.2470     0.4980 N.4   1 <1>  -0.9590 
 17 C       -7.5000    -3.9080     0.0250 C.3   1 <1>   0.3430 
 18 C       -8.4950    -2.1970     1.5440 C.3   1 <1>   0.3430 
 19 C       -6.4300    -2.8890    -0.4160 C.3   1 <1>   0.2090 
 20 C       -7.4240    -1.1820     1.0950 C.3   1 <1>   0.2090 
 21 N       -6.1770    -1.8690     0.6450 N.pl3 1 <1>  -0.8380 
 22 C       -5.1340    -1.0140     0.3650 C.ar  1 <1>   0.4100 
 23 N       -5.3020    -0.2060    -0.6730 N.ar  1 <1>  -0.6200 
 24 C       -3.9880    -1.0340     1.1540 C.ar  1 <1>  -0.1500 
 25 C       -4.2920     0.6090    -0.9310 C.ar  1 <1>   0.1600 
 26 C       -2.9470    -0.1800     0.8730 C.ar  1 <1>  -0.1500 
 27 C       -3.1140     0.6640    -0.2060 C.ar  1 <1>  -0.1500 
 28 H      -18.7020     0.4800    -0.4650 H     1 <1>   0.0800 
 29 H      -19.8950    -0.6910     0.1490 H     1 <1>   0.0800 
 30 H      -15.8820    -2.7340     1.4020 H     1 <1>   0.1500 
 31 H      -17.7510    -3.2190    -3.1590 H     1 <1>   0.1500 
 32 H      -15.8980    -4.6870    -2.4220 H     1 <1>   0.1500 
 33 H      -14.4040    -5.4650    -0.7470 H     1 <1>   0.0800 
 34 H      -14.8870    -5.2010     0.9270 H     1 <1>   0.0800 
 35 H      -12.1000    -5.3300    -0.1690 H     1 <1>   0.0800 
 36 H      -12.5510    -5.1230     1.5220 H     1 <1>   0.0800 
 37 H      -11.4390    -2.9820     1.6340 H     1 <1>   0.0800 
 38 H      -12.1810    -2.5820    -0.5760 H     1 <1>   0.4000 
 39 H       -9.7870    -5.0790     0.2560 H     1 <1>   0.0800 
 40 H       -9.6670    -4.5620     1.9160 H     1 <1>   0.0800 
 41 H       -9.2020    -2.7450    -0.3030 H     1 <1>   0.4500 
 42 H       -7.7160    -4.5650    -0.8010 H     1 <1>   0.0800 
 43 H       -7.0850    -4.5010     0.8220 H     1 <1>   0.0800 
 44 H       -8.1490    -2.6690     2.4480 H     1 <1>   0.0800 
 45 H       -9.4030    -1.6640     1.7710 H     1 <1>   0.0800 
 46 H       -6.7500    -2.3960    -1.3200 H     1 <1>   0.0800 
 47 H       -5.5120    -3.4060    -0.6350 H     1 <1>   0.0800 
 48 H       -7.1880    -0.5240     1.9150 H     1 <1>   0.0800 
 49 H       -7.8120    -0.5770     0.2930 H     1 <1>   0.0800 
 50 H       -3.9340    -1.7200     1.9760 H     1 <1>   0.1500 
 51 H       -4.4080     1.2740    -1.7700 H     1 <1>   0.1500 
 52 H       -2.0470    -0.1690     1.4640 H     1 <1>   0.1500 
 53 H       -2.3400     1.3570    -0.4810 H     1 <1>   0.1500 
@<TRIPOS>BOND
  1   1   2  1   
  2   1   3  1   
  3   2   4  ar  
  4   2   5  ar  
  5   3   6  1   
  6   3  28  1   
  7   3  29  1   
  8   4   6  1   
  9   4   7  ar  
 10   5   8  ar  
 11   5  30  1   
 12   7   9  ar  
 13   7  31  1   
 14   8   9  ar  
 15   8  10  1   
 16   9  32  1   
 17  10  11  1   
 18  10  33  1   
 19  10  34  1   
 20  11  12  1   
 21  12  13  1   
 22  12  35  1   
 23  12  36  1   
 24  13  14  1   
 25  13  15  1   
 26  13  37  1   
 27  14  38  1   
 28  15  16  1   
 29  15  39  1   
 30  15  40  1   
 31  16  17  1   
 32  16  18  1   
 33  16  41  1   
 34  17  19  1   
 35  17  42  1   
 36  17  43  1   
 37  18  20  1   
 38  18  44  1   
 39  18  45  1   
 40  19  21  1   
 41  19  46  1   
 42  19  47  1   
 43  20  21  1   
 44  20  48  1   
 45  20  49  1   
 46  21  22  1   
 47  22  23  ar  
 48  22  24  ar  
 49  23  25  ar  
 50  24  26  ar  
 51  24  50  1   
 52  25  27  ar  
 53  25  51  1   
 54  26  27  ar  
 55  26  52  1   
 56  27  53  1   
@<TRIPOS>SUBSTRUCTURE
  1 ****  14 GROUP 4 **** **** 0

# MOE 2024.06 (io_trps.svl 2023.06)
