@<TRIPOS>MOLECULE
NONAME
49 52 1 0 0 
SMALL
USER_CHARGES


@<TRIPOS>ATOM
  1 BR       0.0090    -0.0850    -0.6190 Br    1 <1>  -0.1110 
  2 C        1.7330    -0.9040    -0.4010 C.ar  1 <1>   0.1110 
  3 C        2.4660    -1.2290    -1.5260 C.ar  1 <1>  -0.1500 
  4 C        2.1990    -1.1510     0.8760 C.ar  1 <1>  -0.1500 
  5 C        3.7080    -1.8160    -1.3590 C.ar  1 <1>  -0.1500 
  6 C        3.4430    -1.7390     1.0230 C.ar  1 <1>  -0.1500 
  7 C        4.2250    -2.0750    -0.0870 C.ar  1 <1>   0.0860 
  8 C        5.5320    -2.6830     0.0690 C.2   1 <1>   0.5440 
  9 O        5.7390    -3.7670    -0.4440 O.2   1 <1>  -0.5700 
 10 N        6.5490    -2.0670     0.7740 N.am  1 <1>  -0.6600 
 11 C        7.8320    -2.7680     1.0580 C.3   1 <1>   0.1400 
 12 C        6.5380    -0.6250     1.1460 C.3   1 <1>   0.1400 
 13 C        8.9760    -2.0610     0.3260 C.3   1 <1>  -0.1600 
 14 C        7.6780     0.0980     0.4240 C.3   1 <1>  -0.1600 
 15 C        9.0450    -0.5660     0.6910 C.3   1 <1>  -0.0190 
 16 C       10.1980     0.1240    -0.0420 C.2   1 <1>   0.5690 
 17 O        9.9690     0.7820    -1.0280 O.2   1 <1>  -0.5700 
 18 N       11.4550    -0.0570     0.4670 N.am  1 <1>  -0.5470 
 19 C       12.7060     0.4270     0.0460 C.ar  1 <1>   0.1170 
 20 C       13.8470    -0.2490     0.4610 C.ar  1 <1>  -0.1500 
 21 C       12.8550     1.5600    -0.7510 C.ar  1 <1>  -0.1500 
 22 C       15.1040     0.1890     0.0890 C.ar  1 <1>   0.0830 
 23 C       14.1110     2.0030    -1.1340 C.ar  1 <1>  -0.1500 
 24 O       16.1920    -0.4940     0.5300 O.3   1 <1>  -0.3620 
 25 C       15.2390     1.3170    -0.7220 C.ar  1 <1>   0.0830 
 26 C       17.4480     0.1450     0.3920 C.3   1 <1>   0.1200 
 27 O       16.4620     1.7570    -1.1210 O.3   1 <1>  -0.3630 
 28 C       17.5400     0.8530    -0.9670 C.3   1 <1>   0.1200 
 29 H        2.0720    -1.0300    -2.5070 H     1 <1>   0.1500 
 30 H        1.5990    -0.8910     1.7290 H     1 <1>   0.1500 
 31 H        4.2970    -2.0870    -2.2190 H     1 <1>   0.1500 
 32 H        3.8230    -1.9490     2.0080 H     1 <1>   0.1500 
 33 H        7.7850    -3.7970     0.7450 H     1 <1>   0.0800 
 34 H        8.0080    -2.7560     2.1200 H     1 <1>   0.0800 
 35 H        6.6610    -0.5360     2.2120 H     1 <1>   0.0800 
 36 H        5.6060    -0.1600     0.8760 H     1 <1>   0.0800 
 37 H        8.8250    -2.1690    -0.7350 H     1 <1>   0.0800 
 38 H        9.9020    -2.5480     0.5740 H     1 <1>   0.0800 
 39 H        7.7080     1.1250     0.7420 H     1 <1>   0.0800 
 40 H        7.4710     0.0940    -0.6330 H     1 <1>   0.0800 
 41 H        9.2420    -0.4850     1.7450 H     1 <1>   0.0800 
 42 H       11.5070    -0.6970     1.2560 H     1 <1>   0.3700 
 43 H       13.7700    -1.1240     1.0770 H     1 <1>   0.1500 
 44 H       11.9910     2.1080    -1.0780 H     1 <1>   0.1500 
 45 H       14.2180     2.8750    -1.7530 H     1 <1>   0.1500 
 46 H       18.2120    -0.6050     0.4850 H     1 <1>   0.0800 
 47 H       17.5500     0.8570     1.1920 H     1 <1>   0.0800 
 48 H       17.4920     0.1360    -1.7670 H     1 <1>   0.0800 
 49 H       18.4540     1.4120    -1.0460 H     1 <1>   0.0800 
@<TRIPOS>BOND
  1   1   2  1   
  2   2   3  ar  
  3   2   4  ar  
  4   3   5  ar  
  5   3  29  1   
  6   4   6  ar  
  7   4  30  1   
  8   5   7  ar  
  9   5  31  1   
 10   6   7  ar  
 11   6  32  1   
 12   7   8  1   
 13   8   9  2   
 14   8  10  am  
 15  10  11  1   
 16  10  12  1   
 17  11  13  1   
 18  11  33  1   
 19  11  34  1   
 20  12  14  1   
 21  12  35  1   
 22  12  36  1   
 23  13  15  1   
 24  13  37  1   
 25  13  38  1   
 26  14  15  1   
 27  14  39  1   
 28  14  40  1   
 29  15  16  1   
 30  15  41  1   
 31  16  17  2   
 32  16  18  am  
 33  18  19  1   
 34  18  42  1   
 35  19  20  ar  
 36  19  21  ar  
 37  20  22  ar  
 38  20  43  1   
 39  21  23  ar  
 40  21  44  1   
 41  22  24  1   
 42  22  25  ar  
 43  23  25  ar  
 44  23  45  1   
 45  24  26  1   
 46  25  27  1   
 47  26  28  1   
 48  26  46  1   
 49  26  47  1   
 50  27  28  1   
 51  28  48  1   
 52  28  49  1   
@<TRIPOS>SUBSTRUCTURE
  1 ****  15 GROUP 4 **** **** 0

# MOE 2024.06 (io_trps.svl 2023.06)
