@<TRIPOS>MOLECULE
NONAME
31 34 1 0 0 
SMALL
USER_CHARGES


@<TRIPOS>ATOM
  1 S       -0.4290    -0.0620     0.4810 S.3   1 <1>  -0.0800 
  2 C        0.9630     0.6450    -0.2780 C.2   1 <1>   0.4420 
  3 C       -1.3650     1.1960    -0.2450 C.2   1 <1>   0.1980 
  4 N        0.6670     1.6900    -0.9610 N.2   1 <1>  -0.3380 
  5 N        2.1990     0.0520    -0.0900 N.am  1 <1>  -0.1840 
  6 N       -0.6650     1.9970    -0.9400 N.2   1 <1>  -0.3380 
  7 C       -2.8550     1.2110     0.0100 C.3   1 <1>  -0.0600 
  8 C        3.3600     0.7510     0.2090 C.2   1 <1>   0.5690 
  9 C        2.4690    -1.2900    -0.3160 C.2   1 <1>   0.5690 
 10 O        3.4580     1.8370     0.7160 O.2   1 <1>  -0.5700 
 11 C        4.5290    -0.1130    -0.1920 C.3   1 <1>  -0.0190 
 12 O        1.7350    -2.1170    -0.7900 O.2   1 <1>  -0.5700 
 13 C        3.8710    -1.5660     0.1660 C.3   1 <1>  -0.0190 
 14 C        6.1570    -0.2370    -0.0190 C.3   1 <1>  -0.0800 
 15 C        5.0590    -2.6960     0.0830 C.3   1 <1>  -0.0800 
 16 C        5.6420    -1.4820     0.0330 C.3   1 <1>  -0.1600 
 17 C        7.3830    -1.3360     0.0380 C.3   1 <1>  -0.1600 
 18 C        6.6960    -2.8720     0.1160 C.3   1 <1>  -0.1600 
 19 H       -3.2960     0.2990    -0.3500 H     1 <1>   0.0800 
 20 H       -3.3030     2.0420    -0.5040 H     1 <1>   0.0800 
 21 H       -3.0450     1.3070     1.0630 H     1 <1>   0.0800 
 22 H        4.4270     0.0390    -1.2650 H     1 <1>   0.0800 
 23 H        3.6340    -1.5650     1.2290 H     1 <1>   0.0800 
 24 H        6.4550     0.2710    -0.9240 H     1 <1>   0.0800 
 25 H        4.8330    -3.2360     0.9900 H     1 <1>   0.0800 
 26 H        5.6430    -1.5960    -1.1440 H     1 <1>   0.0800 
 27 H        5.6660    -1.3780     1.2100 H     1 <1>   0.0800 
 28 H        8.0080    -1.1560     0.9000 H     1 <1>   0.0800 
 29 H        8.0130    -1.2600    -0.8370 H     1 <1>   0.0800 
 30 H        7.0250    -3.4770    -0.7160 H     1 <1>   0.0800 
 31 H        7.0140    -3.3710     1.0200 H     1 <1>   0.0800 
@<TRIPOS>BOND
  1   1   2  1   
  2   1   3  1   
  3   2   4  2   
  4   2   5  1   
  5   3   6  2   
  6   3   7  1   
  7   4   6  1   
  8   5   8  am  
  9   5   9  am  
 10   7  19  1   
 11   7  20  1   
 12   7  21  1   
 13   8  10  2   
 14   8  11  1   
 15   9  12  2   
 16   9  13  1   
 17  11  13  1   
 18  11  14  1   
 19  11  22  1   
 20  13  15  1   
 21  13  23  1   
 22  14  16  1   
 23  14  17  1   
 24  14  24  1   
 25  15  16  1   
 26  15  18  1   
 27  15  25  1   
 28  16  26  1   
 29  16  27  1   
 30  17  18  1   
 31  17  28  1   
 32  17  29  1   
 33  18  30  1   
 34  18  31  1   
@<TRIPOS>SUBSTRUCTURE
  1 ****   5 GROUP 4 **** **** 0

# MOE 2024.06 (io_trps.svl 2023.06)
