@<TRIPOS>MOLECULE
NONAME
51 52 1 0 0 
SMALL
USER_CHARGES


@<TRIPOS>ATOM
  1 O       -0.0160     0.3050    -0.0100 O.2   1 <1>  -0.5700 
  2 C       -0.0500     1.5130     0.1380 C.2   1 <1>   0.5440 
  3 N        1.1020     2.1850     0.4950 N.am  1 <1>  -0.6600 
  4 C       -1.3060     2.2050    -0.0740 C.ar  1 <1>   0.0860 
  5 C        1.2670     3.6620     0.3870 C.3   1 <1>   0.1400 
  6 C        2.3500     1.4580     0.8650 C.3   1 <1>   0.1400 
  7 C       -1.9020     2.9600     0.9350 C.ar  1 <1>  -0.1500 
  8 C       -1.9660     2.1360    -1.2980 C.ar  1 <1>  -0.1500 
  9 C        2.3600     3.9870    -0.6370 C.3   1 <1>  -0.1600 
 10 C        3.4480     1.7630    -0.1590 C.3   1 <1>  -0.1600 
 11 C       -3.0970     3.6210     0.7250 C.ar  1 <1>  -0.1500 
 12 C       -3.1600     2.7980    -1.5090 C.ar  1 <1>  -0.1500 
 13 C        3.6790     3.2730    -0.3080 C.3   1 <1>  -0.1600 
 14 C       -3.7600     3.5480    -0.4990 C.ar  1 <1>   0.0860 
 15 C       -5.0110     4.2450    -0.7200 C.2   1 <1>   0.5440 
 16 O       -5.0730     5.0550    -1.6270 O.2   1 <1>  -0.5700 
 17 N       -6.1230     4.0420     0.0730 N.am  1 <1>  -0.6600 
 18 C       -6.6290     2.6840     0.4450 C.3   1 <1>   0.2200 
 19 C       -7.0450     5.1950     0.2920 C.3   1 <1>   0.2200 
 20 C       -5.8590     2.0980     1.6270 C.3   1 <1>  -0.2400 
 21 C       -6.6130     1.7420    -0.7600 C.3   1 <1>  -0.2400 
 22 C       -7.3960     5.3350     1.7740 C.3   1 <1>  -0.2400 
 23 C       -8.2930     5.0720    -0.5840 C.3   1 <1>  -0.2400 
 24 H        1.5430     4.0540     1.3510 H     1 <1>   0.0800 
 25 H        0.3510     4.1360     0.0820 H     1 <1>   0.0800 
 26 H        2.1780     0.3960     0.9050 H     1 <1>   0.0800 
 27 H        2.6630     1.7780     1.8440 H     1 <1>   0.0800 
 28 H       -1.4140     3.0220     1.8920 H     1 <1>   0.1500 
 29 H       -1.5260     1.5520    -2.0890 H     1 <1>   0.1500 
 30 H        2.5200     5.0500    -0.6620 H     1 <1>   0.0800 
 31 H        2.0190     3.6840    -1.6120 H     1 <1>   0.0800 
 32 H        3.1610     1.3410    -1.1060 H     1 <1>   0.0800 
 33 H        4.3610     1.2850     0.1480 H     1 <1>   0.0800 
 34 H       -3.5380     4.2030     1.5150 H     1 <1>   0.1500 
 35 H       -3.6470     2.7420    -2.4670 H     1 <1>   0.1500 
 36 H        4.0790     3.6660     0.6110 H     1 <1>   0.0800 
 37 H        4.3970     3.4560    -1.0890 H     1 <1>   0.0800 
 38 H       -7.6550     2.7740     0.7540 H     1 <1>   0.0800 
 39 H       -6.5330     6.0990     0.0020 H     1 <1>   0.0800 
 40 H       -4.8830     1.7640     1.3310 H     1 <1>   0.0800 
 41 H       -5.7730     2.8230     2.4150 H     1 <1>   0.0800 
 42 H       -6.3900     1.2450     2.0100 H     1 <1>   0.0800 
 43 H       -5.6100     1.4920    -1.0490 H     1 <1>   0.0800 
 44 H       -7.1210     2.1980    -1.5900 H     1 <1>   0.0800 
 45 H       -7.1230     0.8290    -0.5110 H     1 <1>   0.0800 
 46 H       -7.9940     4.5120     2.1190 H     1 <1>   0.0800 
 47 H       -7.9560     6.2400     1.9260 H     1 <1>   0.0800 
 48 H       -6.4960     5.3950     2.3580 H     1 <1>   0.0800 
 49 H       -8.9070     4.2420    -0.2920 H     1 <1>   0.0800 
 50 H       -8.0000     4.9570    -1.6130 H     1 <1>   0.0800 
 51 H       -8.8790     5.9690    -0.5030 H     1 <1>   0.0800 
@<TRIPOS>BOND
  1   1   2  2   
  2   2   3  am  
  3   2   4  1   
  4   3   5  1   
  5   3   6  1   
  6   4   7  ar  
  7   4   8  ar  
  8   5   9  1   
  9   5  24  1   
 10   5  25  1   
 11   6  10  1   
 12   6  26  1   
 13   6  27  1   
 14   7  11  ar  
 15   7  28  1   
 16   8  12  ar  
 17   8  29  1   
 18   9  13  1   
 19   9  30  1   
 20   9  31  1   
 21  10  13  1   
 22  10  32  1   
 23  10  33  1   
 24  11  14  ar  
 25  11  34  1   
 26  12  14  ar  
 27  12  35  1   
 28  13  36  1   
 29  13  37  1   
 30  14  15  1   
 31  15  16  2   
 32  15  17  am  
 33  17  18  1   
 34  17  19  1   
 35  18  20  1   
 36  18  21  1   
 37  18  38  1   
 38  19  22  1   
 39  19  23  1   
 40  19  39  1   
 41  20  40  1   
 42  20  41  1   
 43  20  42  1   
 44  21  43  1   
 45  21  44  1   
 46  21  45  1   
 47  22  46  1   
 48  22  47  1   
 49  22  48  1   
 50  23  49  1   
 51  23  50  1   
 52  23  51  1   
@<TRIPOS>SUBSTRUCTURE
  1 ****  11 GROUP 4 **** **** 0

# MOE 2024.06 (io_trps.svl 2023.06)
