@<TRIPOS>MOLECULE
NONAME
27 27 1 0 0 
SMALL
USER_CHARGES


@<TRIPOS>ATOM
  1 O        0.0910     0.0850    -1.1300 O.2   1 <1>  -0.5700 
  2 C       -0.0750     1.1060    -0.5050 C.2   1 <1>   0.4950 
  3 C       -1.4010     1.6060    -0.2790 C.2   1 <1>  -0.1360 
  4 C        1.1950     1.8300     0.0260 C.3   1 <1>   0.0610 
  5 C       -2.5550     1.0390    -0.7060 C.2   1 <1>  -0.1050 
  6 C        0.9170     3.1260     0.8160 C.3   1 <1>  -0.2400 
  7 C        2.1070     2.2010    -1.1590 C.3   1 <1>  -0.2400 
  8 C        1.9740     0.8820     0.9580 C.3   1 <1>  -0.2400 
  9 C       -3.8820     1.5220    -0.4900 C.2   1 <1>   0.0950 
 10 O       -4.9100     0.8430    -0.9780 O.3   1 <1>  -0.2800 
 11 C       -4.3570     2.6200     0.1620 C.2   1 <1>  -0.1500 
 12 C       -6.0210     1.4680    -0.6600 C.2   1 <1>  -0.0100 
 13 C       -5.7470     2.5830     0.0500 C.2   1 <1>  -0.1500 
 14 H       -1.4750     2.5140     0.2800 H     1 <1>   0.1500 
 15 H       -2.5100     0.1230    -1.2720 H     1 <1>   0.1500 
 16 H        1.8390     3.5680     1.1500 H     1 <1>   0.0800 
 17 H        0.3170     2.9220     1.6860 H     1 <1>   0.0800 
 18 H        0.4110     3.8480     0.2000 H     1 <1>   0.0800 
 19 H        1.5960     2.8650    -1.8320 H     1 <1>   0.0800 
 20 H        2.3850     1.3170    -1.7080 H     1 <1>   0.0800 
 21 H        3.0070     2.6820    -0.8180 H     1 <1>   0.0800 
 22 H        2.8720     1.3480     1.3210 H     1 <1>   0.0800 
 23 H        2.2490    -0.0160     0.4320 H     1 <1>   0.0800 
 24 H        1.3660     0.6020     1.8000 H     1 <1>   0.0800 
 25 H       -3.7970     3.3810     0.6710 H     1 <1>   0.1500 
 26 H       -6.9620     1.0540    -0.9780 H     1 <1>   0.1500 
 27 H       -6.4330     3.3050     0.4550 H     1 <1>   0.1500 
@<TRIPOS>BOND
  1   1   2  2   
  2   2   3  1   
  3   2   4  1   
  4   3   5  2   
  5   3  14  1   
  6   4   6  1   
  7   4   7  1   
  8   4   8  1   
  9   5   9  1   
 10   5  15  1   
 11   6  16  1   
 12   6  17  1   
 13   6  18  1   
 14   7  19  1   
 15   7  20  1   
 16   7  21  1   
 17   8  22  1   
 18   8  23  1   
 19   8  24  1   
 20   9  10  1   
 21   9  11  2   
 22  10  12  1   
 23  11  13  1   
 24  11  25  1   
 25  12  13  2   
 26  12  26  1   
 27  13  27  1   
@<TRIPOS>SUBSTRUCTURE
  1 ****   3 GROUP 4 **** **** 0

# MOE 2024.06 (io_trps.svl 2023.06)
