@<TRIPOS>MOLECULE
NONAME
49 51 1 0 0 
SMALL
USER_CHARGES


@<TRIPOS>ATOM
  1 O       -0.6250     4.4630     0.8460 O.2   1 <1>  -0.5700 
  2 C       -0.3090     3.4970     0.1720 C.2   1 <1>   0.6900 
  3 N       -1.1640     3.1150    -0.8220 N.am  1 <1>  -0.6600 
  4 N        0.8270     2.7800     0.4340 N.am  1 <1>  -0.6600 
  5 C       -2.2370     2.1730    -0.4150 C.3   1 <1>   0.1400 
  6 C       -1.6430     4.1800    -1.7460 C.3   1 <1>   0.1400 
  7 C        1.3240     1.6940    -0.4520 C.3   1 <1>   0.1400 
  8 C        1.7190     3.1430     1.5670 C.3   1 <1>   0.1400 
  9 C       -3.3940     2.9510     0.2450 C.3   1 <1>   0.3430 
 10 C       -2.8140     4.9620    -1.1140 C.3   1 <1>   0.3430 
 11 C        2.2120     2.2890    -1.5410 C.3   1 <1>  -0.2400 
 12 C        1.3890     2.2660     2.7720 C.3   1 <1>  -0.2400 
 13 N       -3.9210     4.0550    -0.6410 N.4   1 <1>  -0.9590 
 14 C       -4.9790     4.8320     0.0560 C.3   1 <1>   0.4860 
 15 C       -6.1460     3.9070     0.3400 C.ar  1 <1>  -0.1440 
 16 C       -6.9610     3.4780    -0.7050 C.ar  1 <1>  -0.1500 
 17 C       -6.3980     3.4770     1.6440 C.ar  1 <1>  -0.1500 
 18 C       -7.9970     2.6160    -0.4100 C.ar  1 <1>   0.0820 
 19 C       -7.4500     2.6110     1.9190 C.ar  1 <1>  -0.1500 
 20 O       -8.8850     2.0770    -1.2490 O.3   1 <1>  -0.3630 
 21 C       -8.2350     2.1930     0.8640 C.ar  1 <1>   0.0820 
 22 C       -9.7600     1.2720    -0.4570 C.3   1 <1>   0.4000 
 23 O       -9.2860     1.3690     0.8860 O.3   1 <1>  -0.3620 
 24 H       -1.8400     1.4610     0.2900 H     1 <1>   0.0800 
 25 H       -2.5910     1.6280    -1.2720 H     1 <1>   0.0800 
 26 H       -1.9480     3.7390    -2.6790 H     1 <1>   0.0800 
 27 H       -0.8330     4.8600    -1.9520 H     1 <1>   0.0800 
 28 H        0.4970     1.1740    -0.9030 H     1 <1>   0.0800 
 29 H        1.8830     0.9800     0.1280 H     1 <1>   0.0800 
 30 H        1.5860     4.1800     1.8270 H     1 <1>   0.0800 
 31 H        2.7480     3.0060     1.2810 H     1 <1>   0.0800 
 32 H       -3.0270     3.3750     1.1660 H     1 <1>   0.0800 
 33 H       -4.1870     2.2630     0.4890 H     1 <1>   0.0800 
 34 H       -3.1950     5.6700    -1.8310 H     1 <1>   0.0800 
 35 H       -2.4250     5.5190    -0.2760 H     1 <1>   0.0800 
 36 H        1.6540     2.9900    -2.1350 H     1 <1>   0.0800 
 37 H        2.5700     1.5060    -2.1850 H     1 <1>   0.0800 
 38 H        3.0610     2.7860    -1.1080 H     1 <1>   0.0800 
 39 H        0.3690     2.4230     3.0730 H     1 <1>   0.0800 
 40 H        2.0290     2.5290     3.5940 H     1 <1>   0.0800 
 41 H        1.5410     1.2280     2.5400 H     1 <1>   0.0800 
 42 H       -4.3600     3.6080    -1.4550 H     1 <1>   0.4500 
 43 H       -5.3140     5.6480    -0.5640 H     1 <1>   0.0800 
 44 H       -4.5950     5.2390     0.9780 H     1 <1>   0.0800 
 45 H       -6.8210     3.7920    -1.7250 H     1 <1>   0.1500 
 46 H       -5.7830     3.8110     2.4640 H     1 <1>   0.1500 
 47 H       -7.6610     2.2690     2.9170 H     1 <1>   0.1500 
 48 H       -9.7100     0.2500    -0.7860 H     1 <1>   0.0800 
 49 H      -10.7610     1.6620    -0.5150 H     1 <1>   0.0800 
@<TRIPOS>BOND
  1   1   2  2   
  2   2   3  am  
  3   2   4  am  
  4   3   5  1   
  5   3   6  1   
  6   4   7  1   
  7   4   8  1   
  8   5   9  1   
  9   5  24  1   
 10   5  25  1   
 11   6  10  1   
 12   6  26  1   
 13   6  27  1   
 14   7  11  1   
 15   7  28  1   
 16   7  29  1   
 17   8  12  1   
 18   8  30  1   
 19   8  31  1   
 20   9  13  1   
 21   9  32  1   
 22   9  33  1   
 23  10  13  1   
 24  10  34  1   
 25  10  35  1   
 26  11  36  1   
 27  11  37  1   
 28  11  38  1   
 29  12  39  1   
 30  12  40  1   
 31  12  41  1   
 32  13  14  1   
 33  13  42  1   
 34  14  15  1   
 35  14  43  1   
 36  14  44  1   
 37  15  16  ar  
 38  15  17  ar  
 39  16  18  ar  
 40  16  45  1   
 41  17  19  ar  
 42  17  46  1   
 43  18  20  1   
 44  18  21  ar  
 45  19  21  ar  
 46  19  47  1   
 47  20  22  1   
 48  21  23  1   
 49  22  23  1   
 50  22  48  1   
 51  22  49  1   
@<TRIPOS>SUBSTRUCTURE
  1 ****   9 GROUP 4 **** **** 0

# MOE 2024.06 (io_trps.svl 2023.06)
