@<TRIPOS>MOLECULE
NONAME
28 29 1 0 0 
SMALL
USER_CHARGES


@<TRIPOS>ATOM
  1 I       -0.3330    -0.6160    -2.4090 I     1 <1>  -0.0810 
  2 C        0.7800    -1.8250    -1.0410 C.ar  1 <1>   0.0810 
  3 C        0.1340    -2.7720    -0.2530 C.ar  1 <1>   0.0830 
  4 C        2.1450    -1.6160    -0.9890 C.ar  1 <1>  -0.1500 
  5 O       -1.2130    -2.9220    -0.3600 O.3   1 <1>  -0.3630 
  6 C        0.9200    -3.5240     0.6150 C.ar  1 <1>  -0.1500 
  7 C        2.9280    -2.3690    -0.1210 C.ar  1 <1>  -0.0090 
  8 C       -1.9200    -3.8580     0.4240 C.3   1 <1>   0.0400 
  9 C        2.2900    -3.3190     0.6720 C.ar  1 <1>  -0.1500 
 10 S        4.7240    -2.1390    -0.0290 S.o2  1 <1>   1.4470 
 11 O        5.1500    -1.1350    -0.9770 O.2   1 <1>  -0.6500 
 12 O        5.1300    -2.0560     1.3560 O.2   1 <1>  -0.6500 
 13 N        5.3130    -3.5740    -0.6690 N.am  1 <1>  -0.7890 
 14 C        6.6350    -3.9140    -0.2070 C.3   1 <1>   0.1310 
 15 C        7.1210    -5.2990    -0.4670 C.3   1 <1>  -0.2000 
 16 C        6.7580    -4.8740     0.9260 C.3   1 <1>  -0.2000 
 17 H        2.5990    -0.8690    -1.6180 H     1 <1>   0.1500 
 18 H        0.4860    -4.2720     1.2530 H     1 <1>   0.1500 
 19 H       -2.9610    -3.7880     0.1660 H     1 <1>   0.0800 
 20 H       -1.7850    -3.6170     1.4630 H     1 <1>   0.0800 
 21 H       -1.5550    -4.8450     0.2040 H     1 <1>   0.0800 
 22 H        2.8840    -3.9110     1.3510 H     1 <1>   0.1500 
 23 H        5.3970    -3.3690    -1.6620 H     1 <1>   0.4200 
 24 H        7.3420    -3.0990    -0.2700 H     1 <1>   0.1000 
 25 H        8.1610    -5.4560    -0.6910 H     1 <1>   0.1000 
 26 H        6.4750    -5.9920    -0.9760 H     1 <1>   0.1000 
 27 H        5.8540    -5.2470     1.3750 H     1 <1>   0.1000 
 28 H        7.5450    -4.7210     1.6420 H     1 <1>   0.1000 
@<TRIPOS>BOND
  1   1   2  1   
  2   2   3  ar  
  3   2   4  ar  
  4   3   5  1   
  5   3   6  ar  
  6   4   7  ar  
  7   4  17  1   
  8   5   8  1   
  9   6   9  ar  
 10   6  18  1   
 11   7   9  ar  
 12   7  10  1   
 13   8  19  1   
 14   8  20  1   
 15   8  21  1   
 16   9  22  1   
 17  10  11  2   
 18  10  12  2   
 19  10  13  am  
 20  13  14  1   
 21  13  23  1   
 22  14  15  1   
 23  14  16  1   
 24  14  24  1   
 25  15  16  1   
 26  15  25  1   
 27  15  26  1   
 28  16  27  1   
 29  16  28  1   
@<TRIPOS>SUBSTRUCTURE
  1 ****   7 GROUP 4 **** **** 0

# MOE 2024.06 (io_trps.svl 2023.06)
