@<TRIPOS>MOLECULE
NONAME
54 56 1 0 0 
SMALL
USER_CHARGES


@<TRIPOS>ATOM
  1 BR       0.5000    -2.2000     4.0110 Br    1 <1>  -0.1110 
  2 C       -0.1010    -2.8340     2.2890 C.ar  1 <1>   0.1110 
  3 C        0.7620    -2.8070     1.2020 C.ar  1 <1>   0.0820 
  4 C       -1.3970    -3.3010     2.1990 C.ar  1 <1>  -0.1500 
  5 O        2.0190    -2.3280     1.3920 O.3   1 <1>  -0.3630 
  6 C        0.2880    -3.2690    -0.0220 C.ar  1 <1>  -0.1500 
  7 C       -1.8620    -3.7580     0.9750 C.ar  1 <1>  -0.1430 
  8 C        2.9920    -2.3500     0.3710 C.3   1 <1>   0.0400 
  9 C       -1.0190    -3.7420    -0.1360 C.ar  1 <1>   0.0820 
 10 C       -3.2830    -4.2760     0.8530 C.3   1 <1>   0.4870 
 11 O       -1.5380    -4.1950    -1.3120 O.3   1 <1>  -0.3630 
 12 N       -4.0140    -3.4220    -0.1140 N.4   1 <1>  -0.9590 
 13 C       -0.7050    -4.4640    -2.4240 C.3   1 <1>   0.0400 
 14 C       -4.1440    -1.9940     0.3550 C.3   1 <1>   0.3430 
 15 C       -5.3460    -4.0020    -0.5060 C.3   1 <1>   0.3430 
 16 C       -4.8610    -1.0940    -0.6720 C.3   1 <1>   0.2090 
 17 C       -6.0810    -3.1410    -1.5550 C.3   1 <1>   0.2090 
 18 N       -6.1350    -1.7060    -1.1530 N.pl3 1 <1>  -0.8380 
 19 C       -7.3290    -1.2320    -0.6120 C.ar  1 <1>   0.1000 
 20 C       -8.1930    -0.4440    -1.3730 C.ar  1 <1>  -0.1430 
 21 C       -7.6770    -1.5410     0.7000 C.ar  1 <1>  -0.1500 
 22 C       -9.3740     0.0140    -0.8160 C.ar  1 <1>  -0.1500 
 23 C       -7.8510    -0.0800    -2.8110 C.3   1 <1>  -0.0970 
 24 C       -8.8580    -1.0830     1.2560 C.ar  1 <1>  -0.1430 
 25 C       -9.7070    -0.3020     0.4900 C.ar  1 <1>  -0.1500 
 26 C       -9.2390    -1.4190     2.6860 C.3   1 <1>  -0.0970 
 27 H       -2.0120    -3.3010     3.0820 H     1 <1>   0.1500 
 28 H        0.9350    -3.2520    -0.8760 H     1 <1>   0.1500 
 29 H        3.9070    -1.9560     0.7750 H     1 <1>   0.0800 
 30 H        2.6600    -1.7330    -0.4450 H     1 <1>   0.0800 
 31 H        3.1440    -3.3670     0.0530 H     1 <1>   0.0800 
 32 H       -3.7720    -4.2600     1.8130 H     1 <1>   0.0800 
 33 H       -3.2530    -5.2930     0.4970 H     1 <1>   0.0800 
 34 H       -3.4060    -3.4120    -0.9500 H     1 <1>   0.4500 
 35 H       -0.2870    -3.5410    -2.7850 H     1 <1>   0.0800 
 36 H       -1.3030    -4.9160    -3.1950 H     1 <1>   0.0800 
 37 H        0.0740    -5.1450    -2.1250 H     1 <1>   0.0800 
 38 H       -3.1680    -1.5820     0.5550 H     1 <1>   0.0800 
 39 H       -4.7060    -1.9670     1.2730 H     1 <1>   0.0800 
 40 H       -5.9770    -4.0750     0.3640 H     1 <1>   0.0800 
 41 H       -5.2140    -4.9950    -0.9030 H     1 <1>   0.0800 
 42 H       -4.2160    -0.9200    -1.5150 H     1 <1>   0.0800 
 43 H       -5.0720    -0.1380    -0.2230 H     1 <1>   0.0800 
 44 H       -7.0850    -3.5120    -1.6830 H     1 <1>   0.0800 
 45 H       -5.5830    -3.2200    -2.5050 H     1 <1>   0.0800 
 46 H       -7.0190    -2.1440     1.2890 H     1 <1>   0.1500 
 47 H      -10.0480     0.6220    -1.3940 H     1 <1>   0.1500 
 48 H       -7.7560    -0.9740    -3.3990 H     1 <1>   0.0800 
 49 H       -6.9190     0.4550    -2.8390 H     1 <1>   0.0800 
 50 H       -8.6140     0.5390    -3.2480 H     1 <1>   0.0800 
 51 H      -10.6300     0.0630     0.9060 H     1 <1>   0.1500 
 52 H       -8.5340    -2.1000     3.1270 H     1 <1>   0.0800 
 53 H      -10.2130    -1.8740     2.7080 H     1 <1>   0.0800 
 54 H       -9.2650    -0.5200     3.2760 H     1 <1>   0.0800 
@<TRIPOS>BOND
  1   1   2  1   
  2   2   3  ar  
  3   2   4  ar  
  4   3   5  1   
  5   3   6  ar  
  6   4   7  ar  
  7   4  27  1   
  8   5   8  1   
  9   6   9  ar  
 10   6  28  1   
 11   7   9  ar  
 12   7  10  1   
 13   8  29  1   
 14   8  30  1   
 15   8  31  1   
 16   9  11  1   
 17  10  12  1   
 18  10  32  1   
 19  10  33  1   
 20  11  13  1   
 21  12  14  1   
 22  12  15  1   
 23  12  34  1   
 24  13  35  1   
 25  13  36  1   
 26  13  37  1   
 27  14  16  1   
 28  14  38  1   
 29  14  39  1   
 30  15  17  1   
 31  15  40  1   
 32  15  41  1   
 33  16  18  1   
 34  16  42  1   
 35  16  43  1   
 36  17  18  1   
 37  17  44  1   
 38  17  45  1   
 39  18  19  1   
 40  19  20  ar  
 41  19  21  ar  
 42  20  22  ar  
 43  20  23  1   
 44  21  24  ar  
 45  21  46  1   
 46  22  25  ar  
 47  22  47  1   
 48  23  48  1   
 49  23  49  1   
 50  23  50  1   
 51  24  25  ar  
 52  24  26  1   
 53  25  51  1   
 54  26  52  1   
 55  26  53  1   
 56  26  54  1   
@<TRIPOS>SUBSTRUCTURE
  1 ****  14 GROUP 4 **** **** 0

# MOE 2024.06 (io_trps.svl 2023.06)
