@<TRIPOS>MOLECULE
NONAME
26 27 1 0 0 
SMALL
USER_CHARGES


@<TRIPOS>ATOM
  1 S        0.2510     0.0270    -0.0160 S.o2  1 <1>   1.4590 
  2 O        0.6040     1.4490    -0.2660 O.co2 1 <1>  -0.8170 
  3 O        0.6050    -0.8760    -1.1390 O.co2 1 <1>  -0.8170 
  4 O        0.7120    -0.4610     1.3060 O.co2 1 <1>  -0.8170 
  5 C       -1.5850     0.0040     0.0720 C.ar  1 <1>  -0.0090 
  6 C       -2.3240    -1.0920    -0.3580 C.ar  1 <1>  -0.1500 
  7 C       -2.2930     1.0790     0.5960 C.ar  1 <1>  -0.1500 
  8 C       -3.7060    -1.1070    -0.2880 C.ar  1 <1>  -0.1500 
  9 C       -3.6750     1.0710     0.6710 C.ar  1 <1>  -0.1500 
 10 C       -4.4100    -0.0210     0.2190 C.ar  1 <1>   0.1170 
 11 N       -5.8190    -0.0170     0.2580 N.am  1 <1>  -0.4770 
 12 C       -6.6570    -1.0670     0.5050 C.2   1 <1>   0.5690 
 13 C       -6.5810     1.1770    -0.1620 C.3   1 <1>   0.1400 
 14 O       -6.3460    -2.1850     0.8350 O.2   1 <1>  -0.5700 
 15 C       -8.0970    -0.6830     0.3030 C.3   1 <1>  -0.0990 
 16 C       -8.0500     0.8390     0.1190 C.3   1 <1>  -0.1600 
 17 H       -1.7910    -1.9400    -0.7550 H     1 <1>   0.1500 
 18 H       -1.7330     1.9300     0.9460 H     1 <1>   0.1500 
 19 H       -4.2410    -1.9740    -0.6320 H     1 <1>   0.1500 
 20 H       -4.1750     1.9210     1.0930 H     1 <1>   0.1500 
 21 H       -6.4190     1.3420    -1.2140 H     1 <1>   0.0800 
 22 H       -6.2760     2.0470     0.3920 H     1 <1>   0.0800 
 23 H       -8.6880    -0.9670     1.1540 H     1 <1>   0.0800 
 24 H       -8.4670    -1.1700    -0.5800 H     1 <1>   0.0800 
 25 H       -8.6920     1.1710    -0.6780 H     1 <1>   0.0800 
 26 H       -8.3520     1.3230     1.0320 H     1 <1>   0.0800 
@<TRIPOS>BOND
  1   1   2  ar  
  2   1   3  ar  
  3   1   4  ar  
  4   1   5  1   
  5   5   6  ar  
  6   5   7  ar  
  7   6   8  ar  
  8   6  17  1   
  9   7   9  ar  
 10   7  18  1   
 11   8  10  ar  
 12   8  19  1   
 13   9  10  ar  
 14   9  20  1   
 15  10  11  1   
 16  11  12  am  
 17  11  13  1   
 18  12  14  2   
 19  12  15  1   
 20  13  16  1   
 21  13  21  1   
 22  13  22  1   
 23  15  16  1   
 24  15  23  1   
 25  15  24  1   
 26  16  25  1   
 27  16  26  1   
@<TRIPOS>SUBSTRUCTURE
  1 ****  10 GROUP 4 **** **** 0

# MOE 2024.06 (io_trps.svl 2023.06)
