@<TRIPOS>MOLECULE
NONAME
46 48 1 0 0 
SMALL
USER_CHARGES


@<TRIPOS>ATOM
  1 S        0.4630    -0.1070    -0.5180 S.3   1 <1>  -0.2860 
  2 C       -1.2390    -0.6290    -0.7470 C.2   1 <1>   0.2420 
  3 C        1.3220    -0.8780    -1.9800 C.3   1 <1>   0.1310 
  4 N       -1.6210    -1.3860    -1.7120 N.2   1 <1>  -0.3380 
  5 N       -2.2260    -0.2650     0.0710 N.pl3 1 <1>   0.0480 
  6 C        2.8220    -0.6290    -1.9490 C.2   1 <1>   0.5690 
  7 N       -2.9380    -1.5450    -1.5450 N.2   1 <1>  -0.3380 
  8 C       -3.2770    -0.8790    -0.4890 C.2   1 <1>   0.1010 
  9 C       -2.1700     0.5950     1.2730 C.3   1 <1>   0.0960 
 10 O        3.4340    -0.7640    -2.9790 O.2   1 <1>  -0.5700 
 11 N        3.4020    -0.2720    -0.7600 N.am  1 <1>  -0.5470 
 12 C       -4.6930    -0.7860     0.0570 C.3   1 <1>  -0.0150 
 13 C       -2.4000     2.0640     0.8960 C.3   1 <1>  -0.1600 
 14 C        4.7300     0.0030    -0.4000 C.ar  1 <1>   0.1170 
 15 C       -5.0650    -1.5130     1.3140 C.3   1 <1>  -0.2000 
 16 C       -5.6060    -1.9720    -0.0040 C.3   1 <1>  -0.2000 
 17 C       -2.3680     2.9660     2.1340 C.3   1 <1>  -0.2400 
 18 C        4.9630     0.6330     0.8150 C.ar  1 <1>  -0.1500 
 19 C        5.8260    -0.3320    -1.1900 C.ar  1 <1>  -0.1500 
 20 C        6.2460     0.9280     1.2400 C.ar  1 <1>   0.0820 
 21 C        7.1140    -0.0410    -0.7760 C.ar  1 <1>  -0.1500 
 22 O        6.3620     1.5450     2.4440 O.3   1 <1>  -0.3630 
 23 C        7.3310     0.5890     0.4360 C.ar  1 <1>  -0.1500 
 24 C        7.6230     1.9030     2.9630 C.3   1 <1>   0.0400 
 25 H        0.8890    -0.4490    -2.8650 H     1 <1>   0.0800 
 26 H        1.1180    -1.9320    -1.9520 H     1 <1>   0.0800 
 27 H       -1.2090     0.4800     1.7400 H     1 <1>   0.0800 
 28 H       -2.9220     0.2700     1.9690 H     1 <1>   0.0800 
 29 H        2.7280    -0.1280    -0.0080 H     1 <1>   0.3700 
 30 H       -5.1400     0.1750    -0.1270 H     1 <1>   0.1000 
 31 H       -3.3570     2.1680     0.4120 H     1 <1>   0.0800 
 32 H       -1.6340     2.3830     0.2090 H     1 <1>   0.0800 
 33 H       -5.7370    -1.0410     2.0090 H     1 <1>   0.1000 
 34 H       -4.3330    -2.1350     1.8000 H     1 <1>   0.1000 
 35 H       -5.2290    -2.8830    -0.4370 H     1 <1>   0.1000 
 36 H       -6.6440    -1.8070    -0.2330 H     1 <1>   0.1000 
 37 H       -3.1390     2.6830     2.8310 H     1 <1>   0.0800 
 38 H       -2.5300     3.9900     1.8470 H     1 <1>   0.0800 
 39 H       -1.4130     2.8990     2.6270 H     1 <1>   0.0800 
 40 H        4.1410     0.9050     1.4490 H     1 <1>   0.1500 
 41 H        5.6830    -0.8260    -2.1330 H     1 <1>   0.1500 
 42 H        7.9480    -0.3070    -1.4020 H     1 <1>   0.1500 
 43 H        8.3390     0.8030     0.7340 H     1 <1>   0.1500 
 44 H        7.4690     2.3780     3.9150 H     1 <1>   0.0800 
 45 H        8.0980     2.5890     2.2840 H     1 <1>   0.0800 
 46 H        8.2140     1.0130     3.0900 H     1 <1>   0.0800 
@<TRIPOS>BOND
  1   1   2  1   
  2   1   3  1   
  3   2   4  2   
  4   2   5  1   
  5   3   6  1   
  6   3  25  1   
  7   3  26  1   
  8   4   7  1   
  9   5   8  1   
 10   5   9  1   
 11   6  10  2   
 12   6  11  am  
 13   7   8  2   
 14   8  12  1   
 15   9  13  1   
 16   9  27  1   
 17   9  28  1   
 18  11  14  1   
 19  11  29  1   
 20  12  15  1   
 21  12  16  1   
 22  12  30  1   
 23  13  17  1   
 24  13  31  1   
 25  13  32  1   
 26  14  18  ar  
 27  14  19  ar  
 28  15  16  1   
 29  15  33  1   
 30  15  34  1   
 31  16  35  1   
 32  16  36  1   
 33  17  37  1   
 34  17  38  1   
 35  17  39  1   
 36  18  20  ar  
 37  18  40  1   
 38  19  21  ar  
 39  19  41  1   
 40  20  22  1   
 41  20  23  ar  
 42  21  23  ar  
 43  21  42  1   
 44  22  24  1   
 45  23  43  1   
 46  24  44  1   
 47  24  45  1   
 48  24  46  1   
@<TRIPOS>SUBSTRUCTURE
  1 ****   1 GROUP 4 **** **** 0

# MOE 2024.06 (io_trps.svl 2023.06)
