@<TRIPOS>MOLECULE
NONAME
45 47 1 0 0 
SMALL
USER_CHARGES


@<TRIPOS>ATOM
  1 CL      -0.7880     0.4300     0.9580 Cl    1 <1>  -0.1770 
  2 C       -2.2520    -0.5150     0.8150 C.ar  1 <1>   0.1770 
  3 C       -3.4860     0.0770     1.0180 C.ar  1 <1>   0.1600 
  4 C       -2.1720    -1.8520     0.4970 C.ar  1 <1>  -0.1500 
  5 N       -4.6450    -0.5630     0.9290 N.ar  1 <1>  -0.6200 
  6 C       -3.3710    -2.5250     0.4030 C.ar  1 <1>  -0.1500 
  7 C       -4.5760    -1.8550     0.6320 C.ar  1 <1>   0.4270 
  8 N       -5.8190    -2.4460     0.5550 N.am  1 <1>  -0.5470 
  9 C       -6.2280    -3.7560     0.5480 C.2   1 <1>   0.5440 
 10 O       -5.4160    -4.6420     0.7170 O.2   1 <1>  -0.5700 
 11 C       -7.6320    -4.0800     0.3660 C.ar  1 <1>   0.0860 
 12 C       -8.5140    -3.2430    -0.3210 C.ar  1 <1>  -0.1500 
 13 C       -8.1610    -5.2650     0.8750 C.ar  1 <1>  -0.1500 
 14 C       -9.8600    -3.5390    -0.5030 C.ar  1 <1>  -0.0090 
 15 C       -9.4930    -5.5860     0.7190 C.ar  1 <1>  -0.1500 
 16 S      -10.9220    -2.3700    -1.4030 S.o2  1 <1>   1.4470 
 17 C      -10.3500    -4.7270     0.0360 C.ar  1 <1>   0.0830 
 18 O      -11.9850    -3.0050    -2.1520 O.2   1 <1>  -0.6500 
 19 O      -10.0540    -1.4560    -2.1170 O.2   1 <1>  -0.6500 
 20 N      -11.6510    -1.4500    -0.1790 N.am  1 <1>  -0.8490 
 21 O      -11.6620    -5.0120    -0.1190 O.3   1 <1>  -0.3620 
 22 C      -12.6790    -2.1910     0.5840 C.3   1 <1>   0.1960 
 23 C      -12.1900    -0.1810    -0.6790 C.3   1 <1>   0.1960 
 24 C      -12.2000    -6.2950     0.1200 C.3   1 <1>   0.0400 
 25 C      -13.7470    -1.2890     1.2450 C.3   1 <1>   0.1200 
 26 C      -12.7370     0.6990     0.4710 C.3   1 <1>   0.1200 
 27 O      -13.2240    -0.0360     1.5660 O.3   1 <1>  -0.5600 
 28 H       -3.5130     1.1240     1.2630 H     1 <1>   0.1500 
 29 H       -1.2250    -2.3340     0.3310 H     1 <1>   0.1500 
 30 H       -3.3710    -3.5680     0.1500 H     1 <1>   0.1500 
 31 H       -6.5510    -1.7450     0.6300 H     1 <1>   0.3700 
 32 H       -8.1350    -2.3270    -0.7420 H     1 <1>   0.1500 
 33 H       -7.5090    -5.9410     1.4040 H     1 <1>   0.1500 
 34 H       -9.8470    -6.5090     1.1400 H     1 <1>   0.1500 
 35 H      -12.1870    -2.7620     1.3520 H     1 <1>   0.0800 
 36 H      -13.1980    -2.8890    -0.0500 H     1 <1>   0.0800 
 37 H      -12.9790    -0.3790    -1.3850 H     1 <1>   0.0800 
 38 H      -11.4250     0.3730    -1.1960 H     1 <1>   0.0800 
 39 H      -11.6450    -7.0190    -0.4520 H     1 <1>   0.0800 
 40 H      -13.2270    -6.2910    -0.2000 H     1 <1>   0.0800 
 41 H      -12.1460    -6.5090     1.1720 H     1 <1>   0.0800 
 42 H      -14.1100    -1.7430     2.1500 H     1 <1>   0.0800 
 43 H      -14.5800    -1.1450     0.5790 H     1 <1>   0.0800 
 44 H      -13.5300     1.3280     0.1080 H     1 <1>   0.0800 
 45 H      -11.9500     1.3310     0.8440 H     1 <1>   0.0800 
@<TRIPOS>BOND
  1   1   2  1   
  2   2   3  ar  
  3   2   4  ar  
  4   3   5  ar  
  5   3  28  1   
  6   4   6  ar  
  7   4  29  1   
  8   5   7  ar  
  9   6   7  ar  
 10   6  30  1   
 11   7   8  1   
 12   8   9  am  
 13   8  31  1   
 14   9  10  2   
 15   9  11  1   
 16  11  12  ar  
 17  11  13  ar  
 18  12  14  ar  
 19  12  32  1   
 20  13  15  ar  
 21  13  33  1   
 22  14  16  1   
 23  14  17  ar  
 24  15  17  ar  
 25  15  34  1   
 26  16  18  2   
 27  16  19  2   
 28  16  20  am  
 29  17  21  1   
 30  20  22  1   
 31  20  23  1   
 32  21  24  1   
 33  22  25  1   
 34  22  35  1   
 35  22  36  1   
 36  23  26  1   
 37  23  37  1   
 38  23  38  1   
 39  24  39  1   
 40  24  40  1   
 41  24  41  1   
 42  25  27  1   
 43  25  42  1   
 44  25  43  1   
 45  26  27  1   
 46  26  44  1   
 47  26  45  1   
@<TRIPOS>SUBSTRUCTURE
  1 ****  12 GROUP 4 **** **** 0

# MOE 2024.06 (io_trps.svl 2023.06)
