@<TRIPOS>MOLECULE
NONAME
48 50 1 0 0 
SMALL
USER_CHARGES


@<TRIPOS>ATOM
  1 O       -0.8270     0.3810     0.3170 O.3   1 <1>  -0.1650 
  2 C       -1.9240     0.6260     1.0770 C.ar  1 <1>   0.0830 
  3 C       -0.5940    -0.8490    -0.2020 C.ar  1 <1>   0.0830 
  4 C       -3.1020    -0.0980     0.9350 C.ar  1 <1>  -0.1500 
  5 C       -1.8570     1.6510     2.0060 C.ar  1 <1>  -0.1500 
  6 C       -0.3300    -0.9610    -1.5570 C.ar  1 <1>  -0.1500 
  7 C       -0.6150    -1.9820     0.6010 C.ar  1 <1>  -0.1500 
  8 C       -4.2100     0.2030     1.7130 C.ar  1 <1>  -0.1430 
  9 C       -2.9530     1.9440     2.7960 C.ar  1 <1>  -0.1500 
 10 C       -0.1110    -2.2080    -2.1160 C.ar  1 <1>  -0.1500 
 11 C       -0.3960    -3.2280     0.0390 C.ar  1 <1>  -0.1500 
 12 C       -4.1260     1.2220     2.6540 C.ar  1 <1>  -0.1500 
 13 C       -5.5020    -0.5640     1.5270 C.3   1 <1>   0.4860 
 14 C       -0.1480    -3.3400    -1.3190 C.ar  1 <1>  -0.1500 
 15 N       -6.4120     0.2960     0.7060 N.4   1 <1>  -0.9590 
 16 C       -7.8410    -0.1720     0.8380 C.3   1 <1>   0.3430 
 17 C       -5.9470     0.3180    -0.7120 C.3   1 <1>   0.3430 
 18 C       -8.9360     0.7880     0.2790 C.3   1 <1>   0.3430 
 19 C       -6.2110     1.6680    -1.3770 C.3   1 <1>  -0.1600 
 20 N       -8.6870     1.3820    -1.0920 N.4   1 <1>  -0.9590 
 21 C       -7.5520     2.3510    -1.1010 C.3   1 <1>   0.3430 
 22 C       -9.9310     2.0920    -1.5500 C.3   1 <1>   0.2630 
 23 H       -3.1410    -0.8930     0.2100 H     1 <1>   0.1500 
 24 H       -0.9440     2.2120     2.1100 H     1 <1>   0.1500 
 25 H       -0.2950    -0.0770    -2.1680 H     1 <1>   0.1500 
 26 H       -0.7930    -1.8890     1.6580 H     1 <1>   0.1500 
 27 H       -2.8850     2.7350     3.5260 H     1 <1>   0.1500 
 28 H        0.0930    -2.2990    -3.1700 H     1 <1>   0.1500 
 29 H       -0.4110    -4.1090     0.6570 H     1 <1>   0.1500 
 30 H       -4.9570     1.4670     3.2930 H     1 <1>   0.1500 
 31 H       -5.9340    -0.7580     2.4960 H     1 <1>   0.0800 
 32 H       -5.3140    -1.5060     1.0380 H     1 <1>   0.0800 
 33 H        0.0240    -4.3090    -1.7550 H     1 <1>   0.1500 
 34 H       -6.2750     1.2340     1.1090 H     1 <1>   0.4500 
 35 H       -8.0610    -0.3420     1.8800 H     1 <1>   0.0800 
 36 H       -7.9440    -1.1250     0.3440 H     1 <1>   0.0800 
 37 H       -6.4370    -0.4680    -1.2660 H     1 <1>   0.0800 
 38 H       -4.8860     0.1280    -0.7610 H     1 <1>   0.0800 
 39 H       -9.0700     1.5900     0.9860 H     1 <1>   0.0800 
 40 H       -9.8660     0.2420     0.2580 H     1 <1>   0.0800 
 41 H       -6.1060     1.5400    -2.4410 H     1 <1>   0.0800 
 42 H       -5.4270     2.3470    -1.0880 H     1 <1>   0.0800 
 43 H       -8.5100     0.6420    -1.7890 H     1 <1>   0.4500 
 44 H       -7.7120     3.0970    -1.8650 H     1 <1>   0.0800 
 45 H       -7.5110     2.8680    -0.1550 H     1 <1>   0.0800 
 46 H      -10.1790     2.8990    -0.8780 H     1 <1>   0.0800 
 47 H      -10.7660     1.4100    -1.5880 H     1 <1>   0.0800 
 48 H       -9.7880     2.5040    -2.5370 H     1 <1>   0.0800 
@<TRIPOS>BOND
  1   1   2  1   
  2   1   3  1   
  3   2   4  ar  
  4   2   5  ar  
  5   3   6  ar  
  6   3   7  ar  
  7   4   8  ar  
  8   4  23  1   
  9   5   9  ar  
 10   5  24  1   
 11   6  10  ar  
 12   6  25  1   
 13   7  11  ar  
 14   7  26  1   
 15   8  12  ar  
 16   8  13  1   
 17   9  12  ar  
 18   9  27  1   
 19  10  14  ar  
 20  10  28  1   
 21  11  14  ar  
 22  11  29  1   
 23  12  30  1   
 24  13  15  1   
 25  13  31  1   
 26  13  32  1   
 27  14  33  1   
 28  15  16  1   
 29  15  17  1   
 30  15  34  1   
 31  16  18  1   
 32  16  35  1   
 33  16  36  1   
 34  17  19  1   
 35  17  37  1   
 36  17  38  1   
 37  18  20  1   
 38  18  39  1   
 39  18  40  1   
 40  19  21  1   
 41  19  41  1   
 42  19  42  1   
 43  20  21  1   
 44  20  22  1   
 45  20  43  1   
 46  21  44  1   
 47  21  45  1   
 48  22  46  1   
 49  22  47  1   
 50  22  48  1   
@<TRIPOS>SUBSTRUCTURE
  1 ****   4 GROUP 4 **** **** 0

# MOE 2024.06 (io_trps.svl 2023.06)
