@<TRIPOS>MOLECULE
NONAME
44 45 1 0 0 
SMALL
USER_CHARGES


@<TRIPOS>ATOM
  1 O       -0.0270     0.1340     0.9370 O.2   1 <1>  -0.5700 
  2 C        0.6010    -0.7750     0.4320 C.2   1 <1>   0.6900 
  3 N        1.9360    -0.7040     0.1790 N.am  1 <1>  -0.5470 
  4 N       -0.0430    -1.9190     0.0910 N.am  1 <1>  -0.7300 
  5 C        2.9010     0.3050     0.3440 C.ar  1 <1>   0.1170 
  6 C       -1.4730    -2.1390     0.3390 C.3   1 <1>   0.2200 
  7 C        4.2440    -0.0390     0.1430 C.ar  1 <1>   0.0820 
  8 C        2.5910     1.6170     0.6860 C.ar  1 <1>  -0.1500 
  9 C       -1.7450    -3.6260     0.5420 C.3   1 <1>  -0.1600 
 10 C       -2.2780    -1.5950    -0.8390 C.3   1 <1>  -0.1600 
 11 O        4.5080    -1.3370    -0.2000 O.3   1 <1>  -0.3630 
 12 C        5.2400     0.9220     0.2910 C.ar  1 <1>  -0.1500 
 13 C        3.5860     2.5670     0.8330 C.ar  1 <1>  -0.1500 
 14 C       -3.2420    -3.8640     0.7350 C.3   1 <1>   0.3430 
 15 C       -3.7650    -1.8540    -0.6240 C.3   1 <1>   0.3430 
 16 C        5.8300    -1.7890    -0.3820 C.3   1 <1>   0.1200 
 17 C        4.9100     2.2210     0.6360 C.ar  1 <1>  -0.1500 
 18 N       -4.0020    -3.3180    -0.4310 N.4   1 <1>  -0.9590 
 19 C        5.7790    -3.2730    -0.7290 C.3   1 <1>  -0.2400 
 20 C       -5.4630    -3.6000    -0.2900 C.3   1 <1>   0.2630 
 21 H        2.3690    -1.5770    -0.1110 H     1 <1>   0.3700 
 22 H        0.4580    -2.6210    -0.4500 H     1 <1>   0.3700 
 23 H       -1.7560    -1.6060     1.2350 H     1 <1>   0.0800 
 24 H        1.5700     1.9110     0.8410 H     1 <1>   0.1500 
 25 H       -1.2230    -3.9650     1.4200 H     1 <1>   0.0800 
 26 H       -1.3960    -4.1960    -0.3010 H     1 <1>   0.0800 
 27 H       -1.9580    -2.0460    -1.7610 H     1 <1>   0.0800 
 28 H       -2.1200    -0.5330    -0.9120 H     1 <1>   0.0800 
 29 H        6.2770     0.6860     0.1440 H     1 <1>   0.1500 
 30 H        3.3250     3.5770     1.1000 H     1 <1>   0.1500 
 31 H       -3.5670    -3.3780     1.6410 H     1 <1>   0.0800 
 32 H       -3.4270    -4.9220     0.8340 H     1 <1>   0.0800 
 33 H       -4.3180    -1.4980    -1.4790 H     1 <1>   0.0800 
 34 H       -4.1000    -1.3110     0.2450 H     1 <1>   0.0800 
 35 H        6.3740    -1.6320     0.5330 H     1 <1>   0.0800 
 36 H        6.2760    -1.2270    -1.1850 H     1 <1>   0.0800 
 37 H        5.6810     2.9620     0.7510 H     1 <1>   0.1500 
 38 H       -3.6600    -3.7970    -1.2770 H     1 <1>   0.4500 
 39 H        5.3190    -3.8250     0.0710 H     1 <1>   0.0800 
 40 H        6.7760    -3.6470    -0.8740 H     1 <1>   0.0800 
 41 H        5.2230    -3.4230    -1.6380 H     1 <1>   0.0800 
 42 H       -5.8570    -3.1110     0.5860 H     1 <1>   0.0800 
 43 H       -5.6330    -4.6610    -0.1980 H     1 <1>   0.0800 
 44 H       -5.9990    -3.2430    -1.1550 H     1 <1>   0.0800 
@<TRIPOS>BOND
  1   1   2  2   
  2   2   3  am  
  3   2   4  am  
  4   3   5  1   
  5   3  21  1   
  6   4   6  1   
  7   4  22  1   
  8   5   7  ar  
  9   5   8  ar  
 10   6   9  1   
 11   6  10  1   
 12   6  23  1   
 13   7  11  1   
 14   7  12  ar  
 15   8  13  ar  
 16   8  24  1   
 17   9  14  1   
 18   9  25  1   
 19   9  26  1   
 20  10  15  1   
 21  10  27  1   
 22  10  28  1   
 23  11  16  1   
 24  12  17  ar  
 25  12  29  1   
 26  13  17  ar  
 27  13  30  1   
 28  14  18  1   
 29  14  31  1   
 30  14  32  1   
 31  15  18  1   
 32  15  33  1   
 33  15  34  1   
 34  16  19  1   
 35  16  35  1   
 36  16  36  1   
 37  17  37  1   
 38  18  20  1   
 39  18  38  1   
 40  19  39  1   
 41  19  40  1   
 42  19  41  1   
 43  20  42  1   
 44  20  43  1   
 45  20  44  1   
@<TRIPOS>SUBSTRUCTURE
  1 ****   2 GROUP 4 **** **** 0

# MOE 2024.06 (io_trps.svl 2023.06)
