@<TRIPOS>MOLECULE
NONAME
26 26 1 0 0 
SMALL
USER_CHARGES


@<TRIPOS>ATOM
  1 BR       0.0330     1.6340     0.8870 Br    1 <1>  -0.0580 
  2 C        1.7270     0.9680     0.2760 C.2   1 <1>   0.0980 
  3 S        2.5720    -0.0990     1.3700 S.3   1 <1>  -0.0800 
  4 C        2.3940     1.1810    -0.8690 C.2   1 <1>  -0.1500 
  5 C        3.9020    -0.2600     0.2150 C.2   1 <1>  -0.0220 
  6 C        3.6380     0.4700    -0.8950 C.2   1 <1>  -0.1500 
  7 S        5.2910    -1.3280     0.6640 S.o2  1 <1>   1.5000 
  8 O        5.2500    -2.5440    -0.1150 O.2   1 <1>  -0.6500 
  9 O        5.4660    -1.3850     2.0960 O.2   1 <1>  -0.6500 
 10 N        6.6140    -0.4300     0.1630 N.am  1 <1>  -0.9140 
 11 C        7.7910    -1.2210    -0.0990 C.3   1 <1>   0.2760 
 12 C        8.9980    -0.4400     0.4420 C.3   1 <1>  -0.1600 
 13 C        7.8780    -1.4450    -1.6090 C.3   1 <1>  -0.2400 
 14 C       10.3230    -1.2100     0.3350 C.3   1 <1>  -0.2400 
 15 H        2.0680     1.8000    -1.6870 H     1 <1>   0.1500 
 16 H        4.2890     0.5340    -1.7500 H     1 <1>   0.1500 
 17 H        6.8260     0.1090     0.9990 H     1 <1>   0.4200 
 18 H        7.7350    -2.1710     0.4140 H     1 <1>   0.0800 
 19 H        8.8310    -0.2220     1.4830 H     1 <1>   0.0800 
 20 H        9.0910     0.4930    -0.0870 H     1 <1>   0.0800 
 21 H        7.9920    -0.5070    -2.1220 H     1 <1>   0.0800 
 22 H        6.9930    -1.9370    -1.9680 H     1 <1>   0.0800 
 23 H        8.7170    -2.0720    -1.8460 H     1 <1>   0.0800 
 24 H       10.2440    -2.1670     0.8200 H     1 <1>   0.0800 
 25 H       11.1080    -0.6510     0.8120 H     1 <1>   0.0800 
 26 H       10.6000    -1.3610    -0.6930 H     1 <1>   0.0800 
@<TRIPOS>BOND
  1   1   2  1   
  2   2   3  1   
  3   2   4  2   
  4   3   5  1   
  5   4   6  1   
  6   4  15  1   
  7   5   6  2   
  8   5   7  1   
  9   6  16  1   
 10   7   8  2   
 11   7   9  2   
 12   7  10  am  
 13  10  11  1   
 14  10  17  1   
 15  11  12  1   
 16  11  13  1   
 17  11  18  1   
 18  12  14  1   
 19  12  19  1   
 20  12  20  1   
 21  13  21  1   
 22  13  22  1   
 23  13  23  1   
 24  14  24  1   
 25  14  25  1   
 26  14  26  1   
@<TRIPOS>SUBSTRUCTURE
  1 ****   7 GROUP 4 **** **** 0

# MOE 2024.06 (io_trps.svl 2023.06)
