@<TRIPOS>MOLECULE
NONAME
39 40 1 0 0 
SMALL
USER_CHARGES


@<TRIPOS>ATOM
  1 S       -6.9660     3.3560    -0.5840 S.3   1 <1>  -0.3310 
  2 C       -5.5140     2.3090    -0.3740 C.ar  1 <1>   0.1020 
  3 C       -8.3850     2.4500     0.1620 C.3   1 <1>   0.0700 
  4 C       -4.3120     2.8050    -0.8430 C.ar  1 <1>  -0.1500 
  5 C       -5.5800     1.0610     0.2270 C.ar  1 <1>  -0.1500 
  6 C       -9.6140     3.3400    -0.0170 C.3   1 <1>   0.3430 
  7 C       -3.1610     2.0480    -0.7100 C.ar  1 <1>  -0.1500 
  8 C       -4.4230     0.3110     0.3560 C.ar  1 <1>  -0.1500 
  9 N      -10.8240     2.7140     0.5820 N.4   1 <1>  -0.9060 
 10 C       -3.2120     0.8000    -0.1090 C.ar  1 <1>  -0.1430 
 11 C      -12.0840     3.4720     0.3330 C.3   1 <1>   0.3430 
 12 C       -1.9480    -0.0290     0.0340 C.3   1 <1>  -0.0970 
 13 C      -13.2780     2.5020     0.4230 C.3   1 <1>   0.2000 
 14 O      -12.8680     1.2380    -0.0070 O.3   1 <1>  -0.5600 
 15 C      -14.4490     2.8490    -0.4840 C.3   1 <1>  -0.1600 
 16 C      -13.9750     0.4870    -0.4110 C.3   1 <1>   0.1200 
 17 C      -15.0730     1.4900    -0.7600 C.3   1 <1>  -0.1600 
 18 H       -8.1460     2.2910     1.1980 H     1 <1>   0.0800 
 19 H       -8.4800     1.5200    -0.3700 H     1 <1>   0.0800 
 20 H       -4.2760     3.7740    -1.3080 H     1 <1>   0.1500 
 21 H       -6.5000     0.6580     0.5950 H     1 <1>   0.1500 
 22 H       -9.7710     3.5050    -1.0710 H     1 <1>   0.0800 
 23 H       -9.4260     4.2940     0.4500 H     1 <1>   0.0800 
 24 H       -2.2260     2.4350    -1.0770 H     1 <1>   0.1500 
 25 H       -4.4680    -0.6600     0.8200 H     1 <1>   0.1500 
 26 H      -10.7110     2.5380     1.5860 H     1 <1>   0.4500 
 27 H      -11.0200     1.7860     0.1570 H     1 <1>   0.4500 
 28 H      -12.0640     3.8870    -0.6620 H     1 <1>   0.0800 
 29 H      -12.2010     4.2830     1.0330 H     1 <1>   0.0800 
 30 H       -1.0890     0.6100     0.1340 H     1 <1>   0.0800 
 31 H       -1.8190    -0.6490    -0.8350 H     1 <1>   0.0800 
 32 H       -2.0050    -0.6570     0.9050 H     1 <1>   0.0800 
 33 H      -13.6140     2.4040     1.4420 H     1 <1>   0.0800 
 34 H      -14.0970     3.2800    -1.4060 H     1 <1>   0.0800 
 35 H      -15.1400     3.5280    -0.0150 H     1 <1>   0.0800 
 36 H      -14.2730    -0.1500     0.4050 H     1 <1>   0.0800 
 37 H      -13.6940    -0.1140    -1.2600 H     1 <1>   0.0800 
 38 H      -15.3800     1.3920    -1.7870 H     1 <1>   0.0800 
 39 H      -15.9280     1.3210    -0.1280 H     1 <1>   0.0800 
@<TRIPOS>BOND
  1   1   2  1   
  2   1   3  1   
  3   2   4  ar  
  4   2   5  ar  
  5   3   6  1   
  6   3  18  1   
  7   3  19  1   
  8   4   7  ar  
  9   4  20  1   
 10   5   8  ar  
 11   5  21  1   
 12   6   9  1   
 13   6  22  1   
 14   6  23  1   
 15   7  10  ar  
 16   7  24  1   
 17   8  10  ar  
 18   8  25  1   
 19   9  11  1   
 20   9  26  1   
 21   9  27  1   
 22  10  12  1   
 23  11  13  1   
 24  11  28  1   
 25  11  29  1   
 26  12  30  1   
 27  12  31  1   
 28  12  32  1   
 29  13  14  1   
 30  13  15  1   
 31  13  33  1   
 32  14  16  1   
 33  15  17  1   
 34  15  34  1   
 35  15  35  1   
 36  16  17  1   
 37  16  36  1   
 38  16  37  1   
 39  17  38  1   
 40  17  39  1   
@<TRIPOS>SUBSTRUCTURE
  1 ****   3 GROUP 4 **** **** 0

# MOE 2024.06 (io_trps.svl 2023.06)
