@<TRIPOS>MOLECULE
NONAME
43 44 1 0 0 
SMALL
USER_CHARGES


@<TRIPOS>ATOM
  1 O        1.2490     0.0990     0.3450 O.2   1 <1>  -0.5700 
  2 C        1.0140    -1.0850     0.3830 C.2   1 <1>   0.5690 
  3 N        1.9300    -2.0490     0.6680 N.am  1 <1>  -0.4200 
  4 C       -0.3420    -1.7280     0.0510 C.3   1 <1>   0.3500 
  5 C        1.4050    -3.2880     0.4900 C.2   1 <1>   0.5690 
  6 C        3.3230    -1.7810     1.0810 C.3   1 <1>   0.1400 
  7 N       -1.3940    -1.5220     1.0990 N.pl3 1 <1>  -0.8690 
  8 C       -0.0080    -3.2230    -0.0340 C.3   1 <1>  -0.0990 
  9 O        1.9720    -4.3280     0.7000 O.2   1 <1>  -0.5700 
 10 C        4.2260    -1.7040    -0.1510 C.3   1 <1>  -0.1600 
 11 C       -2.4520    -0.6740     0.7980 C.ar  1 <1>   0.1000 
 12 C        5.6720    -1.4270     0.2510 C.3   1 <1>   0.1200 
 13 C       -2.2350     0.6220     0.3480 C.ar  1 <1>  -0.1500 
 14 C       -3.7600    -1.1160     0.9470 C.ar  1 <1>  -0.1500 
 15 O        6.4280    -1.3760    -0.9110 O.3   1 <1>  -0.5600 
 16 C       -3.2980     1.4490     0.0360 C.ar  1 <1>  -0.1500 
 17 C       -4.8240    -0.2900     0.6360 C.ar  1 <1>  -0.1500 
 18 C        7.7800    -1.1310    -0.6980 C.3   1 <1>   0.0400 
 19 C       -4.6010     0.9990     0.1760 C.ar  1 <1>  -0.1440 
 20 C       -5.7700     1.9080    -0.1670 C.3   1 <1>  -0.0170 
 21 C       -6.1640     1.7460    -1.6360 C.3   1 <1>  -0.2400 
 22 H       -0.6890    -1.3620    -0.9000 H     1 <1>   0.0800 
 23 H        3.6560    -2.5700     1.7340 H     1 <1>   0.0800 
 24 H        3.3580    -0.8510     1.6230 H     1 <1>   0.0800 
 25 H       -1.6810    -2.3910     1.5560 H     1 <1>   0.4000 
 26 H       -0.0130    -3.5530    -1.0550 H     1 <1>   0.0800 
 27 H       -0.6610    -3.8380     0.5550 H     1 <1>   0.0800 
 28 H        3.8880    -0.9110    -0.7940 H     1 <1>   0.0800 
 29 H        4.1880    -2.6390    -0.6830 H     1 <1>   0.0800 
 30 H        6.0530    -2.2180     0.8760 H     1 <1>   0.0800 
 31 H        5.7530    -0.4810     0.7580 H     1 <1>   0.0800 
 32 H       -1.2290     0.9880     0.2510 H     1 <1>   0.1500 
 33 H       -3.9460    -2.1100     1.3060 H     1 <1>   0.1500 
 34 H       -3.1060     2.4480    -0.3150 H     1 <1>   0.1500 
 35 H       -5.8300    -0.6520     0.7540 H     1 <1>   0.1500 
 36 H        8.2700    -1.1100    -1.6560 H     1 <1>   0.0800 
 37 H        8.1940    -1.9210    -0.0960 H     1 <1>   0.0800 
 38 H        7.8970    -0.1790    -0.2110 H     1 <1>   0.0800 
 39 H       -5.5000     2.9320     0.0250 H     1 <1>   0.0800 
 40 H       -6.6110     1.6700     0.4620 H     1 <1>   0.0800 
 41 H       -5.3330     1.9970    -2.2720 H     1 <1>   0.0800 
 42 H       -6.9900     2.3930    -1.8730 H     1 <1>   0.0800 
 43 H       -6.4520     0.7290    -1.8330 H     1 <1>   0.0800 
@<TRIPOS>BOND
  1   1   2  2   
  2   2   3  am  
  3   2   4  1   
  4   3   5  am  
  5   3   6  1   
  6   4   7  1   
  7   4   8  1   
  8   4  22  1   
  9   5   8  1   
 10   5   9  2   
 11   6  10  1   
 12   6  23  1   
 13   6  24  1   
 14   7  11  1   
 15   7  25  1   
 16   8  26  1   
 17   8  27  1   
 18  10  12  1   
 19  10  28  1   
 20  10  29  1   
 21  11  13  ar  
 22  11  14  ar  
 23  12  15  1   
 24  12  30  1   
 25  12  31  1   
 26  13  16  ar  
 27  13  32  1   
 28  14  17  ar  
 29  14  33  1   
 30  15  18  1   
 31  16  19  ar  
 32  16  34  1   
 33  17  19  ar  
 34  17  35  1   
 35  18  36  1   
 36  18  37  1   
 37  18  38  1   
 38  19  20  1   
 39  20  21  1   
 40  20  39  1   
 41  20  40  1   
 42  21  41  1   
 43  21  42  1   
 44  21  43  1   
@<TRIPOS>SUBSTRUCTURE
  1 ****   4 GROUP 4 **** **** 0

# MOE 2024.06 (io_trps.svl 2023.06)
