@<TRIPOS>MOLECULE
NONAME
39 40 1 0 0 
SMALL
USER_CHARGES


@<TRIPOS>ATOM
  1 F        2.9850    -0.1190    -2.6840 F     1 <1>  -0.1900 
  2 C        3.5800     0.0340    -1.5320 C.ar  1 <1>   0.1900 
  3 C        3.9490    -1.0900    -0.8190 C.ar  1 <1>  -0.1500 
  4 C        3.8200     1.3130    -1.0690 C.ar  1 <1>  -0.1500 
  5 C        4.5870    -0.9230     0.3990 C.ar  1 <1>  -0.1500 
  6 C        4.4590     1.4680     0.1490 C.ar  1 <1>  -0.1500 
  7 C        4.8520     0.3540     0.8830 C.ar  1 <1>  -0.1430 
  8 C        5.5710     0.5340     2.2200 C.3   1 <1>   0.0440 
  9 C        6.7060     1.5550     2.1740 C.2   1 <1>   0.5690 
 10 O        6.6710     2.4500     2.9830 O.2   1 <1>  -0.5700 
 11 N        7.7370     1.4770     1.2630 N.am  1 <1>  -0.6600 
 12 C        8.6950     2.6190     1.1090 C.3   1 <1>   0.1400 
 13 C        7.9420     0.3560     0.2920 C.3   1 <1>   0.1400 
 14 C       10.1520     2.1280     1.0850 C.3   1 <1>   0.3430 
 15 C        9.4180    -0.0900     0.2440 C.3   1 <1>   0.3430 
 16 N       10.3660     1.0630     0.0460 N.4   1 <1>  -0.9590 
 17 C       11.7800     0.6290     0.0060 C.3   1 <1>   0.4810 
 18 C       11.9910    -0.0740    -1.3150 C.2   1 <1>  -0.2880 
 19 C       12.6210     0.4490    -2.3720 C.2   1 <1>  -0.3000 
 20 H        3.7340    -2.0680    -1.2100 H     1 <1>   0.1500 
 21 H        3.5090     2.1630    -1.6500 H     1 <1>   0.1500 
 22 H        4.8680    -1.7940     0.9660 H     1 <1>   0.1500 
 23 H        4.6440     2.4610     0.5240 H     1 <1>   0.1500 
 24 H        5.9700    -0.4000     2.5650 H     1 <1>   0.0800 
 25 H        4.8500     0.8590     2.9480 H     1 <1>   0.0800 
 26 H        8.5840     3.3210     1.9180 H     1 <1>   0.0800 
 27 H        8.4720     3.1450     0.1970 H     1 <1>   0.0800 
 28 H        7.6240     0.6740    -0.6870 H     1 <1>   0.0800 
 29 H        7.3460    -0.4950     0.5650 H     1 <1>   0.0800 
 30 H       10.3960     1.7420     2.0610 H     1 <1>   0.0800 
 31 H       10.7990     2.9680     0.8900 H     1 <1>   0.0800 
 32 H        9.5370    -0.8050    -0.5540 H     1 <1>   0.0800 
 33 H        9.6500    -0.5900     1.1700 H     1 <1>   0.0800 
 34 H       10.1740     1.4690    -0.8800 H     1 <1>   0.4500 
 35 H       12.0150    -0.0210     0.8330 H     1 <1>   0.0800 
 36 H       12.4260     1.4920     0.0490 H     1 <1>   0.0800 
 37 H       11.5880    -1.0720    -1.3330 H     1 <1>   0.1500 
 38 H       12.7660    -0.0770    -3.3030 H     1 <1>   0.1500 
 39 H       13.0530     1.4360    -2.4140 H     1 <1>   0.1500 
@<TRIPOS>BOND
  1   1   2  1   
  2   2   3  ar  
  3   2   4  ar  
  4   3   5  ar  
  5   3  20  1   
  6   4   6  ar  
  7   4  21  1   
  8   5   7  ar  
  9   5  22  1   
 10   6   7  ar  
 11   6  23  1   
 12   7   8  1   
 13   8   9  1   
 14   8  24  1   
 15   8  25  1   
 16   9  10  2   
 17   9  11  am  
 18  11  12  1   
 19  11  13  1   
 20  12  14  1   
 21  12  26  1   
 22  12  27  1   
 23  13  15  1   
 24  13  28  1   
 25  13  29  1   
 26  14  16  1   
 27  14  30  1   
 28  14  31  1   
 29  15  16  1   
 30  15  32  1   
 31  15  33  1   
 32  16  17  1   
 33  16  34  1   
 34  17  18  1   
 35  17  35  1   
 36  17  36  1   
 37  18  19  2   
 38  18  37  1   
 39  19  38  1   
 40  19  39  1   
@<TRIPOS>SUBSTRUCTURE
  1 ****  13 GROUP 4 **** **** 0

# MOE 2024.06 (io_trps.svl 2023.06)
