@<TRIPOS>MOLECULE
NONAME
37 36 1 0 0 
SMALL
USER_CHARGES


@<TRIPOS>ATOM
  1 S        0.5310     0.3660     0.0130 S.o2  1 <1>   1.0900 
  2 O        0.9150     0.1440    -1.3620 O.2   1 <1>  -0.6500 
  3 O        0.6730    -0.7010     0.9750 O.2   1 <1>  -0.6500 
  4 C        1.4490     1.7710     0.6140 C.3   1 <1>  -0.0550 
  5 C       -1.1680     0.9460     0.0440 C.3   1 <1>  -0.0550 
  6 C        2.9160     1.4250     0.8470 C.3   1 <1>   0.2000 
  7 C       -2.1770    -0.1040    -0.4460 C.3   1 <1>  -0.1600 
  8 O        3.5260     2.5590     1.3420 O.3   1 <1>  -0.6800 
  9 C        3.6810     0.9900    -0.4160 C.3   1 <1>   0.1200 
 10 C       -3.6110     0.4360    -0.4020 C.3   1 <1>  -0.1600 
 11 O        5.0580     1.1340    -0.1950 O.3   1 <1>  -0.5600 
 12 C       -4.6080    -0.6180    -0.8920 C.3   1 <1>  -0.2400 
 13 C        5.8680     0.7210    -1.2440 C.3   1 <1>   0.2000 
 14 C        6.1380    -0.7760    -1.0930 C.3   1 <1>  -0.2400 
 15 C        7.1580     1.5270    -1.1430 C.3   1 <1>  -0.2400 
 16 H        1.0360     2.0950     1.5500 H     1 <1>   0.0800 
 17 H        1.3870     2.5780    -0.0890 H     1 <1>   0.0800 
 18 H       -1.2570     1.8180    -0.5760 H     1 <1>   0.0800 
 19 H       -1.4280     1.2270     1.0470 H     1 <1>   0.0800 
 20 H        3.0020     0.6530     1.5950 H     1 <1>   0.0800 
 21 H       -2.1010    -0.9830     0.1740 H     1 <1>   0.0800 
 22 H       -1.9280    -0.3910    -1.4540 H     1 <1>   0.0800 
 23 H        4.4880     2.4520     1.1520 H     1 <1>   0.4000 
 24 H        3.4010     1.6070    -1.2530 H     1 <1>   0.0800 
 25 H        3.4610    -0.0380    -0.6450 H     1 <1>   0.0800 
 26 H       -3.6910     1.3110    -1.0250 H     1 <1>   0.0800 
 27 H       -3.8650     0.7170     0.6060 H     1 <1>   0.0800 
 28 H       -4.3890    -0.9000    -1.9070 H     1 <1>   0.0800 
 29 H       -5.6080    -0.2240    -0.8550 H     1 <1>   0.0800 
 30 H       -4.5640    -1.4960    -0.2710 H     1 <1>   0.0800 
 31 H        5.3800     0.9340    -2.1820 H     1 <1>   0.0800 
 32 H        6.5690    -0.9810    -0.1290 H     1 <1>   0.0800 
 33 H        6.8250    -1.1010    -1.8520 H     1 <1>   0.0800 
 34 H        5.2300    -1.3400    -1.2040 H     1 <1>   0.0800 
 35 H        7.6410     1.3430    -0.2010 H     1 <1>   0.0800 
 36 H        6.9410     2.5760    -1.2340 H     1 <1>   0.0800 
 37 H        7.8290     1.2490    -1.9350 H     1 <1>   0.0800 
@<TRIPOS>BOND
  1   1   2  2   
  2   1   3  2   
  3   1   4  1   
  4   1   5  1   
  5   4   6  1   
  6   4  16  1   
  7   4  17  1   
  8   5   7  1   
  9   5  18  1   
 10   5  19  1   
 11   6   8  1   
 12   6   9  1   
 13   6  20  1   
 14   7  10  1   
 15   7  21  1   
 16   7  22  1   
 17   8  23  1   
 18   9  11  1   
 19   9  24  1   
 20   9  25  1   
 21  10  12  1   
 22  10  26  1   
 23  10  27  1   
 24  11  13  1   
 25  12  28  1   
 26  12  29  1   
 27  12  30  1   
 28  13  14  1   
 29  13  15  1   
 30  13  31  1   
 31  14  32  1   
 32  14  33  1   
 33  14  34  1   
 34  15  35  1   
 35  15  36  1   
 36  15  37  1   
@<TRIPOS>SUBSTRUCTURE
  1 ****   1 GROUP 4 **** **** 0

# MOE 2024.06 (io_trps.svl 2023.06)
