@<TRIPOS>MOLECULE
NONAME
53 55 1 0 0 
SMALL
USER_CHARGES


@<TRIPOS>ATOM
  1 CL       1.0010     0.6140    -0.4070 Cl    1 <1>  -0.1770 
  2 C       -0.1190     1.7410    -1.1380 C.ar  1 <1>   0.1770 
  3 C        0.3230     2.9330    -1.6910 C.ar  1 <1>  -0.0090 
  4 C       -1.4580     1.3940    -1.1220 C.ar  1 <1>  -0.1500 
  5 S        2.0660     3.4000    -1.6720 S.o2  1 <1>   1.4470 
  6 C       -0.6340     3.7840    -2.2310 C.ar  1 <1>  -0.1500 
  7 C       -2.4030     2.2550    -1.6520 C.ar  1 <1>  -0.1430 
  8 O        2.9010     2.3500    -2.1970 O.2   1 <1>  -0.6500 
  9 O        2.2060     4.7600    -2.1360 O.2   1 <1>  -0.6500 
 10 N        2.4130     3.4290     0.0090 N.am  1 <1>  -0.7570 
 11 C       -1.9880     3.4650    -2.1980 C.ar  1 <1>   0.0830 
 12 C       -3.8770     1.8770    -1.6270 C.3   1 <1>  -0.0970 
 13 C        1.6580     4.0960     0.9710 C.ar  1 <1>   0.1990 
 14 O       -2.9430     4.3020    -2.6720 O.3   1 <1>  -0.3630 
 15 C        1.0660     5.3470     0.7650 C.ar  1 <1>   0.1600 
 16 C        1.4550     3.4910     2.1990 C.ar  1 <1>  -0.1500 
 17 C       -2.7270     5.7050    -2.7750 C.3   1 <1>   0.1810 
 18 N        0.2940     5.9880     1.6300 N.ar  1 <1>  -0.6200 
 19 C        0.6710     4.1500     3.1210 C.ar  1 <1>  -0.1500 
 20 C       -4.0170     6.4710    -2.4960 C.2   1 <1>   0.5690 
 21 C        0.1190     5.3760     2.7920 C.ar  1 <1>   0.1600 
 22 O       -4.5490     7.0750    -3.3940 O.2   1 <1>  -0.5700 
 23 N       -4.5540     6.5160    -1.2500 N.am  1 <1>  -0.7300 
 24 C       -4.0840     5.8390    -0.0280 C.3   1 <1>   0.2200 
 25 C       -5.2670     5.1450     0.6480 C.3   1 <1>  -0.1600 
 26 C       -3.4200     6.8630     0.9070 C.3   1 <1>  -0.1600 
 27 C       -4.8110     4.3510     1.8890 C.3   1 <1>  -0.1600 
 28 C       -3.5200     6.4820     2.3970 C.3   1 <1>  -0.1600 
 29 C       -3.5780     4.9600     2.5830 C.3   1 <1>  -0.1600 
 30 H       -1.7510     0.4540    -0.6900 H     1 <1>   0.1500 
 31 H       -0.3060     4.7050    -2.6800 H     1 <1>   0.1500 
 32 H        2.8450     2.5460     0.2670 H     1 <1>   0.4200 
 33 H       -4.2700     1.8760    -2.6280 H     1 <1>   0.0800 
 34 H       -4.0240     0.9010    -1.2010 H     1 <1>   0.0800 
 35 H       -4.4280     2.5930    -1.0450 H     1 <1>   0.0800 
 36 H        1.2440     5.8470    -0.1700 H     1 <1>   0.1500 
 37 H        1.8920     2.5350     2.4270 H     1 <1>   0.1500 
 38 H       -2.3780     5.9190    -3.7680 H     1 <1>   0.0800 
 39 H       -1.9930     6.0090    -2.0540 H     1 <1>   0.0800 
 40 H        0.4850     3.7200     4.0890 H     1 <1>   0.1500 
 41 H       -0.4930     5.8800     3.5200 H     1 <1>   0.1500 
 42 H       -5.4060     7.0700    -1.1500 H     1 <1>   0.3700 
 43 H       -3.3610     5.0820    -0.2790 H     1 <1>   0.0800 
 44 H       -5.7520     4.4800    -0.0450 H     1 <1>   0.0800 
 45 H       -5.9790     5.8920     0.9530 H     1 <1>   0.0800 
 46 H       -3.8650     7.8350     0.7760 H     1 <1>   0.0800 
 47 H       -2.3810     6.9370     0.6360 H     1 <1>   0.0800 
 48 H       -4.5770     3.3400     1.6040 H     1 <1>   0.0800 
 49 H       -5.6310     4.3070     2.5860 H     1 <1>   0.0800 
 50 H       -2.6800     6.8930     2.9300 H     1 <1>   0.0800 
 51 H       -4.4130     6.9150     2.8160 H     1 <1>   0.0800 
 52 H       -2.6850     4.5280     2.1630 H     1 <1>   0.0800 
 53 H       -3.5960     4.7160     3.6320 H     1 <1>   0.0800 
@<TRIPOS>BOND
  1   1   2  1   
  2   2   3  ar  
  3   2   4  ar  
  4   3   5  1   
  5   3   6  ar  
  6   4   7  ar  
  7   4  30  1   
  8   5   8  2   
  9   5   9  2   
 10   5  10  am  
 11   6  11  ar  
 12   6  31  1   
 13   7  11  ar  
 14   7  12  1   
 15  10  13  1   
 16  10  32  1   
 17  11  14  1   
 18  12  33  1   
 19  12  34  1   
 20  12  35  1   
 21  13  15  ar  
 22  13  16  ar  
 23  14  17  1   
 24  15  18  ar  
 25  15  36  1   
 26  16  19  ar  
 27  16  37  1   
 28  17  20  1   
 29  17  38  1   
 30  17  39  1   
 31  18  21  ar  
 32  19  21  ar  
 33  19  40  1   
 34  20  22  2   
 35  20  23  am  
 36  21  41  1   
 37  23  24  1   
 38  23  42  1   
 39  24  25  1   
 40  24  26  1   
 41  24  43  1   
 42  25  27  1   
 43  25  44  1   
 44  25  45  1   
 45  26  28  1   
 46  26  46  1   
 47  26  47  1   
 48  27  29  1   
 49  27  48  1   
 50  27  49  1   
 51  28  29  1   
 52  28  50  1   
 53  28  51  1   
 54  29  52  1   
 55  29  53  1   
@<TRIPOS>SUBSTRUCTURE
  1 ****   6 GROUP 4 **** **** 0

# MOE 2024.06 (io_trps.svl 2023.06)
