@<TRIPOS>MOLECULE
NONAME
46 49 1 0 0 
SMALL
USER_CHARGES


@<TRIPOS>ATOM
  1 O        0.1270    -0.4820    -0.0940 O.2   1 <1>  -0.5700 
  2 C       -0.8790    -1.1470    -0.2480 C.2   1 <1>   0.5440 
  3 N       -2.1090    -0.5410    -0.2760 N.am  1 <1>  -0.7300 
  4 C       -0.7830    -2.5860    -0.4230 C.ar  1 <1>   0.0860 
  5 C       -2.4970     0.8800    -0.1070 C.3   1 <1>   0.3000 
  6 C        0.3210    -3.1590    -1.0530 C.ar  1 <1>  -0.1500 
  7 C       -1.7830    -3.4520     0.0240 C.ar  1 <1>  -0.1500 
  8 C       -4.0340     0.8560    -0.2380 C.3   1 <1>  -0.1600 
  9 C       -2.0510     1.3600     1.2940 C.3   1 <1>  -0.1600 
 10 C       -1.8690     1.6960    -1.2580 C.3   1 <1>  -0.1600 
 11 C        0.4180    -4.5260    -1.2420 C.ar  1 <1>  -0.1500 
 12 C       -1.6910    -4.8190    -0.1640 C.ar  1 <1>  -0.1500 
 13 C       -4.8580     2.1260     0.0490 C.3   1 <1>  -0.1600 
 14 C       -1.9680     2.8900     1.4610 C.3   1 <1>  -0.0800 
 15 C       -1.8560     3.2130    -1.0190 C.3   1 <1>  -0.0800 
 16 C       -0.5910    -5.3650    -0.8020 C.ar  1 <1>  -0.1430 
 17 C       -4.1290     3.4690     0.1940 C.3   1 <1>  -0.0800 
 18 C       -3.3470     3.5590     1.5160 C.3   1 <1>  -0.1600 
 19 C       -1.1560     3.5010     0.3140 C.3   1 <1>  -0.1600 
 20 C       -3.2640     3.8310    -1.0290 C.3   1 <1>  -0.1600 
 21 C       -0.4850    -6.8660    -1.0080 C.3   1 <1>  -0.0970 
 22 H       -2.8970    -1.1260    -0.5410 H     1 <1>   0.3700 
 23 H        1.1130    -2.5160    -1.3960 H     1 <1>   0.1500 
 24 H       -2.6400    -3.0530     0.5360 H     1 <1>   0.1500 
 25 H       -4.4130     0.0930     0.4210 H     1 <1>   0.0800 
 26 H       -4.2730     0.5420    -1.2390 H     1 <1>   0.0800 
 27 H       -1.0650     0.9860     1.4940 H     1 <1>   0.0800 
 28 H       -2.7000     0.9490     2.0450 H     1 <1>   0.0800 
 29 H       -0.8440     1.3990    -1.3820 H     1 <1>   0.0800 
 30 H       -2.3710     1.4810    -2.1830 H     1 <1>   0.0800 
 31 H        1.2850    -4.9330    -1.7330 H     1 <1>   0.1500 
 32 H       -2.4780    -5.4610     0.1930 H     1 <1>   0.1500 
 33 H       -5.4240     1.9610     0.9500 H     1 <1>   0.0800 
 34 H       -5.5850     2.2290    -0.7390 H     1 <1>   0.0800 
 35 H       -1.4600     3.0960     2.3880 H     1 <1>   0.0800 
 36 H       -1.2840     3.6670    -1.8110 H     1 <1>   0.0800 
 37 H       -4.9080     4.2110     0.2520 H     1 <1>   0.0800 
 38 H       -3.9240     3.1420     2.3220 H     1 <1>   0.0800 
 39 H       -3.1990     4.6000     1.7450 H     1 <1>   0.0800 
 40 H       -0.1650     3.0820     0.3050 H     1 <1>   0.0800 
 41 H       -1.0610     4.5640     0.4550 H     1 <1>   0.0800 
 42 H       -3.7770     3.5640    -1.9370 H     1 <1>   0.0800 
 43 H       -3.1460     4.9010    -1.0400 H     1 <1>   0.0800 
 44 H        0.0670    -7.0840    -1.9050 H     1 <1>   0.0800 
 45 H       -1.4630    -7.3040    -1.0980 H     1 <1>   0.0800 
 46 H        0.0210    -7.3130    -0.1720 H     1 <1>   0.0800 
@<TRIPOS>BOND
  1   1   2  2   
  2   2   3  am  
  3   2   4  1   
  4   3   5  1   
  5   3  22  1   
  6   4   6  ar  
  7   4   7  ar  
  8   5   8  1   
  9   5   9  1   
 10   5  10  1   
 11   6  11  ar  
 12   6  23  1   
 13   7  12  ar  
 14   7  24  1   
 15   8  13  1   
 16   8  25  1   
 17   8  26  1   
 18   9  14  1   
 19   9  27  1   
 20   9  28  1   
 21  10  15  1   
 22  10  29  1   
 23  10  30  1   
 24  11  16  ar  
 25  11  31  1   
 26  12  16  ar  
 27  12  32  1   
 28  13  17  1   
 29  13  33  1   
 30  13  34  1   
 31  14  18  1   
 32  14  19  1   
 33  14  35  1   
 34  15  19  1   
 35  15  20  1   
 36  15  36  1   
 37  16  21  1   
 38  17  18  1   
 39  17  20  1   
 40  17  37  1   
 41  18  38  1   
 42  18  39  1   
 43  19  40  1   
 44  19  41  1   
 45  20  42  1   
 46  20  43  1   
 47  21  44  1   
 48  21  45  1   
 49  21  46  1   
@<TRIPOS>SUBSTRUCTURE
  1 ****   3 GROUP 4 **** **** 0

# MOE 2024.06 (io_trps.svl 2023.06)
