@<TRIPOS>MOLECULE
NONAME
38 39 1 0 0 
SMALL
USER_CHARGES


@<TRIPOS>ATOM
  1 O      -10.6600     3.1980     0.6250 O.3   1 <1>  -0.3630 
  2 C       -9.8630     2.3260    -0.0380 C.ar  1 <1>   0.0830 
  3 C      -11.9600     2.8390     1.0340 C.3   1 <1>   0.1200 
  4 C       -8.6300     2.8070    -0.4410 C.ar  1 <1>  -0.1500 
  5 C      -10.2130     1.0100    -0.3220 C.ar  1 <1>  -0.1500 
  6 C      -12.5910     4.0480     1.7170 C.3   1 <1>  -0.2400 
  7 C       -7.7370     1.9890    -1.1170 C.ar  1 <1>  -0.1430 
  8 C       -9.3280     0.1930    -1.0040 C.ar  1 <1>  -0.1500 
  9 C       -8.0940     0.6780    -1.4010 C.ar  1 <1>  -0.1500 
 10 C       -6.3870     2.5280    -1.5210 C.3   1 <1>   0.4860 
 11 N       -5.5370     2.4390    -0.3190 N.4   1 <1>  -0.9060 
 12 C       -4.1850     3.0040    -0.4590 C.3   1 <1>   0.4230 
 13 C       -3.4140     2.6810     0.8140 C.3   1 <1>  -0.1600 
 14 C       -4.2640     4.5270    -0.4260 C.3   1 <1>  -0.1600 
 15 C       -3.8650     3.7170     1.8520 C.3   1 <1>  -0.1600 
 16 C       -4.4160     4.9060     1.0530 C.3   1 <1>  -0.1600 
 17 H      -11.8880     2.0110     1.7180 H     1 <1>   0.0800 
 18 H      -12.5260     2.5570     0.1630 H     1 <1>   0.0800 
 19 H       -8.3950     3.8320    -0.2140 H     1 <1>   0.1500 
 20 H      -11.1630     0.6070    -0.0250 H     1 <1>   0.1500 
 21 H      -12.0110     4.3320     2.5770 H     1 <1>   0.0800 
 22 H      -13.5870     3.8060     2.0400 H     1 <1>   0.0800 
 23 H      -12.6440     4.8740     1.0310 H     1 <1>   0.0800 
 24 H       -9.6050    -0.8240    -1.2260 H     1 <1>   0.1500 
 25 H       -7.4260     0.0200    -1.9320 H     1 <1>   0.1500 
 26 H       -6.4860     3.5510    -1.8460 H     1 <1>   0.0800 
 27 H       -5.9740     1.9410    -2.3250 H     1 <1>   0.0800 
 28 H       -5.4860     1.4570    -0.0330 H     1 <1>   0.4500 
 29 H       -6.0110     2.9280     0.4480 H     1 <1>   0.4500 
 30 H       -3.6900     2.6280    -1.3410 H     1 <1>   0.0800 
 31 H       -2.3650     2.8300     0.6190 H     1 <1>   0.0800 
 32 H       -3.5490     1.6690     1.1520 H     1 <1>   0.0800 
 33 H       -5.0430     4.9420    -1.0400 H     1 <1>   0.0800 
 34 H       -3.3240     4.9170    -0.7790 H     1 <1>   0.0800 
 35 H       -3.0380     4.0180     2.4760 H     1 <1>   0.0800 
 36 H       -4.6350     3.3100     2.4850 H     1 <1>   0.0800 
 37 H       -5.4520     5.0670     1.3000 H     1 <1>   0.0800 
 38 H       -3.8710     5.8090     1.2740 H     1 <1>   0.0800 
@<TRIPOS>BOND
  1   1   2  1   
  2   1   3  1   
  3   2   4  ar  
  4   2   5  ar  
  5   3   6  1   
  6   3  17  1   
  7   3  18  1   
  8   4   7  ar  
  9   4  19  1   
 10   5   8  ar  
 11   5  20  1   
 12   6  21  1   
 13   6  22  1   
 14   6  23  1   
 15   7   9  ar  
 16   7  10  1   
 17   8   9  ar  
 18   8  24  1   
 19   9  25  1   
 20  10  11  1   
 21  10  26  1   
 22  10  27  1   
 23  11  12  1   
 24  11  28  1   
 25  11  29  1   
 26  12  13  1   
 27  12  14  1   
 28  12  30  1   
 29  13  15  1   
 30  13  31  1   
 31  13  32  1   
 32  14  16  1   
 33  14  33  1   
 34  14  34  1   
 35  15  16  1   
 36  15  35  1   
 37  15  36  1   
 38  16  37  1   
 39  16  38  1   
@<TRIPOS>SUBSTRUCTURE
  1 ****   4 GROUP 4 **** **** 0

# MOE 2024.06 (io_trps.svl 2023.06)
