@<TRIPOS>MOLECULE
NONAME
37 39 1 0 0 
SMALL
USER_CHARGES


@<TRIPOS>ATOM
  1 S       -0.2150    -0.4020    -0.5230 S.3   1 <1>  -0.0800 
  2 C        0.8850     0.9530    -0.3850 C.2   1 <1>   0.1040 
  3 C       -1.6020     0.6730    -0.5820 C.2   1 <1>  -0.1400 
  4 N        2.2500     0.7690    -0.2580 N.am  1 <1>  -0.4940 
  5 C        0.2260     2.1470    -0.4200 C.2   1 <1>  -0.2330 
  6 C       -1.2150     1.9610    -0.4900 C.2   1 <1>  -0.1810 
  7 C       -2.9500    -0.0030    -0.7370 C.3   1 <1>   0.0200 
  8 C        3.1210    -0.2880    -0.2200 C.2   1 <1>   0.5440 
  9 C        0.9700     3.4000    -0.4190 C.2   1 <1>   1.0330 
 10 C       -2.1940     3.1330    -0.4750 C.3   1 <1>   0.0210 
 11 C       -3.9800     0.4730     0.2900 C.3   1 <1>  -0.1600 
 12 O        2.7190    -1.4280    -0.3580 O.2   1 <1>  -0.5700 
 13 C        4.5350    -0.0290    -0.0150 C.ar  1 <1>   0.0860 
 14 O        0.5030     4.4620    -0.8660 O.co2 1 <1>  -0.9000 
 15 O        2.1560     3.4260    -0.0110 O.co2 1 <1>  -0.9000 
 16 C       -3.3620     2.9580     0.5070 C.3   1 <1>  -0.1600 
 17 C       -4.4220     1.9290     0.0900 C.3   1 <1>  -0.1600 
 18 C        5.4480    -1.0860     0.0100 C.ar  1 <1>   0.1600 
 19 C        5.0610     1.2490     0.1650 C.ar  1 <1>  -0.1500 
 20 N        6.7590    -0.9870     0.1870 N.ar  1 <1>  -0.6200 
 21 C        6.4200     1.3750     0.3510 C.ar  1 <1>  -0.1500 
 22 C        7.2150     0.2430     0.3540 C.ar  1 <1>   0.1600 
 23 H        2.6830     1.7010    -0.1320 H     1 <1>   0.3700 
 24 H       -2.8200    -1.0640    -0.6190 H     1 <1>   0.0800 
 25 H       -3.3130     0.1700    -1.7340 H     1 <1>   0.0800 
 26 H       -2.5550     3.3070    -1.4720 H     1 <1>   0.0800 
 27 H       -1.6890     4.0250    -0.1630 H     1 <1>   0.0800 
 28 H       -3.5800     0.3440     1.2810 H     1 <1>   0.0800 
 29 H       -4.8470    -0.1570     0.2070 H     1 <1>   0.0800 
 30 H       -3.8480     3.9130     0.5980 H     1 <1>   0.0800 
 31 H       -2.9680     2.7090     1.4780 H     1 <1>   0.0800 
 32 H       -5.2940     2.0930     0.6990 H     1 <1>   0.0800 
 33 H       -4.7120     2.0940    -0.9340 H     1 <1>   0.0800 
 34 H        5.0610    -2.0820    -0.1270 H     1 <1>   0.1500 
 35 H        4.4390     2.1300     0.1630 H     1 <1>   0.1500 
 36 H        6.8590     2.3470     0.4920 H     1 <1>   0.1500 
 37 H        8.2760     0.3550     0.5000 H     1 <1>   0.1500 
@<TRIPOS>BOND
  1   1   2  1   
  2   1   3  1   
  3   2   4  1   
  4   2   5  2   
  5   3   6  2   
  6   3   7  1   
  7   4   8  am  
  8   4  23  1   
  9   5   6  1   
 10   5   9  1   
 11   6  10  1   
 12   7  11  1   
 13   7  24  1   
 14   7  25  1   
 15   8  12  2   
 16   8  13  1   
 17   9  14  ar  
 18   9  15  ar  
 19  10  16  1   
 20  10  26  1   
 21  10  27  1   
 22  11  17  1   
 23  11  28  1   
 24  11  29  1   
 25  13  18  ar  
 26  13  19  ar  
 27  16  17  1   
 28  16  30  1   
 29  16  31  1   
 30  17  32  1   
 31  17  33  1   
 32  18  20  ar  
 33  18  34  1   
 34  19  21  ar  
 35  19  35  1   
 36  20  22  ar  
 37  21  22  ar  
 38  21  36  1   
 39  22  37  1   
@<TRIPOS>SUBSTRUCTURE
  1 ****   2 GROUP 4 **** **** 0

# MOE 2024.06 (io_trps.svl 2023.06)
