@<TRIPOS>MOLECULE
NONAME
37 38 1 0 0 
SMALL
USER_CHARGES


@<TRIPOS>ATOM
  1 S        0.3930    -0.6440    -1.5740 S.3   1 <1>  -0.4600 
  2 C        2.0550     0.0700    -1.6990 C.3   1 <1>   0.0700 
  3 C        0.7030    -2.2090    -0.7150 C.3   1 <1>   0.0700 
  4 C        2.6920     0.1040    -0.3040 C.3   1 <1>   0.3430 
  5 C        1.4870    -1.9270     0.5740 C.3   1 <1>   0.3430 
  6 N        2.8060    -1.2660     0.3070 N.4   1 <1>  -0.9590 
  7 C        3.6620    -1.2500     1.5200 C.3   1 <1>   0.4860 
  8 C        5.0720    -0.8740     1.1080 C.ar  1 <1>  -0.1430 
  9 C        5.7730    -1.6620     0.1980 C.ar  1 <1>   0.0830 
 10 C        5.6650     0.2610     1.6390 C.ar  1 <1>  -0.1500 
 11 O        5.1390    -2.7610    -0.2970 O.3   1 <1>  -0.3630 
 12 C        7.0660    -1.3040    -0.1760 C.ar  1 <1>  -0.1500 
 13 C        6.9480     0.6120     1.2630 C.ar  1 <1>  -0.1500 
 14 C        5.8500    -3.7540    -1.0100 C.3   1 <1>   0.0400 
 15 C        7.6530    -0.1620     0.3580 C.ar  1 <1>   0.0830 
 16 O        8.9030     0.2620     0.0490 O.3   1 <1>  -0.3630 
 17 C        9.7560    -0.4820    -0.7940 C.3   1 <1>   0.0400 
 18 H        1.9420     1.0630    -2.0980 H     1 <1>   0.0800 
 19 H        2.6250    -0.5310    -2.3850 H     1 <1>   0.0800 
 20 H        1.2480    -2.8520    -1.3840 H     1 <1>   0.0800 
 21 H       -0.2580    -2.6440    -0.4990 H     1 <1>   0.0800 
 22 H        2.1000     0.7390     0.3340 H     1 <1>   0.0800 
 23 H        3.6720     0.5440    -0.3920 H     1 <1>   0.0800 
 24 H        1.6490    -2.8620     1.0850 H     1 <1>   0.0800 
 25 H        0.8880    -1.2980     1.2130 H     1 <1>   0.0800 
 26 H        3.3490    -1.8540    -0.3500 H     1 <1>   0.4500 
 27 H        3.6840    -2.2300     1.9700 H     1 <1>   0.0800 
 28 H        3.2810    -0.5460     2.2420 H     1 <1>   0.0800 
 29 H        5.1460     0.8830     2.3500 H     1 <1>   0.1500 
 30 H        7.6130    -1.8980    -0.8780 H     1 <1>   0.1500 
 31 H        7.4180     1.4910     1.6710 H     1 <1>   0.1500 
 32 H        6.1960    -3.3420    -1.9420 H     1 <1>   0.0800 
 33 H        5.1850    -4.5770    -1.2030 H     1 <1>   0.0800 
 34 H        6.6790    -4.0920    -0.4120 H     1 <1>   0.0800 
 35 H       10.6950     0.0380    -0.8590 H     1 <1>   0.0800 
 36 H        9.3100    -0.5520    -1.7700 H     1 <1>   0.0800 
 37 H        9.9090    -1.4570    -0.3660 H     1 <1>   0.0800 
@<TRIPOS>BOND
  1   1   2  1   
  2   1   3  1   
  3   2   4  1   
  4   2  18  1   
  5   2  19  1   
  6   3   5  1   
  7   3  20  1   
  8   3  21  1   
  9   4   6  1   
 10   4  22  1   
 11   4  23  1   
 12   5   6  1   
 13   5  24  1   
 14   5  25  1   
 15   6   7  1   
 16   6  26  1   
 17   7   8  1   
 18   7  27  1   
 19   7  28  1   
 20   8   9  ar  
 21   8  10  ar  
 22   9  11  1   
 23   9  12  ar  
 24  10  13  ar  
 25  10  29  1   
 26  11  14  1   
 27  12  15  ar  
 28  12  30  1   
 29  13  15  ar  
 30  13  31  1   
 31  14  32  1   
 32  14  33  1   
 33  14  34  1   
 34  15  16  1   
 35  16  17  1   
 36  17  35  1   
 37  17  36  1   
 38  17  37  1   
@<TRIPOS>SUBSTRUCTURE
  1 ****   8 GROUP 4 **** **** 0

# MOE 2024.06 (io_trps.svl 2023.06)
