@<TRIPOS>MOLECULE
NONAME
48 49 1 0 0 
SMALL
USER_CHARGES


@<TRIPOS>ATOM
  1 O       -0.3610     0.1460    -0.5750 O.2   1 <1>  -0.5700 
  2 C       -0.7730     1.1710    -0.0690 C.2   1 <1>   0.5440 
  3 N        0.1040     2.0880     0.4610 N.am  1 <1>  -0.5470 
  4 C       -2.1980     1.4190     0.0160 C.ar  1 <1>   0.0860 
  5 C        1.5070     2.1500     0.4260 C.ar  1 <1>   0.1170 
  6 C       -3.0840     0.3730     0.2660 C.ar  1 <1>  -0.1500 
  7 C       -2.7280     2.7000    -0.1470 C.ar  1 <1>  -0.1500 
  8 C        2.1700     2.8460     1.4290 C.ar  1 <1>  -0.1500 
  9 C        2.2650     1.5630    -0.5820 C.ar  1 <1>  -0.1500 
 10 C       -4.4520     0.5850     0.3810 C.ar  1 <1>   0.0830 
 11 C       -4.0930     2.9400    -0.0390 C.ar  1 <1>   0.0830 
 12 C        3.5500     2.9490     1.4290 C.ar  1 <1>  -0.1500 
 13 C        3.6450     1.6600    -0.5880 C.ar  1 <1>  -0.1500 
 14 O       -5.3330    -0.4270     0.6310 O.3   1 <1>  -0.3630 
 15 C       -4.9550     1.8780     0.2350 C.ar  1 <1>   0.0830 
 16 O       -4.6360     4.1810    -0.2000 O.3   1 <1>  -0.3630 
 17 C        4.2980     2.3580     0.4240 C.ar  1 <1>   0.0830 
 18 C       -4.9000    -1.7530     0.8410 C.3   1 <1>   0.0400 
 19 O       -6.2830     2.1160     0.3770 O.3   1 <1>  -0.3630 
 20 C       -3.8580     5.3010    -0.5590 C.3   1 <1>   0.0400 
 21 O        5.6470     2.5050     0.5000 O.3   1 <1>  -0.3630 
 22 C       -7.0760     1.8720    -0.7600 C.3   1 <1>   0.0400 
 23 C        6.4940     1.9010    -0.4500 C.3   1 <1>   0.1200 
 24 C        7.9410     2.2280    -0.0770 C.3   1 <1>  -0.1600 
 25 C        8.9290     1.6020    -1.0690 C.3   1 <1>  -0.2400 
 26 H       -0.3310     2.7870     1.0600 H     1 <1>   0.3700 
 27 H       -2.6650    -0.6110     0.3700 H     1 <1>   0.1500 
 28 H       -2.0520     3.5020    -0.3680 H     1 <1>   0.1500 
 29 H        1.6100     3.3090     2.2210 H     1 <1>   0.1500 
 30 H        1.7760     1.0240    -1.3730 H     1 <1>   0.1500 
 31 H        4.0590     3.4860     2.2080 H     1 <1>   0.1500 
 32 H        4.1890     1.1880    -1.3840 H     1 <1>   0.1500 
 33 H       -5.7660    -2.3590     1.0380 H     1 <1>   0.0800 
 34 H       -4.2390    -1.7750     1.6900 H     1 <1>   0.0800 
 35 H       -4.4030    -2.1040    -0.0460 H     1 <1>   0.0800 
 36 H       -4.5170     6.1450    -0.6540 H     1 <1>   0.0800 
 37 H       -3.3780     5.1060    -1.5020 H     1 <1>   0.0800 
 38 H       -3.1360     5.4890     0.2150 H     1 <1>   0.0800 
 39 H       -8.0950     2.1110    -0.5150 H     1 <1>   0.0800 
 40 H       -6.9940     0.8340    -1.0270 H     1 <1>   0.0800 
 41 H       -6.7310     2.4990    -1.5620 H     1 <1>   0.0800 
 42 H        6.2530     2.2970    -1.4210 H     1 <1>   0.0800 
 43 H        6.3270     0.8380    -0.4270 H     1 <1>   0.0800 
 44 H        8.1430     1.8520     0.9110 H     1 <1>   0.0800 
 45 H        8.0710     3.2960    -0.0730 H     1 <1>   0.0800 
 46 H        8.8260     0.5310    -1.0780 H     1 <1>   0.0800 
 47 H        9.9370     1.8460    -0.7840 H     1 <1>   0.0800 
 48 H        8.7540     1.9770    -2.0620 H     1 <1>   0.0800 
@<TRIPOS>BOND
  1   1   2  2   
  2   2   3  am  
  3   2   4  1   
  4   3   5  1   
  5   3  26  1   
  6   4   6  ar  
  7   4   7  ar  
  8   5   8  ar  
  9   5   9  ar  
 10   6  10  ar  
 11   6  27  1   
 12   7  11  ar  
 13   7  28  1   
 14   8  12  ar  
 15   8  29  1   
 16   9  13  ar  
 17   9  30  1   
 18  10  14  1   
 19  10  15  ar  
 20  11  15  ar  
 21  11  16  1   
 22  12  17  ar  
 23  12  31  1   
 24  13  17  ar  
 25  13  32  1   
 26  14  18  1   
 27  15  19  1   
 28  16  20  1   
 29  17  21  1   
 30  18  33  1   
 31  18  34  1   
 32  18  35  1   
 33  19  22  1   
 34  20  36  1   
 35  20  37  1   
 36  20  38  1   
 37  21  23  1   
 38  22  39  1   
 39  22  40  1   
 40  22  41  1   
 41  23  24  1   
 42  23  42  1   
 43  23  43  1   
 44  24  25  1   
 45  24  44  1   
 46  24  45  1   
 47  25  46  1   
 48  25  47  1   
 49  25  48  1   
@<TRIPOS>SUBSTRUCTURE
  1 ****   3 GROUP 4 **** **** 0

# MOE 2024.06 (io_trps.svl 2023.06)
