@<TRIPOS>MOLECULE
NONAME
59 62 1 0 0 
SMALL
USER_CHARGES


@<TRIPOS>ATOM
  1 N        0.8780     0.0180     0.8420 N.2   1 <1>  -0.5030 
  2 N        0.8050    -1.2230     0.2790 N.pl3 1 <1>  -0.5690 
  3 C        1.7710     0.8580     0.4650 C.2   1 <1>   0.3750 
  4 C        2.7580     0.6950    -0.5670 C.2   1 <1>  -0.1360 
  5 C        1.8070     2.2110     1.1540 C.3   1 <1>  -0.0990 
  6 C        3.7960     1.5230    -0.8060 C.2   1 <1>  -0.2760 
  7 C        3.2530     2.6910     1.3630 C.3   1 <1>  -0.1600 
  8 C        4.0930     2.7610     0.0590 C.3   1 <1>   0.1380 
  9 C        4.7420     1.2920    -1.9780 C.3   1 <1>  -0.0220 
 10 C        5.6110     2.7890     0.4350 C.3   1 <1>  -0.0800 
 11 C        3.6620     4.0050    -0.7440 C.3   1 <1>  -0.2400 
 12 C        6.1980     1.2820    -1.5170 C.3   1 <1>  -0.1600 
 13 C        6.5470     2.5900    -0.7920 C.3   1 <1>  -0.0800 
 14 C        6.0310     4.0130     1.3010 C.3   1 <1>  -0.1600 
 15 C        8.0070     2.5800    -0.3030 C.3   1 <1>  -0.0800 
 16 C        7.5350     4.0320     1.6540 C.3   1 <1>  -0.1600 
 17 C        8.4190     3.8780     0.4030 C.3   1 <1>   0.0000 
 18 C        9.1420     2.3000    -1.2900 C.3   1 <1>  -0.1600 
 19 C        9.9050     3.5730     0.6870 C.3   1 <1>  -0.0190 
 20 C        8.2840     5.1400    -0.4910 C.3   1 <1>  -0.2400 
 21 C       10.4000     2.8570    -0.5960 C.3   1 <1>  -0.1600 
 22 C       10.7500     4.7240     1.2560 C.2   1 <1>   0.3280 
 23 N       10.7440     4.9210     2.5130 N.2   1 <1>  -0.5030 
 24 C       11.5730     5.5430     0.2610 C.3   1 <1>  -0.1790 
 25 N       11.4740     5.9110     3.1220 N.pl3 1 <1>  -0.5690 
 26 H        1.5570    -1.6090    -0.3010 H     1 <1>   0.3110 
 27 H        0.1250    -1.9110     0.6280 H     1 <1>   0.3110 
 28 H        2.6090    -0.1640    -1.1910 H     1 <1>   0.1500 
 29 H        1.2620     2.9150     0.5530 H     1 <1>   0.0800 
 30 H        1.3120     2.1390     2.1060 H     1 <1>   0.0800 
 31 H        3.7180     1.9990     2.0430 H     1 <1>   0.0800 
 32 H        3.2330     3.6510     1.8480 H     1 <1>   0.0800 
 33 H        4.5190     0.3560    -2.4600 H     1 <1>   0.0800 
 34 H        4.6030     2.0690    -2.7090 H     1 <1>   0.0800 
 35 H        5.7730     1.9260     1.0580 H     1 <1>   0.0800 
 36 H        4.2880     4.1540    -1.6020 H     1 <1>   0.0800 
 37 H        3.7040     4.8910    -0.1380 H     1 <1>   0.0800 
 38 H        2.6520     3.8890    -1.0930 H     1 <1>   0.0800 
 39 H        6.8330     1.1560    -2.3760 H     1 <1>   0.0800 
 40 H        6.3550     0.4460    -0.8590 H     1 <1>   0.0800 
 41 H        6.4170     3.3970    -1.4890 H     1 <1>   0.0800 
 42 H        5.7830     4.9250     0.7920 H     1 <1>   0.0800 
 43 H        5.4830     4.0100     2.2250 H     1 <1>   0.0800 
 44 H        8.0670     1.7870     0.4270 H     1 <1>   0.0800 
 45 H        7.7380     3.2250     2.3370 H     1 <1>   0.0800 
 46 H        7.7800     4.9470     2.1650 H     1 <1>   0.0800 
 47 H        9.2350     1.2470    -1.4920 H     1 <1>   0.0800 
 48 H        8.9660     2.8210    -2.2160 H     1 <1>   0.0800 
 49 H        9.9130     2.8190     1.4570 H     1 <1>   0.0800 
 50 H        7.2720     5.3120    -0.8030 H     1 <1>   0.0800 
 51 H        8.8830     5.0640    -1.3790 H     1 <1>   0.0800 
 52 H        8.5980     6.0120     0.0550 H     1 <1>   0.0800 
 53 H       10.8940     3.5270    -1.2760 H     1 <1>   0.0800 
 54 H       11.0830     2.0660    -0.3380 H     1 <1>   0.0800 
 55 H       11.9720     6.4350     0.7030 H     1 <1>   0.0800 
 56 H       10.9720     5.8380    -0.5770 H     1 <1>   0.0800 
 57 H       12.3960     4.9510    -0.0910 H     1 <1>   0.0800 
 58 H       11.7490     6.7380     2.5810 H     1 <1>   0.3110 
 59 H       11.2750     6.1080     4.1110 H     1 <1>   0.3110 
@<TRIPOS>BOND
  1   1   2  1   
  2   1   3  2   
  3   2  26  1   
  4   2  27  1   
  5   3   4  1   
  6   3   5  1   
  7   4   6  2   
  8   4  28  1   
  9   5   7  1   
 10   5  29  1   
 11   5  30  1   
 12   6   8  1   
 13   6   9  1   
 14   7   8  1   
 15   7  31  1   
 16   7  32  1   
 17   8  10  1   
 18   8  11  1   
 19   9  12  1   
 20   9  33  1   
 21   9  34  1   
 22  10  13  1   
 23  10  14  1   
 24  10  35  1   
 25  11  36  1   
 26  11  37  1   
 27  11  38  1   
 28  12  13  1   
 29  12  39  1   
 30  12  40  1   
 31  13  15  1   
 32  13  41  1   
 33  14  16  1   
 34  14  42  1   
 35  14  43  1   
 36  15  17  1   
 37  15  18  1   
 38  15  44  1   
 39  16  17  1   
 40  16  45  1   
 41  16  46  1   
 42  17  19  1   
 43  17  20  1   
 44  18  21  1   
 45  18  47  1   
 46  18  48  1   
 47  19  21  1   
 48  19  22  1   
 49  19  49  1   
 50  20  50  1   
 51  20  51  1   
 52  20  52  1   
 53  21  53  1   
 54  21  54  1   
 55  22  23  2   
 56  22  24  1   
 57  23  25  1   
 58  24  55  1   
 59  24  56  1   
 60  24  57  1   
 61  25  58  1   
 62  25  59  1   
@<TRIPOS>SUBSTRUCTURE
  1 ****  10 GROUP 4 **** **** 0

# MOE 2024.06 (io_trps.svl 2023.06)
