@<TRIPOS>MOLECULE
NONAME
24 24 1 0 0 
SMALL
USER_CHARGES


@<TRIPOS>ATOM
  1 F       -0.9350    -2.6740    -0.1640 F     1 <1>  -0.3400 
  2 C       -1.6700    -1.6020     0.1090 C.3   1 <1>   1.0200 
  3 F       -1.0490    -0.5840    -0.4720 F     1 <1>  -0.3400 
  4 F       -1.5420    -1.4150     1.4160 F     1 <1>  -0.3400 
  5 C       -3.1160    -1.7930    -0.3370 C.3   1 <1>   0.2600 
  6 F       -3.1700    -1.9700    -1.6710 F     1 <1>  -0.3400 
  7 C       -3.9930    -0.6150     0.0770 C.3   1 <1>   0.9600 
  8 F       -4.0930    -0.5530     1.4010 F     1 <1>  -0.3400 
  9 F       -5.2350    -0.8190    -0.3520 F     1 <1>  -0.3400 
 10 O       -3.5570     0.6440    -0.4050 O.3   1 <1>  -0.3630 
 11 C       -4.1910     1.8300    -0.2020 C.ar  1 <1>   0.0830 
 12 C       -3.6080     2.9430    -0.7870 C.ar  1 <1>  -0.1500 
 13 C       -5.3600     1.9980     0.5350 C.ar  1 <1>  -0.1500 
 14 C       -4.1780     4.1950    -0.6450 C.ar  1 <1>  -0.1500 
 15 C       -5.9220     3.2540     0.6710 C.ar  1 <1>  -0.1500 
 16 C       -5.3520     4.3870     0.0870 C.ar  1 <1>  -0.1790 
 17 C       -5.9540     5.7080     0.2330 C.2   1 <1>   0.9790 
 18 O       -5.4330     6.7070    -0.2960 O.co2 1 <1>  -0.9000 
 19 O       -7.0010     5.8600     0.8900 O.co2 1 <1>  -0.9000 
 20 H       -3.5060    -2.6940     0.0930 H     1 <1>   0.0800 
 21 H       -2.7050     2.8310    -1.3570 H     1 <1>   0.1500 
 22 H       -5.8550     1.1740     1.0120 H     1 <1>   0.1500 
 23 H       -3.7170     5.0540    -1.1050 H     1 <1>   0.1500 
 24 H       -6.8280     3.3790     1.2420 H     1 <1>   0.1500 
@<TRIPOS>BOND
  1   1   2  1   
  2   2   3  1   
  3   2   4  1   
  4   2   5  1   
  5   5   6  1   
  6   5   7  1   
  7   5  20  1   
  8   7   8  1   
  9   7   9  1   
 10   7  10  1   
 11  10  11  1   
 12  11  12  ar  
 13  11  13  ar  
 14  12  14  ar  
 15  12  21  1   
 16  13  15  ar  
 17  13  22  1   
 18  14  16  ar  
 19  14  23  1   
 20  15  16  ar  
 21  15  24  1   
 22  16  17  1   
 23  17  18  ar  
 24  17  19  ar  
@<TRIPOS>SUBSTRUCTURE
  1 ****  11 GROUP 4 **** **** 0

# MOE 2024.06 (io_trps.svl 2023.06)
