@<TRIPOS>MOLECULE
NONAME
46 47 1 0 0 
SMALL
USER_CHARGES


@<TRIPOS>ATOM
  1 N       -0.1720     0.2100     0.2150 N.4   1 <1>  -0.9590 
  2 C        1.1370     0.8860     0.5450 C.3   1 <1>   0.4230 
  3 C       -1.3810     1.1100     0.3980 C.3   1 <1>   0.3430 
  4 C       -0.3220    -1.0180     1.0530 C.3   1 <1>   0.3430 
  5 C        1.2220     2.3120    -0.0340 C.3   1 <1>  -0.1600 
  6 C        2.2860     0.0340    -0.0260 C.3   1 <1>  -0.1600 
  7 C       -2.7390     0.5890    -0.1640 C.3   1 <1>   0.3430 
  8 C       -0.9810    -2.1600     0.2810 C.3   1 <1>  -0.1600 
  9 C        2.5960     2.9490     0.2160 C.3   1 <1>  -0.1600 
 10 C        3.6600     0.6690     0.2320 C.3   1 <1>  -0.1600 
 11 N       -3.1100    -0.8470     0.1380 N.4   1 <1>  -0.9590 
 12 C       -2.2200    -1.8250    -0.5520 C.3   1 <1>   0.3430 
 13 C        3.7430     2.0930    -0.3420 C.3   1 <1>  -0.0800 
 14 C       -4.5270    -1.0880    -0.3040 C.3   1 <1>   0.2630 
 15 C        5.0910     2.7680    -0.0260 C.3   1 <1>  -0.1600 
 16 C        6.2900     2.0750    -0.6870 C.3   1 <1>  -0.2400 
 17 H       -0.0690    -0.0540    -0.7730 H     1 <1>   0.4500 
 18 H        1.2530     0.9530     1.6160 H     1 <1>   0.0800 
 19 H       -1.1990     2.0550    -0.0860 H     1 <1>   0.0800 
 20 H       -1.5040     1.3220     1.4480 H     1 <1>   0.0800 
 21 H       -0.9050    -0.7860     1.9300 H     1 <1>   0.0800 
 22 H        0.6400    -1.3590     1.4030 H     1 <1>   0.0800 
 23 H        0.5020     2.9580     0.4330 H     1 <1>   0.0800 
 24 H        1.0440     2.2920    -1.0950 H     1 <1>   0.0800 
 25 H        2.1650    -0.0750    -1.0900 H     1 <1>   0.0800 
 26 H        2.3050    -0.9460     0.4140 H     1 <1>   0.0800 
 27 H       -2.7290     0.7260    -1.2340 H     1 <1>   0.0800 
 28 H       -3.5140     1.2360     0.2160 H     1 <1>   0.0800 
 29 H       -1.2480    -2.9260     0.9890 H     1 <1>   0.0800 
 30 H       -0.2490    -2.6060    -0.3700 H     1 <1>   0.0800 
 31 H        2.7400     3.0910     1.2750 H     1 <1>   0.0800 
 32 H        2.6230     3.9230    -0.2450 H     1 <1>   0.0800 
 33 H        4.4140     0.0500    -0.2230 H     1 <1>   0.0800 
 34 H        3.8570     0.6960     1.2910 H     1 <1>   0.0800 
 35 H       -3.0970    -1.0250     1.1540 H     1 <1>   0.4500 
 36 H       -2.7580    -2.7420    -0.7390 H     1 <1>   0.0800 
 37 H       -1.9220    -1.4280    -1.5090 H     1 <1>   0.0800 
 38 H        3.6390     2.0430    -1.4140 H     1 <1>   0.0800 
 39 H       -4.6260    -0.9350    -1.3670 H     1 <1>   0.0800 
 40 H       -5.2020    -0.4160     0.2030 H     1 <1>   0.0800 
 41 H       -4.8260    -2.0990    -0.0750 H     1 <1>   0.0800 
 42 H        5.2470     2.8020     1.0390 H     1 <1>   0.0800 
 43 H        5.0630     3.7850    -0.3790 H     1 <1>   0.0800 
 44 H        6.4520     1.0960    -0.2730 H     1 <1>   0.0800 
 45 H        7.1810     2.6550    -0.5200 H     1 <1>   0.0800 
 46 H        6.1390     1.9860    -1.7480 H     1 <1>   0.0800 
@<TRIPOS>BOND
  1   1   2  1   
  2   1   3  1   
  3   1   4  1   
  4   1  17  1   
  5   2   5  1   
  6   2   6  1   
  7   2  18  1   
  8   3   7  1   
  9   3  19  1   
 10   3  20  1   
 11   4   8  1   
 12   4  21  1   
 13   4  22  1   
 14   5   9  1   
 15   5  23  1   
 16   5  24  1   
 17   6  10  1   
 18   6  25  1   
 19   6  26  1   
 20   7  11  1   
 21   7  27  1   
 22   7  28  1   
 23   8  12  1   
 24   8  29  1   
 25   8  30  1   
 26   9  13  1   
 27   9  31  1   
 28   9  32  1   
 29  10  13  1   
 30  10  33  1   
 31  10  34  1   
 32  11  12  1   
 33  11  14  1   
 34  11  35  1   
 35  12  36  1   
 36  12  37  1   
 37  13  15  1   
 38  13  38  1   
 39  14  39  1   
 40  14  40  1   
 41  14  41  1   
 42  15  16  1   
 43  15  42  1   
 44  15  43  1   
 45  16  44  1   
 46  16  45  1   
 47  16  46  1   
@<TRIPOS>SUBSTRUCTURE
  1 ****   2 GROUP 4 **** **** 0

# MOE 2024.06 (io_trps.svl 2023.06)
