@<TRIPOS>MOLECULE
NONAME
53 53 1 0 0 
SMALL
USER_CHARGES


@<TRIPOS>ATOM
  1 O       -4.6280    -1.9440     0.2810 O.3   1 <1>  -0.5600 
  2 C       -5.5900    -1.2190     0.9900 C.3   1 <1>   0.2000 
  3 C       -3.5590    -2.4390     1.0270 C.3   1 <1>   0.1200 
  4 C       -6.9360    -1.2230     0.2140 C.3   1 <1>  -0.0800 
  5 C       -5.0300     0.1980     1.2410 C.3   1 <1>  -0.1600 
  6 C       -2.7310    -3.3450     0.1070 C.3   1 <1>   0.2000 
  7 C       -7.3020    -2.5980    -0.4180 C.3   1 <1>  -0.0800 
  8 C       -7.0050    -0.0370    -0.7690 C.3   1 <1>  -0.1600 
  9 C       -6.1390     1.2590     1.2920 C.3   1 <1>  -0.0800 
 10 O       -3.6080    -4.1930    -0.5700 O.3   1 <1>  -0.6800 
 11 C       -1.6970    -4.2040     0.8590 C.3   1 <1>   0.3430 
 12 C       -6.7490    -2.8160    -1.8390 C.3   1 <1>  -0.2400 
 13 C       -8.8250    -2.7930    -0.4580 C.3   1 <1>  -0.2400 
 14 C       -6.9010     1.3210    -0.0480 C.3   1 <1>  -0.1600 
 15 C       -5.5690     2.6340     1.6550 C.3   1 <1>  -0.2400 
 16 N       -1.3690    -5.4090     0.0420 N.4   1 <1>  -0.9060 
 17 C       -0.8670    -6.5680     0.7840 C.3   1 <1>   0.4230 
 18 C        0.5490    -6.2770     1.2700 C.3   1 <1>  -0.2400 
 19 C       -0.8850    -7.7590    -0.1640 C.3   1 <1>  -0.2400 
 20 H       -5.7610    -1.7150     1.9310 H     1 <1>   0.0800 
 21 H       -3.9480    -3.0000     1.8600 H     1 <1>   0.0800 
 22 H       -2.9690    -1.6140     1.3870 H     1 <1>   0.0800 
 23 H       -7.6860    -1.0270     0.9610 H     1 <1>   0.0800 
 24 H       -4.3540     0.4610     0.4450 H     1 <1>   0.0800 
 25 H       -4.4860     0.2040     2.1680 H     1 <1>   0.0800 
 26 H       -2.2360    -2.7340    -0.6290 H     1 <1>   0.0800 
 27 H       -6.9040    -3.3710     0.2170 H     1 <1>   0.0800 
 28 H       -7.9200    -0.0660    -1.3340 H     1 <1>   0.0800 
 29 H       -6.1880    -0.1200    -1.4660 H     1 <1>   0.0800 
 30 H       -6.8350     0.9760     2.0660 H     1 <1>   0.0800 
 31 H       -4.4150    -3.6540    -0.7710 H     1 <1>   0.4000 
 32 H       -2.1320    -4.5140     1.7940 H     1 <1>   0.0800 
 33 H       -0.8110    -3.6290     1.0730 H     1 <1>   0.0800 
 34 H       -7.2470    -2.1750    -2.5450 H     1 <1>   0.0800 
 35 H       -6.9080    -3.8350    -2.1450 H     1 <1>   0.0800 
 36 H       -5.6970    -2.6080    -1.8880 H     1 <1>   0.0800 
 37 H       -9.2910    -2.0420    -1.0710 H     1 <1>   0.0800 
 38 H       -9.2390    -2.7320     0.5330 H     1 <1>   0.0800 
 39 H       -9.0680    -3.7600    -0.8610 H     1 <1>   0.0800 
 40 H       -7.8900     1.6990     0.1430 H     1 <1>   0.0800 
 41 H       -6.4190     2.0150    -0.7150 H     1 <1>   0.0800 
 42 H       -4.8470     2.9510     0.9230 H     1 <1>   0.0800 
 43 H       -5.0890     2.5990     2.6170 H     1 <1>   0.0800 
 44 H       -6.3580     3.3640     1.6970 H     1 <1>   0.0800 
 45 H       -0.7380    -5.1740    -0.7290 H     1 <1>   0.4500 
 46 H       -2.2720    -5.6460    -0.4110 H     1 <1>   0.4500 
 47 H       -1.5100    -6.7740     1.6270 H     1 <1>   0.0800 
 48 H        1.2050    -6.0530     0.4480 H     1 <1>   0.0800 
 49 H        0.9380    -7.1430     1.7770 H     1 <1>   0.0800 
 50 H        0.5590    -5.4630     1.9710 H     1 <1>   0.0800 
 51 H       -0.2500    -7.5910    -1.0160 H     1 <1>   0.0800 
 52 H       -1.8870    -7.9630    -0.4980 H     1 <1>   0.0800 
 53 H       -0.5280    -8.6340     0.3500 H     1 <1>   0.0800 
@<TRIPOS>BOND
  1   1   2  1   
  2   1   3  1   
  3   2   4  1   
  4   2   5  1   
  5   2  20  1   
  6   3   6  1   
  7   3  21  1   
  8   3  22  1   
  9   4   7  1   
 10   4   8  1   
 11   4  23  1   
 12   5   9  1   
 13   5  24  1   
 14   5  25  1   
 15   6  10  1   
 16   6  11  1   
 17   6  26  1   
 18   7  12  1   
 19   7  13  1   
 20   7  27  1   
 21   8  14  1   
 22   8  28  1   
 23   8  29  1   
 24   9  14  1   
 25   9  15  1   
 26   9  30  1   
 27  10  31  1   
 28  11  16  1   
 29  11  32  1   
 30  11  33  1   
 31  12  34  1   
 32  12  35  1   
 33  12  36  1   
 34  13  37  1   
 35  13  38  1   
 36  13  39  1   
 37  14  40  1   
 38  14  41  1   
 39  15  42  1   
 40  15  43  1   
 41  15  44  1   
 42  16  17  1   
 43  16  45  1   
 44  16  46  1   
 45  17  18  1   
 46  17  19  1   
 47  17  47  1   
 48  18  48  1   
 49  18  49  1   
 50  18  50  1   
 51  19  51  1   
 52  19  52  1   
 53  19  53  1   
@<TRIPOS>SUBSTRUCTURE
  1 ****   1 GROUP 4 **** **** 0

# MOE 2024.06 (io_trps.svl 2023.06)
