@<TRIPOS>MOLECULE
NONAME
50 52 1 0 0 
SMALL
USER_CHARGES


@<TRIPOS>ATOM
  1 N       -0.1860    -0.1840     0.7310 N.4   1 <1>  -0.9590 
  2 C       -1.5430     0.2870     0.2450 C.3   1 <1>   0.3430 
  3 C        0.8770     0.8700     0.8760 C.3   1 <1>   0.3430 
  4 C        0.2470    -1.3900    -0.0960 C.3   1 <1>   0.3430 
  5 C       -1.8870     1.7980     0.3960 C.3   1 <1>   0.3430 
  6 C        1.0730     1.7080    -0.3850 C.3   1 <1>  -0.1600 
  7 C        1.4010    -2.2440     0.4800 C.3   1 <1>   0.2070 
  8 N       -1.2160     2.7090    -0.6100 N.4   1 <1>  -0.9590 
  9 C        0.2330     2.9810    -0.3700 C.3   1 <1>   0.3430 
 10 C        2.7410    -1.5130     0.3570 C.ar  1 <1>  -0.1440 
 11 C        1.3650    -3.6220    -0.1830 C.ar  1 <1>  -0.1440 
 12 C       -1.9430     4.0240    -0.6600 C.3   1 <1>   0.2630 
 13 C        3.1510    -0.9350    -0.8400 C.ar  1 <1>  -0.1500 
 14 C        3.5580    -1.3930     1.4730 C.ar  1 <1>  -0.1500 
 15 C        2.3410    -4.0700    -1.0670 C.ar  1 <1>  -0.1500 
 16 C        0.3030    -4.4700     0.1150 C.ar  1 <1>  -0.1500 
 17 C        4.3390    -0.2300    -0.9110 C.ar  1 <1>  -0.1500 
 18 C        4.7450    -0.6860     1.4020 C.ar  1 <1>  -0.1500 
 19 C        2.2430    -5.3190    -1.6540 C.ar  1 <1>  -0.1500 
 20 C        0.2060    -5.7200    -0.4720 C.ar  1 <1>  -0.1500 
 21 C        5.1340    -0.1010     0.2120 C.ar  1 <1>  -0.1500 
 22 C        1.1740    -6.1440    -1.3610 C.ar  1 <1>  -0.1500 
 23 H       -0.3240    -0.5550     1.6860 H     1 <1>   0.4500 
 24 H       -2.2970    -0.2740     0.7750 H     1 <1>   0.0800 
 25 H       -1.6530     0.0330    -0.7970 H     1 <1>   0.0800 
 26 H        1.8140     0.4110     1.1370 H     1 <1>   0.0800 
 27 H        0.6280     1.5260     1.6960 H     1 <1>   0.0800 
 28 H        0.5220    -1.0740    -1.0880 H     1 <1>   0.0800 
 29 H       -0.5990    -2.0480    -0.2050 H     1 <1>   0.0800 
 30 H       -1.6670     2.1230     1.3990 H     1 <1>   0.0800 
 31 H       -2.9540     1.8890     0.2640 H     1 <1>   0.0800 
 32 H        0.9290     1.1420    -1.2870 H     1 <1>   0.0800 
 33 H        2.1030     2.0240    -0.3840 H     1 <1>   0.0800 
 34 H        1.1980    -2.4100     1.5230 H     1 <1>   0.0800 
 35 H       -1.3020     2.3020    -1.5550 H     1 <1>   0.4500 
 36 H        0.5980     3.6400    -1.1430 H     1 <1>   0.0800 
 37 H        0.3610     3.4890     0.5730 H     1 <1>   0.0800 
 38 H       -1.8860     4.5270     0.2930 H     1 <1>   0.0800 
 39 H       -2.9820     3.8740    -0.9060 H     1 <1>   0.0800 
 40 H       -1.5080     4.6660    -1.4100 H     1 <1>   0.0800 
 41 H        2.5640    -1.0380    -1.7370 H     1 <1>   0.1500 
 42 H        3.2890    -1.8510     2.4100 H     1 <1>   0.1500 
 43 H        3.2000    -3.4740    -1.3150 H     1 <1>   0.1500 
 44 H       -0.4630    -4.1820     0.8120 H     1 <1>   0.1500 
 45 H        4.6580     0.2080    -1.8420 H     1 <1>   0.1500 
 46 H        5.3760    -0.5990     2.2720 H     1 <1>   0.1500 
 47 H        3.0050    -5.6530    -2.3390 H     1 <1>   0.1500 
 48 H       -0.6200    -6.3690    -0.2360 H     1 <1>   0.1500 
 49 H        6.0630     0.4430     0.1570 H     1 <1>   0.1500 
 50 H        1.1010    -7.1160    -1.8190 H     1 <1>   0.1500 
@<TRIPOS>BOND
  1   1   2  1   
  2   1   3  1   
  3   1   4  1   
  4   1  23  1   
  5   2   5  1   
  6   2  24  1   
  7   2  25  1   
  8   3   6  1   
  9   3  26  1   
 10   3  27  1   
 11   4   7  1   
 12   4  28  1   
 13   4  29  1   
 14   5   8  1   
 15   5  30  1   
 16   5  31  1   
 17   6   9  1   
 18   6  32  1   
 19   6  33  1   
 20   7  10  1   
 21   7  11  1   
 22   7  34  1   
 23   8   9  1   
 24   8  12  1   
 25   8  35  1   
 26   9  36  1   
 27   9  37  1   
 28  10  13  ar  
 29  10  14  ar  
 30  11  15  ar  
 31  11  16  ar  
 32  12  38  1   
 33  12  39  1   
 34  12  40  1   
 35  13  17  ar  
 36  13  41  1   
 37  14  18  ar  
 38  14  42  1   
 39  15  19  ar  
 40  15  43  1   
 41  16  20  ar  
 42  16  44  1   
 43  17  21  ar  
 44  17  45  1   
 45  18  21  ar  
 46  18  46  1   
 47  19  22  ar  
 48  19  47  1   
 49  20  22  ar  
 50  20  48  1   
 51  21  49  1   
 52  22  50  1   
@<TRIPOS>SUBSTRUCTURE
  1 ****   4 GROUP 4 **** **** 0

# MOE 2024.06 (io_trps.svl 2023.06)
