@<TRIPOS>MOLECULE
NONAME
35 35 1 0 0 
SMALL
USER_CHARGES


@<TRIPOS>ATOM
  1 CL      -0.5900     1.5870     2.8010 Cl    1 <1>  -0.1770 
  2 C       -1.8520     1.9580     1.6540 C.ar  1 <1>   0.1770 
  3 C       -1.6000     2.7540     0.5370 C.ar  1 <1>   0.0860 
  4 C       -3.1090     1.4510     1.9140 C.ar  1 <1>  -0.1500 
  5 C       -0.2920     3.2850     0.2360 C.2   1 <1>   0.6340 
  6 C       -2.6850     3.0330    -0.2980 C.ar  1 <1>  -0.1500 
  7 C       -4.1570     1.7430     1.0600 C.ar  1 <1>  -0.1500 
  8 O        0.7280     2.6300     0.2620 O.2   1 <1>  -0.5700 
  9 O       -0.2300     4.5700    -0.1240 O.3   1 <1>  -0.4300 
 10 C       -3.9640     2.5460    -0.0580 C.ar  1 <1>  -0.0090 
 11 C        0.9960     5.1900    -0.4590 C.3   1 <1>   0.0400 
 12 S       -5.3440     2.9300    -1.1770 S.o2  1 <1>   1.4470 
 13 O       -5.0040     4.0690    -2.0040 O.2   1 <1>  -0.6500 
 14 O       -5.7190     1.6910    -1.8230 O.2   1 <1>  -0.6500 
 15 N       -6.6030     3.3990    -0.1270 N.am  1 <1>  -0.8490 
 16 C       -6.5710     4.8280     0.2300 C.3   1 <1>   0.1960 
 17 C       -7.9250     3.0190    -0.6450 C.3   1 <1>   0.1960 
 18 C       -5.4010     5.1500     1.1570 C.3   1 <1>  -0.2400 
 19 C       -8.9540     2.9370     0.4840 C.3   1 <1>  -0.2400 
 20 H       -3.2660     0.8340     2.7820 H     1 <1>   0.1500 
 21 H       -2.5200     3.6510    -1.1660 H     1 <1>   0.1500 
 22 H       -5.1400     1.3480     1.2600 H     1 <1>   0.1500 
 23 H        1.6570     5.1330     0.3880 H     1 <1>   0.0800 
 24 H        0.8010     6.2180    -0.7090 H     1 <1>   0.0800 
 25 H        1.4260     4.6770    -1.3010 H     1 <1>   0.0800 
 26 H       -7.4670     5.0950     0.7600 H     1 <1>   0.0800 
 27 H       -6.5290     5.4420    -0.6560 H     1 <1>   0.0800 
 28 H       -7.8860     2.0380    -1.0870 H     1 <1>   0.0800 
 29 H       -8.2440     3.7090    -1.4100 H     1 <1>   0.0800 
 30 H       -5.3670     4.4550     1.9760 H     1 <1>   0.0800 
 31 H       -5.5310     6.1390     1.5580 H     1 <1>   0.0800 
 32 H       -4.4690     5.1410     0.6230 H     1 <1>   0.0800 
 33 H       -8.5750     2.3260     1.2840 H     1 <1>   0.0800 
 34 H       -9.8530     2.4820     0.1100 H     1 <1>   0.0800 
 35 H       -9.2140     3.9070     0.8620 H     1 <1>   0.0800 
@<TRIPOS>BOND
  1   1   2  1   
  2   2   3  ar  
  3   2   4  ar  
  4   3   5  1   
  5   3   6  ar  
  6   4   7  ar  
  7   4  20  1   
  8   5   8  2   
  9   5   9  1   
 10   6  10  ar  
 11   6  21  1   
 12   7  10  ar  
 13   7  22  1   
 14   9  11  1   
 15  10  12  1   
 16  11  23  1   
 17  11  24  1   
 18  11  25  1   
 19  12  13  2   
 20  12  14  2   
 21  12  15  am  
 22  15  16  1   
 23  15  17  1   
 24  16  18  1   
 25  16  26  1   
 26  16  27  1   
 27  17  19  1   
 28  17  28  1   
 29  17  29  1   
 30  18  30  1   
 31  18  31  1   
 32  18  32  1   
 33  19  33  1   
 34  19  34  1   
 35  19  35  1   
@<TRIPOS>SUBSTRUCTURE
  1 ****  10 GROUP 4 **** **** 0

# MOE 2024.06 (io_trps.svl 2023.06)
