@<TRIPOS>MOLECULE
NONAME
43 44 1 0 0 
SMALL
USER_CHARGES


@<TRIPOS>ATOM
  1 O       -1.6630     0.9870     1.6690 O.2   1 <1>  -0.5700 
  2 C       -1.6980     0.8480     0.4750 C.2   1 <1>   0.6590 
  3 O       -1.5660    -0.3670    -0.0510 O.3   1 <1>  -0.4300 
  4 C       -1.8710     2.0590    -0.4250 C.3   1 <1>   0.0420 
  5 C       -1.1860    -0.6610    -1.3810 C.3   1 <1>   0.0400 
  6 C       -0.4800     2.6390    -0.5660 C.2   1 <1>   0.5690 
  7 C       -2.9170     3.0880     0.0940 C.3   1 <1>  -0.0800 
  8 O        0.0190     2.6380    -1.6660 O.2   1 <1>  -0.5700 
  9 N        0.1510     3.1290     0.5380 N.am  1 <1>  -0.4930 
 10 C       -4.2800     2.3910     0.3220 C.3   1 <1>  -0.1600 
 11 C       -3.0320     4.3100    -0.8480 C.3   1 <1>  -0.1600 
 12 C        1.3760     3.7840     0.6530 C.2   1 <1>   0.3520 
 13 C       -5.5100     3.2970     0.4910 C.3   1 <1>  -0.1600 
 14 C       -3.3400     5.6110    -0.0880 C.3   1 <1>  -0.1600 
 15 N        1.8210     4.1740     1.7960 N.2   1 <1>  -0.4100 
 16 C        2.2710     4.1190    -0.3640 C.2   1 <1>  -0.1500 
 17 C       -5.2630     4.5760     1.3040 C.3   1 <1>  -0.1600 
 18 C       -4.7790     5.7400     0.4270 C.3   1 <1>  -0.1600 
 19 O        2.9740     4.7480     1.5580 O.3   1 <1>  -0.0190 
 20 C        3.2700     4.7320     0.2850 C.2   1 <1>  -0.0400 
 21 C        4.5650     5.3480    -0.1990 C.3   1 <1>  -0.0600 
 22 H       -2.2020     1.7400    -1.3940 H     1 <1>   0.0800 
 23 H       -0.3060    -0.0950    -1.6350 H     1 <1>   0.0800 
 24 H       -0.9690    -1.7130    -1.4410 H     1 <1>   0.0800 
 25 H       -1.9990    -0.4230    -2.0450 H     1 <1>   0.0800 
 26 H       -2.5730     3.4380     1.0530 H     1 <1>   0.0800 
 27 H       -0.2970     2.9680     1.4430 H     1 <1>   0.3700 
 28 H       -4.2010     1.7860     1.2100 H     1 <1>   0.0800 
 29 H       -4.4860     1.7220    -0.4960 H     1 <1>   0.0800 
 30 H       -3.7720     4.1370    -1.6110 H     1 <1>   0.0800 
 31 H       -2.1010     4.4750    -1.3610 H     1 <1>   0.0800 
 32 H       -6.2740     2.7210     0.9850 H     1 <1>   0.0800 
 33 H       -5.9010     3.5580    -0.4770 H     1 <1>   0.0800 
 34 H       -3.1550     6.4400    -0.7500 H     1 <1>   0.0800 
 35 H       -2.6560     5.7160     0.7370 H     1 <1>   0.0800 
 36 H        2.1510     3.9160    -1.4110 H     1 <1>   0.1500 
 37 H       -4.5770     4.3920     2.1130 H     1 <1>   0.0800 
 38 H       -6.2000     4.8720     1.7440 H     1 <1>   0.0800 
 39 H       -5.4450     5.8540    -0.4110 H     1 <1>   0.0800 
 40 H       -4.8450     6.6470     1.0030 H     1 <1>   0.0800 
 41 H        4.6480     5.2480    -1.2650 H     1 <1>   0.0800 
 42 H        5.3990     4.8520     0.2650 H     1 <1>   0.0800 
 43 H        4.5910     6.3910     0.0590 H     1 <1>   0.0800 
@<TRIPOS>BOND
  1   1   2  2   
  2   2   3  1   
  3   2   4  1   
  4   3   5  1   
  5   4   6  1   
  6   4   7  1   
  7   4  22  1   
  8   5  23  1   
  9   5  24  1   
 10   5  25  1   
 11   6   8  2   
 12   6   9  am  
 13   7  10  1   
 14   7  11  1   
 15   7  26  1   
 16   9  12  1   
 17   9  27  1   
 18  10  13  1   
 19  10  28  1   
 20  10  29  1   
 21  11  14  1   
 22  11  30  1   
 23  11  31  1   
 24  12  15  2   
 25  12  16  1   
 26  13  17  1   
 27  13  32  1   
 28  13  33  1   
 29  14  18  1   
 30  14  34  1   
 31  14  35  1   
 32  15  19  1   
 33  16  20  2   
 34  16  36  1   
 35  17  18  1   
 36  17  37  1   
 37  17  38  1   
 38  18  39  1   
 39  18  40  1   
 40  19  20  1   
 41  20  21  1   
 42  21  41  1   
 43  21  42  1   
 44  21  43  1   
@<TRIPOS>SUBSTRUCTURE
  1 ****   6 GROUP 4 **** **** 0

# MOE 2024.06 (io_trps.svl 2023.06)
