@<TRIPOS>MOLECULE
NONAME
38 39 1 0 0 
SMALL
USER_CHARGES


@<TRIPOS>ATOM
  1 CL      -0.2360     0.1990     0.5380 Cl    1 <1>  -0.1770 
  2 C       -1.9720     0.1270     0.3800 C.ar  1 <1>   0.1770 
  3 C       -2.5750    -1.0650     0.0300 C.ar  1 <1>  -0.1500 
  4 C       -2.7240     1.2630     0.6060 C.ar  1 <1>  -0.1500 
  5 C       -3.9520    -1.1170    -0.0950 C.ar  1 <1>  -0.1500 
  6 C       -4.1000     1.1990     0.4780 C.ar  1 <1>  -0.1500 
  7 C       -4.7470     0.0110     0.1260 C.ar  1 <1>   0.0530 
  8 C       -6.1870    -0.0520    -0.0080 C.2   1 <1>   0.0870 
  9 O       -6.9320     1.0220     0.2270 O.3   1 <1>  -0.2800 
 10 C       -7.0130    -1.0750    -0.3540 C.2   1 <1>  -0.1500 
 11 C       -8.1990     0.7200     0.0420 C.2   1 <1>  -0.0400 
 12 C       -8.3170    -0.5770    -0.3220 C.2   1 <1>  -0.1500 
 13 C       -9.2140     1.8240     0.2630 C.3   1 <1>   0.5230 
 14 N      -10.5560     1.3610    -0.1500 N.4   1 <1>  -0.9060 
 15 C      -11.6500     2.3280     0.0710 C.3   1 <1>   0.4230 
 16 C      -12.9580     1.5350     0.3080 C.3   1 <1>   0.1200 
 17 C      -11.7350     3.2890    -1.1230 C.3   1 <1>  -0.1600 
 18 O      -12.6710     0.3400     0.9780 O.3   1 <1>  -0.6800 
 19 C      -12.7850     4.3920    -0.9220 C.3   1 <1>  -0.2400 
 20 H       -1.9690    -1.9370    -0.1410 H     1 <1>   0.1500 
 21 H       -2.2350     2.1810     0.8770 H     1 <1>   0.1500 
 22 H       -4.4120    -2.0490    -0.3660 H     1 <1>   0.1500 
 23 H       -4.6820     2.0860     0.6550 H     1 <1>   0.1500 
 24 H       -6.7450    -2.0860    -0.6090 H     1 <1>   0.1500 
 25 H       -9.1900    -1.1640    -0.5490 H     1 <1>   0.1500 
 26 H       -8.9250     2.6840    -0.3180 H     1 <1>   0.0800 
 27 H       -9.2160     2.0990     1.3050 H     1 <1>   0.0800 
 28 H      -10.8280     0.5440     0.4260 H     1 <1>   0.4500 
 29 H      -10.5400     1.0370    -1.1190 H     1 <1>   0.4500 
 30 H      -11.4470     2.8960     0.9650 H     1 <1>   0.0800 
 31 H      -13.4320     1.2880    -0.6270 H     1 <1>   0.0800 
 32 H      -13.6440     2.1130     0.9040 H     1 <1>   0.0800 
 33 H      -11.9770     2.7430    -2.0190 H     1 <1>   0.0800 
 34 H      -10.7820     3.7670    -1.2680 H     1 <1>   0.0800 
 35 H      -13.5000    -0.1310     1.2270 H     1 <1>   0.4000 
 36 H      -13.7790     3.9840    -0.8540 H     1 <1>   0.0800 
 37 H      -12.7660     5.0700    -1.7590 H     1 <1>   0.0800 
 38 H      -12.5820     4.9600    -0.0300 H     1 <1>   0.0800 
@<TRIPOS>BOND
  1   1   2  1   
  2   2   3  ar  
  3   2   4  ar  
  4   3   5  ar  
  5   3  20  1   
  6   4   6  ar  
  7   4  21  1   
  8   5   7  ar  
  9   5  22  1   
 10   6   7  ar  
 11   6  23  1   
 12   7   8  1   
 13   8   9  1   
 14   8  10  2   
 15   9  11  1   
 16  10  12  1   
 17  10  24  1   
 18  11  12  2   
 19  11  13  1   
 20  12  25  1   
 21  13  14  1   
 22  13  26  1   
 23  13  27  1   
 24  14  15  1   
 25  14  28  1   
 26  14  29  1   
 27  15  16  1   
 28  15  17  1   
 29  15  30  1   
 30  16  18  1   
 31  16  31  1   
 32  16  32  1   
 33  17  19  1   
 34  17  33  1   
 35  17  34  1   
 36  18  35  1   
 37  19  36  1   
 38  19  37  1   
 39  19  38  1   
@<TRIPOS>SUBSTRUCTURE
  1 ****   9 GROUP 4 **** **** 0

# MOE 2024.06 (io_trps.svl 2023.06)
