@<TRIPOS>MOLECULE
NONAME
48 50 1 0 0 
SMALL
USER_CHARGES


@<TRIPOS>ATOM
  1 BR       1.0690    -1.0700    -2.9920 Br    1 <1>  -0.1110 
  2 C        0.2000    -2.3350    -1.8210 C.ar  1 <1>   0.1110 
  3 C        0.8700    -2.8180    -0.7050 C.ar  1 <1>   0.0820 
  4 C       -1.0860    -2.7220    -2.1410 C.ar  1 <1>  -0.1500 
  5 O        2.1350    -2.3770    -0.4750 O.3   1 <1>  -0.3630 
  6 C        0.2070    -3.7260     0.1150 C.ar  1 <1>  -0.1500 
  7 C       -1.7410    -3.6250    -1.3180 C.ar  1 <1>  -0.1430 
  8 C        2.9250    -2.8840     0.5790 C.3   1 <1>   0.0400 
  9 C       -1.0940    -4.1280    -0.1890 C.ar  1 <1>   0.0820 
 10 C       -3.1540    -4.0640    -1.6520 C.3   1 <1>   0.4870 
 11 O       -1.7930    -5.0040     0.5850 O.3   1 <1>  -0.3630 
 12 N       -4.0480    -3.6660    -0.5380 N.4   1 <1>  -0.9590 
 13 C       -1.1500    -5.7680     1.5890 C.3   1 <1>   0.0400 
 14 C       -5.4130    -4.2910    -0.6390 C.3   1 <1>   0.3430 
 15 C       -4.1320    -2.1690    -0.3720 C.3   1 <1>   0.3430 
 16 C       -6.3270    -3.9180     0.5490 C.3   1 <1>   0.2090 
 17 C       -5.0120    -1.7540     0.8260 C.3   1 <1>   0.2090 
 18 N       -6.3380    -2.4430     0.7910 N.pl3 1 <1>  -0.8380 
 19 C       -7.4940    -1.6870     0.6080 C.ar  1 <1>   0.1000 
 20 C       -8.2930    -1.8360    -0.5250 C.ar  1 <1>  -0.1500 
 21 C       -7.8640    -0.7540     1.5720 C.ar  1 <1>  -0.1500 
 22 C       -9.4340    -1.0700    -0.6900 C.ar  1 <1>  -0.1500 
 23 C       -9.0020     0.0170     1.4150 C.ar  1 <1>  -0.1500 
 24 C       -9.7770    -0.1500     0.2830 C.ar  1 <1>   0.1770 
 25 CL     -11.2170     0.8200     0.0770 Cl    1 <1>  -0.1770 
 26 H       -1.5460    -2.3140    -3.0250 H     1 <1>   0.1500 
 27 H        0.7030    -4.1080     0.9840 H     1 <1>   0.1500 
 28 H        3.8890    -2.4080     0.5290 H     1 <1>   0.0800 
 29 H        3.0370    -3.9460     0.4540 H     1 <1>   0.0800 
 30 H        2.4530    -2.6490     1.5160 H     1 <1>   0.0800 
 31 H       -3.1650    -5.1360    -1.7680 H     1 <1>   0.0800 
 32 H       -3.4790    -3.6130    -2.5750 H     1 <1>   0.0800 
 33 H       -3.5780    -4.0400     0.3040 H     1 <1>   0.4500 
 34 H       -0.8090    -5.1110     2.3700 H     1 <1>   0.0800 
 35 H       -0.3240    -6.3020     1.1510 H     1 <1>   0.0800 
 36 H       -1.8600    -6.4690     1.9900 H     1 <1>   0.0800 
 37 H       -5.3240    -5.3640    -0.6850 H     1 <1>   0.0800 
 38 H       -5.8930    -3.9590    -1.5450 H     1 <1>   0.0800 
 39 H       -4.5520    -1.7310    -1.2620 H     1 <1>   0.0800 
 40 H       -3.1450    -1.7580    -0.2370 H     1 <1>   0.0800 
 41 H       -5.9790    -4.4130     1.4390 H     1 <1>   0.0800 
 42 H       -7.3290    -4.2640     0.3600 H     1 <1>   0.0800 
 43 H       -5.1560    -0.6870     0.8050 H     1 <1>   0.0800 
 44 H       -4.5110    -1.9990     1.7460 H     1 <1>   0.0800 
 45 H       -8.0240    -2.5460    -1.2820 H     1 <1>   0.1500 
 46 H       -7.2590    -0.6420     2.4530 H     1 <1>   0.1500 
 47 H      -10.0570    -1.1790    -1.5600 H     1 <1>   0.1500 
 48 H       -9.2920     0.7370     2.1590 H     1 <1>   0.1500 
@<TRIPOS>BOND
  1   1   2  1   
  2   2   3  ar  
  3   2   4  ar  
  4   3   5  1   
  5   3   6  ar  
  6   4   7  ar  
  7   4  26  1   
  8   5   8  1   
  9   6   9  ar  
 10   6  27  1   
 11   7   9  ar  
 12   7  10  1   
 13   8  28  1   
 14   8  29  1   
 15   8  30  1   
 16   9  11  1   
 17  10  12  1   
 18  10  31  1   
 19  10  32  1   
 20  11  13  1   
 21  12  14  1   
 22  12  15  1   
 23  12  33  1   
 24  13  34  1   
 25  13  35  1   
 26  13  36  1   
 27  14  16  1   
 28  14  37  1   
 29  14  38  1   
 30  15  17  1   
 31  15  39  1   
 32  15  40  1   
 33  16  18  1   
 34  16  41  1   
 35  16  42  1   
 36  17  18  1   
 37  17  43  1   
 38  17  44  1   
 39  18  19  1   
 40  19  20  ar  
 41  19  21  ar  
 42  20  22  ar  
 43  20  45  1   
 44  21  23  ar  
 45  21  46  1   
 46  22  24  ar  
 47  22  47  1   
 48  23  24  ar  
 49  23  48  1   
 50  24  25  1   
@<TRIPOS>SUBSTRUCTURE
  1 ****  15 GROUP 4 **** **** 0

# MOE 2024.06 (io_trps.svl 2023.06)
