@<TRIPOS>MOLECULE
NONAME
50 52 1 0 0 
SMALL
USER_CHARGES


@<TRIPOS>ATOM
  1 O       -0.1900    -0.4970     0.1190 O.3   1 <1>  -0.3630 
  2 C       -1.3910    -1.0460     0.4230 C.ar  1 <1>   0.0830 
  3 C        0.4340    -0.7420    -1.1230 C.3   1 <1>   0.2640 
  4 C       -1.8750    -0.8120     1.7000 C.ar  1 <1>  -0.1500 
  5 C       -2.1420    -1.8150    -0.4610 C.ar  1 <1>  -0.1500 
  6 C        1.7740    -0.0230    -1.1610 C.ar  1 <1>  -0.1440 
  7 C       -3.0920    -1.3350     2.0970 C.ar  1 <1>  -0.1500 
  8 C       -3.3600    -2.3360    -0.0600 C.ar  1 <1>  -0.1500 
  9 C        1.8290     1.3560    -1.0300 C.ar  1 <1>  -0.1500 
 10 C        2.9520    -0.7350    -1.3330 C.ar  1 <1>  -0.1500 
 11 C       -3.8440    -2.1000     1.2180 C.ar  1 <1>  -0.1430 
 12 C        3.0440     2.0180    -1.0770 C.ar  1 <1>  -0.1500 
 13 C        4.1690    -0.0750    -1.3800 C.ar  1 <1>  -0.1500 
 14 C       -5.1880    -2.6740     1.6440 C.3   1 <1>   0.2530 
 15 C        4.2150     1.3020    -1.2520 C.ar  1 <1>  -0.1500 
 16 N       -6.2810    -2.0880     0.8410 N.3   1 <1>  -0.8100 
 17 C       -7.5850    -2.7150     1.1520 C.3   1 <1>   0.1100 
 18 C       -6.3590    -0.6120     0.9960 C.3   1 <1>   0.1100 
 19 C       -8.7280    -2.1560     0.2670 C.3   1 <1>   0.3430 
 20 C       -7.5510     0.0070     0.2260 C.3   1 <1>   0.3430 
 21 N       -8.2500    -1.0270    -0.6040 N.4   1 <1>  -0.9590 
 22 C       -9.2790    -0.4500    -1.5020 C.3   1 <1>   0.3430 
 23 C       -9.6680    -1.4730    -2.5630 C.3   1 <1>  -0.2400 
 24 H       -0.2060    -0.3690    -1.9030 H     1 <1>   0.0800 
 25 H        0.5650    -1.8040    -1.2300 H     1 <1>   0.0800 
 26 H       -1.2870    -0.2200     2.3780 H     1 <1>   0.1500 
 27 H       -1.8010    -2.0190    -1.4570 H     1 <1>   0.1500 
 28 H       -3.4450    -1.1430     3.0950 H     1 <1>   0.1500 
 29 H       -3.9390    -2.9290    -0.7470 H     1 <1>   0.1500 
 30 H        0.9220     1.9170    -0.8880 H     1 <1>   0.1500 
 31 H        2.9310    -1.8060    -1.4310 H     1 <1>   0.1500 
 32 H        3.0770     3.0880    -0.9740 H     1 <1>   0.1500 
 33 H        5.0790    -0.6330    -1.5130 H     1 <1>   0.1500 
 34 H       -5.3560    -2.4850     2.6910 H     1 <1>   0.0800 
 35 H       -5.1660    -3.7400     1.4960 H     1 <1>   0.0800 
 36 H        5.1600     1.8160    -1.2880 H     1 <1>   0.1500 
 37 H       -7.8300    -2.5520     2.1890 H     1 <1>   0.0800 
 38 H       -7.5190    -3.7790     1.0000 H     1 <1>   0.0800 
 39 H       -5.4520    -0.1650     0.6240 H     1 <1>   0.0800 
 40 H       -6.4390    -0.3530     2.0380 H     1 <1>   0.0800 
 41 H       -9.5340    -1.8220     0.8980 H     1 <1>   0.0800 
 42 H       -9.1050    -2.9560    -0.3490 H     1 <1>   0.0800 
 43 H       -7.1830     0.8010    -0.4030 H     1 <1>   0.0800 
 44 H       -8.2410     0.4390     0.9310 H     1 <1>   0.0800 
 45 H       -7.4880    -1.4470    -1.1600 H     1 <1>   0.4500 
 46 H       -8.8810     0.4250    -1.9910 H     1 <1>   0.0800 
 47 H      -10.1470    -0.1550    -0.9340 H     1 <1>   0.0800 
 48 H       -8.8040    -1.7990    -3.1150 H     1 <1>   0.0800 
 49 H      -10.3500    -1.0150    -3.2580 H     1 <1>   0.0800 
 50 H      -10.1650    -2.3210    -2.1300 H     1 <1>   0.0800 
@<TRIPOS>BOND
  1   1   2  1   
  2   1   3  1   
  3   2   4  ar  
  4   2   5  ar  
  5   3   6  1   
  6   3  24  1   
  7   3  25  1   
  8   4   7  ar  
  9   4  26  1   
 10   5   8  ar  
 11   5  27  1   
 12   6   9  ar  
 13   6  10  ar  
 14   7  11  ar  
 15   7  28  1   
 16   8  11  ar  
 17   8  29  1   
 18   9  12  ar  
 19   9  30  1   
 20  10  13  ar  
 21  10  31  1   
 22  11  14  1   
 23  12  15  ar  
 24  12  32  1   
 25  13  15  ar  
 26  13  33  1   
 27  14  16  1   
 28  14  34  1   
 29  14  35  1   
 30  15  36  1   
 31  16  17  1   
 32  16  18  1   
 33  17  19  1   
 34  17  37  1   
 35  17  38  1   
 36  18  20  1   
 37  18  39  1   
 38  18  40  1   
 39  19  21  1   
 40  19  41  1   
 41  19  42  1   
 42  20  21  1   
 43  20  43  1   
 44  20  44  1   
 45  21  22  1   
 46  21  45  1   
 47  22  23  1   
 48  22  46  1   
 49  22  47  1   
 50  23  48  1   
 51  23  49  1   
 52  23  50  1   
@<TRIPOS>SUBSTRUCTURE
  1 ****   5 GROUP 4 **** **** 0

# MOE 2024.06 (io_trps.svl 2023.06)
