@<TRIPOS>MOLECULE
NONAME
40 40 1 0 0 
SMALL
USER_CHARGES


@<TRIPOS>ATOM
  1 CL       2.6850    -1.0980     1.8170 Cl    1 <1>  -0.1770 
  2 C        1.7630    -2.5330     1.4540 C.ar  1 <1>   0.1770 
  3 C        1.2500    -2.7070     0.1840 C.ar  1 <1>  -0.1500 
  4 C        1.5620    -3.4790     2.4390 C.ar  1 <1>  -0.1500 
  5 C        0.5280    -3.8550    -0.1000 C.ar  1 <1>  -0.1500 
  6 C        0.8380    -4.6210     2.1400 C.ar  1 <1>  -0.1500 
  7 C        0.3120    -4.8340     0.8680 C.ar  1 <1>  -0.0090 
  8 S       -0.6320    -6.3500     0.4900 S.o2  1 <1>   1.4970 
  9 O       -1.8410    -6.2750     1.2920 O.2   1 <1>  -0.6500 
 10 O       -0.7900    -6.4680    -0.9510 O.2   1 <1>  -0.6500 
 11 N        0.3120    -7.5750     1.1030 N.2   1 <1>  -0.6380 
 12 C        1.5070    -7.6620     0.6550 C.2   1 <1>   0.4610 
 13 O        2.3120    -8.5020     1.1040 O.3   1 <1>  -0.8610 
 14 O        1.9900    -6.8390    -0.3070 O.3   1 <1>  -0.4300 
 15 C        3.2540    -7.1070    -0.8730 C.3   1 <1>   0.1200 
 16 C        4.3350    -6.8210     0.1840 C.3   1 <1>   0.3430 
 17 N        5.5640    -7.6740     0.0410 N.4   1 <1>  -0.9590 
 18 C        5.2040    -9.1010     0.3010 C.3   1 <1>   0.3430 
 19 C        6.5850    -7.1790     0.9960 C.3   1 <1>   0.3430 
 20 C        5.7310    -9.9540    -0.8460 C.3   1 <1>  -0.2400 
 21 C        7.9480    -7.7880     0.6890 C.3   1 <1>  -0.2400 
 22 H        1.4130    -1.9570    -0.5690 H     1 <1>   0.1500 
 23 H        1.9650    -3.3250     3.4240 H     1 <1>   0.1500 
 24 H        0.1260    -4.0020    -1.0900 H     1 <1>   0.1500 
 25 H        0.6770    -5.3700     2.9000 H     1 <1>   0.1500 
 26 H        3.3720    -6.4660    -1.7260 H     1 <1>   0.0800 
 27 H        3.2450    -8.1340    -1.1900 H     1 <1>   0.0800 
 28 H        3.9100    -6.9960     1.1600 H     1 <1>   0.0800 
 29 H        4.5990    -5.7800     0.1230 H     1 <1>   0.0800 
 30 H        5.9120    -7.5970    -0.9190 H     1 <1>   0.4500 
 31 H        4.1370    -9.2260     0.3550 H     1 <1>   0.0800 
 32 H        5.6170    -9.4320     1.2410 H     1 <1>   0.0800 
 33 H        6.2900    -7.4180     2.0060 H     1 <1>   0.0800 
 34 H        6.6600    -6.1060     0.9160 H     1 <1>   0.0800 
 35 H        5.2720    -9.6620    -1.7730 H     1 <1>   0.0800 
 36 H        5.4710   -10.9810    -0.6600 H     1 <1>   0.0800 
 37 H        6.8000    -9.8900    -0.9290 H     1 <1>   0.0800 
 38 H        7.9540    -8.8440     0.8880 H     1 <1>   0.0800 
 39 H        8.6860    -7.3340     1.3260 H     1 <1>   0.0800 
 40 H        8.2290    -7.6050    -0.3320 H     1 <1>   0.0800 
@<TRIPOS>BOND
  1   1   2  1   
  2   2   3  ar  
  3   2   4  ar  
  4   3   5  ar  
  5   3  22  1   
  6   4   6  ar  
  7   4  23  1   
  8   5   7  ar  
  9   5  24  1   
 10   6   7  ar  
 11   6  25  1   
 12   7   8  1   
 13   8   9  2   
 14   8  10  2   
 15   8  11  1   
 16  11  12  2   
 17  12  13  1   
 18  12  14  1   
 19  14  15  1   
 20  15  16  1   
 21  15  26  1   
 22  15  27  1   
 23  16  17  1   
 24  16  28  1   
 25  16  29  1   
 26  17  18  1   
 27  17  19  1   
 28  17  30  1   
 29  18  20  1   
 30  18  31  1   
 31  18  32  1   
 32  19  21  1   
 33  19  33  1   
 34  19  34  1   
 35  20  35  1   
 36  20  36  1   
 37  20  37  1   
 38  21  38  1   
 39  21  39  1   
 40  21  40  1   
@<TRIPOS>SUBSTRUCTURE
  1 ****  14 GROUP 4 **** **** 0

# MOE 2024.06 (io_trps.svl 2023.06)
