@<TRIPOS>MOLECULE
NONAME
53 56 1 0 0 
SMALL
USER_CHARGES


@<TRIPOS>ATOM
  1 F        1.5540     1.3510    -1.9070 F     1 <1>  -0.1900 
  2 C        1.8300     1.4710    -0.6350 C.ar  1 <1>   0.1900 
  3 C        1.0250     2.2700     0.1630 C.ar  1 <1>  -0.1440 
  4 C        2.9220     0.7750    -0.1430 C.ar  1 <1>  -0.1500 
  5 C        1.3740     2.3420     1.5030 C.ar  1 <1>   0.1900 
  6 C       -0.1680     3.0350    -0.3960 C.3   1 <1>   0.2540 
  7 C        3.2370     0.8710     1.2040 C.ar  1 <1>  -0.1500 
  8 F        0.6630     3.0800     2.3140 F     1 <1>  -0.1900 
  9 C        2.4570     1.6610     2.0340 C.ar  1 <1>  -0.1500 
 10 N       -1.4560     2.3880    -0.0450 N.3   1 <1>  -0.8100 
 11 C       -2.6920     3.0880    -0.5320 C.3   1 <1>   0.1900 
 12 C       -1.4490     0.9640    -0.4890 C.3   1 <1>   0.1100 
 13 C       -2.8230     4.6040    -0.1940 C.3   1 <1>  -0.0800 
 14 C       -3.9590     2.3750     0.0460 C.3   1 <1>   0.4230 
 15 C       -2.8130     0.2500    -0.3800 C.3   1 <1>   0.3430 
 16 C       -2.1150     5.5450    -1.1950 C.3   1 <1>  -0.1600 
 17 C       -2.4900     4.9610     1.2720 C.3   1 <1>  -0.1600 
 18 N       -3.7370     0.9850     0.5340 N.4   1 <1>  -0.9590 
 19 C       -5.1270     2.2330    -0.9250 C.3   1 <1>  -0.1600 
 20 C       -2.4120     7.0160    -0.8760 C.3   1 <1>  -0.1600 
 21 C       -2.7710     6.4410     1.5640 C.3   1 <1>  -0.1600 
 22 C       -5.0710     0.3520     0.6510 C.3   1 <1>   0.3430 
 23 C       -5.9470     1.0560    -0.3860 C.3   1 <1>  -0.1600 
 24 C       -2.0390     7.3550     0.5730 C.3   1 <1>  -0.1600 
 25 H        3.5150     0.1690    -0.8050 H     1 <1>   0.1500 
 26 H       -0.0870     3.1350    -1.4650 H     1 <1>   0.0800 
 27 H       -0.1230     4.0180     0.0290 H     1 <1>   0.0800 
 28 H        4.0830     0.3370     1.6020 H     1 <1>   0.1500 
 29 H        2.6840     1.7530     3.0820 H     1 <1>   0.1500 
 30 H       -2.7200     2.9980    -1.6050 H     1 <1>   0.0800 
 31 H       -0.7480     0.4140     0.1160 H     1 <1>   0.0800 
 32 H       -1.1110     0.8970    -1.5090 H     1 <1>   0.0800 
 33 H       -3.8650     4.8430    -0.3200 H     1 <1>   0.0800 
 34 H       -4.3080     2.9570     0.8830 H     1 <1>   0.0800 
 35 H       -2.6590    -0.7570    -0.0310 H     1 <1>   0.0800 
 36 H       -3.2520     0.1930    -1.3630 H     1 <1>   0.0800 
 37 H       -2.4520     5.3330    -2.1960 H     1 <1>   0.0800 
 38 H       -1.0510     5.4180    -1.1810 H     1 <1>   0.0800 
 39 H       -1.4560     4.7650     1.4860 H     1 <1>   0.0800 
 40 H       -3.0700     4.3590     1.9480 H     1 <1>   0.0800 
 41 H       -3.2470     1.0710     1.4360 H     1 <1>   0.4500 
 42 H       -4.7650     2.0060    -1.9130 H     1 <1>   0.0800 
 43 H       -5.7060     3.1390    -0.9720 H     1 <1>   0.0800 
 44 H       -3.4590     7.2160    -1.0300 H     1 <1>   0.0800 
 45 H       -1.8560     7.6500    -1.5460 H     1 <1>   0.0800 
 46 H       -2.4540     6.6750     2.5660 H     1 <1>   0.0800 
 47 H       -3.8290     6.6270     1.5030 H     1 <1>   0.0800 
 48 H       -5.4720     0.5280     1.6370 H     1 <1>   0.0800 
 49 H       -5.0220    -0.7110     0.4760 H     1 <1>   0.0800 
 50 H       -6.2160     0.3780    -1.1770 H     1 <1>   0.0800 
 51 H       -6.8520     1.3990     0.0860 H     1 <1>   0.0800 
 52 H       -2.2910     8.3810     0.7780 H     1 <1>   0.0800 
 53 H       -0.9760     7.2450     0.7040 H     1 <1>   0.0800 
@<TRIPOS>BOND
  1   1   2  1   
  2   2   3  ar  
  3   2   4  ar  
  4   3   5  ar  
  5   3   6  1   
  6   4   7  ar  
  7   4  25  1   
  8   5   8  1   
  9   5   9  ar  
 10   6  10  1   
 11   6  26  1   
 12   6  27  1   
 13   7   9  ar  
 14   7  28  1   
 15   9  29  1   
 16  10  11  1   
 17  10  12  1   
 18  11  13  1   
 19  11  14  1   
 20  11  30  1   
 21  12  15  1   
 22  12  31  1   
 23  12  32  1   
 24  13  16  1   
 25  13  17  1   
 26  13  33  1   
 27  14  18  1   
 28  14  19  1   
 29  14  34  1   
 30  15  18  1   
 31  15  35  1   
 32  15  36  1   
 33  16  20  1   
 34  16  37  1   
 35  16  38  1   
 36  17  21  1   
 37  17  39  1   
 38  17  40  1   
 39  18  22  1   
 40  18  41  1   
 41  19  23  1   
 42  19  42  1   
 43  19  43  1   
 44  20  24  1   
 45  20  44  1   
 46  20  45  1   
 47  21  24  1   
 48  21  46  1   
 49  21  47  1   
 50  22  23  1   
 51  22  48  1   
 52  22  49  1   
 53  23  50  1   
 54  23  51  1   
 55  24  52  1   
 56  24  53  1   
@<TRIPOS>SUBSTRUCTURE
  1 ****  10 GROUP 4 **** **** 0

# MOE 2024.06 (io_trps.svl 2023.06)
