@<TRIPOS>MOLECULE
NONAME
22 22 1 0 0 
SMALL
USER_CHARGES


@<TRIPOS>ATOM
  1 S       -2.7520     2.9560    -0.0070 S.3   1 <1>  -0.3320 
  2 C       -4.5310     3.0840     0.0160 C.ar  1 <1>   0.4620 
  3 C       -2.0470     4.6690    -0.0020 C.3   1 <1>  -0.0100 
  4 N       -5.2440     1.9320     0.0160 N.ar  1 <1>  -0.2100 
  5 C       -5.1660     4.3170     0.0330 C.ar  1 <1>  -0.1500 
  6 C       -6.6000     1.9860     0.0330 C.ar  1 <1>   0.2110 
  7 C       -4.5580     0.6060    -0.0030 C.3   1 <1>   0.2480 
  8 C       -6.5470     4.3790     0.0500 C.ar  1 <1>  -0.1500 
  9 C       -7.2780     3.1900     0.0500 C.ar  1 <1>  -0.1440 
 10 C       -8.8060     3.1530     0.0690 C.3   1 <1>   1.1640 
 11 F       -9.3660     4.3520     0.0770 F     1 <1>  -0.3400 
 12 F       -9.2800     2.5100    -0.9870 F     1 <1>  -0.3400 
 13 F       -9.2540     2.5080     1.1340 F     1 <1>  -0.3400 
 14 H       -0.9750     4.5790    -0.0160 H     1 <1>   0.0800 
 15 H       -2.3690     5.1680     0.8950 H     1 <1>   0.0800 
 16 H       -2.3900     5.1820    -0.8840 H     1 <1>   0.0800 
 17 H       -4.6030     5.2320     0.0330 H     1 <1>   0.1500 
 18 H       -7.1520     1.0570     0.0330 H     1 <1>   0.1500 
 19 H       -3.9510     0.5200    -0.8880 H     1 <1>   0.0800 
 20 H       -5.2740    -0.1960     0.0000 H     1 <1>   0.0800 
 21 H       -3.9290     0.5070     0.8660 H     1 <1>   0.0800 
 22 H       -7.0430     5.3400     0.0640 H     1 <1>   0.1500 
@<TRIPOS>BOND
  1   1   2  1   
  2   1   3  1   
  3   2   4  ar  
  4   2   5  ar  
  5   3  14  1   
  6   3  15  1   
  7   3  16  1   
  8   4   6  ar  
  9   4   7  1   
 10   5   8  ar  
 11   5  17  1   
 12   6   9  ar  
 13   6  18  1   
 14   7  19  1   
 15   7  20  1   
 16   7  21  1   
 17   8   9  ar  
 18   8  22  1   
 19   9  10  1   
 20  10  11  1   
 21  10  12  1   
 22  10  13  1   
@<TRIPOS>SUBSTRUCTURE
  1 ****   9 GROUP 4 **** **** 0

# MOE 2024.06 (io_trps.svl 2023.06)
