@<TRIPOS>MOLECULE
NONAME
30 31 1 0 0 
SMALL
USER_CHARGES


@<TRIPOS>ATOM
  1 S        0.0540     0.1830     0.6890 S.o2  1 <1>   1.5120 
  2 O        0.3540     1.4510     1.4010 O.co2 1 <1>  -0.8170 
  3 O        0.3400    -0.9980     1.5400 O.co2 1 <1>  -0.8170 
  4 O        0.7390     0.1030    -0.6240 O.co2 1 <1>  -0.8170 
  5 C       -1.7810     0.1320     0.3220 C.2   1 <1>   0.1240 
  6 N       -2.6010     1.1490     0.3880 N.2   1 <1>  -0.5650 
  7 N       -2.4310    -1.0180    -0.0780 N.pl3 1 <1>   0.0480 
  8 C       -3.8170     0.6730     0.0510 C.ar  1 <1>   0.2270 
  9 C       -3.7460    -0.6710    -0.2360 C.ar  1 <1>  -0.1520 
 10 C       -1.9840    -2.4270    -0.3300 C.3   1 <1>   0.1760 
 11 C       -5.0320     1.3530    -0.0210 C.ar  1 <1>  -0.1500 
 12 C       -4.9030    -1.3770    -0.5930 C.ar  1 <1>  -0.1500 
 13 C       -1.9770    -3.2420     0.9770 C.3   1 <1>  -0.1600 
 14 C       -0.6910    -2.5480    -1.1480 C.3   1 <1>  -0.2400 
 15 C       -6.1690     0.6650    -0.3780 C.ar  1 <1>  -0.1500 
 16 C       -6.1020    -0.7040    -0.6620 C.ar  1 <1>  -0.1500 
 17 C       -1.8580    -4.7560     0.7440 C.3   1 <1>  -0.2400 
 18 H       -2.7390    -2.8630    -0.9550 H     1 <1>   0.0800 
 19 H       -5.0420     2.4020     0.2070 H     1 <1>   0.1500 
 20 H       -4.8590    -2.4290    -0.8080 H     1 <1>   0.1500 
 21 H       -2.8920    -3.0510     1.5100 H     1 <1>   0.0800 
 22 H       -1.1620    -2.9260     1.6030 H     1 <1>   0.0800 
 23 H        0.1780    -2.4420    -0.5250 H     1 <1>   0.0800 
 24 H       -0.6630    -1.8030    -1.9240 H     1 <1>   0.0800 
 25 H       -0.6370    -3.5150    -1.6090 H     1 <1>   0.0800 
 26 H       -7.1160     1.1730    -0.4390 H     1 <1>   0.1500 
 27 H       -7.0030    -1.2260    -0.9360 H     1 <1>   0.1500 
 28 H       -2.6500    -5.1060     0.1050 H     1 <1>   0.0800 
 29 H       -1.9210    -5.2730     1.6850 H     1 <1>   0.0800 
 30 H       -0.9110    -4.9950     0.2940 H     1 <1>   0.0800 
@<TRIPOS>BOND
  1   1   2  ar  
  2   1   3  ar  
  3   1   4  ar  
  4   1   5  1   
  5   5   6  2   
  6   5   7  1   
  7   6   8  1   
  8   7   9  1   
  9   7  10  1   
 10   8   9  ar  
 11   8  11  ar  
 12   9  12  ar  
 13  10  13  1   
 14  10  14  1   
 15  10  18  1   
 16  11  15  ar  
 17  11  19  1   
 18  12  16  ar  
 19  12  20  1   
 20  13  17  1   
 21  13  21  1   
 22  13  22  1   
 23  14  23  1   
 24  14  24  1   
 25  14  25  1   
 26  15  16  ar  
 27  15  26  1   
 28  16  27  1   
 29  17  28  1   
 30  17  29  1   
 31  17  30  1   
@<TRIPOS>SUBSTRUCTURE
  1 ****   7 GROUP 4 **** **** 0

# MOE 2024.06 (io_trps.svl 2023.06)
