@<TRIPOS>MOLECULE
NONAME
51 52 1 0 0 
SMALL
USER_CHARGES


@<TRIPOS>ATOM
  1 O        2.2550     5.1210    -1.2040 O.2   1 <1>  -0.5700 
  2 C        2.6890     5.8580    -0.3530 C.2   1 <1>   0.5690 
  3 N        4.0130     5.9740    -0.0630 N.am  1 <1>  -0.7300 
  4 C        1.6870     6.7000     0.4330 C.3   1 <1>  -0.0190 
  5 C        5.1430     5.2610    -0.6920 C.3   1 <1>   0.2200 
  6 C        0.6970     5.7930     1.1910 C.3   1 <1>  -0.1600 
  7 C        0.9310     7.6590    -0.5090 C.3   1 <1>  -0.1600 
  8 C        5.2280     5.6100    -2.1760 C.3   1 <1>  -0.2400 
  9 C        5.0130     3.7570    -0.4610 C.3   1 <1>  -0.2400 
 10 C       -0.4230     6.5850     1.8580 C.3   1 <1>   0.3430 
 11 C       -0.1980     8.4040     0.1990 C.3   1 <1>   0.3430 
 12 N       -1.1090     7.4160     0.8330 N.4   1 <1>  -0.9590 
 13 C       -2.3370     8.0460     1.3530 C.3   1 <1>   0.4810 
 14 C       -3.4870     7.2890     0.7220 C.2   1 <1>  -0.2760 
 15 C       -4.1970     7.8140    -0.2940 C.2   1 <1>  -0.1780 
 16 C       -3.7690     5.9240     1.3490 C.3   1 <1>  -0.1020 
 17 C       -5.2970     7.2270    -1.0230 C.ar  1 <1>   0.0280 
 18 C       -6.5020     7.9110    -1.1470 C.ar  1 <1>  -0.1500 
 19 C       -5.1850     5.9830    -1.6360 C.ar  1 <1>  -0.1500 
 20 C       -7.5630     7.3690    -1.8490 C.ar  1 <1>  -0.1500 
 21 C       -6.2420     5.4340    -2.3390 C.ar  1 <1>  -0.1500 
 22 C       -7.4350     6.1270    -2.4460 C.ar  1 <1>  -0.1500 
 23 H        4.3080     6.6180     0.6700 H     1 <1>   0.3700 
 24 H        2.2270     7.2890     1.1540 H     1 <1>   0.0800 
 25 H        6.0520     5.5950    -0.2180 H     1 <1>   0.0800 
 26 H        1.2300     5.2320     1.9390 H     1 <1>   0.0800 
 27 H        0.2610     5.0790     0.5120 H     1 <1>   0.0800 
 28 H        0.5180     7.1080    -1.3370 H     1 <1>   0.0800 
 29 H        1.6230     8.3730    -0.9210 H     1 <1>   0.0800 
 30 H        4.3650     5.2460    -2.7060 H     1 <1>   0.0800 
 31 H        6.1000     5.1550    -2.6080 H     1 <1>   0.0800 
 32 H        5.3010     6.6740    -2.3060 H     1 <1>   0.0800 
 33 H        4.1480     3.3650    -0.9640 H     1 <1>   0.0800 
 34 H        4.9400     3.5460     0.5900 H     1 <1>   0.0800 
 35 H        5.8800     3.2540    -0.8480 H     1 <1>   0.0800 
 36 H       -0.0140     7.2170     2.6300 H     1 <1>   0.0800 
 37 H       -1.1230     5.9020     2.3120 H     1 <1>   0.0800 
 38 H       -0.7390     8.9980    -0.5210 H     1 <1>   0.0800 
 39 H        0.2120     9.0620     0.9480 H     1 <1>   0.0800 
 40 H       -1.4420     6.7870     0.0890 H     1 <1>   0.4500 
 41 H       -2.3870     7.9960     2.4290 H     1 <1>   0.0800 
 42 H       -2.3820     9.0800     1.0510 H     1 <1>   0.0800 
 43 H       -3.9680     8.8020    -0.6580 H     1 <1>   0.1500 
 44 H       -3.8500     6.0120     2.4190 H     1 <1>   0.0800 
 45 H       -2.9920     5.2200     1.1140 H     1 <1>   0.0800 
 46 H       -4.7010     5.5190     0.9950 H     1 <1>   0.0800 
 47 H       -6.6130     8.8760    -0.6860 H     1 <1>   0.1500 
 48 H       -4.2610     5.4390    -1.5670 H     1 <1>   0.1500 
 49 H       -8.4890     7.9100    -1.9320 H     1 <1>   0.1500 
 50 H       -6.1390     4.4700    -2.8060 H     1 <1>   0.1500 
 51 H       -8.2590     5.7030    -2.9920 H     1 <1>   0.1500 
@<TRIPOS>BOND
  1   1   2  2   
  2   2   3  am  
  3   2   4  1   
  4   3   5  1   
  5   3  23  1   
  6   4   6  1   
  7   4   7  1   
  8   4  24  1   
  9   5   8  1   
 10   5   9  1   
 11   5  25  1   
 12   6  10  1   
 13   6  26  1   
 14   6  27  1   
 15   7  11  1   
 16   7  28  1   
 17   7  29  1   
 18   8  30  1   
 19   8  31  1   
 20   8  32  1   
 21   9  33  1   
 22   9  34  1   
 23   9  35  1   
 24  10  12  1   
 25  10  36  1   
 26  10  37  1   
 27  11  12  1   
 28  11  38  1   
 29  11  39  1   
 30  12  13  1   
 31  12  40  1   
 32  13  14  1   
 33  13  41  1   
 34  13  42  1   
 35  14  15  2   
 36  14  16  1   
 37  15  17  1   
 38  15  43  1   
 39  16  44  1   
 40  16  45  1   
 41  16  46  1   
 42  17  18  ar  
 43  17  19  ar  
 44  18  20  ar  
 45  18  47  1   
 46  19  21  ar  
 47  19  48  1   
 48  20  22  ar  
 49  20  49  1   
 50  21  22  ar  
 51  21  50  1   
 52  22  51  1   
@<TRIPOS>SUBSTRUCTURE
  1 ****  12 GROUP 4 **** **** 0

# MOE 2024.06 (io_trps.svl 2023.06)
