@<TRIPOS>MOLECULE
NONAME
35 36 1 0 0 
SMALL
USER_CHARGES


@<TRIPOS>ATOM
  1 O       -0.6150     2.1730     0.1610 O.3   1 <1>  -0.3630 
  2 C       -1.7960     1.5630    -0.1070 C.ar  1 <1>   0.0830 
  3 C        0.2270     1.7210     1.1970 C.3   1 <1>   0.0400 
  4 C       -2.2940     0.4830     0.6150 C.ar  1 <1>  -0.1500 
  5 C       -2.5300     2.0650    -1.1680 C.ar  1 <1>  -0.1500 
  6 C       -3.5130    -0.0770     0.2740 C.ar  1 <1>  -0.1500 
  7 C       -3.7480     1.5050    -1.5090 C.ar  1 <1>  -0.1500 
  8 C       -4.2500     0.4330    -0.7850 C.ar  1 <1>  -0.1430 
  9 C       -5.5960    -0.1740    -1.1420 C.3   1 <1>  -0.0170 
 10 C       -6.6810     0.2900    -0.1580 C.3   1 <1>   0.4230 
 11 N       -7.9520    -0.4310    -0.4340 N.4   1 <1>  -0.9060 
 12 C       -6.9400     1.8030    -0.2350 C.3   1 <1>  -0.1600 
 13 C       -9.0290    -0.0980     0.5370 C.3   1 <1>   0.3430 
 14 C       -8.0720     2.2420     0.7030 C.3   1 <1>  -0.1600 
 15 C       -9.3320     1.3990     0.4670 C.3   1 <1>  -0.1600 
 16 H        1.1040     2.3430     1.2100 H     1 <1>   0.0800 
 17 H        0.5060     0.7010     1.0010 H     1 <1>   0.0800 
 18 H       -0.2950     1.8060     2.1340 H     1 <1>   0.0800 
 19 H       -1.7450     0.0680     1.4390 H     1 <1>   0.1500 
 20 H       -2.1360     2.8970    -1.7250 H     1 <1>   0.1500 
 21 H       -3.8730    -0.9160     0.8430 H     1 <1>   0.1500 
 22 H       -4.2920     1.9160    -2.3410 H     1 <1>   0.1500 
 23 H       -5.5000    -1.2440    -1.1040 H     1 <1>   0.0800 
 24 H       -5.8600     0.1040    -2.1470 H     1 <1>   0.0800 
 25 H       -6.3510     0.0520     0.8410 H     1 <1>   0.0800 
 26 H       -7.7820    -1.4430    -0.4290 H     1 <1>   0.4500 
 27 H       -8.2690    -0.1740    -1.3750 H     1 <1>   0.4500 
 28 H       -7.1760     2.0840    -1.2470 H     1 <1>   0.0800 
 29 H       -6.0440     2.3340     0.0420 H     1 <1>   0.0800 
 30 H       -8.7130    -0.3530     1.5370 H     1 <1>   0.0800 
 31 H       -9.9220    -0.6590     0.3100 H     1 <1>   0.0800 
 32 H       -8.2940     3.2850     0.5450 H     1 <1>   0.0800 
 33 H       -7.7520     2.1310     1.7270 H     1 <1>   0.0800 
 34 H      -10.0690     1.6450     1.2130 H     1 <1>   0.0800 
 35 H       -9.7590     1.6360    -0.4930 H     1 <1>   0.0800 
@<TRIPOS>BOND
  1   1   2  1   
  2   1   3  1   
  3   2   4  ar  
  4   2   5  ar  
  5   3  16  1   
  6   3  17  1   
  7   3  18  1   
  8   4   6  ar  
  9   4  19  1   
 10   5   7  ar  
 11   5  20  1   
 12   6   8  ar  
 13   6  21  1   
 14   7   8  ar  
 15   7  22  1   
 16   8   9  1   
 17   9  10  1   
 18   9  23  1   
 19   9  24  1   
 20  10  11  1   
 21  10  12  1   
 22  10  25  1   
 23  11  13  1   
 24  11  26  1   
 25  11  27  1   
 26  12  14  1   
 27  12  28  1   
 28  12  29  1   
 29  13  15  1   
 30  13  30  1   
 31  13  31  1   
 32  14  15  1   
 33  14  32  1   
 34  14  33  1   
 35  15  34  1   
 36  15  35  1   
@<TRIPOS>SUBSTRUCTURE
  1 ****   8 GROUP 4 **** **** 0

# MOE 2024.06 (io_trps.svl 2023.06)
