@<TRIPOS>MOLECULE
NONAME
44 45 1 0 0 
SMALL
USER_CHARGES


@<TRIPOS>ATOM
  1 O        0.5220    -1.1440     2.6830 O.2   1 <1>  -0.5700 
  2 C        0.4790    -1.2600     1.4680 C.2   1 <1>   0.4230 
  3 C       -0.0780    -2.4270     0.8430 C.ar  1 <1>   0.0860 
  4 C        1.1140    -0.0860     0.7340 C.3   1 <1>  -0.0380 
  5 C       -0.4440    -2.5480    -0.5290 C.ar  1 <1>  -0.1710 
  6 C       -0.2830    -3.5740     1.6320 C.ar  1 <1>  -0.1500 
  7 C        2.6210    -0.1170     0.8950 C.2   1 <1>   0.4230 
  8 O       -0.3480    -1.6120    -1.3490 O.3   1 <1>  -0.8290 
  9 C       -0.9500    -3.7650    -1.0200 C.ar  1 <1>  -0.1500 
 10 C       -0.7840    -4.7550     1.1350 C.ar  1 <1>  -0.1500 
 11 O        3.1550     0.8730     1.3350 O.2   1 <1>  -0.5700 
 12 C        3.3730    -1.3010     0.5300 C.ar  1 <1>   0.0860 
 13 C       -1.1200    -4.8580    -0.2140 C.ar  1 <1>  -0.1430 
 14 C        4.5600    -1.6110     1.1910 C.ar  1 <1>  -0.1500 
 15 C        2.9790    -2.1780    -0.4780 C.ar  1 <1>  -0.1500 
 16 C       -1.6670    -6.1640    -0.7540 C.3   1 <1>  -0.0970 
 17 C        5.2960    -2.7390     0.8800 C.ar  1 <1>  -0.1500 
 18 C        3.7070    -3.3100    -0.7880 C.ar  1 <1>  -0.1500 
 19 C        4.8850    -3.6200    -0.1140 C.ar  1 <1>  -0.1430 
 20 C        5.7270    -4.8770    -0.4220 C.3   1 <1>   0.1430 
 21 C        5.8230    -5.7490     0.8380 C.3   1 <1>  -0.2400 
 22 C        5.1280    -5.7440    -1.5430 C.3   1 <1>  -0.2400 
 23 C        7.1370    -4.4560    -0.8620 C.3   1 <1>  -0.2400 
 24 H        0.7360     0.8170     1.1740 H     1 <1>   0.0800 
 25 H        0.8870    -0.0330    -0.3050 H     1 <1>   0.0800 
 26 H       -0.0310    -3.5230     2.6750 H     1 <1>   0.1500 
 27 H       -1.1980    -3.7870    -2.0640 H     1 <1>   0.1500 
 28 H       -0.9170    -5.6020     1.7820 H     1 <1>   0.1500 
 29 H        4.9030    -0.9490     1.9670 H     1 <1>   0.1500 
 30 H        2.0810    -1.9800    -1.0410 H     1 <1>   0.1500 
 31 H       -1.8740    -6.0790    -1.8060 H     1 <1>   0.0800 
 32 H       -2.5780    -6.4170    -0.2430 H     1 <1>   0.0800 
 33 H       -0.9480    -6.9490    -0.6070 H     1 <1>   0.0800 
 34 H        6.2000    -2.9260     1.4300 H     1 <1>   0.1500 
 35 H        3.3170    -3.9360    -1.5690 H     1 <1>   0.1500 
 36 H        4.8360    -6.0160     1.1730 H     1 <1>   0.0800 
 37 H        6.3180    -5.2260     1.6350 H     1 <1>   0.0800 
 38 H        6.3730    -6.6510     0.6370 H     1 <1>   0.0800 
 39 H        5.0620    -5.1830    -2.4580 H     1 <1>   0.0800 
 40 H        4.1450    -6.0830    -1.2700 H     1 <1>   0.0800 
 41 H        5.7420    -6.6080    -1.7230 H     1 <1>   0.0800 
 42 H        7.0740    -3.8150    -1.7240 H     1 <1>   0.0800 
 43 H        7.7290    -5.3160    -1.1150 H     1 <1>   0.0800 
 44 H        7.6420    -3.9190    -0.0800 H     1 <1>   0.0800 
@<TRIPOS>BOND
  1   1   2  2   
  2   2   3  1   
  3   2   4  1   
  4   3   5  ar  
  5   3   6  ar  
  6   4   7  1   
  7   4  24  1   
  8   4  25  1   
  9   5   8  1   
 10   5   9  ar  
 11   6  10  ar  
 12   6  26  1   
 13   7  11  2   
 14   7  12  1   
 15   9  13  ar  
 16   9  27  1   
 17  10  13  ar  
 18  10  28  1   
 19  12  14  ar  
 20  12  15  ar  
 21  13  16  1   
 22  14  17  ar  
 23  14  29  1   
 24  15  18  ar  
 25  15  30  1   
 26  16  31  1   
 27  16  32  1   
 28  16  33  1   
 29  17  19  ar  
 30  17  34  1   
 31  18  19  ar  
 32  18  35  1   
 33  19  20  1   
 34  20  21  1   
 35  20  22  1   
 36  20  23  1   
 37  21  36  1   
 38  21  37  1   
 39  21  38  1   
 40  22  39  1   
 41  22  40  1   
 42  22  41  1   
 43  23  42  1   
 44  23  43  1   
 45  23  44  1   
@<TRIPOS>SUBSTRUCTURE
  1 ****  15 GROUP 4 **** **** 0

# MOE 2024.06 (io_trps.svl 2023.06)
