@<TRIPOS>MOLECULE
NONAME
26 27 1 0 0 
SMALL
USER_CHARGES


@<TRIPOS>ATOM
  1 F        1.2010    -1.4020     1.2050 F     1 <1>  -0.1900 
  2 C        0.6920    -2.2970     0.3960 C.ar  1 <1>   0.1900 
  3 C       -0.6050    -2.7210     0.6340 C.ar  1 <1>   0.1900 
  4 C        1.4480    -2.7960    -0.6690 C.ar  1 <1>   0.0860 
  5 F       -1.2670    -2.2210     1.6490 F     1 <1>  -0.1900 
  6 C       -1.2260    -3.6600    -0.1720 C.ar  1 <1>  -0.1440 
  7 C        2.8160    -2.3960    -0.9710 C.2   1 <1>   0.5440 
  8 C        0.8010    -3.7440    -1.4730 C.ar  1 <1>  -0.1500 
  9 C       -0.4980    -4.1680    -1.2370 C.ar  1 <1>  -0.1500 
 10 C       -2.6520    -4.1230     0.0910 C.3   1 <1>  -0.0960 
 11 O        3.3180    -2.7180    -2.0320 O.2   1 <1>  -0.5700 
 12 N        3.5760    -1.6730    -0.0930 N.am  1 <1>  -0.5790 
 13 C        4.9620    -1.2290    -0.2950 C.3   1 <1>   0.0490 
 14 C        5.8500    -1.1410     0.9010 C.3   1 <1>  -0.2000 
 15 C        5.3520     0.1090     0.2400 C.3   1 <1>  -0.2000 
 16 H        1.3340    -4.1630    -2.3120 H     1 <1>   0.1500 
 17 H       -0.9390    -4.9000    -1.8930 H     1 <1>   0.1500 
 18 H       -3.3250    -3.2860     0.0430 H     1 <1>   0.0800 
 19 H       -2.7200    -4.5640     1.0700 H     1 <1>   0.0800 
 20 H       -2.9630    -4.8530    -0.6350 H     1 <1>   0.0800 
 21 H        3.1470    -1.3570     0.7790 H     1 <1>   0.3700 
 22 H        5.3860    -1.5550    -1.2330 H     1 <1>   0.1000 
 23 H        6.8890    -1.3970     0.7880 H     1 <1>   0.1000 
 24 H        5.4560    -1.4200     1.8620 H     1 <1>   0.1000 
 25 H        4.6080     0.7060     0.7370 H     1 <1>   0.1000 
 26 H        6.0520     0.7020    -0.3220 H     1 <1>   0.1000 
@<TRIPOS>BOND
  1   1   2  1   
  2   2   3  ar  
  3   2   4  ar  
  4   3   5  1   
  5   3   6  ar  
  6   4   7  1   
  7   4   8  ar  
  8   6   9  ar  
  9   6  10  1   
 10   7  11  2   
 11   7  12  am  
 12   8   9  ar  
 13   8  16  1   
 14   9  17  1   
 15  10  18  1   
 16  10  19  1   
 17  10  20  1   
 18  12  13  1   
 19  12  21  1   
 20  13  14  1   
 21  13  15  1   
 22  13  22  1   
 23  14  15  1   
 24  14  23  1   
 25  14  24  1   
 26  15  25  1   
 27  15  26  1   
@<TRIPOS>SUBSTRUCTURE
  1 ****   4 GROUP 4 **** **** 0

# MOE 2024.06 (io_trps.svl 2023.06)
