@<TRIPOS>MOLECULE
NONAME
37 37 1 0 0 
SMALL
USER_CHARGES


@<TRIPOS>ATOM
  1 CL      -2.3330    -2.0570    -2.3320 Cl    1 <1>  -0.1770 
  2 C       -1.6200    -2.3600    -0.7680 C.ar  1 <1>   0.1770 
  3 C       -2.0730    -1.6700     0.3570 C.ar  1 <1>   0.0860 
  4 C       -0.5950    -3.2850    -0.7010 C.ar  1 <1>  -0.1500 
  5 C       -3.1580    -0.7290     0.3070 C.2   1 <1>   0.3770 
  6 C       -1.4190    -1.9300     1.5640 C.ar  1 <1>  -0.1500 
  7 C        0.0230    -3.5350     0.5120 C.ar  1 <1>  -0.1500 
  8 P       -4.8140    -1.3550    -0.1240 P.3   1 <1>   1.3490 
  9 O       -2.9070     0.4210     0.5990 O.2   1 <1>  -0.5700 
 10 C       -0.3890    -2.8510     1.6430 C.ar  1 <1>  -0.1500 
 11 O       -5.4420    -0.8310    -1.3420 O.2   1 <1>  -0.7000 
 12 O       -4.6460    -2.9520    -0.1890 O.3   1 <1>  -0.5510 
 13 O       -5.7360    -1.1990     1.1900 O.3   1 <1>  -0.5510 
 14 C       -5.7080    -3.7600    -0.5320 C.3   1 <1>   0.2000 
 15 C       -6.5970    -0.1490     1.4780 C.3   1 <1>   0.2000 
 16 C       -5.5660    -5.0440     0.2780 C.3   1 <1>  -0.2400 
 17 C       -5.6320    -4.0400    -2.0320 C.3   1 <1>  -0.2400 
 18 C       -7.8530    -0.2540     0.6130 C.3   1 <1>  -0.2400 
 19 C       -5.9020     1.2070     1.3550 C.3   1 <1>  -0.2400 
 20 H       -0.2820    -3.8000    -1.5910 H     1 <1>   0.1500 
 21 H       -1.7260    -1.3980     2.4490 H     1 <1>   0.1500 
 22 H        0.8230    -4.2540     0.5750 H     1 <1>   0.1500 
 23 H        0.0950    -3.0370     2.5870 H     1 <1>   0.1500 
 24 H       -6.6330    -3.2650    -0.2780 H     1 <1>   0.0800 
 25 H       -6.8910    -0.2860     2.5060 H     1 <1>   0.0800 
 26 H       -4.6330    -5.5300     0.0530 H     1 <1>   0.0800 
 27 H       -6.3700    -5.7170     0.0430 H     1 <1>   0.0800 
 28 H       -5.6080    -4.8200     1.3290 H     1 <1>   0.0800 
 29 H       -4.6890    -4.4910    -2.2830 H     1 <1>   0.0800 
 30 H       -5.7500    -3.1300    -2.5920 H     1 <1>   0.0800 
 31 H       -6.4210    -4.7110    -2.3190 H     1 <1>   0.0800 
 32 H       -7.6410    -0.0320    -0.4170 H     1 <1>   0.0800 
 33 H       -8.5850     0.4540     0.9560 H     1 <1>   0.0800 
 34 H       -8.2750    -1.2400     0.6900 H     1 <1>   0.0800 
 35 H       -5.6270     1.4200     0.3370 H     1 <1>   0.0800 
 36 H       -5.0300     1.2390     1.9830 H     1 <1>   0.0800 
 37 H       -6.5720     1.9820     1.6810 H     1 <1>   0.0800 
@<TRIPOS>BOND
  1   1   2  1   
  2   2   3  ar  
  3   2   4  ar  
  4   3   5  1   
  5   3   6  ar  
  6   4   7  ar  
  7   4  20  1   
  8   5   8  1   
  9   5   9  2   
 10   6  10  ar  
 11   6  21  1   
 12   7  10  ar  
 13   7  22  1   
 14   8  11  2   
 15   8  12  1   
 16   8  13  1   
 17  10  23  1   
 18  12  14  1   
 19  13  15  1   
 20  14  16  1   
 21  14  17  1   
 22  14  24  1   
 23  15  18  1   
 24  15  19  1   
 25  15  25  1   
 26  16  26  1   
 27  16  27  1   
 28  16  28  1   
 29  17  29  1   
 30  17  30  1   
 31  17  31  1   
 32  18  32  1   
 33  18  33  1   
 34  18  34  1   
 35  19  35  1   
 36  19  36  1   
 37  19  37  1   
@<TRIPOS>SUBSTRUCTURE
  1 ****   8 GROUP 4 **** **** 0

# MOE 2024.06 (io_trps.svl 2023.06)
