@<TRIPOS>MOLECULE
NONAME
42 45 1 0 0 
SMALL
USER_CHARGES


@<TRIPOS>ATOM
  1 BR      -0.8540     2.3790     3.6230 Br    1 <1>  -0.1110 
  2 C       -1.7450     2.3650     1.9090 C.ar  1 <1>   0.1110 
  3 C       -1.0660     2.8130     0.7820 C.ar  1 <1>   0.0830 
  4 C       -3.0410     1.9000     1.8620 C.ar  1 <1>  -0.1500 
  5 O        0.2120     3.2440     0.9170 O.3   1 <1>  -0.3630 
  6 C       -1.7500     2.7900    -0.4260 C.ar  1 <1>  -0.1500 
  7 C       -3.7410     1.8590     0.6520 C.ar  1 <1>   0.0860 
  8 C        0.9720     3.6820    -0.1880 C.3   1 <1>   0.0400 
  9 C       -3.0600     2.3360    -0.4860 C.ar  1 <1>   0.0830 
 10 C       -5.0950     1.3360     0.6230 C.2   1 <1>   0.4140 
 11 O       -3.6550     2.3650    -1.6960 O.3   1 <1>  -0.3630 
 12 N       -5.5360     0.7200    -0.5220 N.pl3 1 <1>  -0.5340 
 13 N       -5.8680     1.4350     1.6640 N.2   1 <1>  -0.6610 
 14 C       -4.4020     3.5240    -2.0010 C.3   1 <1>   0.0400 
 15 C       -6.7860     0.2070    -0.5860 C.2   1 <1>   0.1240 
 16 C       -7.1410     0.9200     1.6300 C.2   1 <1>   0.8670 
 17 S       -7.4850    -0.5810    -1.9850 S.3   1 <1>  -0.0800 
 18 C       -7.6410     0.2690     0.4600 C.2   1 <1>  -0.0860 
 19 O       -7.8300     1.0420     2.6340 O.2   1 <1>  -0.5700 
 20 C       -8.9880    -0.8280    -1.1000 C.2   1 <1>  -0.1400 
 21 C       -8.9080    -0.3450     0.1510 C.2   1 <1>  -0.1810 
 22 C      -10.1650    -1.5150    -1.7570 C.3   1 <1>   0.0200 
 23 C      -10.0740    -0.4480     1.1230 C.3   1 <1>   0.0210 
 24 C      -11.4200    -1.2940    -0.8930 C.3   1 <1>  -0.1600 
 25 C      -11.1250    -1.4560     0.6130 C.3   1 <1>  -0.1600 
 26 H       -3.5120     1.5620     2.7690 H     1 <1>   0.1500 
 27 H       -1.2860     3.1220    -1.3350 H     1 <1>   0.1500 
 28 H        1.9480     3.9570     0.1690 H     1 <1>   0.0800 
 29 H        0.4910     4.5370    -0.6280 H     1 <1>   0.0800 
 30 H        1.0560     2.8770    -0.8970 H     1 <1>   0.0800 
 31 H       -4.9180     0.7190    -1.3410 H     1 <1>   0.4000 
 32 H       -4.8130     3.4120    -2.9880 H     1 <1>   0.0800 
 33 H       -3.7500     4.3790    -1.9690 H     1 <1>   0.0800 
 34 H       -5.1960     3.6310    -1.2820 H     1 <1>   0.0800 
 35 H       -9.9520    -2.5660    -1.8410 H     1 <1>   0.0800 
 36 H      -10.3240    -1.1160    -2.7440 H     1 <1>   0.0800 
 37 H      -10.5200     0.5250     1.2310 H     1 <1>   0.0800 
 38 H       -9.7210    -0.7640     2.0890 H     1 <1>   0.0800 
 39 H      -12.1880    -1.9850    -1.1940 H     1 <1>   0.0800 
 40 H      -11.7880    -0.2970    -1.0650 H     1 <1>   0.0800 
 41 H      -12.0330    -1.3370     1.1790 H     1 <1>   0.0800 
 42 H      -10.7590    -2.4540     0.7880 H     1 <1>   0.0800 
@<TRIPOS>BOND
  1   1   2  1   
  2   2   3  ar  
  3   2   4  ar  
  4   3   5  1   
  5   3   6  ar  
  6   4   7  ar  
  7   4  26  1   
  8   5   8  1   
  9   6   9  ar  
 10   6  27  1   
 11   7   9  ar  
 12   7  10  1   
 13   8  28  1   
 14   8  29  1   
 15   8  30  1   
 16   9  11  1   
 17  10  12  1   
 18  10  13  2   
 19  11  14  1   
 20  12  15  1   
 21  12  31  1   
 22  13  16  1   
 23  14  32  1   
 24  14  33  1   
 25  14  34  1   
 26  15  17  1   
 27  15  18  2   
 28  16  18  1   
 29  16  19  2   
 30  17  20  1   
 31  18  21  1   
 32  20  21  2   
 33  20  22  1   
 34  21  23  1   
 35  22  24  1   
 36  22  35  1   
 37  22  36  1   
 38  23  25  1   
 39  23  37  1   
 40  23  38  1   
 41  24  25  1   
 42  24  39  1   
 43  24  40  1   
 44  25  41  1   
 45  25  42  1   
@<TRIPOS>SUBSTRUCTURE
  1 ****  10 GROUP 4 **** **** 0

# MOE 2024.06 (io_trps.svl 2023.06)
