@<TRIPOS>MOLECULE
NONAME
50 51 1 0 0 
SMALL
USER_CHARGES


@<TRIPOS>ATOM
  1 O       -5.4210     6.7780     1.8440 O.2   1 <1>  -0.5700 
  2 C       -4.5610     6.7030     1.0050 C.2   1 <1>   0.5690 
  3 N       -4.7400     7.1470    -0.2660 N.am  1 <1>  -0.7300 
  4 C       -3.2310     6.0700     1.4050 C.3   1 <1>  -0.0190 
  5 C       -5.9710     7.7670    -0.7700 C.3   1 <1>   0.2200 
  6 C       -2.0230     6.9790     1.1150 C.3   1 <1>  -0.1600 
  7 C       -3.0320     4.6950     0.7450 C.3   1 <1>  -0.1600 
  8 C       -6.4980     6.9140    -1.9180 C.3   1 <1>  -0.2400 
  9 C       -5.6350     9.1790    -1.2360 C.3   1 <1>  -0.2400 
 10 C       -0.7160     6.3110     1.5380 C.3   1 <1>   0.3430 
 11 C       -1.7100     4.0610     1.1750 C.3   1 <1>   0.3430 
 12 N       -0.5830     4.9850     0.8620 N.4   1 <1>  -0.9590 
 13 C        0.7330     4.3560     1.1610 C.3   1 <1>   0.4860 
 14 C        1.8190     5.2240     0.5590 C.ar  1 <1>  -0.1440 
 15 C        2.0240     5.2370    -0.8130 C.ar  1 <1>  -0.1500 
 16 C        2.6100     6.0210     1.3740 C.ar  1 <1>  -0.1500 
 17 C        2.9970     6.0520    -1.3630 C.ar  1 <1>  -0.1500 
 18 C        3.5820     6.8340     0.8190 C.ar  1 <1>  -0.1500 
 19 C        3.7790     6.8560    -0.5510 C.ar  1 <1>  -0.1440 
 20 C        4.8460     7.7530    -1.1590 C.3   1 <1>  -0.0170 
 21 C        4.2620     9.1240    -1.5070 C.3   1 <1>  -0.2400 
 22 H       -3.9970     7.0810    -0.9560 H     1 <1>   0.3700 
 23 H       -3.2760     5.9190     2.4710 H     1 <1>   0.0800 
 24 H       -6.7110     7.8130     0.0150 H     1 <1>   0.0800 
 25 H       -2.1370     7.9020     1.6580 H     1 <1>   0.0800 
 26 H       -1.9730     7.2260     0.0690 H     1 <1>   0.0800 
 27 H       -3.0590     4.7840    -0.3270 H     1 <1>   0.0800 
 28 H       -3.8410     4.0460     1.0340 H     1 <1>   0.0800 
 29 H       -5.7820     6.8580    -2.7180 H     1 <1>   0.0800 
 30 H       -7.4050     7.3440    -2.3010 H     1 <1>   0.0800 
 31 H       -6.7210     5.9230    -1.5650 H     1 <1>   0.0800 
 32 H       -4.9040     9.1630    -2.0240 H     1 <1>   0.0800 
 33 H       -5.2610     9.7580    -0.4100 H     1 <1>   0.0800 
 34 H       -6.5230     9.6600    -1.6040 H     1 <1>   0.0800 
 35 H       -0.7090     6.1800     2.6080 H     1 <1>   0.0800 
 36 H        0.1120     6.9500     1.2700 H     1 <1>   0.0800 
 37 H       -1.5780     3.1230     0.6580 H     1 <1>   0.0800 
 38 H       -1.7370     3.8630     2.2350 H     1 <1>   0.0800 
 39 H       -0.5780     5.1700    -0.1480 H     1 <1>   0.4500 
 40 H        0.7860     3.3720     0.7240 H     1 <1>   0.0800 
 41 H        0.8760     4.2670     2.2260 H     1 <1>   0.0800 
 42 H        1.4400     4.6180    -1.4720 H     1 <1>   0.1500 
 43 H        2.4850     6.0220     2.4440 H     1 <1>   0.1500 
 44 H        3.1500     6.0600    -2.4290 H     1 <1>   0.1500 
 45 H        4.1920     7.4520     1.4580 H     1 <1>   0.1500 
 46 H        5.2450     7.2950    -2.0480 H     1 <1>   0.0800 
 47 H        5.6600     7.8740    -0.4650 H     1 <1>   0.0800 
 48 H        3.4590     9.0170    -2.2150 H     1 <1>   0.0800 
 49 H        5.0220     9.7510    -1.9380 H     1 <1>   0.0800 
 50 H        3.8810     9.6020    -0.6220 H     1 <1>   0.0800 
@<TRIPOS>BOND
  1   1   2  2   
  2   2   3  am  
  3   2   4  1   
  4   3   5  1   
  5   3  22  1   
  6   4   6  1   
  7   4   7  1   
  8   4  23  1   
  9   5   8  1   
 10   5   9  1   
 11   5  24  1   
 12   6  10  1   
 13   6  25  1   
 14   6  26  1   
 15   7  11  1   
 16   7  27  1   
 17   7  28  1   
 18   8  29  1   
 19   8  30  1   
 20   8  31  1   
 21   9  32  1   
 22   9  33  1   
 23   9  34  1   
 24  10  12  1   
 25  10  35  1   
 26  10  36  1   
 27  11  12  1   
 28  11  37  1   
 29  11  38  1   
 30  12  13  1   
 31  12  39  1   
 32  13  14  1   
 33  13  40  1   
 34  13  41  1   
 35  14  15  ar  
 36  14  16  ar  
 37  15  17  ar  
 38  15  42  1   
 39  16  18  ar  
 40  16  43  1   
 41  17  19  ar  
 42  17  44  1   
 43  18  19  ar  
 44  18  45  1   
 45  19  20  1   
 46  20  21  1   
 47  20  46  1   
 48  20  47  1   
 49  21  48  1   
 50  21  49  1   
 51  21  50  1   
@<TRIPOS>SUBSTRUCTURE
  1 ****  10 GROUP 4 **** **** 0

# MOE 2024.06 (io_trps.svl 2023.06)
