@<TRIPOS>MOLECULE
NONAME
41 41 1 0 0 
SMALL
USER_CHARGES


@<TRIPOS>ATOM
  1 O       -0.0440     0.1500     0.5060 O.2   1 <1>  -0.5700 
  2 C        0.0090    -0.8940    -0.1080 C.2   1 <1>   0.6900 
  3 N        1.1750    -1.5890    -0.2360 N.am  1 <1>  -0.5470 
  4 N       -1.0870    -1.4410    -0.6850 N.am  1 <1>  -0.7300 
  5 C        2.4850    -1.2640     0.1520 C.ar  1 <1>   0.1170 
  6 C       -2.4740    -0.9660    -0.7470 C.3   1 <1>   0.5000 
  7 C        3.3800    -2.2720     0.5320 C.ar  1 <1>  -0.1430 
  8 C        2.9210     0.0580     0.1370 C.ar  1 <1>  -0.1500 
  9 C       -3.0450    -1.7410    -1.8920 C.1   1 <1>  -0.2000 
 10 C       -2.5550     0.5470    -1.0740 C.3   1 <1>  -0.1600 
 11 C       -3.2380    -1.3890     0.5290 C.3   1 <1>  -0.1600 
 12 C        4.6810    -1.9250     0.8780 C.ar  1 <1>  -0.1500 
 13 C        2.9000    -3.7300     0.5610 C.3   1 <1>  -0.0170 
 14 C        4.2150     0.3890     0.4880 C.ar  1 <1>  -0.1500 
 15 C       -3.4950    -2.3620    -2.8020 C.1   1 <1>  -0.1770 
 16 C       -3.9680     1.1010    -1.3460 C.3   1 <1>  -0.2400 
 17 C       -2.7930    -0.7420     1.8530 C.3   1 <1>  -0.2400 
 18 C        5.0980    -0.6060     0.8580 C.ar  1 <1>  -0.1500 
 19 C        3.8840    -4.7510     1.1460 C.3   1 <1>  -0.2400 
 20 H        1.0530    -2.5430    -0.5470 H     1 <1>   0.3700 
 21 H       -0.9540    -2.2190    -1.3210 H     1 <1>   0.3700 
 22 H        2.2430     0.8390    -0.1550 H     1 <1>   0.1500 
 23 H       -1.9460     0.7390    -1.9400 H     1 <1>   0.0800 
 24 H       -2.1440     1.1150    -0.2610 H     1 <1>   0.0800 
 25 H       -3.1630    -2.4570     0.6340 H     1 <1>   0.0800 
 26 H       -4.2810    -1.1690     0.3880 H     1 <1>   0.0800 
 27 H        5.3990    -2.6670     1.1730 H     1 <1>   0.1500 
 28 H        2.6600    -4.0320    -0.4430 H     1 <1>   0.0800 
 29 H        1.9970    -3.7780     1.1460 H     1 <1>   0.0800 
 30 H        4.5310     1.4170     0.4720 H     1 <1>   0.1500 
 31 H       -3.9090    -2.9160    -3.6260 H     1 <1>   0.1770 
 32 H       -4.4270     0.6030    -2.1820 H     1 <1>   0.0800 
 33 H       -3.9060     2.1500    -1.5740 H     1 <1>   0.0800 
 34 H       -4.5970     0.9850    -0.4810 H     1 <1>   0.0800 
 35 H       -1.7820    -1.0190     2.0920 H     1 <1>   0.0800 
 36 H       -3.4270    -1.0750     2.6550 H     1 <1>   0.0800 
 37 H       -2.8510     0.3310     1.8000 H     1 <1>   0.0800 
 38 H        6.1080    -0.3550     1.1310 H     1 <1>   0.1500 
 39 H        4.7760    -4.8030     0.5470 H     1 <1>   0.0800 
 40 H        3.4320    -5.7270     1.1610 H     1 <1>   0.0800 
 41 H        4.1460    -4.4830     2.1540 H     1 <1>   0.0800 
@<TRIPOS>BOND
  1   1   2  2   
  2   2   3  am  
  3   2   4  am  
  4   3   5  1   
  5   3  20  1   
  6   4   6  1   
  7   4  21  1   
  8   5   7  ar  
  9   5   8  ar  
 10   6   9  1   
 11   6  10  1   
 12   6  11  1   
 13   7  12  ar  
 14   7  13  1   
 15   8  14  ar  
 16   8  22  1   
 17   9  15  3   
 18  10  16  1   
 19  10  23  1   
 20  10  24  1   
 21  11  17  1   
 22  11  25  1   
 23  11  26  1   
 24  12  18  ar  
 25  12  27  1   
 26  13  19  1   
 27  13  28  1   
 28  13  29  1   
 29  14  18  ar  
 30  14  30  1   
 31  15  31  1   
 32  16  32  1   
 33  16  33  1   
 34  16  34  1   
 35  17  35  1   
 36  17  36  1   
 37  17  37  1   
 38  18  38  1   
 39  19  39  1   
 40  19  40  1   
 41  19  41  1   
@<TRIPOS>SUBSTRUCTURE
  1 ****   2 GROUP 4 **** **** 0

# MOE 2024.06 (io_trps.svl 2023.06)
