@<TRIPOS>MOLECULE
NONAME
40 41 1 0 0 
SMALL
USER_CHARGES


@<TRIPOS>ATOM
  1 CL       0.7500     0.3270     0.9510 Cl    1 <1>  -0.1770 
  2 C        0.3160     1.9920     0.6570 C.ar  1 <1>   0.1770 
  3 C       -1.0050     2.3210     0.4370 C.ar  1 <1>  -0.1500 
  4 C        1.3070     2.9530     0.6460 C.ar  1 <1>  -0.1500 
  5 C       -1.3650     3.6440     0.2000 C.ar  1 <1>   0.1170 
  6 C        0.9600     4.2710     0.4080 C.ar  1 <1>  -0.1500 
  7 N       -2.6980     4.0070    -0.0480 N.am  1 <1>  -0.5470 
  8 C       -0.3640     4.6220     0.1860 C.ar  1 <1>  -0.1430 
  9 C       -3.8640     3.4430     0.3750 C.2   1 <1>   0.6900 
 10 C       -0.6970     6.0890    -0.0640 C.3   1 <1>  -0.0960 
 11 O       -3.8950     2.5260     1.1700 O.2   1 <1>  -0.5700 
 12 N       -5.0250     3.9400    -0.1200 N.am  1 <1>  -0.7300 
 13 C       -6.3450     3.4500     0.3000 C.3   1 <1>   0.2200 
 14 C       -6.7450     2.2590    -0.5670 C.3   1 <1>  -0.1600 
 15 C       -7.3750     4.5710     0.1930 C.3   1 <1>  -0.1600 
 16 C       -8.1330     1.7650    -0.1750 C.3   1 <1>   0.3430 
 17 C       -8.7590     4.0480     0.5720 C.3   1 <1>   0.3430 
 18 N       -9.1210     2.8820    -0.2900 N.4   1 <1>  -0.9590 
 19 C      -10.4990     2.3980     0.0270 C.3   1 <1>   0.2630 
 20 H       -1.7440     1.5430     0.4500 H     1 <1>   0.1500 
 21 H        2.3290     2.6700     0.8200 H     1 <1>   0.1500 
 22 H        1.7330     5.0200     0.4000 H     1 <1>   0.1500 
 23 H       -2.8080     4.9120    -0.4880 H     1 <1>   0.3700 
 24 H       -1.4350     6.4260     0.6420 H     1 <1>   0.0800 
 25 H       -1.0730     6.2180    -1.0630 H     1 <1>   0.0800 
 26 H        0.1760     6.7060     0.0480 H     1 <1>   0.0800 
 27 H       -4.9890     4.5430    -0.9390 H     1 <1>   0.3700 
 28 H       -6.2830     3.1300     1.3300 H     1 <1>   0.0800 
 29 H       -6.0400     1.4600    -0.4160 H     1 <1>   0.0800 
 30 H       -6.7340     2.5250    -1.6090 H     1 <1>   0.0800 
 31 H       -7.4020     4.9690    -0.8060 H     1 <1>   0.0800 
 32 H       -7.1070     5.3640     0.8680 H     1 <1>   0.0800 
 33 H       -8.1090     1.4010     0.8410 H     1 <1>   0.0800 
 34 H       -8.4190     0.9480    -0.8190 H     1 <1>   0.0800 
 35 H       -9.4860     4.8360     0.4520 H     1 <1>   0.0800 
 36 H       -8.7570     3.7480     1.6080 H     1 <1>   0.0800 
 37 H       -9.1100     3.2020    -1.2700 H     1 <1>   0.4500 
 38 H      -10.5510     2.0500     1.0460 H     1 <1>   0.0800 
 39 H      -10.7710     1.5850    -0.6280 H     1 <1>   0.0800 
 40 H      -11.2150     3.1940    -0.1020 H     1 <1>   0.0800 
@<TRIPOS>BOND
  1   1   2  1   
  2   2   3  ar  
  3   2   4  ar  
  4   3   5  ar  
  5   3  20  1   
  6   4   6  ar  
  7   4  21  1   
  8   5   7  1   
  9   5   8  ar  
 10   6   8  ar  
 11   6  22  1   
 12   7   9  am  
 13   7  23  1   
 14   8  10  1   
 15   9  11  2   
 16   9  12  am  
 17  10  24  1   
 18  10  25  1   
 19  10  26  1   
 20  12  13  1   
 21  12  27  1   
 22  13  14  1   
 23  13  15  1   
 24  13  28  1   
 25  14  16  1   
 26  14  29  1   
 27  14  30  1   
 28  15  17  1   
 29  15  31  1   
 30  15  32  1   
 31  16  18  1   
 32  16  33  1   
 33  16  34  1   
 34  17  18  1   
 35  17  35  1   
 36  17  36  1   
 37  18  19  1   
 38  18  37  1   
 39  19  38  1   
 40  19  39  1   
 41  19  40  1   
@<TRIPOS>SUBSTRUCTURE
  1 ****   9 GROUP 4 **** **** 0

# MOE 2024.06 (io_trps.svl 2023.06)
