@<TRIPOS>MOLECULE
NONAME
49 52 1 0 0 
SMALL
USER_CHARGES


@<TRIPOS>ATOM
  1 S       -0.0400    -0.3650    -0.5390 S.3   1 <1>  -0.0800 
  2 C        1.5040     0.4210    -0.2300 C.ar  1 <1>   0.2970 
  3 C       -0.9640     1.1280    -0.2000 C.2   1 <1>  -0.0450 
  4 N        2.6520    -0.2250    -0.3340 N.ar  1 <1>  -0.5670 
  5 C        1.2980     1.7490     0.1070 C.ar  1 <1>   0.0000 
  6 C       -0.0920     2.1260     0.1240 C.2   1 <1>   0.0830 
  7 C       -2.3900     1.0940    -0.2880 C.2   1 <1>   0.7150 
  8 C        3.7080     0.5220    -0.0830 C.ar  1 <1>   0.1670 
  9 C        2.4290     2.5090     0.3600 C.ar  1 <1>  -0.1500 
 10 N       -0.4860     3.4100     0.4440 N.pl3 1 <1>  -0.8830 
 11 O       -3.0660     2.0670     0.0130 O.2   1 <1>  -0.5700 
 12 N       -3.0380    -0.0390    -0.7000 N.am  1 <1>  -0.7300 
 13 C        3.6550     1.8770     0.2620 C.ar  1 <1>  -0.1430 
 14 C        5.0360    -0.2010    -0.2240 C.3   1 <1>  -0.0170 
 15 C       -4.5050    -0.1830    -0.8540 C.3   1 <1>   0.1400 
 16 C        4.9170     2.6730     0.5360 C.3   1 <1>   0.4860 
 17 C        6.2170     0.6160     0.2930 C.3   1 <1>   0.3430 
 18 C       -5.1050    -0.8000     0.4090 C.3   1 <1>  -0.0170 
 19 N        6.0880     2.0400    -0.1350 N.4   1 <1>  -0.9590 
 20 C       -6.6020    -0.9980     0.2350 C.ar  1 <1>  -0.1430 
 21 C        7.3440     2.8080     0.1220 C.3   1 <1>   0.2630 
 22 C       -7.4740     0.0540     0.4710 C.ar  1 <1>  -0.1500 
 23 C       -7.1080    -2.2250    -0.1660 C.ar  1 <1>  -0.1500 
 24 C       -8.8380    -0.1180     0.3090 C.ar  1 <1>  -0.1500 
 25 C       -8.4720    -2.3980    -0.3280 C.ar  1 <1>  -0.1500 
 26 C       -9.3380    -1.3450    -0.0910 C.ar  1 <1>  -0.1500 
 27 H        2.3240     3.5490     0.6170 H     1 <1>   0.1500 
 28 H        0.0600     3.9950     1.0800 H     1 <1>   0.4000 
 29 H       -1.5050     3.5790     0.5030 H     1 <1>   0.4000 
 30 H       -2.4710    -0.8570    -0.9260 H     1 <1>   0.3700 
 31 H        5.1890    -0.4390    -1.2610 H     1 <1>   0.0800 
 32 H        4.9920    -1.1320     0.3140 H     1 <1>   0.0800 
 33 H       -4.7150    -0.8100    -1.7040 H     1 <1>   0.0800 
 34 H       -4.9520     0.7810    -1.0310 H     1 <1>   0.0800 
 35 H        5.0820     2.7150     1.6000 H     1 <1>   0.0800 
 36 H        4.7880     3.6800     0.1730 H     1 <1>   0.0800 
 37 H        7.1330     0.1900    -0.0860 H     1 <1>   0.0800 
 38 H        6.2410     0.5630     1.3700 H     1 <1>   0.0800 
 39 H       -4.9260    -0.1460     1.2440 H     1 <1>   0.0800 
 40 H       -4.6360    -1.7450     0.6120 H     1 <1>   0.0800 
 41 H        5.8910     2.0480    -1.1470 H     1 <1>   0.4500 
 42 H        7.5700     2.8210     1.1770 H     1 <1>   0.0800 
 43 H        7.2400     3.8260    -0.2210 H     1 <1>   0.0800 
 44 H        8.1730     2.3570    -0.4000 H     1 <1>   0.0800 
 45 H       -7.0940     1.0120     0.7820 H     1 <1>   0.1500 
 46 H       -6.4460    -3.0510    -0.3530 H     1 <1>   0.1500 
 47 H       -9.5090     0.7020     0.4940 H     1 <1>   0.1500 
 48 H       -8.8600    -3.3520    -0.6390 H     1 <1>   0.1500 
 49 H      -10.3980    -1.4790    -0.2170 H     1 <1>   0.1500 
@<TRIPOS>BOND
  1   1   2  1   
  2   1   3  1   
  3   2   4  ar  
  4   2   5  ar  
  5   3   6  2   
  6   3   7  1   
  7   4   8  ar  
  8   5   6  1   
  9   5   9  ar  
 10   6  10  1   
 11   7  11  2   
 12   7  12  am  
 13   8  13  ar  
 14   8  14  1   
 15   9  13  ar  
 16   9  27  1   
 17  10  28  1   
 18  10  29  1   
 19  12  15  1   
 20  12  30  1   
 21  13  16  1   
 22  14  17  1   
 23  14  31  1   
 24  14  32  1   
 25  15  18  1   
 26  15  33  1   
 27  15  34  1   
 28  16  19  1   
 29  16  35  1   
 30  16  36  1   
 31  17  19  1   
 32  17  37  1   
 33  17  38  1   
 34  18  20  1   
 35  18  39  1   
 36  18  40  1   
 37  19  21  1   
 38  19  41  1   
 39  20  22  ar  
 40  20  23  ar  
 41  21  42  1   
 42  21  43  1   
 43  21  44  1   
 44  22  24  ar  
 45  22  45  1   
 46  23  25  ar  
 47  23  46  1   
 48  24  26  ar  
 49  24  47  1   
 50  25  26  ar  
 51  25  48  1   
 52  26  49  1   
@<TRIPOS>SUBSTRUCTURE
  1 ****   3 GROUP 4 **** **** 0

# MOE 2024.06 (io_trps.svl 2023.06)
