@<TRIPOS>MOLECULE
NONAME
31 32 1 0 0 
SMALL
USER_CHARGES


@<TRIPOS>ATOM
  1 O       -0.2080     0.2300     0.9040 O.3   1 <1>  -0.6920 
  2 N       -0.1470     1.4230     0.5070 N.pl3 1 <1>  -0.5080 
  3 C       -1.3320     2.0850     0.2960 C.2   1 <1>  -0.0380 
  4 C        1.0910     2.0030     0.3150 C.2   1 <1>  -0.0380 
  5 C       -1.2970     3.3830    -0.0850 C.2   1 <1>  -0.1510 
  6 C       -2.6340     1.3170     0.5140 C.3   1 <1>  -0.0220 
  7 C        1.1380     3.2940    -0.1080 C.2   1 <1>  -0.1510 
  8 C        2.3280     1.1390     0.5950 C.3   1 <1>  -0.0220 
  9 N       -0.0640     3.9600    -0.2850 N.2   1 <1>   1.5890 
 10 C       -2.5740     4.2080    -0.3040 C.3   1 <1>  -0.0220 
 11 C       -3.8600     2.0540    -0.0400 C.3   1 <1>  -0.1600 
 12 C        2.4470     4.0510    -0.4060 C.3   1 <1>  -0.1020 
 13 C        2.7240     0.3370    -0.6480 C.3   1 <1>  -0.2400 
 14 O       -0.0270     5.1870    -0.6650 O.2   1 <1>  -0.5640 
 15 C       -3.8090     3.5420     0.3150 C.3   1 <1>  -0.1600 
 16 H       -2.7450     1.1460     1.5700 H     1 <1>   0.0800 
 17 H       -2.5610     0.3520     0.0410 H     1 <1>   0.0800 
 18 H        2.1220     0.4580     1.4030 H     1 <1>   0.0800 
 19 H        3.1550     1.7370     0.9240 H     1 <1>   0.0800 
 20 H       -2.7350     4.3280    -1.3630 H     1 <1>   0.0800 
 21 H       -2.4750     5.1900     0.1290 H     1 <1>   0.0800 
 22 H       -4.7530     1.6060     0.3600 H     1 <1>   0.0800 
 23 H       -3.8840     1.9400    -1.1110 H     1 <1>   0.0800 
 24 H        2.6290     4.7940     0.3520 H     1 <1>   0.0800 
 25 H        2.3920     4.5450    -1.3620 H     1 <1>   0.0800 
 26 H        3.2980     3.3990    -0.4470 H     1 <1>   0.0800 
 27 H        1.8980    -0.2940    -0.9330 H     1 <1>   0.0800 
 28 H        3.5720    -0.2860    -0.4330 H     1 <1>   0.0800 
 29 H        2.9600     0.9910    -1.4670 H     1 <1>   0.0800 
 30 H       -4.7020     4.0320    -0.0340 H     1 <1>   0.0800 
 31 H       -3.7740     3.6430     1.3870 H     1 <1>   0.0800 
@<TRIPOS>BOND
  1   1   2  1   
  2   2   3  1   
  3   2   4  1   
  4   3   5  2   
  5   3   6  1   
  6   4   7  2   
  7   4   8  1   
  8   5   9  1   
  9   5  10  1   
 10   6  11  1   
 11   6  16  1   
 12   6  17  1   
 13   7   9  1   
 14   7  12  1   
 15   8  13  1   
 16   8  18  1   
 17   8  19  1   
 18   9  14  2   
 19  10  15  1   
 20  10  20  1   
 21  10  21  1   
 22  11  15  1   
 23  11  22  1   
 24  11  23  1   
 25  12  24  1   
 26  12  25  1   
 27  12  26  1   
 28  13  27  1   
 29  13  28  1   
 30  13  29  1   
 31  15  30  1   
 32  15  31  1   
@<TRIPOS>SUBSTRUCTURE
  1 ****   3 GROUP 4 **** **** 0

# MOE 2024.06 (io_trps.svl 2023.06)
