@<TRIPOS>MOLECULE
NONAME
41 42 1 0 0 
SMALL
USER_CHARGES


@<TRIPOS>ATOM
  1 O       -0.6650     3.3320    -2.4160 O.2   1 <1>  -0.5700 
  2 C       -0.2220     2.6960    -1.4760 C.2   1 <1>   0.5440 
  3 N       -1.0110     1.7190    -0.9450 N.am  1 <1>  -0.7300 
  4 C        1.1100     2.9710    -0.9590 C.ar  1 <1>   0.0860 
  5 C       -2.4240     1.4560    -1.2680 C.3   1 <1>   0.2200 
  6 C        1.5240     2.6790     0.3550 C.ar  1 <1>   0.0830 
  7 C        2.0520     3.5650    -1.8060 C.ar  1 <1>  -0.1500 
  8 C       -3.2990     1.9340    -0.0840 C.3   1 <1>   0.2000 
  9 C       -2.5390    -0.0390    -1.5830 C.3   1 <1>  -0.2400 
 10 O        0.6300     2.1210     1.2120 O.3   1 <1>  -0.3630 
 11 C        2.8240     2.9660     0.7640 C.ar  1 <1>  -0.1500 
 12 C        3.3380     3.8520    -1.3960 C.ar  1 <1>  -0.1500 
 13 O       -3.0170     1.2230     1.0860 O.3   1 <1>  -0.5600 
 14 C       -4.8060     1.7950    -0.2550 C.3   1 <1>  -0.1600 
 15 C        0.9160     1.8520     2.5670 C.3   1 <1>   0.0400 
 16 C        3.7340     3.5490    -0.0980 C.ar  1 <1>   0.0830 
 17 C       -4.0810     1.3070     1.9800 C.3   1 <1>   0.1200 
 18 C       -5.2940     1.7840     1.1820 C.3   1 <1>  -0.1600 
 19 O        4.9730     3.7920     0.3880 O.3   1 <1>  -0.3620 
 20 C        5.9760     4.3890    -0.4040 C.3   1 <1>   0.0400 
 21 H       -0.7380     1.3590    -0.0220 H     1 <1>   0.3700 
 22 H       -2.6970     2.0170    -2.1460 H     1 <1>   0.0800 
 23 H        1.7590     3.8050    -2.8140 H     1 <1>   0.1500 
 24 H       -3.0690     2.9680     0.1130 H     1 <1>   0.0800 
 25 H       -2.3270    -0.6240    -0.7060 H     1 <1>   0.0800 
 26 H       -1.8450    -0.3010    -2.3610 H     1 <1>   0.0800 
 27 H       -3.5270    -0.2790    -1.9260 H     1 <1>   0.0800 
 28 H        3.1640     2.7480     1.7570 H     1 <1>   0.1500 
 29 H        4.0150     4.3070    -2.0930 H     1 <1>   0.1500 
 30 H       -5.0520     0.8630    -0.7290 H     1 <1>   0.0800 
 31 H       -5.2200     2.6060    -0.8280 H     1 <1>   0.0800 
 32 H        0.0300     1.4430     3.0190 H     1 <1>   0.0800 
 33 H        1.1860     2.7700     3.0570 H     1 <1>   0.0800 
 34 H        1.7170     1.1350     2.6200 H     1 <1>   0.0800 
 35 H       -3.8190     2.0050     2.7570 H     1 <1>   0.0800 
 36 H       -4.2400     0.3290     2.4010 H     1 <1>   0.0800 
 37 H       -6.1400     1.1340     1.3190 H     1 <1>   0.0800 
 38 H       -5.5590     2.7770     1.5000 H     1 <1>   0.0800 
 39 H        6.8630     4.4810     0.1960 H     1 <1>   0.0800 
 40 H        5.6420     5.3640    -0.7140 H     1 <1>   0.0800 
 41 H        6.1720     3.7590    -1.2540 H     1 <1>   0.0800 
@<TRIPOS>BOND
  1   1   2  2   
  2   2   3  am  
  3   2   4  1   
  4   3   5  1   
  5   3  21  1   
  6   4   6  ar  
  7   4   7  ar  
  8   5   8  1   
  9   5   9  1   
 10   5  22  1   
 11   6  10  1   
 12   6  11  ar  
 13   7  12  ar  
 14   7  23  1   
 15   8  13  1   
 16   8  14  1   
 17   8  24  1   
 18   9  25  1   
 19   9  26  1   
 20   9  27  1   
 21  10  15  1   
 22  11  16  ar  
 23  11  28  1   
 24  12  16  ar  
 25  12  29  1   
 26  13  17  1   
 27  14  18  1   
 28  14  30  1   
 29  14  31  1   
 30  15  32  1   
 31  15  33  1   
 32  15  34  1   
 33  16  19  1   
 34  17  18  1   
 35  17  35  1   
 36  17  36  1   
 37  18  37  1   
 38  18  38  1   
 39  19  20  1   
 40  20  39  1   
 41  20  40  1   
 42  20  41  1   
@<TRIPOS>SUBSTRUCTURE
  1 ****   2 GROUP 4 **** **** 0

# MOE 2024.06 (io_trps.svl 2023.06)
