@<TRIPOS>MOLECULE
NONAME
47 49 1 0 0 
SMALL
USER_CHARGES


@<TRIPOS>ATOM
  1 O       -1.1870    -3.3700    -2.2490 O.2   1 <1>  -0.5700 
  2 C       -1.1440    -3.2850    -1.0360 C.2   1 <1>   0.7800 
  3 O        0.0360    -3.2230    -0.4170 O.3   1 <1>  -0.4300 
  4 N       -2.2690    -3.2440    -0.2620 N.am  1 <1>  -0.6600 
  5 C        1.2380    -3.2590    -1.1500 C.3   1 <1>   0.1200 
  6 C       -2.2170    -3.1690     1.2320 C.3   1 <1>   0.1400 
  7 C       -3.6250    -3.2810    -0.8880 C.3   1 <1>   0.1400 
  8 C        2.3970    -3.1750    -0.1620 C.3   1 <1>  -0.2400 
  9 C       -3.4330    -3.8390     1.8930 C.3   1 <1>   0.1400 
 10 C       -4.6880    -2.6550     0.0260 C.3   1 <1>   0.1400 
 11 N       -4.7450    -3.3640     1.3440 N.am  1 <1>  -0.6600 
 12 C       -5.9180    -3.7450     1.9620 C.2   1 <1>   0.5440 
 13 O       -5.8500    -4.2800     3.0540 O.2   1 <1>  -0.5700 
 14 C       -7.2240    -3.5250     1.3750 C.ar  1 <1>   0.0860 
 15 C       -7.6740    -4.2360     0.2480 C.ar  1 <1>   0.0000 
 16 C       -8.0720    -2.5830     1.9550 C.ar  1 <1>  -0.1500 
 17 C       -6.8540    -5.2250    -0.4200 C.ar  1 <1>   0.0000 
 18 C       -8.9490    -3.9700    -0.2470 C.ar  1 <1>  -0.1500 
 19 C       -9.3290    -2.3280     1.4450 C.ar  1 <1>  -0.1500 
 20 C       -6.3100    -6.3090     0.2660 C.ar  1 <1>  -0.1500 
 21 C       -6.5760    -5.1130    -1.7810 C.ar  1 <1>  -0.1500 
 22 C       -9.7700    -3.0270     0.3370 C.ar  1 <1>  -0.1500 
 23 C       -5.5070    -7.2340    -0.3760 C.ar  1 <1>  -0.1500 
 24 C       -5.7750    -6.0360    -2.4290 C.ar  1 <1>  -0.1500 
 25 C       -5.2360    -7.0980    -1.7250 C.ar  1 <1>  -0.1500 
 26 H        1.2480    -2.4250    -1.8310 H     1 <1>   0.0800 
 27 H        1.2700    -4.1810    -1.7070 H     1 <1>   0.0800 
 28 H       -2.1810    -2.1360     1.5280 H     1 <1>   0.0800 
 29 H       -1.3220    -3.6460     1.5920 H     1 <1>   0.0800 
 30 H       -3.8890    -4.3040    -1.0910 H     1 <1>   0.0800 
 31 H       -3.6040    -2.7500    -1.8240 H     1 <1>   0.0800 
 32 H        2.3460    -2.2550     0.3920 H     1 <1>   0.0800 
 33 H        3.3300    -3.2020    -0.6960 H     1 <1>   0.0800 
 34 H        2.3660    -4.0080     0.5170 H     1 <1>   0.0800 
 35 H       -3.4040    -3.6520     2.9520 H     1 <1>   0.0800 
 36 H       -3.3680    -4.9030     1.7470 H     1 <1>   0.0800 
 37 H       -5.6380    -2.6870    -0.4710 H     1 <1>   0.0800 
 38 H       -4.4430    -1.6210     0.1940 H     1 <1>   0.0800 
 39 H       -7.7300    -2.0480     2.8250 H     1 <1>   0.1500 
 40 H       -9.3030    -4.5180    -1.1040 H     1 <1>   0.1500 
 41 H       -9.9650    -1.5940     1.9100 H     1 <1>   0.1500 
 42 H       -6.5150    -6.4260     1.3170 H     1 <1>   0.1500 
 43 H       -6.9890    -4.2910    -2.3380 H     1 <1>   0.1500 
 44 H      -10.7510    -2.8380    -0.0640 H     1 <1>   0.1500 
 45 H       -5.0930    -8.0600     0.1760 H     1 <1>   0.1500 
 46 H       -5.5690    -5.9300    -3.4800 H     1 <1>   0.1500 
 47 H       -4.6100    -7.8160    -2.2250 H     1 <1>   0.1500 
@<TRIPOS>BOND
  1   1   2  2   
  2   2   3  1   
  3   2   4  am  
  4   3   5  1   
  5   4   6  1   
  6   4   7  1   
  7   5   8  1   
  8   5  26  1   
  9   5  27  1   
 10   6   9  1   
 11   6  28  1   
 12   6  29  1   
 13   7  10  1   
 14   7  30  1   
 15   7  31  1   
 16   8  32  1   
 17   8  33  1   
 18   8  34  1   
 19   9  11  1   
 20   9  35  1   
 21   9  36  1   
 22  10  11  1   
 23  10  37  1   
 24  10  38  1   
 25  11  12  am  
 26  12  13  2   
 27  12  14  1   
 28  14  15  ar  
 29  14  16  ar  
 30  15  17  1   
 31  15  18  ar  
 32  16  19  ar  
 33  16  39  1   
 34  17  20  ar  
 35  17  21  ar  
 36  18  22  ar  
 37  18  40  1   
 38  19  22  ar  
 39  19  41  1   
 40  20  23  ar  
 41  20  42  1   
 42  21  24  ar  
 43  21  43  1   
 44  22  44  1   
 45  23  25  ar  
 46  23  45  1   
 47  24  25  ar  
 48  24  46  1   
 49  25  47  1   
@<TRIPOS>SUBSTRUCTURE
  1 ****  10 GROUP 4 **** **** 0

# MOE 2024.06 (io_trps.svl 2023.06)
