@<TRIPOS>MOLECULE
NONAME
48 50 1 0 0 
SMALL
USER_CHARGES


@<TRIPOS>ATOM
  1 S       -0.3430     1.4380    -0.9790 S.o2  1 <1>   1.4470 
  2 O       -0.5850     1.4980    -2.4040 O.2   1 <1>  -0.6500 
  3 O       -1.2180     2.1620    -0.0810 O.2   1 <1>  -0.6500 
  4 N       -0.4440    -0.1930    -0.5350 N.am  1 <1>  -0.8490 
  5 C        1.3920     1.8410    -0.6420 C.ar  1 <1>  -0.0090 
  6 C       -1.6830    -0.8220    -1.0020 C.3   1 <1>   0.1960 
  7 C       -0.2370    -0.4280     0.9110 C.3   1 <1>   0.1960 
  8 C        1.7460     2.8260     0.2720 C.ar  1 <1>  -0.1500 
  9 C        2.4180     1.1600    -1.2860 C.ar  1 <1>  -0.1500 
 10 C       -1.6970    -2.3390    -0.7000 C.3   1 <1>   0.1200 
 11 C       -0.9150    -1.7120     1.4400 C.3   1 <1>   0.1200 
 12 C        3.0720     3.1160     0.5370 C.ar  1 <1>  -0.1500 
 13 C        3.7450     1.4470    -1.0250 C.ar  1 <1>  -0.1500 
 14 O       -0.9740    -2.6960     0.4520 O.3   1 <1>  -0.5600 
 15 C        4.0940     2.4270    -0.1050 C.ar  1 <1>   0.1170 
 16 N        5.4510     2.6790     0.1250 N.am  1 <1>  -0.5470 
 17 C        6.1210     3.3370     1.1170 C.2   1 <1>   0.5690 
 18 O        5.5940     3.8640     2.0660 O.2   1 <1>  -0.5700 
 19 C        7.6440     3.3760     0.9830 C.3   1 <1>   0.1710 
 20 N        8.1930     2.2630     0.1510 N.3   1 <1>  -0.8100 
 21 C        8.1930     0.9870     0.9050 C.3   1 <1>   0.1100 
 22 C        9.5740     2.5640    -0.2800 C.3   1 <1>   0.1100 
 23 C        8.8390    -0.1440     0.0850 C.3   1 <1>   0.1200 
 24 C       10.1780     1.3890    -1.0690 C.3   1 <1>   0.1200 
 25 O       10.1320     0.2150    -0.3090 O.3   1 <1>  -0.5600 
 26 H       -1.7940    -0.6820    -2.0640 H     1 <1>   0.0800 
 27 H       -2.5270    -0.3530    -0.5240 H     1 <1>   0.0800 
 28 H       -0.6110     0.3980     1.4910 H     1 <1>   0.0800 
 29 H        0.8210    -0.4940     1.0960 H     1 <1>   0.0800 
 30 H        0.9740     3.3770     0.7840 H     1 <1>   0.1500 
 31 H        2.1670     0.3930    -2.0010 H     1 <1>   0.1500 
 32 H       -1.2570    -2.8720    -1.5240 H     1 <1>   0.0800 
 33 H       -2.7100    -2.6810    -0.5810 H     1 <1>   0.0800 
 34 H       -1.9190    -1.5010     1.7640 H     1 <1>   0.0800 
 35 H       -0.3650    -2.1080     2.2750 H     1 <1>   0.0800 
 36 H        3.3080     3.8880     1.2480 H     1 <1>   0.1500 
 37 H        4.5150     0.9020    -1.5400 H     1 <1>   0.1500 
 38 H        6.1130     2.2400    -0.5230 H     1 <1>   0.3700 
 39 H        8.0830     3.3580     1.9650 H     1 <1>   0.0800 
 40 H        7.8940     4.3170     0.5280 H     1 <1>   0.0800 
 41 H        7.1830     0.7080     1.1510 H     1 <1>   0.0800 
 42 H        8.7410     1.1000     1.8250 H     1 <1>   0.0800 
 43 H       10.1950     2.7630     0.5770 H     1 <1>   0.0800 
 44 H        9.5720     3.4410    -0.9050 H     1 <1>   0.0800 
 45 H        8.2570    -0.3560    -0.7950 H     1 <1>   0.0800 
 46 H        8.9130    -1.0390     0.6770 H     1 <1>   0.0800 
 47 H       11.2090     1.5870    -1.3030 H     1 <1>   0.0800 
 48 H        9.6370     1.2290    -1.9850 H     1 <1>   0.0800 
@<TRIPOS>BOND
  1   1   2  2   
  2   1   3  2   
  3   1   4  am  
  4   1   5  1   
  5   4   6  1   
  6   4   7  1   
  7   5   8  ar  
  8   5   9  ar  
  9   6  10  1   
 10   6  26  1   
 11   6  27  1   
 12   7  11  1   
 13   7  28  1   
 14   7  29  1   
 15   8  12  ar  
 16   8  30  1   
 17   9  13  ar  
 18   9  31  1   
 19  10  14  1   
 20  10  32  1   
 21  10  33  1   
 22  11  14  1   
 23  11  34  1   
 24  11  35  1   
 25  12  15  ar  
 26  12  36  1   
 27  13  15  ar  
 28  13  37  1   
 29  15  16  1   
 30  16  17  am  
 31  16  38  1   
 32  17  18  2   
 33  17  19  1   
 34  19  20  1   
 35  19  39  1   
 36  19  40  1   
 37  20  21  1   
 38  20  22  1   
 39  21  23  1   
 40  21  41  1   
 41  21  42  1   
 42  22  24  1   
 43  22  43  1   
 44  22  44  1   
 45  23  25  1   
 46  23  45  1   
 47  23  46  1   
 48  24  25  1   
 49  24  47  1   
 50  24  48  1   
@<TRIPOS>SUBSTRUCTURE
  1 ****  13 GROUP 4 **** **** 0

# MOE 2024.06 (io_trps.svl 2023.06)
