@<TRIPOS>MOLECULE
NONAME
48 50 1 0 0 
SMALL
USER_CHARGES


@<TRIPOS>ATOM
  1 F        0.5200     2.1030    -0.7810 F     1 <1>  -0.3400 
  2 C        1.5480     1.5820    -1.4410 C.3   1 <1>   1.1640 
  3 F        1.3650     0.2660    -1.4290 F     1 <1>  -0.3400 
  4 F        1.4130     1.9650    -2.7040 F     1 <1>  -0.3400 
  5 C        2.9080     1.9930    -0.8550 C.ar  1 <1>  -0.1440 
  6 C        4.0260     1.1860    -1.0320 C.ar  1 <1>  -0.1500 
  7 C        3.0560     3.1830    -0.1480 C.ar  1 <1>  -0.1500 
  8 C        5.2680     1.5340    -0.5180 C.ar  1 <1>   0.1000 
  9 C        4.2870     3.5460     0.3680 C.ar  1 <1>  -0.1500 
 10 N        6.3540     0.6840    -0.7120 N.pl3 1 <1>  -0.8380 
 11 C        5.3850     2.7270     0.1850 C.ar  1 <1>  -0.1500 
 12 C        7.6840     1.2250    -1.1290 C.3   1 <1>   0.2090 
 13 C        6.3550    -0.6440    -0.0290 C.3   1 <1>   0.2090 
 14 C        8.7200     1.1250     0.0110 C.3   1 <1>   0.3430 
 15 C        7.4120    -0.6940     1.0960 C.3   1 <1>   0.3430 
 16 N        8.7760    -0.2520     0.6310 N.4   1 <1>  -0.9590 
 17 C        9.7890    -0.3300     1.7180 C.3   1 <1>   0.4860 
 18 C       11.1510    -0.0220     1.1280 C.ar  1 <1>  -0.1430 
 19 C       11.7220    -0.8910     0.2100 C.ar  1 <1>  -0.1500 
 20 C       11.8340     1.1300     1.4860 C.ar  1 <1>  -0.1500 
 21 C       12.9500    -0.6250    -0.3720 C.ar  1 <1>   0.0830 
 22 C       13.0660     1.4110     0.9220 C.ar  1 <1>  -0.1500 
 23 O       13.3570    -1.5730    -1.2630 O.3   1 <1>  -0.3630 
 24 C       13.6300     0.5500    -0.0070 C.ar  1 <1>   0.0830 
 25 C       14.6560    -1.6050    -1.8120 C.3   1 <1>   0.0400 
 26 O       14.8260     0.9060    -0.5220 O.3   1 <1>  -0.5330 
 27 H        3.9470     0.2670    -1.5880 H     1 <1>   0.1500 
 28 H        2.2130     3.8380     0.0040 H     1 <1>   0.1500 
 29 H        4.3860     4.4700     0.9130 H     1 <1>   0.1500 
 30 H        6.3310     3.0210     0.5950 H     1 <1>   0.1500 
 31 H        7.5790     2.2530    -1.4340 H     1 <1>   0.0800 
 32 H        8.0340     0.6730    -1.9840 H     1 <1>   0.0800 
 33 H        6.5550    -1.4140    -0.7530 H     1 <1>   0.0800 
 34 H        5.3820    -0.8360     0.3920 H     1 <1>   0.0800 
 35 H        8.4580     1.8480     0.7650 H     1 <1>   0.0800 
 36 H        9.6890     1.3930    -0.3780 H     1 <1>   0.0800 
 37 H        7.4600    -1.6980     1.4830 H     1 <1>   0.0800 
 38 H        7.0770    -0.0490     1.8920 H     1 <1>   0.0800 
 39 H        9.0870    -0.8900    -0.1120 H     1 <1>   0.4500 
 40 H        9.8030    -1.3200     2.1450 H     1 <1>   0.0800 
 41 H        9.5560     0.3770     2.4980 H     1 <1>   0.0800 
 42 H       11.2290    -1.8030    -0.0750 H     1 <1>   0.1500 
 43 H       11.4230     1.8190     2.2060 H     1 <1>   0.1500 
 44 H       13.5860     2.3080     1.2100 H     1 <1>   0.1500 
 45 H       14.7550    -2.5070    -2.3880 H     1 <1>   0.0800 
 46 H       15.3750    -1.6000    -1.0120 H     1 <1>   0.0800 
 47 H       14.7860    -0.7490    -2.4510 H     1 <1>   0.0800 
 48 H       15.1800     1.7320    -0.1480 H     1 <1>   0.4500 
@<TRIPOS>BOND
  1   1   2  1   
  2   2   3  1   
  3   2   4  1   
  4   2   5  1   
  5   5   6  ar  
  6   5   7  ar  
  7   6   8  ar  
  8   6  27  1   
  9   7   9  ar  
 10   7  28  1   
 11   8  10  1   
 12   8  11  ar  
 13   9  11  ar  
 14   9  29  1   
 15  10  12  1   
 16  10  13  1   
 17  11  30  1   
 18  12  14  1   
 19  12  31  1   
 20  12  32  1   
 21  13  15  1   
 22  13  33  1   
 23  13  34  1   
 24  14  16  1   
 25  14  35  1   
 26  14  36  1   
 27  15  16  1   
 28  15  37  1   
 29  15  38  1   
 30  16  17  1   
 31  16  39  1   
 32  17  18  1   
 33  17  40  1   
 34  17  41  1   
 35  18  19  ar  
 36  18  20  ar  
 37  19  21  ar  
 38  19  42  1   
 39  20  22  ar  
 40  20  43  1   
 41  21  23  1   
 42  21  24  ar  
 43  22  24  ar  
 44  22  44  1   
 45  23  25  1   
 46  24  26  1   
 47  25  45  1   
 48  25  46  1   
 49  25  47  1   
 50  26  48  1   
@<TRIPOS>SUBSTRUCTURE
  1 ****  12 GROUP 4 **** **** 0

# MOE 2024.06 (io_trps.svl 2023.06)
