@<TRIPOS>MOLECULE
NONAME
35 36 1 0 0 
SMALL
USER_CHARGES


@<TRIPOS>ATOM
  1 O        1.8920    -7.0130     0.0690 O.3   1 <1>  -0.3630 
  2 C        0.5480    -7.1540     0.1890 C.ar  1 <1>   0.0830 
  3 C        2.5030    -5.7470     0.1280 C.3   1 <1>   0.1200 
  4 C       -0.3310    -6.0920     0.3890 C.ar  1 <1>  -0.1500 
  5 C        0.0490    -8.4430     0.1010 C.ar  1 <1>  -0.1500 
  6 C        4.0080    -5.9450    -0.0470 C.3   1 <1>  -0.1600 
  7 C       -1.6930    -6.3210     0.5010 C.ar  1 <1>  -0.1440 
  8 C       -1.3090    -8.6760     0.2110 C.ar  1 <1>  -0.1500 
  9 C        4.7470    -4.6040    -0.0030 C.3   1 <1>   0.0960 
 10 C       -2.1780    -7.6170     0.4100 C.ar  1 <1>  -0.1500 
 11 C       -2.6530    -5.1620     0.7200 C.3   1 <1>  -0.0170 
 12 N        6.1980    -4.8100    -0.1690 N.pl3 1 <1>   0.0480 
 13 C       -3.1260    -4.5960    -0.6200 C.3   1 <1>  -0.2400 
 14 C        6.9140    -4.7810    -1.3160 C.2   1 <1>   0.0360 
 15 C        7.1030    -5.0670     0.7920 C.2   1 <1>  -0.3020 
 16 N        8.1790    -4.9950    -1.1520 N.2   1 <1>  -0.5650 
 17 C        8.3010    -5.1760     0.1760 C.2   1 <1>   0.0770 
 18 H        2.2810    -5.3100     1.0870 H     1 <1>   0.0800 
 19 H        2.0990    -5.1410    -0.6640 H     1 <1>   0.0800 
 20 H        0.0270    -5.0840     0.4580 H     1 <1>   0.1500 
 21 H        0.7310    -9.2590    -0.0530 H     1 <1>   0.1500 
 22 H        4.1890    -6.4230    -0.9950 H     1 <1>   0.0800 
 23 H        4.3710    -6.5800     0.7430 H     1 <1>   0.0800 
 24 H       -1.6900    -9.6800     0.1410 H     1 <1>   0.1500 
 25 H        4.5780    -4.1150     0.9400 H     1 <1>   0.0800 
 26 H        4.3990    -3.9600    -0.7910 H     1 <1>   0.0800 
 27 H       -3.2330    -7.8060     0.4920 H     1 <1>   0.1500 
 28 H       -2.1670    -4.3890     1.2880 H     1 <1>   0.0800 
 29 H       -3.5030    -5.4980     1.2900 H     1 <1>   0.0800 
 30 H       -2.2870    -4.2420    -1.1910 H     1 <1>   0.0800 
 31 H       -3.8060    -3.7790    -0.4590 H     1 <1>   0.0800 
 32 H       -3.6300    -5.3590    -1.1870 H     1 <1>   0.0800 
 33 H        6.4550    -4.5960    -2.2710 H     1 <1>   0.1500 
 34 H        6.8570    -5.1580     1.8330 H     1 <1>   0.1500 
 35 H        9.2590    -5.3790     0.6250 H     1 <1>   0.1500 
@<TRIPOS>BOND
  1   1   2  1   
  2   1   3  1   
  3   2   4  ar  
  4   2   5  ar  
  5   3   6  1   
  6   3  18  1   
  7   3  19  1   
  8   4   7  ar  
  9   4  20  1   
 10   5   8  ar  
 11   5  21  1   
 12   6   9  1   
 13   6  22  1   
 14   6  23  1   
 15   7  10  ar  
 16   7  11  1   
 17   8  10  ar  
 18   8  24  1   
 19   9  12  1   
 20   9  25  1   
 21   9  26  1   
 22  10  27  1   
 23  11  13  1   
 24  11  28  1   
 25  11  29  1   
 26  12  14  1   
 27  12  15  1   
 28  13  30  1   
 29  13  31  1   
 30  13  32  1   
 31  14  16  2   
 32  14  33  1   
 33  15  17  2   
 34  15  34  1   
 35  16  17  1   
 36  17  35  1   
@<TRIPOS>SUBSTRUCTURE
  1 ****   3 GROUP 4 **** **** 0

# MOE 2024.06 (io_trps.svl 2023.06)
