@<TRIPOS>MOLECULE
NONAME
33 33 1 0 0 
SMALL
USER_CHARGES


@<TRIPOS>ATOM
  1 O       -0.1810     0.3770     1.2090 O.co2 1 <1>  -0.9000 
  2 C       -1.4190     0.3140     1.3190 C.2   1 <1>   0.9790 
  3 O       -1.9170    -0.6550     1.9210 O.co2 1 <1>  -0.9000 
  4 C       -2.2720     1.3590     0.7660 C.ar  1 <1>  -0.1790 
  5 C       -3.6610     1.2730     0.8310 C.ar  1 <1>  -0.1500 
  6 C       -1.7430     2.4930     0.1510 C.ar  1 <1>  -0.1500 
  7 C       -4.5030     2.2560     0.3290 C.ar  1 <1>   0.1170 
  8 C       -2.5600     3.4880    -0.3540 C.ar  1 <1>  -0.1500 
  9 N       -5.8810     2.0550     0.4950 N.am  1 <1>  -0.5470 
 10 C       -3.9390     3.3900    -0.2630 C.ar  1 <1>  -0.1430 
 11 C       -6.8980     2.0730    -0.4180 C.2   1 <1>   0.5690 
 12 C       -4.7760     4.5400    -0.8060 C.3   1 <1>  -0.0960 
 13 O       -6.7490     2.3510    -1.5830 O.2   1 <1>  -0.5700 
 14 C       -8.3000     1.7110     0.0840 C.3   1 <1>  -0.0190 
 15 C       -8.8420     0.4780    -0.6690 C.3   1 <1>  -0.1600 
 16 C       -9.2460     2.9210    -0.0310 C.3   1 <1>  -0.2400 
 17 C      -10.1560    -0.0710    -0.0930 C.3   1 <1>  -0.2400 
 18 H       -4.0840     0.3980     1.2920 H     1 <1>   0.1500 
 19 H       -0.6710     2.5810     0.0770 H     1 <1>   0.1500 
 20 H       -2.1060     4.3450    -0.8160 H     1 <1>   0.1500 
 21 H       -6.1160     1.6610     1.4020 H     1 <1>   0.3700 
 22 H       -5.0690     4.3270    -1.8180 H     1 <1>   0.0800 
 23 H       -4.2160     5.4560    -0.7950 H     1 <1>   0.0800 
 24 H       -5.6590     4.6810    -0.2100 H     1 <1>   0.0800 
 25 H       -8.2230     1.4530     1.1250 H     1 <1>   0.0800 
 26 H       -8.1000    -0.3020    -0.6280 H     1 <1>   0.0800 
 27 H       -8.9840     0.7270    -1.7080 H     1 <1>   0.0800 
 28 H       -9.4090     3.1680    -1.0660 H     1 <1>   0.0800 
 29 H       -8.8100     3.7760     0.4550 H     1 <1>   0.0800 
 30 H      -10.1940     2.7180     0.4330 H     1 <1>   0.0800 
 31 H      -10.0490    -0.2900     0.9550 H     1 <1>   0.0800 
 32 H      -10.4230    -0.9790    -0.6040 H     1 <1>   0.0800 
 33 H      -10.9580     0.6330    -0.2250 H     1 <1>   0.0800 
@<TRIPOS>BOND
  1   1   2  ar  
  2   2   3  ar  
  3   2   4  1   
  4   4   5  ar  
  5   4   6  ar  
  6   5   7  ar  
  7   5  18  1   
  8   6   8  ar  
  9   6  19  1   
 10   7   9  1   
 11   7  10  ar  
 12   8  10  ar  
 13   8  20  1   
 14   9  11  am  
 15   9  21  1   
 16  10  12  1   
 17  11  13  2   
 18  11  14  1   
 19  12  22  1   
 20  12  23  1   
 21  12  24  1   
 22  14  15  1   
 23  14  16  1   
 24  14  25  1   
 25  15  17  1   
 26  15  26  1   
 27  15  27  1   
 28  16  28  1   
 29  16  29  1   
 30  16  30  1   
 31  17  31  1   
 32  17  32  1   
 33  17  33  1   
@<TRIPOS>SUBSTRUCTURE
  1 ****   7 GROUP 4 **** **** 0

# MOE 2024.06 (io_trps.svl 2023.06)
