@<TRIPOS>MOLECULE
NONAME
29 29 1 0 0 
SMALL
USER_CHARGES


@<TRIPOS>ATOM
  1 F       -0.5910    -0.5410     0.1170 F     1 <1>  -0.3400 
  2 C       -0.2950    -1.7580     0.5590 C.3   1 <1>   1.1640 
  3 F       -0.4230    -1.7170     1.8780 F     1 <1>  -0.3400 
  4 F       -1.2530    -2.5600     0.1160 F     1 <1>  -0.3400 
  5 C        1.0910    -2.2310     0.1360 C.ar  1 <1>  -0.1440 
  6 C        1.4870    -3.5110     0.4890 C.ar  1 <1>   0.1600 
  7 C        1.9780    -1.4430    -0.5850 C.ar  1 <1>  -0.1500 
  8 N        2.6550    -4.0570     0.1940 N.ar  1 <1>  -0.6200 
  9 C        3.1950    -2.0010    -0.9000 C.ar  1 <1>  -0.1500 
 10 C        3.4890    -3.2980    -0.4920 C.ar  1 <1>   0.4100 
 11 N        4.6780    -3.8970    -0.7760 N.pl3 1 <1>  -0.8690 
 12 C        5.9470    -3.2300    -0.4400 C.3   1 <1>   0.2090 
 13 C        7.0290    -4.2900    -0.2510 C.3   1 <1>  -0.1600 
 14 C        8.3730    -3.6430     0.0750 C.3   1 <1>   0.1200 
 15 O        9.3030    -4.6590     0.2400 O.3   1 <1>  -0.5600 
 16 C       10.5840    -4.2130     0.5440 C.3   1 <1>   0.0400 
 17 H        0.8060    -4.1330     1.0480 H     1 <1>   0.1500 
 18 H        1.7350    -0.4400    -0.8940 H     1 <1>   0.1500 
 19 H        3.9240    -1.4540    -1.4660 H     1 <1>   0.1500 
 20 H        4.6520    -4.8650    -0.4420 H     1 <1>   0.4000 
 21 H        5.8260    -2.6580     0.4660 H     1 <1>   0.0800 
 22 H        6.2190    -2.5640    -1.2410 H     1 <1>   0.0800 
 23 H        7.1280    -4.8620    -1.1560 H     1 <1>   0.0800 
 24 H        6.7510    -4.9420     0.5580 H     1 <1>   0.0800 
 25 H        8.3130    -3.0790     0.9910 H     1 <1>   0.0800 
 26 H        8.6960    -3.0070    -0.7320 H     1 <1>   0.0800 
 27 H       11.2210    -5.0730     0.6500 H     1 <1>   0.0800 
 28 H       10.5590    -3.6650     1.4710 H     1 <1>   0.0800 
 29 H       10.9440    -3.5910    -0.2570 H     1 <1>   0.0800 
@<TRIPOS>BOND
  1   1   2  1   
  2   2   3  1   
  3   2   4  1   
  4   2   5  1   
  5   5   6  ar  
  6   5   7  ar  
  7   6   8  ar  
  8   6  17  1   
  9   7   9  ar  
 10   7  18  1   
 11   8  10  ar  
 12   9  10  ar  
 13   9  19  1   
 14  10  11  1   
 15  11  12  1   
 16  11  20  1   
 17  12  13  1   
 18  12  21  1   
 19  12  22  1   
 20  13  14  1   
 21  13  23  1   
 22  13  24  1   
 23  14  15  1   
 24  14  25  1   
 25  14  26  1   
 26  15  16  1   
 27  16  27  1   
 28  16  28  1   
 29  16  29  1   
@<TRIPOS>SUBSTRUCTURE
  1 ****  10 GROUP 4 **** **** 0

# MOE 2024.06 (io_trps.svl 2023.06)
