@<TRIPOS>MOLECULE
NONAME
51 53 1 0 0 
SMALL
USER_CHARGES


@<TRIPOS>ATOM
  1 S        0.0360    -0.0330    -0.1220 S.o2  1 <1>   1.0900 
  2 O       -0.1100    -1.1760    -0.9970 O.2   1 <1>  -0.6500 
  3 O        0.0780    -0.1990     1.3150 O.2   1 <1>  -0.6500 
  4 C        1.5110     0.8700    -0.6190 C.3   1 <1>   0.0890 
  5 C       -1.2560     1.1530    -0.5220 C.3   1 <1>   0.0890 
  6 C        2.8160     0.1050    -0.4240 C.ar  1 <1>  -0.1440 
  7 C       -2.6640     0.6810    -0.1870 C.ar  1 <1>  -0.1440 
  8 C        3.2880    -0.1630     0.8510 C.ar  1 <1>  -0.1500 
  9 C        3.5460    -0.3340    -1.5190 C.ar  1 <1>  -0.1500 
 10 C       -3.3510     1.2240     0.8890 C.ar  1 <1>  -0.1500 
 11 C       -3.2730    -0.2980    -0.9580 C.ar  1 <1>  -0.1500 
 12 C        4.4770    -0.8480     1.0260 C.ar  1 <1>  -0.1500 
 13 C        4.7350    -1.0170    -1.3360 C.ar  1 <1>  -0.1500 
 14 C       -4.6350     0.8000     1.1840 C.ar  1 <1>  -0.1500 
 15 C       -4.5570    -0.7220    -0.6630 C.ar  1 <1>  -0.1500 
 16 C        5.2330    -1.2790    -0.0620 C.ar  1 <1>   0.0860 
 17 C       -5.2400    -0.1720     0.4070 C.ar  1 <1>  -0.1500 
 18 C        6.4910    -1.9770     0.1160 C.2   1 <1>   0.5440 
 19 O        6.5520    -3.1580    -0.1720 O.2   1 <1>  -0.5700 
 20 N        7.6220    -1.3320     0.5830 N.am  1 <1>  -0.6600 
 21 C        7.6950     0.1450     0.7570 C.3   1 <1>   0.1400 
 22 C        8.8940    -2.0700     0.8070 C.3   1 <1>   0.1400 
 23 C        8.1780     0.7890    -0.5450 C.3   1 <1>  -0.1600 
 24 C        9.9460    -1.7120    -0.2490 C.3   1 <1>  -0.1600 
 25 C        9.7060     0.8230    -0.7410 C.3   1 <1>  -0.1600 
 26 C       10.5240    -0.2970    -0.0770 C.3   1 <1>  -0.1600 
 27 H        1.5770     1.7790    -0.0540 H     1 <1>   0.0800 
 28 H        1.4270     1.1400    -1.6540 H     1 <1>   0.0800 
 29 H       -1.2250     1.3730    -1.5720 H     1 <1>   0.0800 
 30 H       -1.0720     2.0700     0.0040 H     1 <1>   0.0800 
 31 H        2.7280     0.1500     1.7170 H     1 <1>   0.1500 
 32 H        3.1930    -0.1560    -2.5200 H     1 <1>   0.1500 
 33 H       -2.8940     1.9770     1.5080 H     1 <1>   0.1500 
 34 H       -2.7500    -0.7430    -1.7880 H     1 <1>   0.1500 
 35 H        4.8320    -1.0600     2.0200 H     1 <1>   0.1500 
 36 H        5.2940    -1.3630    -2.1880 H     1 <1>   0.1500 
 37 H       -5.1640     1.2240     2.0190 H     1 <1>   0.1500 
 38 H       -5.0220    -1.4840    -1.2640 H     1 <1>   0.1500 
 39 H       -6.2370    -0.5030     0.6370 H     1 <1>   0.1500 
 40 H        8.3510     0.3930     1.5730 H     1 <1>   0.0800 
 41 H        6.7230     0.5330     1.0010 H     1 <1>   0.0800 
 42 H        8.7140    -3.1310     0.7700 H     1 <1>   0.0800 
 43 H        9.2650    -1.8460     1.7920 H     1 <1>   0.0800 
 44 H        7.8190     1.8030    -0.5760 H     1 <1>   0.0800 
 45 H        7.7220     0.2750    -1.3740 H     1 <1>   0.0800 
 46 H        9.5390    -1.8470    -1.2360 H     1 <1>   0.0800 
 47 H       10.7540    -2.4130    -0.1400 H     1 <1>   0.0800 
 48 H       10.0780     1.7610    -0.3660 H     1 <1>   0.0800 
 49 H        9.9040     0.8130    -1.7990 H     1 <1>   0.0800 
 50 H       11.5100    -0.2780    -0.5090 H     1 <1>   0.0800 
 51 H       10.6420    -0.0860     0.9720 H     1 <1>   0.0800 
@<TRIPOS>BOND
  1   1   2  2   
  2   1   3  2   
  3   1   4  1   
  4   1   5  1   
  5   4   6  1   
  6   4  27  1   
  7   4  28  1   
  8   5   7  1   
  9   5  29  1   
 10   5  30  1   
 11   6   8  ar  
 12   6   9  ar  
 13   7  10  ar  
 14   7  11  ar  
 15   8  12  ar  
 16   8  31  1   
 17   9  13  ar  
 18   9  32  1   
 19  10  14  ar  
 20  10  33  1   
 21  11  15  ar  
 22  11  34  1   
 23  12  16  ar  
 24  12  35  1   
 25  13  16  ar  
 26  13  36  1   
 27  14  17  ar  
 28  14  37  1   
 29  15  17  ar  
 30  15  38  1   
 31  16  18  1   
 32  17  39  1   
 33  18  19  2   
 34  18  20  am  
 35  20  21  1   
 36  20  22  1   
 37  21  23  1   
 38  21  40  1   
 39  21  41  1   
 40  22  24  1   
 41  22  42  1   
 42  22  43  1   
 43  23  25  1   
 44  23  44  1   
 45  23  45  1   
 46  24  26  1   
 47  24  46  1   
 48  24  47  1   
 49  25  26  1   
 50  25  48  1   
 51  25  49  1   
 52  26  50  1   
 53  26  51  1   
@<TRIPOS>SUBSTRUCTURE
  1 ****   6 GROUP 4 **** **** 0

# MOE 2024.06 (io_trps.svl 2023.06)
