@<TRIPOS>MOLECULE
NONAME
50 51 1 0 0 
SMALL
USER_CHARGES


@<TRIPOS>ATOM
  1 O       -0.9100     1.5860     1.5970 O.2   1 <1>  -0.5700 
  2 C       -0.5360     2.4340     0.8020 C.2   1 <1>   0.5440 
  3 N       -1.4600     3.0330    -0.0080 N.am  1 <1>  -0.4300 
  4 C        0.8580     2.8270     0.7360 C.ar  1 <1>   0.0860 
  5 N       -2.8230     2.5420    -0.2370 N.am  1 <1>  -0.4300 
  6 C        1.6480     2.8710     1.8810 C.ar  1 <1>  -0.1500 
  7 C        1.4690     3.1780    -0.4670 C.ar  1 <1>  -0.1500 
  8 C       -3.2140     1.7600    -1.2780 C.2   1 <1>   0.5690 
  9 C        2.9730     3.2640     1.8360 C.ar  1 <1>  -0.1500 
 10 C        2.7940     3.5720    -0.5130 C.ar  1 <1>  -0.1500 
 11 O       -2.5120     1.5760    -2.2510 O.2   1 <1>  -0.5700 
 12 C       -4.5830     1.0960    -1.2360 C.3   1 <1>   0.1810 
 13 C        3.5760     3.6270     0.6350 C.ar  1 <1>  -0.1430 
 14 O       -5.3880     1.6420    -0.1990 O.3   1 <1>  -0.3630 
 15 C        5.0520     4.0730     0.5330 C.3   1 <1>   0.1430 
 16 C       -6.6360     1.1610     0.0390 C.ar  1 <1>   0.0830 
 17 C        5.8170     3.1110    -0.3890 C.3   1 <1>  -0.2400 
 18 C        5.1220     5.4950    -0.0440 C.3   1 <1>  -0.2400 
 19 C        5.7760     4.0880     1.8900 C.3   1 <1>  -0.2400 
 20 C       -7.2360     0.1560    -0.7140 C.ar  1 <1>  -0.1500 
 21 C       -7.3260     1.7220     1.1020 C.ar  1 <1>  -0.1500 
 22 C       -8.5130    -0.2740    -0.3950 C.ar  1 <1>  -0.1500 
 23 C       -8.6030     1.2910     1.4200 C.ar  1 <1>  -0.1500 
 24 C       -9.2030     0.2860     0.6680 C.ar  1 <1>   0.0830 
 25 O      -10.4500    -0.1980     0.9070 O.3   1 <1>  -0.3620 
 26 C      -11.2380     0.3080     1.9620 C.3   1 <1>   0.0400 
 27 H       -1.1630     3.8140    -0.6000 H     1 <1>   0.3700 
 28 H       -3.4810     2.6470     0.5460 H     1 <1>   0.3700 
 29 H        1.2090     2.5900     2.8230 H     1 <1>   0.1500 
 30 H        0.9070     3.1330    -1.3830 H     1 <1>   0.1500 
 31 H        3.5170     3.2750     2.7620 H     1 <1>   0.1500 
 32 H        3.2170     3.8330    -1.4670 H     1 <1>   0.1500 
 33 H       -4.4570     0.0440    -1.0530 H     1 <1>   0.0800 
 34 H       -5.0830     1.2510    -2.1740 H     1 <1>   0.0800 
 35 H        5.4160     3.1270    -1.3850 H     1 <1>   0.0800 
 36 H        5.7430     2.1060    -0.0120 H     1 <1>   0.0800 
 37 H        6.8560     3.3810    -0.4430 H     1 <1>   0.0800 
 38 H        4.5600     6.1710     0.5760 H     1 <1>   0.0800 
 39 H        4.7150     5.5320    -1.0370 H     1 <1>   0.0800 
 40 H        6.1400     5.8380    -0.0880 H     1 <1>   0.0800 
 41 H        5.7840     3.1050     2.3250 H     1 <1>   0.0800 
 42 H        5.2920     4.7680     2.5690 H     1 <1>   0.0800 
 43 H        6.7960     4.4070     1.7720 H     1 <1>   0.0800 
 44 H       -6.7380    -0.3040    -1.5460 H     1 <1>   0.1500 
 45 H       -6.8590     2.4970     1.6810 H     1 <1>   0.1500 
 46 H       -8.9850    -1.0490    -0.9710 H     1 <1>   0.1500 
 47 H       -9.1090     1.7470     2.2500 H     1 <1>   0.1500 
 48 H      -12.1760    -0.2180     1.9590 H     1 <1>   0.0800 
 49 H      -11.4070     1.3570     1.7990 H     1 <1>   0.0800 
 50 H      -10.7270     0.1370     2.8930 H     1 <1>   0.0800 
@<TRIPOS>BOND
  1   1   2  2   
  2   2   3  am  
  3   2   4  1   
  4   3   5  1   
  5   3  27  1   
  6   4   6  ar  
  7   4   7  ar  
  8   5   8  am  
  9   5  28  1   
 10   6   9  ar  
 11   6  29  1   
 12   7  10  ar  
 13   7  30  1   
 14   8  11  2   
 15   8  12  1   
 16   9  13  ar  
 17   9  31  1   
 18  10  13  ar  
 19  10  32  1   
 20  12  14  1   
 21  12  33  1   
 22  12  34  1   
 23  13  15  1   
 24  14  16  1   
 25  15  17  1   
 26  15  18  1   
 27  15  19  1   
 28  16  20  ar  
 29  16  21  ar  
 30  17  35  1   
 31  17  36  1   
 32  17  37  1   
 33  18  38  1   
 34  18  39  1   
 35  18  40  1   
 36  19  41  1   
 37  19  42  1   
 38  19  43  1   
 39  20  22  ar  
 40  20  44  1   
 41  21  23  ar  
 42  21  45  1   
 43  22  24  ar  
 44  22  46  1   
 45  23  24  ar  
 46  23  47  1   
 47  24  25  1   
 48  25  26  1   
 49  26  48  1   
 50  26  49  1   
 51  26  50  1   
@<TRIPOS>SUBSTRUCTURE
  1 ****   5 GROUP 4 **** **** 0

# MOE 2024.06 (io_trps.svl 2023.06)
