@<TRIPOS>MOLECULE
NONAME
50 51 1 0 0 
SMALL
USER_CHARGES


@<TRIPOS>ATOM
  1 S        1.0370     0.9850    -2.3360 S.o2  1 <1>   1.3330 
  2 O        0.7190    -0.0340    -1.3720 O.2   1 <1>  -0.6500 
  3 O        2.3860     1.0900    -2.8430 O.2   1 <1>  -0.6500 
  4 N        0.6570     2.5220    -1.6410 N.am  1 <1>  -0.6930 
  5 C       -0.0900     0.9000    -3.7110 C.3   1 <1>  -0.1350 
  6 C       -0.5110     2.6550    -0.8940 C.ar  1 <1>   0.1990 
  7 C        1.8270     3.4100    -1.3300 C.3   1 <1>   0.3370 
  8 C       -0.5920     2.1780     0.4090 C.ar  1 <1>  -0.1500 
  9 C       -1.6230     3.2730    -1.4510 C.ar  1 <1>  -0.1500 
 10 C        2.6860     2.9020    -0.1450 C.2   1 <1>   0.5690 
 11 C        1.3550     4.8650    -1.1620 C.3   1 <1>  -0.2400 
 12 C       -1.7570     2.3130     1.1430 C.ar  1 <1>  -0.1500 
 13 C       -2.7910     3.4100    -0.7220 C.ar  1 <1>  -0.1500 
 14 O        2.5670     3.4170     0.9440 O.2   1 <1>  -0.5700 
 15 N        3.5610     1.8730    -0.3840 N.am  1 <1>  -0.5470 
 16 C       -2.8680     2.9320     0.5760 C.ar  1 <1>   0.0830 
 17 C        4.4540     1.2010     0.4620 C.ar  1 <1>   0.1170 
 18 O       -4.0520     3.1050     1.2200 O.3   1 <1>  -0.3630 
 19 C        5.0010     1.7750     1.6040 C.ar  1 <1>  -0.1500 
 20 C        4.8240    -0.0970     0.1350 C.ar  1 <1>  -0.1500 
 21 C       -4.2250     2.6530     2.5430 C.3   1 <1>   0.1200 
 22 C        5.8910     1.0710     2.3950 C.ar  1 <1>  -0.1500 
 23 C        5.7140    -0.8040     0.9230 C.ar  1 <1>  -0.1500 
 24 C       -5.6470     2.9930     2.9750 C.3   1 <1>  -0.2400 
 25 C        6.2560    -0.2230     2.0590 C.ar  1 <1>  -0.1430 
 26 C        7.2310    -0.9960     2.9280 C.3   1 <1>  -0.0970 
 27 H        0.0630    -0.0100    -4.2550 H     1 <1>   0.0800 
 28 H        0.0660     1.7290    -4.3720 H     1 <1>   0.0800 
 29 H       -1.1030     0.9220    -3.3590 H     1 <1>   0.0800 
 30 H        2.4710     3.4160    -2.1910 H     1 <1>   0.0800 
 31 H        0.2640     1.6960     0.8490 H     1 <1>   0.1500 
 32 H       -1.5700     3.6520    -2.4540 H     1 <1>   0.1500 
 33 H        0.7440     4.9690    -0.2830 H     1 <1>   0.0800 
 34 H        0.8010     5.1820    -2.0260 H     1 <1>   0.0800 
 35 H        2.2090     5.5070    -1.0470 H     1 <1>   0.0800 
 36 H       -1.7750     1.9300     2.1460 H     1 <1>   0.1500 
 37 H       -3.6530     3.8890    -1.1520 H     1 <1>   0.1500 
 38 H        3.4720     1.4470    -1.3160 H     1 <1>   0.3700 
 39 H        4.7350     2.7790     1.8800 H     1 <1>   0.1500 
 40 H        4.4080    -0.5620    -0.7410 H     1 <1>   0.1500 
 41 H       -3.5070     3.1530     3.1700 H     1 <1>   0.0800 
 42 H       -4.0650     1.5890     2.5630 H     1 <1>   0.0800 
 43 H        6.2980     1.5360     3.2750 H     1 <1>   0.1500 
 44 H        5.9820    -1.8090     0.6500 H     1 <1>   0.1500 
 45 H       -5.8000     4.0560     2.9350 H     1 <1>   0.0800 
 46 H       -5.8100     2.6590     3.9830 H     1 <1>   0.0800 
 47 H       -6.3550     2.5030     2.3310 H     1 <1>   0.0800 
 48 H        6.6930    -1.5220     3.6960 H     1 <1>   0.0800 
 49 H        7.9320    -0.3260     3.3910 H     1 <1>   0.0800 
 50 H        7.7800    -1.7070     2.3380 H     1 <1>   0.0800 
@<TRIPOS>BOND
  1   1   2  2   
  2   1   3  2   
  3   1   4  am  
  4   1   5  1   
  5   4   6  1   
  6   4   7  1   
  7   5  27  1   
  8   5  28  1   
  9   5  29  1   
 10   6   8  ar  
 11   6   9  ar  
 12   7  10  1   
 13   7  11  1   
 14   7  30  1   
 15   8  12  ar  
 16   8  31  1   
 17   9  13  ar  
 18   9  32  1   
 19  10  14  2   
 20  10  15  am  
 21  11  33  1   
 22  11  34  1   
 23  11  35  1   
 24  12  16  ar  
 25  12  36  1   
 26  13  16  ar  
 27  13  37  1   
 28  15  17  1   
 29  15  38  1   
 30  16  18  1   
 31  17  19  ar  
 32  17  20  ar  
 33  18  21  1   
 34  19  22  ar  
 35  19  39  1   
 36  20  23  ar  
 37  20  40  1   
 38  21  24  1   
 39  21  41  1   
 40  21  42  1   
 41  22  25  ar  
 42  22  43  1   
 43  23  25  ar  
 44  23  44  1   
 45  24  45  1   
 46  24  46  1   
 47  24  47  1   
 48  25  26  1   
 49  26  48  1   
 50  26  49  1   
 51  26  50  1   
@<TRIPOS>SUBSTRUCTURE
  1 ****  10 GROUP 4 **** **** 0

# MOE 2024.06 (io_trps.svl 2023.06)
