@<TRIPOS>MOLECULE
NONAME
51 54 1 0 0 
SMALL
USER_CHARGES


@<TRIPOS>ATOM
  1 O        2.5780     0.3470     0.1670 O.2   1 <1>  -0.5700 
  2 C        2.3420    -0.8240     0.0350 C.2   1 <1>   0.6590 
  3 O        3.2570    -1.7760     0.0210 O.3   1 <1>  -0.4300 
  4 C        0.9830    -1.4960    -0.1420 C.3   1 <1>   0.0610 
  5 C        2.6010    -3.0300    -0.1680 C.3   1 <1>   0.3410 
  6 C        1.2810    -2.7980     0.6280 C.3   1 <1>   0.0000 
  7 C        0.9790    -1.9460    -1.6190 C.3   1 <1>  -0.1600 
  8 C       -0.2510    -0.6750     0.2730 C.3   1 <1>  -0.2400 
  9 C        3.5000    -4.2390     0.2150 C.2   1 <1>   0.5690 
 10 C        2.1130    -2.9970    -1.6400 C.3   1 <1>  -0.1600 
 11 C        1.4890    -2.5850     2.1550 C.3   1 <1>  -0.2400 
 12 C        0.1810    -3.8880     0.4920 C.3   1 <1>  -0.2400 
 13 O        3.0420    -5.0850     0.9530 O.2   1 <1>  -0.5700 
 14 N        4.7830    -4.3720    -0.2750 N.am  1 <1>  -0.4770 
 15 C        5.3880    -3.5110    -1.1770 C.ar  1 <1>   0.4270 
 16 C        5.6190    -5.5260     0.1320 C.3   1 <1>   0.2840 
 17 N        5.3090    -3.8550    -2.4560 N.ar  1 <1>  -0.6200 
 18 C        6.0550    -2.3760    -0.7250 C.ar  1 <1>  -0.1500 
 19 C        6.5730    -5.0960     1.2360 C.ar  1 <1>  -0.1440 
 20 C        5.8980    -3.0330    -3.3090 C.ar  1 <1>   0.1600 
 21 C        6.6610    -1.5300    -1.6240 C.ar  1 <1>  -0.1500 
 22 C        7.8930    -4.7850     0.9450 C.ar  1 <1>  -0.1500 
 23 C        6.1240    -5.0020     2.5440 C.ar  1 <1>  -0.1500 
 24 C        6.5730    -1.8780    -2.9550 C.ar  1 <1>  -0.1500 
 25 C        8.7560    -4.3880     1.9520 C.ar  1 <1>  -0.1500 
 26 C        6.9860    -4.6050     3.5520 C.ar  1 <1>  -0.1500 
 27 C        8.3020    -4.2980     3.2570 C.ar  1 <1>  -0.1500 
 28 H        1.1950    -1.1200    -2.2760 H     1 <1>   0.0800 
 29 H        0.0350    -2.3780    -1.9020 H     1 <1>   0.0800 
 30 H       -0.3220     0.2080    -0.3380 H     1 <1>   0.0800 
 31 H       -0.1680    -0.3650     1.2990 H     1 <1>   0.0800 
 32 H       -1.1500    -1.2500     0.1530 H     1 <1>   0.0800 
 33 H        1.7450    -3.9610    -1.9420 H     1 <1>   0.0800 
 34 H        2.9040    -2.7070    -2.3080 H     1 <1>   0.0800 
 35 H        2.2480    -1.8580     2.3860 H     1 <1>   0.0800 
 36 H        1.7820    -3.5090     2.6220 H     1 <1>   0.0800 
 37 H        0.5730    -2.2630     2.6170 H     1 <1>   0.0800 
 38 H       -0.0370    -4.1650    -0.5200 H     1 <1>   0.0800 
 39 H       -0.7340    -3.5480     0.9430 H     1 <1>   0.0800 
 40 H        0.4810    -4.7840     1.0080 H     1 <1>   0.0800 
 41 H        6.1740    -5.8800    -0.7190 H     1 <1>   0.0800 
 42 H        5.0060    -6.3410     0.4760 H     1 <1>   0.0800 
 43 H        6.0850    -2.1710     0.3300 H     1 <1>   0.1500 
 44 H        5.8400    -3.2940    -4.3530 H     1 <1>   0.1500 
 45 H        7.1760    -0.6410    -1.3020 H     1 <1>   0.1500 
 46 H        8.2540    -4.8470    -0.0670 H     1 <1>   0.1500 
 47 H        5.0990    -5.2360     2.7800 H     1 <1>   0.1500 
 48 H        7.0230    -1.2590    -3.7110 H     1 <1>   0.1500 
 49 H        9.7790    -4.1480     1.7210 H     1 <1>   0.1500 
 50 H        6.6300    -4.5340     4.5650 H     1 <1>   0.1500 
 51 H        8.9720    -3.9890     4.0400 H     1 <1>   0.1500 
@<TRIPOS>BOND
  1   1   2  2   
  2   2   3  1   
  3   2   4  1   
  4   3   5  1   
  5   4   6  1   
  6   4   7  1   
  7   4   8  1   
  8   5   6  1   
  9   5   9  1   
 10   5  10  1   
 11   6  11  1   
 12   6  12  1   
 13   7  10  1   
 14   7  28  1   
 15   7  29  1   
 16   8  30  1   
 17   8  31  1   
 18   8  32  1   
 19   9  13  2   
 20   9  14  am  
 21  10  33  1   
 22  10  34  1   
 23  11  35  1   
 24  11  36  1   
 25  11  37  1   
 26  12  38  1   
 27  12  39  1   
 28  12  40  1   
 29  14  15  1   
 30  14  16  1   
 31  15  17  ar  
 32  15  18  ar  
 33  16  19  1   
 34  16  41  1   
 35  16  42  1   
 36  17  20  ar  
 37  18  21  ar  
 38  18  43  1   
 39  19  22  ar  
 40  19  23  ar  
 41  20  24  ar  
 42  20  44  1   
 43  21  24  ar  
 44  21  45  1   
 45  22  25  ar  
 46  22  46  1   
 47  23  26  ar  
 48  23  47  1   
 49  24  48  1   
 50  25  27  ar  
 51  25  49  1   
 52  26  27  ar  
 53  26  50  1   
 54  27  51  1   
@<TRIPOS>SUBSTRUCTURE
  1 ****   9 GROUP 4 **** **** 0

# MOE 2024.06 (io_trps.svl 2023.06)
