@<TRIPOS>MOLECULE
NONAME
41 42 1 0 0 
SMALL
USER_CHARGES


@<TRIPOS>ATOM
  1 O        0.8270     1.5480     1.5560 O.2   1 <1>  -0.5700 
  2 C        0.4990     2.0710     0.5080 C.2   1 <1>   0.5440 
  3 N        1.3720     2.0300    -0.5430 N.am  1 <1>  -0.7300 
  4 C       -0.7960     2.7160     0.3750 C.ar  1 <1>   0.0860 
  5 C        2.6940     1.3600    -0.5430 C.3   1 <1>   0.2200 
  6 C       -1.0380     3.7070    -0.5760 C.ar  1 <1>  -0.1500 
  7 C       -1.8600     2.3660     1.2040 C.ar  1 <1>  -0.1500 
  8 C        3.8250     2.3900    -0.3190 C.3   1 <1>   0.2000 
  9 C        2.8240     0.6240    -1.8770 C.3   1 <1>  -0.2400 
 10 C       -2.2710     4.3170    -0.7170 C.ar  1 <1>   0.0830 
 11 C       -3.1040     2.9560     1.0800 C.ar  1 <1>  -0.1500 
 12 O        5.0810     1.7780    -0.4060 O.3   1 <1>  -0.5600 
 13 C        3.7970     3.0750     1.0430 C.3   1 <1>  -0.1600 
 14 O       -2.3190     5.2660    -1.6960 O.3   1 <1>  -0.3630 
 15 C       -3.3370     3.9320     0.1140 C.ar  1 <1>   0.0830 
 16 C        5.9650     2.2570     0.5610 C.3   1 <1>   0.1200 
 17 C        5.2560     3.3990     1.2750 C.3   1 <1>  -0.1600 
 18 C       -3.2370     6.3370    -1.6570 C.3   1 <1>   0.0400 
 19 O       -4.5680     4.4930    -0.0380 O.3   1 <1>  -0.3630 
 20 C       -5.6930     4.0810     0.7080 C.3   1 <1>   0.0400 
 21 H        1.0730     2.3860    -1.4500 H     1 <1>   0.3700 
 22 H        2.7260     0.6420     0.2600 H     1 <1>   0.0800 
 23 H       -0.2450     4.0290    -1.2240 H     1 <1>   0.1500 
 24 H       -1.7020     1.6130     1.9580 H     1 <1>   0.1500 
 25 H        3.7960     3.1330    -1.0980 H     1 <1>   0.0800 
 26 H        2.8290     1.3180    -2.6970 H     1 <1>   0.0800 
 27 H        2.0160    -0.0750    -1.9950 H     1 <1>   0.0800 
 28 H        3.7480     0.0730    -1.8950 H     1 <1>   0.0800 
 29 H       -3.8790     2.6340     1.7500 H     1 <1>   0.1500 
 30 H        3.4440     2.3850     1.7910 H     1 <1>   0.0800 
 31 H        3.1660     3.9460     1.0430 H     1 <1>   0.0800 
 32 H        6.8740     2.5760     0.0800 H     1 <1>   0.0800 
 33 H        6.1710     1.4480     1.2400 H     1 <1>   0.0800 
 34 H        5.5110     3.4450     2.3190 H     1 <1>   0.0800 
 35 H        5.5150     4.3310     0.8030 H     1 <1>   0.0800 
 36 H       -2.8940     7.0970    -2.3350 H     1 <1>   0.0800 
 37 H       -3.2790     6.7280    -0.6560 H     1 <1>   0.0800 
 38 H       -4.2010     5.9800    -1.9700 H     1 <1>   0.0800 
 39 H       -6.5410     4.6500     0.3740 H     1 <1>   0.0800 
 40 H       -5.5110     4.2750     1.7500 H     1 <1>   0.0800 
 41 H       -5.8640     3.0330     0.5330 H     1 <1>   0.0800 
@<TRIPOS>BOND
  1   1   2  2   
  2   2   3  am  
  3   2   4  1   
  4   3   5  1   
  5   3  21  1   
  6   4   6  ar  
  7   4   7  ar  
  8   5   8  1   
  9   5   9  1   
 10   5  22  1   
 11   6  10  ar  
 12   6  23  1   
 13   7  11  ar  
 14   7  24  1   
 15   8  12  1   
 16   8  13  1   
 17   8  25  1   
 18   9  26  1   
 19   9  27  1   
 20   9  28  1   
 21  10  14  1   
 22  10  15  ar  
 23  11  15  ar  
 24  11  29  1   
 25  12  16  1   
 26  13  17  1   
 27  13  30  1   
 28  13  31  1   
 29  14  18  1   
 30  15  19  1   
 31  16  17  1   
 32  16  32  1   
 33  16  33  1   
 34  17  34  1   
 35  17  35  1   
 36  18  36  1   
 37  18  37  1   
 38  18  38  1   
 39  19  20  1   
 40  20  39  1   
 41  20  40  1   
 42  20  41  1   
@<TRIPOS>SUBSTRUCTURE
  1 ****   4 GROUP 4 **** **** 0

# MOE 2024.06 (io_trps.svl 2023.06)
