@<TRIPOS>MOLECULE
NONAME
40 42 1 0 0 
SMALL
USER_CHARGES


@<TRIPOS>ATOM
  1 BR      -0.2240    -0.1550    -0.3980 Br    1 <1>  -0.1110 
  2 C        1.4000     0.8730    -0.4970 C.ar  1 <1>   0.1110 
  3 C        1.6790     1.5680    -1.6570 C.ar  1 <1>  -0.1500 
  4 C        2.2460     0.8890     0.5930 C.ar  1 <1>  -0.1500 
  5 C        2.8470     2.3080    -1.7210 C.ar  1 <1>  -0.1500 
  6 C        3.4110     1.6320     0.5150 C.ar  1 <1>  -0.1500 
  7 C        3.7190     2.3520    -0.6370 C.ar  1 <1>  -0.1430 
  8 C        5.0020     3.1830    -0.7380 C.3   1 <1>   0.3440 
  9 O        6.0330     2.4890    -0.0780 O.3   1 <1>  -0.4300 
 10 C        4.8920     4.6160    -0.1750 C.3   1 <1>   0.0610 
 11 C        7.2060     2.9980     0.2710 C.2   1 <1>   0.6590 
 12 C        6.2690     5.2340    -0.4520 C.2   1 <1>   0.4480 
 13 C        3.7710     5.3960    -0.9080 C.3   1 <1>  -0.2400 
 14 C        4.5520     4.6560     1.3350 C.3   1 <1>  -0.2400 
 15 O        8.0180     2.2670     0.7710 O.2   1 <1>  -0.5700 
 16 C        7.5130     4.4910     0.0640 C.3   1 <1>   0.1220 
 17 O        6.3630     6.2470    -1.0850 O.2   1 <1>  -0.5700 
 18 C        8.0320     5.1630     1.3530 C.3   1 <1>  -0.1600 
 19 C        8.7120     4.6730    -0.8940 C.3   1 <1>  -0.1600 
 20 C        8.8750     6.3530     0.8920 C.3   1 <1>  -0.1600 
 21 C        9.4060     5.9820    -0.4950 C.3   1 <1>  -0.1600 
 22 H        0.9970     1.5290    -2.4880 H     1 <1>   0.1500 
 23 H        2.0010     0.3310     1.4790 H     1 <1>   0.1500 
 24 H        3.0710     2.8500    -2.6240 H     1 <1>   0.1500 
 25 H        4.0810     1.6440     1.3590 H     1 <1>   0.1500 
 26 H        5.2880     3.2370    -1.7750 H     1 <1>   0.0800 
 27 H        3.7530     6.4210    -0.5790 H     1 <1>   0.0800 
 28 H        2.8040     4.9680    -0.7120 H     1 <1>   0.0800 
 29 H        3.9380     5.3930    -1.9710 H     1 <1>   0.0800 
 30 H        5.2300     4.0600     1.9180 H     1 <1>   0.0800 
 31 H        3.5570     4.2860     1.5090 H     1 <1>   0.0800 
 32 H        4.5960     5.6690     1.6960 H     1 <1>   0.0800 
 33 H        8.6740     4.4820     1.8860 H     1 <1>   0.0800 
 34 H        7.2420     5.4730     2.0130 H     1 <1>   0.0800 
 35 H        8.4090     4.6850    -1.9270 H     1 <1>   0.0800 
 36 H        9.4130     3.8670    -0.7560 H     1 <1>   0.0800 
 37 H        9.6750     6.5600     1.5830 H     1 <1>   0.0800 
 38 H        8.2520     7.2280     0.8110 H     1 <1>   0.0800 
 39 H        9.1630     6.7630    -1.1970 H     1 <1>   0.0800 
 40 H       10.4750     5.8520    -0.4790 H     1 <1>   0.0800 
@<TRIPOS>BOND
  1   1   2  1   
  2   2   3  ar  
  3   2   4  ar  
  4   3   5  ar  
  5   3  22  1   
  6   4   6  ar  
  7   4  23  1   
  8   5   7  ar  
  9   5  24  1   
 10   6   7  ar  
 11   6  25  1   
 12   7   8  1   
 13   8   9  1   
 14   8  10  1   
 15   8  26  1   
 16   9  11  1   
 17  10  12  1   
 18  10  13  1   
 19  10  14  1   
 20  11  15  2   
 21  11  16  1   
 22  12  16  1   
 23  12  17  2   
 24  13  27  1   
 25  13  28  1   
 26  13  29  1   
 27  14  30  1   
 28  14  31  1   
 29  14  32  1   
 30  16  18  1   
 31  16  19  1   
 32  18  20  1   
 33  18  33  1   
 34  18  34  1   
 35  19  21  1   
 36  19  35  1   
 37  19  36  1   
 38  20  21  1   
 39  20  37  1   
 40  20  38  1   
 41  21  39  1   
 42  21  40  1   
@<TRIPOS>SUBSTRUCTURE
  1 ****   8 GROUP 4 **** **** 0

# MOE 2024.06 (io_trps.svl 2023.06)
