@<TRIPOS>MOLECULE
NONAME
40 41 1 0 0 
SMALL
USER_CHARGES


@<TRIPOS>ATOM
  1 S       -0.0900     0.0270     0.4560 S.o2  1 <1>   1.3330 
  2 O       -0.2920     0.2930     1.8610 O.2   1 <1>  -0.6500 
  3 O        1.0500    -0.7480     0.0250 O.2   1 <1>  -0.6500 
  4 N       -1.4900    -0.7160    -0.1400 N.am  1 <1>  -0.8490 
  5 C       -0.0500     1.5710    -0.4310 C.3   1 <1>  -0.1350 
  6 C       -2.7160    -0.1800     0.4780 C.3   1 <1>   0.1960 
  7 C       -1.4280    -2.1720     0.0360 C.3   1 <1>   0.1960 
  8 C       -3.9620    -0.7520    -0.2160 C.3   1 <1>  -0.0190 
  9 C       -2.6290    -2.8460    -0.6380 C.3   1 <1>  -0.1600 
 10 C       -5.2380    -0.1590     0.3650 C.2   1 <1>   0.5690 
 11 C       -3.9610    -2.2880    -0.1190 C.3   1 <1>  -0.1600 
 12 O       -5.2280     0.2860     1.4870 O.2   1 <1>  -0.5700 
 13 N       -6.3550    -0.1690    -0.4220 N.am  1 <1>  -0.5470 
 14 C       -7.6450     0.2830    -0.1120 C.ar  1 <1>   0.1170 
 15 C       -7.9350     1.6210     0.1670 C.ar  1 <1>  -0.1440 
 16 C       -8.6790    -0.6460    -0.1110 C.ar  1 <1>  -0.1500 
 17 C       -9.2410     1.9940     0.4480 C.ar  1 <1>  -0.1500 
 18 C       -6.8580     2.6990     0.1680 C.3   1 <1>  -0.0970 
 19 C       -9.9780    -0.2650     0.1670 C.ar  1 <1>  -0.1500 
 20 C      -10.2600     1.0580     0.4480 C.ar  1 <1>  -0.1500 
 21 H        0.8300     2.1210    -0.1640 H     1 <1>   0.0800 
 22 H       -0.9100     2.1640    -0.1930 H     1 <1>   0.0800 
 23 H       -0.0330     1.3850    -1.4870 H     1 <1>   0.0800 
 24 H       -2.7310     0.8930     0.3930 H     1 <1>   0.0800 
 25 H       -2.7360    -0.4270     1.5290 H     1 <1>   0.0800 
 26 H       -1.4060    -2.4110     1.0870 H     1 <1>   0.0800 
 27 H       -0.5260    -2.5570    -0.4120 H     1 <1>   0.0800 
 28 H       -3.9100    -0.4650    -1.2510 H     1 <1>   0.0800 
 29 H       -2.5860    -3.9060    -0.4570 H     1 <1>   0.0800 
 30 H       -2.5560    -2.6930    -1.7000 H     1 <1>   0.0800 
 31 H       -4.7760    -2.7020    -0.6880 H     1 <1>   0.0800 
 32 H       -4.0920    -2.5780     0.9110 H     1 <1>   0.0800 
 33 H       -6.2780    -0.6650    -1.3070 H     1 <1>   0.3700 
 34 H       -8.4660    -1.6770    -0.3220 H     1 <1>   0.1500 
 35 H       -9.4730     3.0200     0.6710 H     1 <1>   0.1500 
 36 H       -6.1740     2.5500    -0.6470 H     1 <1>   0.0800 
 37 H       -6.3120     2.6630     1.0940 H     1 <1>   0.0800 
 38 H       -7.2930     3.6760     0.0670 H     1 <1>   0.0800 
 39 H      -10.7690    -0.9960     0.1670 H     1 <1>   0.1500 
 40 H      -11.2690     1.3610     0.6690 H     1 <1>   0.1500 
@<TRIPOS>BOND
  1   1   2  2   
  2   1   3  2   
  3   1   4  am  
  4   1   5  1   
  5   4   6  1   
  6   4   7  1   
  7   5  21  1   
  8   5  22  1   
  9   5  23  1   
 10   6   8  1   
 11   6  24  1   
 12   6  25  1   
 13   7   9  1   
 14   7  26  1   
 15   7  27  1   
 16   8  10  1   
 17   8  11  1   
 18   8  28  1   
 19   9  11  1   
 20   9  29  1   
 21   9  30  1   
 22  10  12  2   
 23  10  13  am  
 24  11  31  1   
 25  11  32  1   
 26  13  14  1   
 27  13  33  1   
 28  14  15  ar  
 29  14  16  ar  
 30  15  17  ar  
 31  15  18  1   
 32  16  19  ar  
 33  16  34  1   
 34  17  20  ar  
 35  17  35  1   
 36  18  36  1   
 37  18  37  1   
 38  18  38  1   
 39  19  20  ar  
 40  19  39  1   
 41  20  40  1   
@<TRIPOS>SUBSTRUCTURE
  1 ****  10 GROUP 4 **** **** 0

# MOE 2024.06 (io_trps.svl 2023.06)
