@<TRIPOS>MOLECULE
NONAME
46 47 1 0 0 
SMALL
USER_CHARGES


@<TRIPOS>ATOM
  1 O        0.0890     1.0100    -1.3490 O.2   1 <1>  -0.5700 
  2 C        0.1080     1.7730    -0.4040 C.2   1 <1>   0.5440 
  3 N       -1.0240     1.9460     0.3550 N.am  1 <1>  -0.5470 
  4 C        1.3190     2.4940    -0.0610 C.ar  1 <1>   0.0860 
  5 C       -2.3010     1.4010     0.1560 C.ar  1 <1>   0.1170 
  6 C        2.5720     1.9180    -0.2580 C.ar  1 <1>  -0.1500 
  7 C        1.2840     3.7830     0.4770 C.ar  1 <1>  -0.1500 
  8 C       -2.5610     0.0560     0.4310 C.ar  1 <1>  -0.1440 
  9 C       -3.3380     2.2230    -0.2930 C.ar  1 <1>  -0.1430 
 10 C        3.7420     2.5770     0.0770 C.ar  1 <1>   0.0830 
 11 C        2.4450     4.4540     0.8170 C.ar  1 <1>  -0.1500 
 12 C       -3.8390    -0.4470     0.2600 C.ar  1 <1>  -0.1500 
 13 C       -1.4620    -0.8830     0.9150 C.3   1 <1>  -0.0970 
 14 C       -4.6100     1.7020    -0.4550 C.ar  1 <1>  -0.1500 
 15 C       -3.0920     3.6900    -0.6230 C.3   1 <1>  -0.0970 
 16 O        4.9020     1.9160    -0.1530 O.3   1 <1>  -0.3630 
 17 C        3.6760     3.8560     0.6210 C.ar  1 <1>  -0.1500 
 18 C       -4.8630     0.3710    -0.1790 C.ar  1 <1>  -0.1500 
 19 C        6.1540     2.5120     0.1200 C.3   1 <1>   0.1200 
 20 C        7.2530     1.5290    -0.2660 C.3   1 <1>   0.1200 
 21 O        8.4820     2.1210     0.0120 O.3   1 <1>  -0.5600 
 22 C        9.5740     1.3220    -0.2970 C.3   1 <1>   0.1200 
 23 C       10.8310     2.1050     0.0620 C.3   1 <1>  -0.2400 
 24 H       -0.9440     2.5720     1.1510 H     1 <1>   0.3700 
 25 H        2.6350     0.9320    -0.6840 H     1 <1>   0.1500 
 26 H        0.3390     4.2750     0.6240 H     1 <1>   0.1500 
 27 H        2.3930     5.4470     1.2310 H     1 <1>   0.1500 
 28 H       -4.0480    -1.4820     0.4650 H     1 <1>   0.1500 
 29 H       -0.9260    -0.4390     1.7340 H     1 <1>   0.0800 
 30 H       -0.7740    -1.0770     0.1120 H     1 <1>   0.0800 
 31 H       -1.8710    -1.8190     1.2480 H     1 <1>   0.0800 
 32 H       -5.4150     2.3260    -0.8010 H     1 <1>   0.1500 
 33 H       -2.3070     3.7710    -1.3530 H     1 <1>   0.0800 
 34 H       -2.8070     4.2250     0.2630 H     1 <1>   0.0800 
 35 H       -3.9760     4.1480    -1.0290 H     1 <1>   0.0800 
 36 H        4.5640     4.3960     0.8940 H     1 <1>   0.1500 
 37 H       -5.8530    -0.0280    -0.3100 H     1 <1>   0.1500 
 38 H        6.2050     2.7300     1.1720 H     1 <1>   0.0800 
 39 H        6.2380     3.4110    -0.4640 H     1 <1>   0.0800 
 40 H        7.2040     1.3130    -1.3200 H     1 <1>   0.0800 
 41 H        7.1650     0.6260     0.3120 H     1 <1>   0.0800 
 42 H        9.5550     1.0970    -1.3510 H     1 <1>   0.0800 
 43 H        9.5150     0.4130     0.2770 H     1 <1>   0.0800 
 44 H       10.8720     3.0170    -0.5060 H     1 <1>   0.0800 
 45 H       11.7030     1.5180    -0.1630 H     1 <1>   0.0800 
 46 H       10.8330     2.3360     1.1120 H     1 <1>   0.0800 
@<TRIPOS>BOND
  1   1   2  2   
  2   2   3  am  
  3   2   4  1   
  4   3   5  1   
  5   3  24  1   
  6   4   6  ar  
  7   4   7  ar  
  8   5   8  ar  
  9   5   9  ar  
 10   6  10  ar  
 11   6  25  1   
 12   7  11  ar  
 13   7  26  1   
 14   8  12  ar  
 15   8  13  1   
 16   9  14  ar  
 17   9  15  1   
 18  10  16  1   
 19  10  17  ar  
 20  11  17  ar  
 21  11  27  1   
 22  12  18  ar  
 23  12  28  1   
 24  13  29  1   
 25  13  30  1   
 26  13  31  1   
 27  14  18  ar  
 28  14  32  1   
 29  15  33  1   
 30  15  34  1   
 31  15  35  1   
 32  16  19  1   
 33  17  36  1   
 34  18  37  1   
 35  19  20  1   
 36  19  38  1   
 37  19  39  1   
 38  20  21  1   
 39  20  40  1   
 40  20  41  1   
 41  21  22  1   
 42  22  23  1   
 43  22  42  1   
 44  22  43  1   
 45  23  44  1   
 46  23  45  1   
 47  23  46  1   
@<TRIPOS>SUBSTRUCTURE
  1 ****   4 GROUP 4 **** **** 0

# MOE 2024.06 (io_trps.svl 2023.06)
