@<TRIPOS>MOLECULE
NONAME
52 54 1 0 0 
SMALL
USER_CHARGES


@<TRIPOS>ATOM
  1 O        2.5920    -2.6770     1.0750 O.3   1 <1>  -0.3630 
  2 C        3.0470    -1.5350     0.4880 C.ar  1 <1>   0.0820 
  3 C        3.4260    -3.4280     1.9360 C.3   1 <1>   0.0400 
  4 C        2.2660    -0.9730    -0.5170 C.ar  1 <1>  -0.1440 
  5 C        4.2370    -0.9190     0.8580 C.ar  1 <1>  -0.1500 
  6 C        2.6800     0.1940    -1.1430 C.ar  1 <1>  -0.1500 
  7 C        0.9700    -1.6350    -0.9240 C.3   1 <1>   0.4870 
  8 C        4.6480     0.2460     0.2350 C.ar  1 <1>   0.0820 
  9 C        3.8650     0.8030    -0.7700 C.ar  1 <1>  -0.1500 
 10 N        0.0910    -1.6040     0.2590 N.4   1 <1>  -0.9060 
 11 O        5.8190     0.7790     0.6610 O.3   1 <1>  -0.3620 
 12 C       -1.2600    -2.1920     0.0490 C.3   1 <1>   0.3430 
 13 C        6.3570     1.9460     0.0770 C.3   1 <1>   0.0400 
 14 C       -2.4000    -1.1460    -0.0270 C.3   1 <1>   0.1430 
 15 C       -3.6750    -1.9720    -0.2580 C.ar  1 <1>  -0.1430 
 16 C       -2.1720    -0.0810    -1.1190 C.3   1 <1>  -0.1600 
 17 C       -2.4750    -0.2830     1.2490 C.3   1 <1>  -0.1600 
 18 C       -4.3900    -2.4920     0.8160 C.ar  1 <1>  -0.1500 
 19 C       -4.1230    -2.2560    -1.5450 C.ar  1 <1>  -0.1500 
 20 C       -1.3960     1.0780    -0.4830 C.3   1 <1>  -0.1600 
 21 C       -1.6030     0.9580     1.0280 C.3   1 <1>  -0.1600 
 22 C       -5.5220    -3.2610     0.6120 C.ar  1 <1>  -0.1500 
 23 C       -5.2560    -3.0250    -1.7500 C.ar  1 <1>  -0.1500 
 24 C       -5.9580    -3.5280    -0.6720 C.ar  1 <1>  -0.1500 
 25 H        2.9100    -4.3320     2.2080 H     1 <1>   0.0800 
 26 H        3.6350    -2.8500     2.8190 H     1 <1>   0.0800 
 27 H        4.3370    -3.6740     1.4180 H     1 <1>   0.0800 
 28 H        4.8700    -1.3150     1.6300 H     1 <1>   0.1500 
 29 H        2.0920     0.6430    -1.9270 H     1 <1>   0.1500 
 30 H        1.1620    -2.6530    -1.2230 H     1 <1>   0.0800 
 31 H        0.5200    -1.1020    -1.7450 H     1 <1>   0.0800 
 32 H        4.1640     1.7060    -1.2700 H     1 <1>   0.1500 
 33 H       -0.0010    -0.6320     0.5750 H     1 <1>   0.4500 
 34 H        0.6190    -2.1020     0.9940 H     1 <1>   0.4500 
 35 H       -1.4840    -2.8590     0.8660 H     1 <1>   0.0800 
 36 H       -1.2690    -2.7810    -0.8530 H     1 <1>   0.0800 
 37 H        7.2880     2.1650     0.5680 H     1 <1>   0.0800 
 38 H        5.6680     2.7590     0.2230 H     1 <1>   0.0800 
 39 H        6.5290     1.7660    -0.9690 H     1 <1>   0.0800 
 40 H       -3.1320     0.3070    -1.4210 H     1 <1>   0.0800 
 41 H       -1.6810    -0.4700    -1.9930 H     1 <1>   0.0800 
 42 H       -2.1920    -0.8210     2.1380 H     1 <1>   0.0800 
 43 H       -3.4910     0.0560     1.3740 H     1 <1>   0.0800 
 44 H       -4.0850    -2.3130     1.8320 H     1 <1>   0.1500 
 45 H       -3.6070    -1.8890    -2.4140 H     1 <1>   0.1500 
 46 H       -1.7740     2.0210    -0.8440 H     1 <1>   0.0800 
 47 H       -0.3490     1.0280    -0.7270 H     1 <1>   0.0800 
 48 H       -0.6600     0.8700     1.5390 H     1 <1>   0.0800 
 49 H       -2.1040     1.8330     1.4100 H     1 <1>   0.0800 
 50 H       -6.0680    -3.6530     1.4530 H     1 <1>   0.1500 
 51 H       -5.5950    -3.2320    -2.7510 H     1 <1>   0.1500 
 52 H       -6.8400    -4.1240    -0.8310 H     1 <1>   0.1500 
@<TRIPOS>BOND
  1   1   2  1   
  2   1   3  1   
  3   2   4  ar  
  4   2   5  ar  
  5   3  25  1   
  6   3  26  1   
  7   3  27  1   
  8   4   6  ar  
  9   4   7  1   
 10   5   8  ar  
 11   5  28  1   
 12   6   9  ar  
 13   6  29  1   
 14   7  10  1   
 15   7  30  1   
 16   7  31  1   
 17   8   9  ar  
 18   8  11  1   
 19   9  32  1   
 20  10  12  1   
 21  10  33  1   
 22  10  34  1   
 23  11  13  1   
 24  12  14  1   
 25  12  35  1   
 26  12  36  1   
 27  13  37  1   
 28  13  38  1   
 29  13  39  1   
 30  14  15  1   
 31  14  16  1   
 32  14  17  1   
 33  15  18  ar  
 34  15  19  ar  
 35  16  20  1   
 36  16  40  1   
 37  16  41  1   
 38  17  21  1   
 39  17  42  1   
 40  17  43  1   
 41  18  22  ar  
 42  18  44  1   
 43  19  23  ar  
 44  19  45  1   
 45  20  21  1   
 46  20  46  1   
 47  20  47  1   
 48  21  48  1   
 49  21  49  1   
 50  22  24  ar  
 51  22  50  1   
 52  23  24  ar  
 53  23  51  1   
 54  24  52  1   
@<TRIPOS>SUBSTRUCTURE
  1 ****  10 GROUP 4 **** **** 0

# MOE 2024.06 (io_trps.svl 2023.06)
