@<TRIPOS>MOLECULE
NONAME
46 48 1 0 0 
SMALL
USER_CHARGES


@<TRIPOS>ATOM
  1 CL       0.0960     0.2550    -1.0100 Cl    1 <1>  -0.1770 
  2 C        1.5910     1.1200    -0.7480 C.ar  1 <1>   0.1770 
  3 C        2.4430     0.7120     0.2620 C.ar  1 <1>  -0.1500 
  4 C        1.9010     2.1990    -1.5550 C.ar  1 <1>  -0.1500 
  5 C        3.6270     1.3980     0.4670 C.ar  1 <1>  -0.1500 
  6 C        3.0870     2.8800    -1.3430 C.ar  1 <1>  -0.1500 
  7 C        3.9600     2.4890    -0.3340 C.ar  1 <1>   0.1000 
  8 N        5.1440     3.1920    -0.1460 N.pl3 1 <1>  -0.8380 
  9 C        6.3990     2.4900    -0.5260 C.3   1 <1>   0.2090 
 10 C        5.2410     4.0090     1.0950 C.3   1 <1>   0.2090 
 11 C        7.5610     3.5010    -0.6350 C.3   1 <1>   0.3430 
 12 C        6.4090     5.0120     0.9810 C.3   1 <1>   0.3430 
 13 N        7.7300     4.3540     0.6150 N.4   1 <1>  -0.9590 
 14 C        8.8520     5.3440     0.5750 C.3   1 <1>   0.4230 
 15 C        8.7580     6.3010    -0.6230 C.3   1 <1>  -0.1600 
 16 C       10.2030     4.6240     0.5710 C.3   1 <1>  -0.1600 
 17 C        9.9190     7.2970    -0.6080 C.3   1 <1>   0.3430 
 18 C       11.3530     5.6330     0.5770 C.3   1 <1>   0.3430 
 19 N       11.2210     6.5680    -0.5800 N.4   1 <1>  -0.9590 
 20 C       12.3590     7.5470    -0.5820 C.3   1 <1>   0.2630 
 21 H        2.1760    -0.1310     0.8740 H     1 <1>   0.1500 
 22 H        1.2220     2.4960    -2.3330 H     1 <1>   0.1500 
 23 H        4.2920     1.0860     1.2490 H     1 <1>   0.1500 
 24 H        3.3430     3.7210    -1.9610 H     1 <1>   0.1500 
 25 H        6.2570     2.0020    -1.4760 H     1 <1>   0.0800 
 26 H        6.6300     1.7330     0.2040 H     1 <1>   0.0800 
 27 H        5.3820     3.3660     1.9460 H     1 <1>   0.0800 
 28 H        4.3180     4.5470     1.2360 H     1 <1>   0.0800 
 29 H        7.3560     4.1350    -1.4810 H     1 <1>   0.0800 
 30 H        8.4680     2.9570    -0.8400 H     1 <1>   0.0800 
 31 H        6.5040     5.5360     1.9180 H     1 <1>   0.0800 
 32 H        6.1420     5.7320     0.2260 H     1 <1>   0.0800 
 33 H        7.9210     3.6920     1.3800 H     1 <1>   0.4500 
 34 H        8.8040     5.9380     1.4750 H     1 <1>   0.0800 
 35 H        7.8420     6.8610    -0.5810 H     1 <1>   0.0800 
 36 H        8.7830     5.7660    -1.5550 H     1 <1>   0.0800 
 37 H       10.3070     3.9920    -0.2920 H     1 <1>   0.0800 
 38 H       10.2900     4.0110     1.4510 H     1 <1>   0.0800 
 39 H        9.8410     7.9350     0.2590 H     1 <1>   0.0800 
 40 H        9.8680     7.9230    -1.4860 H     1 <1>   0.0800 
 41 H       12.2950     5.1080     0.5190 H     1 <1>   0.0800 
 42 H       11.3430     6.1930     1.4990 H     1 <1>   0.0800 
 43 H       11.3080     6.0210    -1.4530 H     1 <1>   0.4500 
 44 H       12.3350     8.1590     0.3060 H     1 <1>   0.0800 
 45 H       12.2980     8.1930    -1.4450 H     1 <1>   0.0800 
 46 H       13.3040     7.0280    -0.6150 H     1 <1>   0.0800 
@<TRIPOS>BOND
  1   1   2  1   
  2   2   3  ar  
  3   2   4  ar  
  4   3   5  ar  
  5   3  21  1   
  6   4   6  ar  
  7   4  22  1   
  8   5   7  ar  
  9   5  23  1   
 10   6   7  ar  
 11   6  24  1   
 12   7   8  1   
 13   8   9  1   
 14   8  10  1   
 15   9  11  1   
 16   9  25  1   
 17   9  26  1   
 18  10  12  1   
 19  10  27  1   
 20  10  28  1   
 21  11  13  1   
 22  11  29  1   
 23  11  30  1   
 24  12  13  1   
 25  12  31  1   
 26  12  32  1   
 27  13  14  1   
 28  13  33  1   
 29  14  15  1   
 30  14  16  1   
 31  14  34  1   
 32  15  17  1   
 33  15  35  1   
 34  15  36  1   
 35  16  18  1   
 36  16  37  1   
 37  16  38  1   
 38  17  19  1   
 39  17  39  1   
 40  17  40  1   
 41  18  19  1   
 42  18  41  1   
 43  18  42  1   
 44  19  20  1   
 45  19  43  1   
 46  20  44  1   
 47  20  45  1   
 48  20  46  1   
@<TRIPOS>SUBSTRUCTURE
  1 ****  11 GROUP 4 **** **** 0

# MOE 2024.06 (io_trps.svl 2023.06)
