@<TRIPOS>MOLECULE
NONAME
43 45 1 0 0 
SMALL
USER_CHARGES


@<TRIPOS>ATOM
  1 O       -1.6670    -0.0700     1.2700 O.3   1 <1>  -0.3630 
  2 C       -2.2440     0.7120     0.3130 C.ar  1 <1>   0.0830 
  3 C       -0.2900    -0.0250     1.5700 C.3   1 <1>   0.0400 
  4 C       -1.6640     1.7980    -0.3640 C.ar  1 <1>   0.0830 
  5 C       -3.5480     0.3580     0.0100 C.ar  1 <1>  -0.1500 
  6 O       -0.4050     2.2280    -0.1360 O.3   1 <1>  -0.5330 
  7 C       -2.4000     2.4890    -1.3140 C.ar  1 <1>  -0.1500 
  8 C       -4.2890     1.0570    -0.9310 C.ar  1 <1>  -0.1440 
  9 C       -3.7050     2.1240    -1.5970 C.ar  1 <1>  -0.1500 
 10 C       -5.7240     0.6560    -1.2120 C.3   1 <1>   0.4860 
 11 N       -6.5360     0.9630    -0.0060 N.4   1 <1>  -0.9590 
 12 C       -7.9190     0.3600    -0.0930 C.3   1 <1>   0.3430 
 13 C       -6.5850     2.4540     0.2570 C.3   1 <1>   0.3430 
 14 C       -8.8110     0.7320     1.1120 C.3   1 <1>   0.2090 
 15 C       -7.4740     2.8090     1.4650 C.3   1 <1>   0.2090 
 16 N       -8.8300     2.2120     1.2820 N.pl3 1 <1>  -0.8380 
 17 C       -9.8370     2.9340     0.6830 C.ar  1 <1>   0.7200 
 18 N      -11.0720     2.4780     0.8500 N.ar  1 <1>  -0.6200 
 19 N       -9.4700     3.9920    -0.0370 N.ar  1 <1>  -0.6200 
 20 C      -12.0270     3.1790     0.2880 C.ar  1 <1>   0.1600 
 21 C      -10.4470     4.6740    -0.5890 C.ar  1 <1>   0.1600 
 22 C      -11.7630     4.3060    -0.4520 C.ar  1 <1>  -0.1500 
 23 H       -0.0700    -0.8160     2.2640 H     1 <1>   0.0800 
 24 H       -0.0610     0.9260     2.0180 H     1 <1>   0.0800 
 25 H        0.2720    -0.1670     0.6640 H     1 <1>   0.0800 
 26 H       -3.9640    -0.4860     0.5310 H     1 <1>   0.1500 
 27 H       -0.1430     2.9780    -0.7000 H     1 <1>   0.4500 
 28 H       -1.9590     3.3170    -1.8410 H     1 <1>   0.1500 
 29 H       -4.2510     2.6790    -2.3420 H     1 <1>   0.1500 
 30 H       -5.7590    -0.4000    -1.4270 H     1 <1>   0.0800 
 31 H       -6.1020     1.1950    -2.0650 H     1 <1>   0.0800 
 32 H       -6.0460     0.5430     0.7940 H     1 <1>   0.4500 
 33 H       -7.8500    -0.7130    -0.1600 H     1 <1>   0.0800 
 34 H       -8.4100     0.7160    -0.9840 H     1 <1>   0.0800 
 35 H       -6.9860     2.9620    -0.6050 H     1 <1>   0.0800 
 36 H       -5.5900     2.8310     0.4300 H     1 <1>   0.0800 
 37 H       -8.4340     0.2730     2.0090 H     1 <1>   0.0800 
 38 H       -9.8050     0.3510     0.9490 H     1 <1>   0.0800 
 39 H       -7.5450     3.8800     1.5660 H     1 <1>   0.0800 
 40 H       -7.0350     2.4310     2.3710 H     1 <1>   0.0800 
 41 H      -13.0440     2.8480     0.4210 H     1 <1>   0.1500 
 42 H      -10.1950     5.5490    -1.1640 H     1 <1>   0.1500 
 43 H      -12.5550     4.8740    -0.9040 H     1 <1>   0.1500 
@<TRIPOS>BOND
  1   1   2  1   
  2   1   3  1   
  3   2   4  ar  
  4   2   5  ar  
  5   3  23  1   
  6   3  24  1   
  7   3  25  1   
  8   4   6  1   
  9   4   7  ar  
 10   5   8  ar  
 11   5  26  1   
 12   6  27  1   
 13   7   9  ar  
 14   7  28  1   
 15   8   9  ar  
 16   8  10  1   
 17   9  29  1   
 18  10  11  1   
 19  10  30  1   
 20  10  31  1   
 21  11  12  1   
 22  11  13  1   
 23  11  32  1   
 24  12  14  1   
 25  12  33  1   
 26  12  34  1   
 27  13  15  1   
 28  13  35  1   
 29  13  36  1   
 30  14  16  1   
 31  14  37  1   
 32  14  38  1   
 33  15  16  1   
 34  15  39  1   
 35  15  40  1   
 36  16  17  1   
 37  17  18  ar  
 38  17  19  ar  
 39  18  20  ar  
 40  19  21  ar  
 41  20  22  ar  
 42  20  41  1   
 43  21  22  ar  
 44  21  42  1   
 45  22  43  1   
@<TRIPOS>SUBSTRUCTURE
  1 ****  13 GROUP 4 **** **** 0

# MOE 2024.06 (io_trps.svl 2023.06)
