@<TRIPOS>MOLECULE
NONAME
43 46 1 0 0 
SMALL
USER_CHARGES


@<TRIPOS>ATOM
  1 S        0.9820    -0.8600    -1.7750 S.3   1 <1>  -0.0800 
  2 C        1.3790    -1.1620    -0.0790 C.2   1 <1>   0.0410 
  3 C       -0.5880    -1.6250    -1.6200 C.2   1 <1>  -0.1100 
  4 C        2.6500    -0.7270     0.4460 C.2   1 <1>   0.5150 
  5 C        0.3350    -1.8070     0.5010 C.2   1 <1>  -0.1500 
  6 C       -0.7710    -2.0680    -0.3630 C.2   1 <1>  -0.1500 
  7 N        3.0360    -0.8880     1.6620 N.2   1 <1>  -0.4100 
  8 N        3.5730    -0.1000    -0.2890 N.2   1 <1>  -0.5650 
  9 O        4.2230    -0.3780     1.7710 O.3   1 <1>  -0.0190 
 10 C        4.4880     0.0740     0.5730 C.2   1 <1>   0.2980 
 11 C        5.8210     0.7560     0.3330 C.3   1 <1>   0.2500 
 12 S        7.1920    -0.4590     0.5920 S.3   1 <1>  -0.2860 
 13 C        8.6470     0.5570     0.3290 C.2   1 <1>   0.2430 
 14 N        8.5910     1.8110     0.0590 N.2   1 <1>  -0.3380 
 15 N        9.8870     0.0770     0.4000 N.pl3 1 <1>   0.0480 
 16 N        9.8600     2.2090    -0.0590 N.2   1 <1>  -0.3380 
 17 C       10.6160     1.1770     0.1470 C.2   1 <1>   0.0060 
 18 C       10.3110    -1.3090     0.6920 C.3   1 <1>   0.0160 
 19 C       12.1440     1.1910     0.1040 C.3   1 <1>   0.1000 
 20 C       12.7230     2.5540     0.5250 C.3   1 <1>  -0.1600 
 21 C       12.6390     0.8130    -1.3020 C.3   1 <1>  -0.1600 
 22 C       14.2570     2.5620     0.4550 C.3   1 <1>  -0.1600 
 23 C       14.1730     0.8190    -1.3840 C.3   1 <1>  -0.1600 
 24 C       14.7460     2.1730    -0.9460 C.3   1 <1>  -0.1600 
 25 H       -1.2120    -1.6620    -2.4950 H     1 <1>   0.1500 
 26 H        0.3130    -2.1110     1.5330 H     1 <1>   0.1500 
 27 H       -1.6500    -2.5740    -0.0020 H     1 <1>   0.1500 
 28 H        5.9710     1.5660     1.0220 H     1 <1>   0.0800 
 29 H        5.8970     1.1120    -0.6790 H     1 <1>   0.0800 
 30 H       10.3760    -1.4420     1.7560 H     1 <1>   0.0800 
 31 H       11.2680    -1.5020     0.2450 H     1 <1>   0.0800 
 32 H        9.5920    -1.9980     0.2890 H     1 <1>   0.0800 
 33 H       12.5110     0.4610     0.8040 H     1 <1>   0.0800 
 34 H       12.4040     2.7860     1.5260 H     1 <1>   0.0800 
 35 H       12.3390     3.3220    -0.1260 H     1 <1>   0.0800 
 36 H       12.2430     1.5200    -2.0110 H     1 <1>   0.0800 
 37 H       12.2700    -0.1600    -1.5710 H     1 <1>   0.0800 
 38 H       14.6540     1.8700     1.1790 H     1 <1>   0.0800 
 39 H       14.6220     3.5440     0.7040 H     1 <1>   0.0800 
 40 H       14.4800     0.6100    -2.3940 H     1 <1>   0.0800 
 41 H       14.5700     0.0430    -0.7520 H     1 <1>   0.0800 
 42 H       15.8220     2.1300    -0.9540 H     1 <1>   0.0800 
 43 H       14.4430     2.9300    -1.6490 H     1 <1>   0.0800 
@<TRIPOS>BOND
  1   1   2  1   
  2   1   3  1   
  3   2   4  1   
  4   2   5  2   
  5   3   6  2   
  6   3  25  1   
  7   4   7  2   
  8   4   8  1   
  9   5   6  1   
 10   5  26  1   
 11   6  27  1   
 12   7   9  1   
 13   8  10  2   
 14   9  10  1   
 15  10  11  1   
 16  11  12  1   
 17  11  28  1   
 18  11  29  1   
 19  12  13  1   
 20  13  14  2   
 21  13  15  1   
 22  14  16  1   
 23  15  17  1   
 24  15  18  1   
 25  16  17  2   
 26  17  19  1   
 27  18  30  1   
 28  18  31  1   
 29  18  32  1   
 30  19  20  1   
 31  19  21  1   
 32  19  33  1   
 33  20  22  1   
 34  20  34  1   
 35  20  35  1   
 36  21  23  1   
 37  21  36  1   
 38  21  37  1   
 39  22  24  1   
 40  22  38  1   
 41  22  39  1   
 42  23  24  1   
 43  23  40  1   
 44  23  41  1   
 45  24  42  1   
 46  24  43  1   
@<TRIPOS>SUBSTRUCTURE
  1 ****  12 GROUP 4 **** **** 0

# MOE 2024.06 (io_trps.svl 2023.06)
