@<TRIPOS>MOLECULE
NONAME
39 39 1 0 0 
SMALL
USER_CHARGES


@<TRIPOS>ATOM
  1 O        1.2940    -1.8040     1.6080 O.2   1 <1>  -0.5700 
  2 C        0.4180    -1.6490     0.7890 C.2   1 <1>   0.5690 
  3 N        0.6370    -0.9030    -0.3290 N.am  1 <1>  -0.7300 
  4 C       -0.9390    -2.3140     1.0050 C.3   1 <1>   0.1810 
  5 C        1.7680     0.0340    -0.5950 C.3   1 <1>   0.1400 
  6 O       -1.7500    -2.1930    -0.1560 O.3   1 <1>  -0.3620 
  7 C        3.0700    -0.6950    -0.9900 C.3   1 <1>   0.3430 
  8 C       -3.0090    -2.7050    -0.1830 C.ar  1 <1>   0.0830 
  9 N        3.6150    -1.5160     0.1360 N.4   1 <1>  -0.9590 
 10 C       -3.7240    -2.5390    -1.3590 C.ar  1 <1>  -0.1500 
 11 C       -3.6010    -3.3710     0.8880 C.ar  1 <1>  -0.1500 
 12 C        4.3900    -0.7050     1.1220 C.3   1 <1>   0.2630 
 13 C        4.3950    -2.6920    -0.3450 C.3   1 <1>   0.2630 
 14 C       -5.0130    -3.0290    -1.4700 C.ar  1 <1>  -0.1500 
 15 C       -4.8920    -3.8610     0.7760 C.ar  1 <1>  -0.1500 
 16 C       -5.6060    -3.6910    -0.4080 C.ar  1 <1>   0.0830 
 17 O       -6.8730    -4.1400    -0.6010 O.3   1 <1>  -0.3620 
 18 C       -7.5670    -4.8300     0.4160 C.3   1 <1>   0.0400 
 19 H       -0.1660    -0.8350    -0.9710 H     1 <1>   0.3700 
 20 H       -1.4430    -1.8360     1.8250 H     1 <1>   0.0800 
 21 H       -0.7990    -3.3590     1.2150 H     1 <1>   0.0800 
 22 H        1.9400     0.6440     0.2750 H     1 <1>   0.0800 
 23 H        1.4820     0.6900    -1.3990 H     1 <1>   0.0800 
 24 H        3.8080     0.0260    -1.3000 H     1 <1>   0.0800 
 25 H        2.8540    -1.3300    -1.8330 H     1 <1>   0.0800 
 26 H        2.7760    -1.8660     0.6530 H     1 <1>   0.4500 
 27 H       -3.2710    -2.0260    -2.1880 H     1 <1>   0.1500 
 28 H       -3.0820    -3.5200     1.8150 H     1 <1>   0.1500 
 29 H        5.2600    -0.2740     0.6550 H     1 <1>   0.0800 
 30 H        4.7070    -1.3260     1.9430 H     1 <1>   0.0800 
 31 H        3.7750     0.0870     1.5170 H     1 <1>   0.0800 
 32 H        5.2690    -2.3690    -0.8850 H     1 <1>   0.0800 
 33 H        3.7880    -3.3000    -0.9970 H     1 <1>   0.0800 
 34 H        4.7080    -3.2970     0.4910 H     1 <1>   0.0800 
 35 H       -5.5680    -2.9010    -2.3820 H     1 <1>   0.1500 
 36 H       -5.3250    -4.3700     1.6150 H     1 <1>   0.1500 
 37 H       -8.5410    -5.0860     0.0400 H     1 <1>   0.0800 
 38 H       -7.6640    -4.1850     1.2720 H     1 <1>   0.0800 
 39 H       -7.0250    -5.7250     0.6640 H     1 <1>   0.0800 
@<TRIPOS>BOND
  1   1   2  2   
  2   2   3  am  
  3   2   4  1   
  4   3   5  1   
  5   3  19  1   
  6   4   6  1   
  7   4  20  1   
  8   4  21  1   
  9   5   7  1   
 10   5  22  1   
 11   5  23  1   
 12   6   8  1   
 13   7   9  1   
 14   7  24  1   
 15   7  25  1   
 16   8  10  ar  
 17   8  11  ar  
 18   9  12  1   
 19   9  13  1   
 20   9  26  1   
 21  10  14  ar  
 22  10  27  1   
 23  11  15  ar  
 24  11  28  1   
 25  12  29  1   
 26  12  30  1   
 27  12  31  1   
 28  13  32  1   
 29  13  33  1   
 30  13  34  1   
 31  14  16  ar  
 32  14  35  1   
 33  15  16  ar  
 34  15  36  1   
 35  16  17  1   
 36  17  18  1   
 37  18  37  1   
 38  18  38  1   
 39  18  39  1   
@<TRIPOS>SUBSTRUCTURE
  1 ****   6 GROUP 4 **** **** 0

# MOE 2024.06 (io_trps.svl 2023.06)
