@<TRIPOS>MOLECULE
NONAME
49 50 1 0 0 
SMALL
USER_CHARGES


@<TRIPOS>ATOM
  1 O        6.2920    -5.4070    -0.0430 O.3   1 <1>  -0.3630 
  2 C        7.6350    -5.2650    -0.2110 C.ar  1 <1>   0.0830 
  3 C        5.6370    -6.6520    -0.0900 C.3   1 <1>   0.1200 
  4 C        8.2070    -3.9840    -0.1210 C.ar  1 <1>  -0.1440 
  5 C        8.4350    -6.3780    -0.4700 C.ar  1 <1>  -0.1500 
  6 C        4.1480    -6.4110     0.1530 C.3   1 <1>  -0.1600 
  7 C        9.5880    -3.8890    -0.3020 C.ar  1 <1>  -0.1500 
  8 C        7.3580    -2.7090     0.1680 C.3   1 <1>   0.1430 
  9 C        9.7970    -6.2460    -0.6440 C.ar  1 <1>  -0.1500 
 10 C        3.3640    -7.7240     0.0670 C.3   1 <1>   0.1100 
 11 C       10.3730    -4.9970    -0.5590 C.ar  1 <1>  -0.1500 
 12 C        6.6590    -2.8200     1.5350 C.3   1 <1>  -0.2400 
 13 C        8.1990    -1.4170     0.2260 C.3   1 <1>  -0.2400 
 14 C        6.3170    -2.4870    -0.9420 C.3   1 <1>  -0.2400 
 15 N        1.9650    -7.5300     0.4880 N.3   1 <1>  -0.8100 
 16 C        1.1610    -6.7920    -0.5120 C.3   1 <1>   0.1100 
 17 C        1.3370    -8.8170     0.8490 C.3   1 <1>   0.1100 
 18 C       -0.2790    -6.5620    -0.0110 C.3   1 <1>   0.3430 
 19 C       -0.0990    -8.6110     1.3720 C.3   1 <1>   0.3430 
 20 N       -0.9390    -7.8500     0.3890 N.4   1 <1>  -0.9060 
 21 H        6.0540    -7.2820     0.6770 H     1 <1>   0.0800 
 22 H        5.8020    -7.0820    -1.0630 H     1 <1>   0.0800 
 23 H        8.0210    -7.3640    -0.5430 H     1 <1>   0.1500 
 24 H        3.7960    -5.7170    -0.5860 H     1 <1>   0.0800 
 25 H        4.0230    -5.9860     1.1340 H     1 <1>   0.0800 
 26 H       10.1040    -2.9500    -0.2500 H     1 <1>   0.1500 
 27 H       10.4060    -7.1100    -0.8430 H     1 <1>   0.1500 
 28 H        3.8340    -8.4340     0.7270 H     1 <1>   0.0800 
 29 H        3.4040    -8.1210    -0.9350 H     1 <1>   0.0800 
 30 H       11.4350    -4.8850    -0.6930 H     1 <1>   0.1500 
 31 H        5.9310    -3.6070     1.5460 H     1 <1>   0.0800 
 32 H        6.1490    -1.9050     1.7780 H     1 <1>   0.0800 
 33 H        7.3850    -3.0240     2.3010 H     1 <1>   0.0800 
 34 H        8.9340    -1.4780     1.0090 H     1 <1>   0.0800 
 35 H        7.5750    -0.5650     0.4280 H     1 <1>   0.0800 
 36 H        8.6940    -1.2450    -0.7120 H     1 <1>   0.0800 
 37 H        6.8050    -2.4550    -1.8990 H     1 <1>   0.0800 
 38 H        5.7910    -1.5610    -0.7930 H     1 <1>   0.0800 
 39 H        5.5870    -3.2720    -0.9650 H     1 <1>   0.0800 
 40 H        1.1440    -7.3310    -1.4440 H     1 <1>   0.0800 
 41 H        1.6060    -5.8300    -0.6960 H     1 <1>   0.0800 
 42 H        1.9180    -9.2880     1.6240 H     1 <1>   0.0800 
 43 H        1.3270    -9.4760    -0.0030 H     1 <1>   0.0800 
 44 H       -0.8530    -6.0760    -0.7840 H     1 <1>   0.0800 
 45 H       -0.2360    -5.8990     0.8370 H     1 <1>   0.0800 
 46 H       -0.0430    -8.0660     2.3000 H     1 <1>   0.0800 
 47 H       -0.5460    -9.5710     1.5770 H     1 <1>   0.0800 
 48 H       -1.0760    -8.4270    -0.4480 H     1 <1>   0.4500 
 49 H       -1.8640    -7.6590     0.7930 H     1 <1>   0.4500 
@<TRIPOS>BOND
  1   1   2  1   
  2   1   3  1   
  3   2   4  ar  
  4   2   5  ar  
  5   3   6  1   
  6   3  21  1   
  7   3  22  1   
  8   4   7  ar  
  9   4   8  1   
 10   5   9  ar  
 11   5  23  1   
 12   6  10  1   
 13   6  24  1   
 14   6  25  1   
 15   7  11  ar  
 16   7  26  1   
 17   8  12  1   
 18   8  13  1   
 19   8  14  1   
 20   9  11  ar  
 21   9  27  1   
 22  10  15  1   
 23  10  28  1   
 24  10  29  1   
 25  11  30  1   
 26  12  31  1   
 27  12  32  1   
 28  12  33  1   
 29  13  34  1   
 30  13  35  1   
 31  13  36  1   
 32  14  37  1   
 33  14  38  1   
 34  14  39  1   
 35  15  16  1   
 36  15  17  1   
 37  16  18  1   
 38  16  40  1   
 39  16  41  1   
 40  17  19  1   
 41  17  42  1   
 42  17  43  1   
 43  18  20  1   
 44  18  44  1   
 45  18  45  1   
 46  19  20  1   
 47  19  46  1   
 48  19  47  1   
 49  20  48  1   
 50  20  49  1   
@<TRIPOS>SUBSTRUCTURE
  1 ****   1 GROUP 4 **** **** 0

# MOE 2024.06 (io_trps.svl 2023.06)
