@<TRIPOS>MOLECULE
NONAME
37 37 1 0 0 
SMALL
USER_CHARGES


@<TRIPOS>ATOM
  1 CL       0.3900     0.6920    -0.5680 Cl    1 <1>  -0.1770 
  2 C        2.0490     1.2280    -0.4740 C.ar  1 <1>   0.1770 
  3 C        2.3240     2.5820    -0.4510 C.ar  1 <1>  -0.1500 
  4 C        3.0630     0.2880    -0.4240 C.ar  1 <1>  -0.1500 
  5 C        3.6420     3.0010    -0.3770 C.ar  1 <1>  -0.1500 
  6 C        4.3800     0.7100    -0.3500 C.ar  1 <1>  -0.1500 
  7 C        4.6730     2.0740    -0.3260 C.ar  1 <1>   0.0830 
  8 O        5.9330     2.5730    -0.2540 O.3   1 <1>  -0.3630 
  9 C        7.0560     1.7310    -0.1980 C.3   1 <1>   0.1200 
 10 C        8.2880     2.6330    -0.1260 C.3   1 <1>  -0.1600 
 11 C        9.5660     1.8080    -0.0610 C.3   1 <1>   0.3430 
 12 N       10.7280     2.7320     0.0070 N.4   1 <1>  -0.9060 
 13 C       12.0590     2.1240     0.0760 C.3   1 <1>   0.5030 
 14 C       13.0530     3.2780     0.1370 C.3   1 <1>  -0.2400 
 15 C       12.1730     1.2720     1.3390 C.3   1 <1>  -0.2400 
 16 C       12.3100     1.2870    -1.1780 C.3   1 <1>  -0.2400 
 17 H        1.5190     3.2930    -0.4910 H     1 <1>   0.1500 
 18 H        2.8170    -0.7580    -0.4430 H     1 <1>   0.1500 
 19 H        3.8750     4.0510    -0.3580 H     1 <1>   0.1500 
 20 H        5.1520    -0.0340    -0.3120 H     1 <1>   0.1500 
 21 H        7.0650     1.1240    -1.0880 H     1 <1>   0.0800 
 22 H        6.9690     1.1130     0.6800 H     1 <1>   0.0800 
 23 H        8.2060     3.2480     0.7540 H     1 <1>   0.0800 
 24 H        8.3010     3.2580    -1.0020 H     1 <1>   0.0800 
 25 H        9.6390     1.1840    -0.9380 H     1 <1>   0.0800 
 26 H        9.5440     1.1740     0.8110 H     1 <1>   0.0800 
 27 H       10.6270     3.3390     0.8270 H     1 <1>   0.4500 
 28 H       10.7160     3.3490    -0.8110 H     1 <1>   0.4500 
 29 H       12.8940     3.8860     1.0110 H     1 <1>   0.0800 
 30 H       12.9890     3.8960    -0.7410 H     1 <1>   0.0800 
 31 H       14.0570     2.8930     0.1890 H     1 <1>   0.0800 
 32 H       11.9490     1.8490     2.2190 H     1 <1>   0.0800 
 33 H       13.1810     0.9060     1.4380 H     1 <1>   0.0800 
 34 H       11.5270     0.4140     1.3000 H     1 <1>   0.0800 
 35 H       12.1810     1.8750    -2.0690 H     1 <1>   0.0800 
 36 H       11.6640     0.4290    -1.2190 H     1 <1>   0.0800 
 37 H       13.3220     0.9220    -1.1710 H     1 <1>   0.0800 
@<TRIPOS>BOND
  1   1   2  1   
  2   2   3  ar  
  3   2   4  ar  
  4   3   5  ar  
  5   3  17  1   
  6   4   6  ar  
  7   4  18  1   
  8   5   7  ar  
  9   5  19  1   
 10   6   7  ar  
 11   6  20  1   
 12   7   8  1   
 13   8   9  1   
 14   9  10  1   
 15   9  21  1   
 16   9  22  1   
 17  10  11  1   
 18  10  23  1   
 19  10  24  1   
 20  11  12  1   
 21  11  25  1   
 22  11  26  1   
 23  12  13  1   
 24  12  27  1   
 25  12  28  1   
 26  13  14  1   
 27  13  15  1   
 28  13  16  1   
 29  14  29  1   
 30  14  30  1   
 31  14  31  1   
 32  15  32  1   
 33  15  33  1   
 34  15  34  1   
 35  16  35  1   
 36  16  36  1   
 37  16  37  1   
@<TRIPOS>SUBSTRUCTURE
  1 ****   9 GROUP 4 **** **** 0

# MOE 2024.06 (io_trps.svl 2023.06)
