@<TRIPOS>MOLECULE
NONAME
37 38 1 0 0 
SMALL
USER_CHARGES


@<TRIPOS>ATOM
  1 CL      -3.2470     1.1100     4.0330 Cl    1 <1>  -0.1770 
  2 C       -3.1570     1.3540     2.3060 C.ar  1 <1>   0.1770 
  3 C       -2.1410     2.1100     1.7440 C.ar  1 <1>   0.1770 
  4 C       -4.1260     0.7770     1.5050 C.ar  1 <1>  -0.1500 
  5 CL      -0.9120     2.8470     2.7440 Cl    1 <1>  -0.1770 
  6 C       -2.0890     2.2940     0.3750 C.ar  1 <1>  -0.1500 
  7 C       -4.0850     0.9610     0.1270 C.ar  1 <1>  -0.1440 
  8 C       -3.0600     1.7190    -0.4310 C.ar  1 <1>  -0.1500 
  9 C       -5.1500     0.3410    -0.7630 C.3   1 <1>   0.4870 
 10 N       -6.4360     1.0520    -0.5500 N.4   1 <1>  -0.9590 
 11 C       -7.6080     0.4170    -1.2370 C.3   1 <1>   0.3430 
 12 C       -6.3880     2.5250    -0.8380 C.3   1 <1>   0.3430 
 13 C       -8.9300     1.1260    -0.8490 C.3   1 <1>   0.1100 
 14 C       -7.7270     3.2070    -0.4640 C.3   1 <1>   0.1100 
 15 N       -8.7150     2.2520     0.0990 N.3   1 <1>  -0.8100 
 16 C       -9.9780     2.9480     0.4320 C.3   1 <1>   0.1100 
 17 C      -10.8650     2.1110     1.3630 C.3   1 <1>   0.1200 
 18 O      -12.0110     2.8290     1.6610 O.3   1 <1>  -0.6800 
 19 H       -4.8960     0.1900     1.9750 H     1 <1>   0.1500 
 20 H       -1.2910     2.8800    -0.0500 H     1 <1>   0.1500 
 21 H       -2.9990     1.8680    -1.4980 H     1 <1>   0.1500 
 22 H       -5.2590    -0.7020    -0.5110 H     1 <1>   0.0800 
 23 H       -4.8530     0.4120    -1.7960 H     1 <1>   0.0800 
 24 H       -6.6820     1.0190     0.4500 H     1 <1>   0.4500 
 25 H       -7.6790    -0.6220    -0.9610 H     1 <1>   0.0800 
 26 H       -7.4820     0.4660    -2.3060 H     1 <1>   0.0800 
 27 H       -6.1830     2.6930    -1.8820 H     1 <1>   0.0800 
 28 H       -5.5960     2.9850    -0.2700 H     1 <1>   0.0800 
 29 H       -9.5860     0.3970    -0.4040 H     1 <1>   0.0800 
 30 H       -9.4120     1.4860    -1.7430 H     1 <1>   0.0800 
 31 H       -8.1360     3.6840    -1.3390 H     1 <1>   0.0800 
 32 H       -7.5280     3.9800     0.2590 H     1 <1>   0.0800 
 33 H      -10.5210     3.1820    -0.4690 H     1 <1>   0.0800 
 34 H       -9.7470     3.8700     0.9390 H     1 <1>   0.0800 
 35 H      -10.3560     1.8850     2.2840 H     1 <1>   0.0800 
 36 H      -11.1770     1.2010     0.8840 H     1 <1>   0.0800 
 37 H      -11.8180     3.5670     2.2720 H     1 <1>   0.4000 
@<TRIPOS>BOND
  1   1   2  1   
  2   2   3  ar  
  3   2   4  ar  
  4   3   5  1   
  5   3   6  ar  
  6   4   7  ar  
  7   4  19  1   
  8   6   8  ar  
  9   6  20  1   
 10   7   8  ar  
 11   7   9  1   
 12   8  21  1   
 13   9  10  1   
 14   9  22  1   
 15   9  23  1   
 16  10  11  1   
 17  10  12  1   
 18  10  24  1   
 19  11  13  1   
 20  11  25  1   
 21  11  26  1   
 22  12  14  1   
 23  12  27  1   
 24  12  28  1   
 25  13  15  1   
 26  13  29  1   
 27  13  30  1   
 28  14  15  1   
 29  14  31  1   
 30  14  32  1   
 31  15  16  1   
 32  16  17  1   
 33  16  33  1   
 34  16  34  1   
 35  17  18  1   
 36  17  35  1   
 37  17  36  1   
 38  18  37  1   
@<TRIPOS>SUBSTRUCTURE
  1 ****  10 GROUP 4 **** **** 0

# MOE 2024.06 (io_trps.svl 2023.06)
