@<TRIPOS>MOLECULE
NONAME
41 42 1 0 0 
SMALL
USER_CHARGES


@<TRIPOS>ATOM
  1 CL       0.0630    -0.3130     0.2100 Cl    1 <1>  -0.1770 
  2 C       -1.4990     0.4700     0.1870 C.ar  1 <1>   0.1770 
  3 C       -1.6540     1.7830     0.6050 C.ar  1 <1>  -0.0090 
  4 C       -2.5670    -0.2830    -0.2680 C.ar  1 <1>  -0.1500 
  5 S       -0.2530     2.7620     1.1900 S.o2  1 <1>   1.4470 
  6 C       -2.9350     2.3240     0.5560 C.ar  1 <1>  -0.1500 
  7 C       -3.8360     0.2660    -0.3140 C.ar  1 <1>  -0.1430 
  8 O        0.4700     2.0690     2.2310 O.2   1 <1>  -0.6500 
  9 O       -0.6950     4.1170     1.4270 O.2   1 <1>  -0.6500 
 10 N        0.7340     2.9380    -0.1520 N.am  1 <1>  -0.9140 
 11 C       -4.0240     1.5810     0.1020 C.ar  1 <1>   0.0830 
 12 C       -5.0030    -0.5720    -0.8160 C.3   1 <1>  -0.0970 
 13 C        2.1220     3.1620     0.1830 C.3   1 <1>   0.2760 
 14 O       -5.2860     2.0810     0.0430 O.3   1 <1>  -0.3630 
 15 C        2.8080     3.9250    -0.9400 C.3   1 <1>  -0.1600 
 16 C        2.9030     1.8540     0.2580 C.3   1 <1>  -0.1600 
 17 C       -5.6090     3.3800     0.5300 C.3   1 <1>   0.1810 
 18 C        4.2910     3.5910    -0.7850 C.3   1 <1>  -0.1600 
 19 C        4.3430     2.2030    -0.1370 C.3   1 <1>  -0.1600 
 20 C       -7.1000     3.6760     0.3900 C.2   1 <1>   0.5690 
 21 O       -7.5340     4.7220     0.7990 O.2   1 <1>  -0.5700 
 22 N       -7.9310     2.7850    -0.1880 N.am  1 <1>  -0.8000 
 23 H       -2.3920    -1.2970    -0.5810 H     1 <1>   0.1500 
 24 H       -3.0640     3.3410     0.8790 H     1 <1>   0.1500 
 25 H        0.4040     3.8130    -0.5500 H     1 <1>   0.4200 
 26 H       -4.6830    -1.5610    -1.0900 H     1 <1>   0.0800 
 27 H       -5.4450    -0.1040    -1.6780 H     1 <1>   0.0800 
 28 H       -5.7500    -0.6560    -0.0460 H     1 <1>   0.0800 
 29 H        2.2270     3.7160     1.1040 H     1 <1>   0.0800 
 30 H        2.6320     4.9840    -0.8730 H     1 <1>   0.0800 
 31 H        2.4680     3.5550    -1.8930 H     1 <1>   0.0800 
 32 H        2.5060     1.1550    -0.4580 H     1 <1>   0.0800 
 33 H        2.8580     1.4220     1.2420 H     1 <1>   0.0800 
 34 H       -5.0530     4.1040    -0.0350 H     1 <1>   0.0800 
 35 H       -5.3360     3.4320     1.5680 H     1 <1>   0.0800 
 36 H        4.7550     4.3080    -0.1280 H     1 <1>   0.0800 
 37 H        4.8000     3.6080    -1.7330 H     1 <1>   0.0800 
 38 H        4.7270     1.4710    -0.8270 H     1 <1>   0.0800 
 39 H        4.9770     2.2260     0.7330 H     1 <1>   0.0800 
 40 H       -8.9270     2.9890    -0.2780 H     1 <1>   0.3700 
 41 H       -7.5960     1.8870    -0.5410 H     1 <1>   0.3700 
@<TRIPOS>BOND
  1   1   2  1   
  2   2   3  ar  
  3   2   4  ar  
  4   3   5  1   
  5   3   6  ar  
  6   4   7  ar  
  7   4  23  1   
  8   5   8  2   
  9   5   9  2   
 10   5  10  am  
 11   6  11  ar  
 12   6  24  1   
 13   7  11  ar  
 14   7  12  1   
 15  10  13  1   
 16  10  25  1   
 17  11  14  1   
 18  12  26  1   
 19  12  27  1   
 20  12  28  1   
 21  13  15  1   
 22  13  16  1   
 23  13  29  1   
 24  14  17  1   
 25  15  18  1   
 26  15  30  1   
 27  15  31  1   
 28  16  19  1   
 29  16  32  1   
 30  16  33  1   
 31  17  20  1   
 32  17  34  1   
 33  17  35  1   
 34  18  19  1   
 35  18  36  1   
 36  18  37  1   
 37  19  38  1   
 38  19  39  1   
 39  20  21  2   
 40  20  22  am  
 41  22  40  1   
 42  22  41  1   
@<TRIPOS>SUBSTRUCTURE
  1 ****   3 GROUP 4 **** **** 0

# MOE 2024.06 (io_trps.svl 2023.06)
