@<TRIPOS>MOLECULE
NONAME
51 52 1 0 0 
SMALL
USER_CHARGES


@<TRIPOS>ATOM
  1 S        0.6140    -0.7470    -0.6040 S.o2  1 <1>   1.4470 
  2 O       -0.1940    -1.8270    -1.1180 O.2   1 <1>  -0.6500 
  3 O        1.8380    -1.0840     0.0910 O.2   1 <1>  -0.6500 
  4 N        1.0860     0.0020    -2.0290 N.am  1 <1>  -0.9140 
  5 C       -0.3250     0.5490     0.2970 C.ar  1 <1>  -0.0090 
  6 C        2.1550    -0.7190    -2.7570 C.3   1 <1>   0.2570 
  7 C       -1.6790     0.3960     0.6370 C.ar  1 <1>  -0.1430 
  8 C        0.3020     1.7470     0.6750 C.ar  1 <1>  -0.1430 
  9 C        3.5810    -0.1910    -2.5260 C.2   1 <1>   0.5690 
 10 C       -2.3640     1.4060     1.2960 C.ar  1 <1>  -0.1500 
 11 C       -2.4830    -0.8620     0.3240 C.3   1 <1>  -0.0960 
 12 C       -0.4030     2.7420     1.3340 C.ar  1 <1>  -0.1500 
 13 C        1.7780     2.0330     0.4020 C.3   1 <1>  -0.0960 
 14 O        4.2250     0.1310    -3.4960 O.2   1 <1>  -0.5700 
 15 N        4.0610    -0.1230    -1.2460 N.am  1 <1>  -0.5470 
 16 C       -1.7360     2.5810     1.6470 C.ar  1 <1>  -0.1430 
 17 C        5.2510     0.3740    -0.6900 C.ar  1 <1>   0.1170 
 18 C       -2.4980     3.6800     2.3660 C.3   1 <1>  -0.0970 
 19 C        5.4580     0.1950     0.6700 C.ar  1 <1>  -0.1500 
 20 C        6.2250     1.0440    -1.4200 C.ar  1 <1>  -0.1500 
 21 C        6.5970     0.6640     1.3020 C.ar  1 <1>   0.0830 
 22 C        7.3660     1.5290    -0.8060 C.ar  1 <1>  -0.1500 
 23 O        6.6680     0.4060     2.6380 O.3   1 <1>  -0.3620 
 24 C        7.5660     1.3590     0.5610 C.ar  1 <1>   0.0830 
 25 C        7.9010     0.0700     3.2340 C.3   1 <1>   0.0400 
 26 O        8.6690     1.8690     1.1880 O.3   1 <1>  -0.3630 
 27 C        9.4730     2.8500     0.5710 C.3   1 <1>   0.0400 
 28 H        0.2460    -0.0690    -2.6010 H     1 <1>   0.4200 
 29 H        1.9600    -0.6260    -3.8110 H     1 <1>   0.0800 
 30 H        2.1300    -1.7700    -2.5230 H     1 <1>   0.0800 
 31 H       -3.4030     1.2810     1.5440 H     1 <1>   0.1500 
 32 H       -2.5980    -0.9790    -0.7390 H     1 <1>   0.0800 
 33 H       -3.4660    -0.8180     0.7560 H     1 <1>   0.0800 
 34 H       -1.9940    -1.7310     0.7270 H     1 <1>   0.0800 
 35 H        0.0880     3.6580     1.6130 H     1 <1>   0.1500 
 36 H        1.9770     2.0520    -0.6540 H     1 <1>   0.0800 
 37 H        2.4000     1.2930     0.8710 H     1 <1>   0.0800 
 38 H        2.0690     2.9890     0.7990 H     1 <1>   0.0800 
 39 H        3.4040    -0.4950    -0.5460 H     1 <1>   0.3700 
 40 H       -3.2860     3.2620     2.9670 H     1 <1>   0.0800 
 41 H       -2.9290     4.3540     1.6480 H     1 <1>   0.0800 
 42 H       -1.8400     4.2340     3.0110 H     1 <1>   0.0800 
 43 H        4.7230    -0.3230     1.2580 H     1 <1>   0.1500 
 44 H        6.1010     1.1970    -2.4750 H     1 <1>   0.1500 
 45 H        8.0860     2.0370    -1.4180 H     1 <1>   0.1500 
 46 H        7.7000    -0.4760     4.1380 H     1 <1>   0.0800 
 47 H        8.4310     0.9750     3.4680 H     1 <1>   0.0800 
 48 H        8.4690    -0.5390     2.5530 H     1 <1>   0.0800 
 49 H       10.1830     3.2040     1.2960 H     1 <1>   0.0800 
 50 H        8.8450     3.6620     0.2470 H     1 <1>   0.0800 
 51 H        9.9920     2.4060    -0.2600 H     1 <1>   0.0800 
@<TRIPOS>BOND
  1   1   2  2   
  2   1   3  2   
  3   1   4  am  
  4   1   5  1   
  5   4   6  1   
  6   4  28  1   
  7   5   7  ar  
  8   5   8  ar  
  9   6   9  1   
 10   6  29  1   
 11   6  30  1   
 12   7  10  ar  
 13   7  11  1   
 14   8  12  ar  
 15   8  13  1   
 16   9  14  2   
 17   9  15  am  
 18  10  16  ar  
 19  10  31  1   
 20  11  32  1   
 21  11  33  1   
 22  11  34  1   
 23  12  16  ar  
 24  12  35  1   
 25  13  36  1   
 26  13  37  1   
 27  13  38  1   
 28  15  17  1   
 29  15  39  1   
 30  16  18  1   
 31  17  19  ar  
 32  17  20  ar  
 33  18  40  1   
 34  18  41  1   
 35  18  42  1   
 36  19  21  ar  
 37  19  43  1   
 38  20  22  ar  
 39  20  44  1   
 40  21  23  1   
 41  21  24  ar  
 42  22  24  ar  
 43  22  45  1   
 44  23  25  1   
 45  24  26  1   
 46  25  46  1   
 47  25  47  1   
 48  25  48  1   
 49  26  27  1   
 50  27  49  1   
 51  27  50  1   
 52  27  51  1   
@<TRIPOS>SUBSTRUCTURE
  1 ****  13 GROUP 4 **** **** 0

# MOE 2024.06 (io_trps.svl 2023.06)
