@<TRIPOS>MOLECULE
NONAME
48 50 1 0 0 
SMALL
USER_CHARGES


@<TRIPOS>ATOM
  1 CL       0.7870     0.3400     0.4260 Cl    1 <1>  -0.1770 
  2 C        2.1790    -0.7110     0.5390 C.ar  1 <1>   0.1770 
  3 C        2.4300    -1.6150    -0.4760 C.ar  1 <1>  -0.1500 
  4 C        3.0080    -0.6230     1.6400 C.ar  1 <1>  -0.1500 
  5 C        3.5340    -2.4450    -0.3850 C.ar  1 <1>  -0.1500 
  6 C        4.1090    -1.4580     1.7240 C.ar  1 <1>  -0.1500 
  7 C        4.3870    -2.3760     0.7160 C.ar  1 <1>   0.1000 
  8 N        5.5060    -3.1990     0.8250 N.pl3 1 <1>  -0.8380 
  9 C        5.4330    -4.6630     0.5320 C.3   1 <1>   0.2090 
 10 C        6.8690    -2.5850     0.8490 C.3   1 <1>   0.2090 
 11 C        6.2910    -5.0400    -0.6950 C.3   1 <1>   0.3430 
 12 C        7.6890    -2.9960    -0.3910 C.3   1 <1>   0.3430 
 13 N        7.6870    -4.4870    -0.6120 N.4   1 <1>  -0.9590 
 14 C        8.5480    -4.8970    -1.7490 C.3   1 <1>   0.4860 
 15 C        9.9770    -4.5070    -1.4240 C.ar  1 <1>  -0.1430 
 16 C       10.6000    -5.0150    -0.2870 C.ar  1 <1>   0.0830 
 17 C       10.6550    -3.6320    -2.2600 C.ar  1 <1>  -0.1500 
 18 O        9.8650    -5.8930     0.4610 O.3   1 <1>  -0.3630 
 19 C       11.9030    -4.6030     0.0360 C.ar  1 <1>   0.0830 
 20 C       11.9470    -3.2500    -1.9590 C.ar  1 <1>  -0.1500 
 21 C       10.4850    -7.0180     1.0570 C.3   1 <1>   0.0400 
 22 O       12.4800    -5.0440     1.1910 O.3   1 <1>  -0.3630 
 23 C       12.5670    -3.7270    -0.8190 C.ar  1 <1>  -0.1500 
 24 C       13.7860    -4.6680     1.5740 C.3   1 <1>   0.0400 
 25 H        1.7670    -1.6620    -1.3210 H     1 <1>   0.1500 
 26 H        2.7900     0.0870     2.4180 H     1 <1>   0.1500 
 27 H        3.7330    -3.1430    -1.1740 H     1 <1>   0.1500 
 28 H        4.7560    -1.4070     2.5800 H     1 <1>   0.1500 
 29 H        4.4090    -4.9500     0.3620 H     1 <1>   0.0800 
 30 H        5.7800    -5.2060     1.3940 H     1 <1>   0.0800 
 31 H        7.3820    -2.8960     1.7430 H     1 <1>   0.0800 
 32 H        6.7850    -1.5120     0.8770 H     1 <1>   0.0800 
 33 H        5.8050    -4.6540    -1.5750 H     1 <1>   0.0800 
 34 H        6.3260    -6.1140    -0.7790 H     1 <1>   0.0800 
 35 H        8.7010    -2.6440    -0.2690 H     1 <1>   0.0800 
 36 H        7.2690    -2.5030    -1.2500 H     1 <1>   0.0800 
 37 H        8.1590    -4.9070     0.2090 H     1 <1>   0.4500 
 38 H        8.2250    -4.4180    -2.6580 H     1 <1>   0.0800 
 39 H        8.5000    -5.9660    -1.8820 H     1 <1>   0.0800 
 40 H       10.1920    -3.2410    -3.1500 H     1 <1>   0.1500 
 41 H       12.4770    -2.5750    -2.6120 H     1 <1>   0.1500 
 42 H       10.8960    -6.7290     2.0080 H     1 <1>   0.0800 
 43 H       11.2630    -7.3830     0.4070 H     1 <1>   0.0800 
 44 H        9.7420    -7.7810     1.2040 H     1 <1>   0.0800 
 45 H       13.5690    -3.3970    -0.6180 H     1 <1>   0.1500 
 46 H       14.0100    -5.1470     2.5110 H     1 <1>   0.0800 
 47 H       13.8230    -3.6000     1.6950 H     1 <1>   0.0800 
 48 H       14.4810    -4.9970     0.8230 H     1 <1>   0.0800 
@<TRIPOS>BOND
  1   1   2  1   
  2   2   3  ar  
  3   2   4  ar  
  4   3   5  ar  
  5   3  25  1   
  6   4   6  ar  
  7   4  26  1   
  8   5   7  ar  
  9   5  27  1   
 10   6   7  ar  
 11   6  28  1   
 12   7   8  1   
 13   8   9  1   
 14   8  10  1   
 15   9  11  1   
 16   9  29  1   
 17   9  30  1   
 18  10  12  1   
 19  10  31  1   
 20  10  32  1   
 21  11  13  1   
 22  11  33  1   
 23  11  34  1   
 24  12  13  1   
 25  12  35  1   
 26  12  36  1   
 27  13  14  1   
 28  13  37  1   
 29  14  15  1   
 30  14  38  1   
 31  14  39  1   
 32  15  16  ar  
 33  15  17  ar  
 34  16  18  1   
 35  16  19  ar  
 36  17  20  ar  
 37  17  40  1   
 38  18  21  1   
 39  19  22  1   
 40  19  23  ar  
 41  20  23  ar  
 42  20  41  1   
 43  21  42  1   
 44  21  43  1   
 45  21  44  1   
 46  22  24  1   
 47  23  45  1   
 48  24  46  1   
 49  24  47  1   
 50  24  48  1   
@<TRIPOS>SUBSTRUCTURE
  1 ****  12 GROUP 4 **** **** 0

# MOE 2024.06 (io_trps.svl 2023.06)
