@<TRIPOS>MOLECULE
NONAME
46 47 1 0 0 
SMALL
USER_CHARGES


@<TRIPOS>ATOM
  1 P        0.1010     0.6210     0.1280 P.3   1 <1>   1.4350 
  2 O       -0.6840     0.7090     1.3620 O.2   1 <1>  -0.7000 
  3 O        0.6490     2.0640    -0.3250 O.3   1 <1>  -0.5510 
  4 O       -0.8080     0.1900    -1.1240 O.3   1 <1>  -0.5510 
  5 C        1.5120    -0.4960     0.1110 C.2   1 <1>   0.0340 
  6 C        1.4380     2.7980     0.5390 C.3   1 <1>   0.1200 
  7 C       -1.8820     0.9730    -1.4950 C.3   1 <1>   0.1200 
  8 N        2.7650    -0.1950    -0.3380 N.2   1 <1>  -0.5650 
  9 C        1.5280    -1.7810     0.5380 C.2   1 <1>   0.2240 
 10 C        1.7850     4.1110    -0.1530 C.3   1 <1>  -0.2400 
 11 C       -2.5760     0.2860    -2.6650 C.3   1 <1>  -0.2400 
 12 C        3.4530    -1.2750    -0.1540 C.2   1 <1>   0.4250 
 13 O        2.7360    -2.2460     0.3770 O.3   1 <1>  -0.2800 
 14 N        0.5590    -2.6300     1.0820 N.pl3 1 <1>  -0.8220 
 15 C        4.8500    -1.4930    -0.4620 C.ar  1 <1>   0.0530 
 16 C        0.9810    -3.9200     1.6930 C.3   1 <1>   0.1290 
 17 C       -0.8290    -2.6110     0.5450 C.3   1 <1>   0.1290 
 18 C        5.6190    -0.4940    -1.0610 C.ar  1 <1>  -0.1500 
 19 C        5.4920    -2.7000    -0.1750 C.ar  1 <1>  -0.1500 
 20 C        6.9560    -0.6870    -1.3600 C.ar  1 <1>  -0.1500 
 21 C        6.8280    -2.8990    -0.4720 C.ar  1 <1>  -0.1500 
 22 C        7.5700    -1.8930    -1.0680 C.ar  1 <1>  -0.1440 
 23 C        9.0370    -2.1070    -1.3920 C.3   1 <1>  -0.0970 
 24 H        2.3310     2.2380     0.7610 H     1 <1>   0.0800 
 25 H        0.8830     2.9770     1.4470 H     1 <1>   0.0800 
 26 H       -1.5190     1.9460    -1.7830 H     1 <1>   0.0800 
 27 H       -2.5490     1.0670    -0.6530 H     1 <1>   0.0800 
 28 H        2.3270     3.9160    -1.0610 H     1 <1>   0.0800 
 29 H        2.4010     4.7100     0.4930 H     1 <1>   0.0800 
 30 H        0.8880     4.6590    -0.3780 H     1 <1>   0.0800 
 31 H       -1.8950     0.1870    -3.4920 H     1 <1>   0.0800 
 32 H       -3.4180     0.8720    -2.9830 H     1 <1>   0.0800 
 33 H       -2.9270    -0.6860    -2.3690 H     1 <1>   0.0800 
 34 H        1.9190    -3.7970     2.2070 H     1 <1>   0.0800 
 35 H        1.0950    -4.6670     0.9260 H     1 <1>   0.0800 
 36 H        0.2430    -4.2460     2.4050 H     1 <1>   0.0800 
 37 H       -0.8210    -2.3300    -0.4940 H     1 <1>   0.0800 
 38 H       -1.4220    -1.9050     1.1010 H     1 <1>   0.0800 
 39 H       -1.2810    -3.5840     0.6300 H     1 <1>   0.0800 
 40 H        5.1580     0.4490    -1.2970 H     1 <1>   0.1500 
 41 H        4.9360    -3.4960     0.2870 H     1 <1>   0.1500 
 42 H        7.5160     0.1070    -1.8210 H     1 <1>   0.1500 
 43 H        7.2910    -3.8410    -0.2360 H     1 <1>   0.1500 
 44 H        9.3190    -1.5320    -2.2570 H     1 <1>   0.0800 
 45 H        9.2290    -3.1450    -1.5990 H     1 <1>   0.0800 
 46 H        9.6430    -1.8000    -0.5590 H     1 <1>   0.0800 
@<TRIPOS>BOND
  1   1   2  2   
  2   1   3  1   
  3   1   4  1   
  4   1   5  1   
  5   3   6  1   
  6   4   7  1   
  7   5   8  1   
  8   5   9  2   
  9   6  10  1   
 10   6  24  1   
 11   6  25  1   
 12   7  11  1   
 13   7  26  1   
 14   7  27  1   
 15   8  12  2   
 16   9  13  1   
 17   9  14  1   
 18  10  28  1   
 19  10  29  1   
 20  10  30  1   
 21  11  31  1   
 22  11  32  1   
 23  11  33  1   
 24  12  13  1   
 25  12  15  1   
 26  14  16  1   
 27  14  17  1   
 28  15  18  ar  
 29  15  19  ar  
 30  16  34  1   
 31  16  35  1   
 32  16  36  1   
 33  17  37  1   
 34  17  38  1   
 35  17  39  1   
 36  18  20  ar  
 37  18  40  1   
 38  19  21  ar  
 39  19  41  1   
 40  20  22  ar  
 41  20  42  1   
 42  21  22  ar  
 43  21  43  1   
 44  22  23  1   
 45  23  44  1   
 46  23  45  1   
 47  23  46  1   
@<TRIPOS>SUBSTRUCTURE
  1 ****   8 GROUP 4 **** **** 0

# MOE 2024.06 (io_trps.svl 2023.06)
