@<TRIPOS>MOLECULE
NONAME
53 55 1 0 0 
SMALL
USER_CHARGES


@<TRIPOS>ATOM
  1 N       -0.0680    -0.0200     0.1180 N.4   1 <1>  -0.9590 
  2 C       -0.2930    -1.1230    -0.8650 C.3   1 <1>   0.3430 
  3 C       -1.2760     0.8160     0.3690 C.3   1 <1>   0.3430 
  4 C        1.0970     0.8270    -0.2900 C.3   1 <1>   0.4860 
  5 C       -1.4390    -2.0180    -0.3920 C.3   1 <1>  -0.1600 
  6 C       -2.4300    -0.0660     0.8520 C.3   1 <1>  -0.1600 
  7 C        2.3380    -0.0400    -0.2530 C.ar  1 <1>  -0.1440 
  8 C       -2.7080    -1.1950    -0.1520 C.3   1 <1>   0.4230 
  9 C        2.9010    -0.4040     0.9630 C.ar  1 <1>  -0.1500 
 10 C        2.9160    -0.4850    -1.4340 C.ar  1 <1>  -0.1500 
 11 N       -3.8390    -2.0860     0.2700 N.4   1 <1>  -0.9590 
 12 C        4.0180    -1.2210     0.9950 C.ar  1 <1>  -0.1500 
 13 C        4.0320    -1.3010    -1.3990 C.ar  1 <1>  -0.1500 
 14 C       -5.1570    -1.3690     0.1640 C.3   1 <1>   0.3430 
 15 C       -3.6800    -2.7250     1.6260 C.3   1 <1>   0.2630 
 16 C        4.5810    -1.6720    -0.1850 C.ar  1 <1>  -0.1500 
 17 C       -6.3540    -2.3240     0.1720 C.3   1 <1>  -0.0170 
 18 C       -7.6050    -1.5030    -0.0640 C.ar  1 <1>  -0.1440 
 19 C       -8.2740    -0.9270     1.0060 C.ar  1 <1>  -0.1500 
 20 C       -8.0810    -1.3080    -1.3520 C.ar  1 <1>  -0.1500 
 21 C       -9.4030    -0.1560     0.7880 C.ar  1 <1>  -0.1500 
 22 C       -9.2100    -0.5360    -1.5680 C.ar  1 <1>  -0.1500 
 23 C       -9.8690     0.0420    -0.4990 C.ar  1 <1>  -0.1500 
 24 H        0.2420    -0.4530     1.0000 H     1 <1>   0.4500 
 25 H        0.6040    -1.7160    -0.9650 H     1 <1>   0.0800 
 26 H       -0.5260    -0.7080    -1.8330 H     1 <1>   0.0800 
 27 H       -1.5620     1.3250    -0.5380 H     1 <1>   0.0800 
 28 H       -1.0580     1.5640     1.1170 H     1 <1>   0.0800 
 29 H        1.2220     1.6510     0.3950 H     1 <1>   0.0800 
 30 H        0.9510     1.2240    -1.2820 H     1 <1>   0.0800 
 31 H       -1.1260    -2.5250     0.5030 H     1 <1>   0.0800 
 32 H       -1.6230    -2.7570    -1.1510 H     1 <1>   0.0800 
 33 H       -3.2990     0.5560     0.9600 H     1 <1>   0.0800 
 34 H       -2.1740    -0.4590     1.8200 H     1 <1>   0.0800 
 35 H       -2.9790    -0.7390    -1.0920 H     1 <1>   0.0800 
 36 H        2.4930    -0.0580     1.8970 H     1 <1>   0.1500 
 37 H        2.5150    -0.2040    -2.3940 H     1 <1>   0.1500 
 38 H       -3.8840    -2.8540    -0.4170 H     1 <1>   0.4500 
 39 H        4.4570    -1.5050     1.9370 H     1 <1>   0.1500 
 40 H        4.4820    -1.6470    -2.3140 H     1 <1>   0.1500 
 41 H       -5.1920    -0.8110    -0.7580 H     1 <1>   0.0800 
 42 H       -5.2660    -0.6670     0.9740 H     1 <1>   0.0800 
 43 H       -3.6990    -1.9770     2.4020 H     1 <1>   0.0800 
 44 H       -2.7490    -3.2650     1.6860 H     1 <1>   0.0800 
 45 H       -4.4810    -3.4230     1.8090 H     1 <1>   0.0800 
 46 H        5.4520    -2.3060    -0.1580 H     1 <1>   0.1500 
 47 H       -6.4410    -2.8300     1.1170 H     1 <1>   0.0800 
 48 H       -6.2580    -3.0580    -0.6080 H     1 <1>   0.0800 
 49 H       -7.9340    -1.0710     2.0160 H     1 <1>   0.1500 
 50 H       -7.5900    -1.7520    -2.2000 H     1 <1>   0.1500 
 51 H       -9.9220     0.2900     1.6190 H     1 <1>   0.1500 
 52 H       -9.5800    -0.3860    -2.5680 H     1 <1>   0.1500 
 53 H      -10.7480     0.6410    -0.6670 H     1 <1>   0.1500 
@<TRIPOS>BOND
  1   1   2  1   
  2   1   3  1   
  3   1   4  1   
  4   1  24  1   
  5   2   5  1   
  6   2  25  1   
  7   2  26  1   
  8   3   6  1   
  9   3  27  1   
 10   3  28  1   
 11   4   7  1   
 12   4  29  1   
 13   4  30  1   
 14   5   8  1   
 15   5  31  1   
 16   5  32  1   
 17   6   8  1   
 18   6  33  1   
 19   6  34  1   
 20   7   9  ar  
 21   7  10  ar  
 22   8  11  1   
 23   8  35  1   
 24   9  12  ar  
 25   9  36  1   
 26  10  13  ar  
 27  10  37  1   
 28  11  14  1   
 29  11  15  1   
 30  11  38  1   
 31  12  16  ar  
 32  12  39  1   
 33  13  16  ar  
 34  13  40  1   
 35  14  17  1   
 36  14  41  1   
 37  14  42  1   
 38  15  43  1   
 39  15  44  1   
 40  15  45  1   
 41  16  46  1   
 42  17  18  1   
 43  17  47  1   
 44  17  48  1   
 45  18  19  ar  
 46  18  20  ar  
 47  19  21  ar  
 48  19  49  1   
 49  20  22  ar  
 50  20  50  1   
 51  21  23  ar  
 52  21  51  1   
 53  22  23  ar  
 54  22  52  1   
 55  23  53  1   
@<TRIPOS>SUBSTRUCTURE
  1 ****   8 GROUP 4 **** **** 0

# MOE 2024.06 (io_trps.svl 2023.06)
