@<TRIPOS>MOLECULE
NONAME
32 31 1 0 0 
SMALL
USER_CHARGES


@<TRIPOS>ATOM
  1 O        1.6720     1.6340    -1.8590 O.co2 1 <1>  -0.9000 
  2 C        1.5930     1.1260    -0.7330 C.2   1 <1>   0.9060 
  3 O        0.6790     1.4010     0.0530 O.co2 1 <1>  -0.9000 
  4 C        2.6590     0.1200    -0.2890 C.3   1 <1>  -0.1860 
  5 C        4.0670     0.7540    -0.3480 C.3   1 <1>  -0.1600 
  6 C        2.5710    -1.1840    -1.1100 C.3   1 <1>  -0.2400 
  7 C        5.1690    -0.1260     0.2620 C.3   1 <1>  -0.1600 
  8 C        6.5180     0.6200     0.2800 C.3   1 <1>  -0.1600 
  9 C        7.7260    -0.2060     0.7830 C.3   1 <1>   0.2800 
 10 O        8.8440     0.6230     0.9340 O.3   1 <1>  -0.5600 
 11 C        7.4800    -0.7570     2.1890 C.3   1 <1>  -0.2400 
 12 C        8.0860    -1.3650    -0.1570 C.3   1 <1>  -0.2400 
 13 C        9.3350     1.3400    -0.1610 C.3   1 <1>   0.0400 
 14 H        2.4370    -0.1140     0.7360 H     1 <1>   0.0800 
 15 H        4.0290     1.6900     0.1840 H     1 <1>   0.0800 
 16 H        4.3020     0.9810    -1.3740 H     1 <1>   0.0800 
 17 H        2.8410    -0.9900    -2.1330 H     1 <1>   0.0800 
 18 H        1.5580    -1.5460    -1.0930 H     1 <1>   0.0800 
 19 H        3.2100    -1.9460    -0.7070 H     1 <1>   0.0800 
 20 H        5.2640    -1.0260    -0.3170 H     1 <1>   0.0800 
 21 H        4.8800    -0.3920     1.2630 H     1 <1>   0.0800 
 22 H        6.4150     1.4900     0.9040 H     1 <1>   0.0800 
 23 H        6.7110     0.9500    -0.7240 H     1 <1>   0.0800 
 24 H        8.3740    -1.2230     2.5630 H     1 <1>   0.0800 
 25 H        7.1980     0.0400     2.8520 H     1 <1>   0.0800 
 26 H        6.6970    -1.4920     2.1830 H     1 <1>   0.0800 
 27 H        7.3300    -2.1270    -0.1120 H     1 <1>   0.0800 
 28 H        8.1510    -1.0300    -1.1750 H     1 <1>   0.0800 
 29 H        9.0220    -1.8030     0.1390 H     1 <1>   0.0800 
 30 H       10.2320     1.8430     0.1520 H     1 <1>   0.0800 
 31 H        8.6110     2.0730    -0.4700 H     1 <1>   0.0800 
 32 H        9.5700     0.6690    -0.9670 H     1 <1>   0.0800 
@<TRIPOS>BOND
  1   1   2  ar  
  2   2   3  ar  
  3   2   4  1   
  4   4   5  1   
  5   4   6  1   
  6   4  14  1   
  7   5   7  1   
  8   5  15  1   
  9   5  16  1   
 10   6  17  1   
 11   6  18  1   
 12   6  19  1   
 13   7   8  1   
 14   7  20  1   
 15   7  21  1   
 16   8   9  1   
 17   8  22  1   
 18   8  23  1   
 19   9  10  1   
 20   9  11  1   
 21   9  12  1   
 22  10  13  1   
 23  11  24  1   
 24  11  25  1   
 25  11  26  1   
 26  12  27  1   
 27  12  28  1   
 28  12  29  1   
 29  13  30  1   
 30  13  31  1   
 31  13  32  1   
@<TRIPOS>SUBSTRUCTURE
  1 ****   7 GROUP 4 **** **** 0

# MOE 2024.06 (io_trps.svl 2023.06)
