@<TRIPOS>MOLECULE
NONAME
35 36 1 0 0 
SMALL
USER_CHARGES


@<TRIPOS>ATOM
  1 BR       0.7870     1.1550     1.0360 Br    1 <1>  -0.1110 
  2 C        2.2140    -0.0100     0.4810 C.ar  1 <1>   0.1110 
  3 C        3.5080     0.4250     0.5270 C.ar  1 <1>  -0.1500 
  4 C        1.8680    -1.2880     0.0460 C.ar  1 <1>  -0.1500 
  5 C        4.5560    -0.4340     0.1200 C.ar  1 <1>   0.0000 
  6 C        2.8730    -2.1340    -0.3390 C.ar  1 <1>  -0.1500 
  7 C        5.9290    -0.1080     0.1150 C.ar  1 <1>   0.1020 
  8 C        4.2240    -1.7400    -0.3040 C.ar  1 <1>   0.3100 
  9 S        6.4300     1.5470     0.6150 S.3   1 <1>  -0.3320 
 10 C        6.8660    -1.0390    -0.2540 C.ar  1 <1>  -0.1430 
 11 N        5.1520    -2.6520    -0.6750 N.ar  1 <1>  -0.6200 
 12 C        5.7260     2.6530    -0.7150 C.3   1 <1>  -0.0360 
 13 C        6.4050    -2.3160    -0.6400 C.ar  1 <1>   0.1670 
 14 C        8.3630    -0.7080    -0.2510 C.3   1 <1>  -0.0170 
 15 C        5.1110     3.9220    -0.1580 C.2   1 <1>   0.9060 
 16 C        7.3720    -3.4100    -1.0600 C.3   1 <1>  -0.0970 
 17 C        8.9790    -0.9770     1.1290 C.3   1 <1>  -0.1600 
 18 O        5.7510     4.9760    -0.2370 O.co2 1 <1>  -0.9000 
 19 O        3.9640     3.8740     0.3010 O.co2 1 <1>  -0.9000 
 20 C       10.4810    -0.6740     1.1430 C.3   1 <1>  -0.2400 
 21 H        3.7190     1.4220     0.8750 H     1 <1>   0.1500 
 22 H        0.8330    -1.5790     0.0240 H     1 <1>   0.1500 
 23 H        2.6580    -3.1300    -0.6770 H     1 <1>   0.1500 
 24 H        4.9760     2.0980    -1.2420 H     1 <1>   0.0800 
 25 H        6.5310     2.9060    -1.3750 H     1 <1>   0.0800 
 26 H        8.5180     0.3230    -0.5140 H     1 <1>   0.0800 
 27 H        8.8820    -1.2780    -0.9990 H     1 <1>   0.0800 
 28 H        7.8260    -3.1540    -1.9990 H     1 <1>   0.0800 
 29 H        6.8530    -4.3440    -1.1810 H     1 <1>   0.0800 
 30 H        8.1330    -3.5460    -0.3150 H     1 <1>   0.0800 
 31 H        8.8170    -2.0030     1.4060 H     1 <1>   0.0800 
 32 H        8.4860    -0.3580     1.8600 H     1 <1>   0.0800 
 33 H       10.9990    -1.2950     0.4330 H     1 <1>   0.0800 
 34 H       10.8830    -0.8630     2.1230 H     1 <1>   0.0800 
 35 H       10.6560     0.3590     0.8960 H     1 <1>   0.0800 
@<TRIPOS>BOND
  1   1   2  1   
  2   2   3  ar  
  3   2   4  ar  
  4   3   5  ar  
  5   3  21  1   
  6   4   6  ar  
  7   4  22  1   
  8   5   7  ar  
  9   5   8  ar  
 10   6   8  ar  
 11   6  23  1   
 12   7   9  1   
 13   7  10  ar  
 14   8  11  ar  
 15   9  12  1   
 16  10  13  ar  
 17  10  14  1   
 18  11  13  ar  
 19  12  15  1   
 20  12  24  1   
 21  12  25  1   
 22  13  16  1   
 23  14  17  1   
 24  14  26  1   
 25  14  27  1   
 26  15  18  ar  
 27  15  19  ar  
 28  16  28  1   
 29  16  29  1   
 30  16  30  1   
 31  17  20  1   
 32  17  31  1   
 33  17  32  1   
 34  20  33  1   
 35  20  34  1   
 36  20  35  1   
@<TRIPOS>SUBSTRUCTURE
  1 ****   7 GROUP 4 **** **** 0

# MOE 2024.06 (io_trps.svl 2023.06)
