@<TRIPOS>MOLECULE
NONAME
51 53 1 0 0 
SMALL
USER_CHARGES


@<TRIPOS>ATOM
  1 S        0.0750    -0.2410     0.3550 S.o2  1 <1>   1.4470 
  2 O        0.0180    -0.7410     1.7090 O.2   1 <1>  -0.6500 
  3 O       -0.2790    -1.0920    -0.7580 O.2   1 <1>  -0.6500 
  4 N       -0.9830     1.0530     0.2390 N.am  1 <1>  -0.9140 
  5 C        1.6890     0.5260     0.0560 C.ar  1 <1>  -0.0090 
  6 C       -2.1520     0.9760     1.0890 C.3   1 <1>   0.2760 
  7 C        2.1050     1.6230     0.8010 C.ar  1 <1>  -0.1500 
  8 C        2.5540     0.0330    -0.9160 C.ar  1 <1>  -0.1500 
  9 C       -3.1500    -0.0500     0.5540 C.3   1 <1>  -0.1600 
 10 C       -2.9140     2.2850     0.9340 C.3   1 <1>  -0.1600 
 11 C        3.3400     2.2090     0.5850 C.ar  1 <1>  -0.1500 
 12 C        3.7910     0.6110    -1.1410 C.ar  1 <1>  -0.1500 
 13 C       -3.8680     0.6380    -0.6120 C.3   1 <1>  -0.1600 
 14 C       -3.7360     2.1450    -0.3540 C.3   1 <1>  -0.1600 
 15 C        4.1920     1.7060    -0.3820 C.ar  1 <1>   0.0830 
 16 O        5.3860     2.3240    -0.5220 O.3   1 <1>  -0.3620 
 17 C        6.4040     1.7800    -1.3500 C.3   1 <1>   0.1810 
 18 C        7.7140     2.5440    -1.1940 C.2   1 <1>   0.5690 
 19 O        8.1470     3.0880    -2.1850 O.2   1 <1>  -0.5700 
 20 N        8.3890     2.5820     0.0060 N.am  1 <1>  -0.6600 
 21 C        9.6670     3.3350     0.1470 C.3   1 <1>   0.1400 
 22 C        7.9190     1.9500     1.2720 C.3   1 <1>   0.1400 
 23 C       10.7630     2.4030     0.6750 C.3   1 <1>  -0.1600 
 24 C        8.9990     1.0040     1.8100 C.3   1 <1>  -0.1600 
 25 C       10.3450     1.7220     1.9850 C.3   1 <1>  -0.1600 
 26 H       -1.3350     1.0010    -0.7140 H     1 <1>   0.4200 
 27 H       -1.8750     0.7990     2.1170 H     1 <1>   0.0800 
 28 H        1.4520     2.0230     1.5590 H     1 <1>   0.1500 
 29 H        2.2510    -0.8150    -1.5070 H     1 <1>   0.1500 
 30 H       -3.8680    -0.2500     1.3290 H     1 <1>   0.0800 
 31 H       -2.7030    -0.9860     0.2720 H     1 <1>   0.0800 
 32 H       -2.2600     3.1400     0.9180 H     1 <1>   0.0800 
 33 H       -3.5880     2.3870     1.7670 H     1 <1>   0.0800 
 34 H        3.6490     3.0590     1.1670 H     1 <1>   0.1500 
 35 H        4.4190     0.1990    -1.9080 H     1 <1>   0.1500 
 36 H       -4.9000     0.3340    -0.6610 H     1 <1>   0.0800 
 37 H       -3.3880     0.3830    -1.5410 H     1 <1>   0.0800 
 38 H       -3.2160     2.6100    -1.1740 H     1 <1>   0.0800 
 39 H       -4.7000     2.6120    -0.2460 H     1 <1>   0.0800 
 40 H        6.0730     1.8430    -2.3710 H     1 <1>   0.0800 
 41 H        6.5590     0.7520    -1.0790 H     1 <1>   0.0800 
 42 H        9.5170     4.1510     0.8340 H     1 <1>   0.0800 
 43 H        9.9740     3.7500    -0.7980 H     1 <1>   0.0800 
 44 H        7.0100     1.3970     1.1250 H     1 <1>   0.0800 
 45 H        7.7220     2.7250     1.9930 H     1 <1>   0.0800 
 46 H       11.6640     2.9690     0.8320 H     1 <1>   0.0800 
 47 H       10.9710     1.6580    -0.0740 H     1 <1>   0.0800 
 48 H        9.1130     0.1810     1.1260 H     1 <1>   0.0800 
 49 H        8.6800     0.6020     2.7560 H     1 <1>   0.0800 
 50 H       10.2550     2.4640     2.7600 H     1 <1>   0.0800 
 51 H       11.0990     1.0150     2.2860 H     1 <1>   0.0800 
@<TRIPOS>BOND
  1   1   2  2   
  2   1   3  2   
  3   1   4  am  
  4   1   5  1   
  5   4   6  1   
  6   4  26  1   
  7   5   7  ar  
  8   5   8  ar  
  9   6   9  1   
 10   6  10  1   
 11   6  27  1   
 12   7  11  ar  
 13   7  28  1   
 14   8  12  ar  
 15   8  29  1   
 16   9  13  1   
 17   9  30  1   
 18   9  31  1   
 19  10  14  1   
 20  10  32  1   
 21  10  33  1   
 22  11  15  ar  
 23  11  34  1   
 24  12  15  ar  
 25  12  35  1   
 26  13  14  1   
 27  13  36  1   
 28  13  37  1   
 29  14  38  1   
 30  14  39  1   
 31  15  16  1   
 32  16  17  1   
 33  17  18  1   
 34  17  40  1   
 35  17  41  1   
 36  18  19  2   
 37  18  20  am  
 38  20  21  1   
 39  20  22  1   
 40  21  23  1   
 41  21  42  1   
 42  21  43  1   
 43  22  24  1   
 44  22  44  1   
 45  22  45  1   
 46  23  25  1   
 47  23  46  1   
 48  23  47  1   
 49  24  25  1   
 50  24  48  1   
 51  24  49  1   
 52  25  50  1   
 53  25  51  1   
@<TRIPOS>SUBSTRUCTURE
  1 ****  11 GROUP 4 **** **** 0

# MOE 2024.06 (io_trps.svl 2023.06)
