@<TRIPOS>MOLECULE
NONAME
43 43 1 0 0 
SMALL
USER_CHARGES


@<TRIPOS>ATOM
  1 O       -2.5200    -6.7170     0.8120 O.3   1 <1>  -0.3630 
  2 C       -1.4310    -6.0590     0.3340 C.ar  1 <1>   0.0830 
  3 C       -3.5240    -6.9910    -0.1350 C.3   1 <1>   0.0400 
  4 C       -1.3810    -4.6670     0.4050 C.ar  1 <1>   0.0830 
  5 C       -0.3630    -6.7800    -0.1980 C.ar  1 <1>   0.0830 
  6 O       -2.4640    -4.0120     0.9140 O.3   1 <1>  -0.3630 
  7 C       -0.2430    -4.0020    -0.0420 C.ar  1 <1>  -0.1500 
  8 O       -0.4730    -8.1390    -0.2610 O.3   1 <1>  -0.3630 
  9 C        0.7660    -6.0980    -0.6420 C.ar  1 <1>  -0.1500 
 10 C       -2.5350    -2.6060     0.9890 C.3   1 <1>   0.0400 
 11 C        0.8310    -4.7140    -0.5570 C.ar  1 <1>  -0.1430 
 12 C        0.5740    -8.9640    -0.7200 C.3   1 <1>   0.0400 
 13 C        2.0770    -3.9880    -1.0080 C.3   1 <1>   0.4860 
 14 N        3.0220    -4.0470     0.1190 N.4   1 <1>  -0.9060 
 15 C        4.3440    -3.4340    -0.1170 C.3   1 <1>   0.4230 
 16 C        5.3940    -4.2220     0.6990 C.3   1 <1>   0.1200 
 17 C        4.2870    -1.9440     0.2480 C.3   1 <1>  -0.1600 
 18 O        5.0480    -5.5790     0.7240 O.3   1 <1>  -0.6800 
 19 C        5.5980    -1.2070    -0.0650 C.3   1 <1>  -0.2400 
 20 H       -4.3240    -7.5060     0.3640 H     1 <1>   0.0800 
 21 H       -3.1100    -7.6120    -0.9090 H     1 <1>   0.0800 
 22 H       -3.8790    -6.0610    -0.5420 H     1 <1>   0.0800 
 23 H       -0.1920    -2.9310     0.0110 H     1 <1>   0.1500 
 24 H        1.5950    -6.6430    -1.0540 H     1 <1>   0.1500 
 25 H       -3.4920    -2.3450     1.4040 H     1 <1>   0.0800 
 26 H       -2.4440    -2.1960    -0.0010 H     1 <1>   0.0800 
 27 H       -1.7520    -2.2490     1.6350 H     1 <1>   0.0800 
 28 H        0.2460    -9.9860    -0.6460 H     1 <1>   0.0800 
 29 H        1.4370    -8.8150    -0.0970 H     1 <1>   0.0800 
 30 H        0.7850    -8.7250    -1.7470 H     1 <1>   0.0800 
 31 H        1.8420    -2.9640    -1.2520 H     1 <1>   0.0800 
 32 H        2.4930    -4.4710    -1.8780 H     1 <1>   0.0800 
 33 H        3.2410    -5.0400     0.3180 H     1 <1>   0.4500 
 34 H        2.5840    -3.6940     0.9730 H     1 <1>   0.4500 
 35 H        4.6010    -3.5310    -1.1600 H     1 <1>   0.0800 
 36 H        5.4340    -3.8690     1.7150 H     1 <1>   0.0800 
 37 H        6.3700    -4.1200     0.2550 H     1 <1>   0.0800 
 38 H        4.0690    -1.8290     1.2960 H     1 <1>   0.0800 
 39 H        3.5010    -1.4680    -0.3130 H     1 <1>   0.0800 
 40 H        5.7400    -6.1100     1.1800 H     1 <1>   0.4000 
 41 H        6.4130    -1.5810     0.5300 H     1 <1>   0.0800 
 42 H        5.4880    -0.1580     0.1550 H     1 <1>   0.0800 
 43 H        5.8560    -1.3020    -1.1060 H     1 <1>   0.0800 
@<TRIPOS>BOND
  1   1   2  1   
  2   1   3  1   
  3   2   4  ar  
  4   2   5  ar  
  5   3  20  1   
  6   3  21  1   
  7   3  22  1   
  8   4   6  1   
  9   4   7  ar  
 10   5   8  1   
 11   5   9  ar  
 12   6  10  1   
 13   7  11  ar  
 14   7  23  1   
 15   8  12  1   
 16   9  11  ar  
 17   9  24  1   
 18  10  25  1   
 19  10  26  1   
 20  10  27  1   
 21  11  13  1   
 22  12  28  1   
 23  12  29  1   
 24  12  30  1   
 25  13  14  1   
 26  13  31  1   
 27  13  32  1   
 28  14  15  1   
 29  14  33  1   
 30  14  34  1   
 31  15  16  1   
 32  15  17  1   
 33  15  35  1   
 34  16  18  1   
 35  16  36  1   
 36  16  37  1   
 37  17  19  1   
 38  17  38  1   
 39  17  39  1   
 40  18  40  1   
 41  19  41  1   
 42  19  42  1   
 43  19  43  1   
@<TRIPOS>SUBSTRUCTURE
  1 ****  11 GROUP 4 **** **** 0

# MOE 2024.06 (io_trps.svl 2023.06)
