@<TRIPOS>MOLECULE
NONAME
44 45 1 0 0 
SMALL
USER_CHARGES


@<TRIPOS>ATOM
  1 O        0.6750     0.3320    -0.9410 O.3   1 <1>  -0.5600 
  2 C        1.3690     0.9340     0.1190 C.3   1 <1>   0.2000 
  3 C        0.3180    -1.0210    -0.8050 C.3   1 <1>   0.2000 
  4 C        2.7060     0.1930     0.3890 C.3   1 <1>   0.3430 
  5 C        0.4560     1.0200     1.3490 C.3   1 <1>  -0.2400 
  6 C        1.4450    -1.8490    -0.1330 C.3   1 <1>   0.3430 
  7 C        0.0160    -1.5190    -2.2170 C.3   1 <1>  -0.2400 
  8 N        2.7700    -1.1630    -0.2710 N.4   1 <1>  -0.9590 
  9 C        3.9060    -2.0090     0.1830 C.3   1 <1>   0.3430 
 10 C        5.2350    -1.3950    -0.2540 C.3   1 <1>  -0.1600 
 11 C        6.4360    -2.2650     0.1480 C.3   1 <1>   0.0630 
 12 C        7.7250    -1.5000    -0.1320 C.ar  1 <1>  -0.1440 
 13 C        6.4450    -3.6240    -0.5660 C.3   1 <1>  -0.2400 
 14 C        8.1160    -1.1900    -1.4280 C.ar  1 <1>  -0.1500 
 15 C        8.5270    -1.0910     0.9250 C.ar  1 <1>  -0.1500 
 16 C        9.2820    -0.4830    -1.6630 C.ar  1 <1>  -0.1500 
 17 C        9.6940    -0.3830     0.6920 C.ar  1 <1>  -0.1500 
 18 C       10.0720    -0.0780    -0.6030 C.ar  1 <1>  -0.1500 
 19 H        1.5950     1.9390    -0.1950 H     1 <1>   0.0800 
 20 H       -0.5810    -1.0760    -0.2140 H     1 <1>   0.0800 
 21 H        2.8320     0.0910     1.4540 H     1 <1>   0.0800 
 22 H        3.5150     0.8070     0.0290 H     1 <1>   0.0800 
 23 H        0.2470     0.0530     1.7680 H     1 <1>   0.0800 
 24 H       -0.4700     1.4990     1.0810 H     1 <1>   0.0800 
 25 H        0.9270     1.6170     2.1100 H     1 <1>   0.0800 
 26 H        1.4770    -2.8290    -0.5800 H     1 <1>   0.0800 
 27 H        1.2090    -1.9730     0.9110 H     1 <1>   0.0800 
 28 H        0.8860    -1.4440    -2.8450 H     1 <1>   0.0800 
 29 H       -0.7760    -0.9310    -2.6470 H     1 <1>   0.0800 
 30 H       -0.3070    -2.5440    -2.1930 H     1 <1>   0.0800 
 31 H        2.8680    -0.9720    -1.2800 H     1 <1>   0.4500 
 32 H        3.8160    -2.9920    -0.2530 H     1 <1>   0.0800 
 33 H        3.8850    -2.1130     1.2560 H     1 <1>   0.0800 
 34 H        5.3620    -0.4330     0.2100 H     1 <1>   0.0800 
 35 H        5.2400    -1.2600    -1.3210 H     1 <1>   0.0800 
 36 H        6.3830    -2.4540     1.2080 H     1 <1>   0.0800 
 37 H        6.4050    -3.5030    -1.6340 H     1 <1>   0.0800 
 38 H        5.6190    -4.2370    -0.2540 H     1 <1>   0.0800 
 39 H        7.3540    -4.1490    -0.3250 H     1 <1>   0.0800 
 40 H        7.5200    -1.4960    -2.2690 H     1 <1>   0.1500 
 41 H        8.2560    -1.3190     1.9400 H     1 <1>   0.1500 
 42 H        9.5780    -0.2490    -2.6710 H     1 <1>   0.1500 
 43 H       10.3090    -0.0710     1.5180 H     1 <1>   0.1500 
 44 H       10.9790     0.4710    -0.7840 H     1 <1>   0.1500 
@<TRIPOS>BOND
  1   1   2  1   
  2   1   3  1   
  3   2   4  1   
  4   2   5  1   
  5   2  19  1   
  6   3   6  1   
  7   3   7  1   
  8   3  20  1   
  9   4   8  1   
 10   4  21  1   
 11   4  22  1   
 12   5  23  1   
 13   5  24  1   
 14   5  25  1   
 15   6   8  1   
 16   6  26  1   
 17   6  27  1   
 18   7  28  1   
 19   7  29  1   
 20   7  30  1   
 21   8   9  1   
 22   8  31  1   
 23   9  10  1   
 24   9  32  1   
 25   9  33  1   
 26  10  11  1   
 27  10  34  1   
 28  10  35  1   
 29  11  12  1   
 30  11  13  1   
 31  11  36  1   
 32  12  14  ar  
 33  12  15  ar  
 34  13  37  1   
 35  13  38  1   
 36  13  39  1   
 37  14  16  ar  
 38  14  40  1   
 39  15  17  ar  
 40  15  41  1   
 41  16  18  ar  
 42  16  42  1   
 43  17  18  ar  
 44  17  43  1   
 45  18  44  1   
@<TRIPOS>SUBSTRUCTURE
  1 ****  10 GROUP 4 **** **** 0

# MOE 2024.06 (io_trps.svl 2023.06)
