@<TRIPOS>MOLECULE
NONAME
49 51 1 0 0 
SMALL
USER_CHARGES


@<TRIPOS>ATOM
  1 P        1.2870    -0.1310     0.6980 P.3   1 <1>   1.2420 
  2 O        1.2670    -0.1910     2.1620 O.2   1 <1>  -0.7000 
  3 O        0.4330    -1.3030     0.0140 O.3   1 <1>  -0.5510 
  4 O        0.4050     1.0820     0.1280 O.3   1 <1>  -0.5510 
  5 C        2.9020    -0.0450    -0.1570 C.3   1 <1>   0.4330 
  6 C       -0.8230    -0.8640    -0.3420 C.3   1 <1>   0.2000 
  7 C       -0.6660     0.6470    -0.6300 C.3   1 <1>   0.2000 
  8 N        3.9350    -1.1130     0.0960 N.pl3 1 <1>  -0.8690 
  9 C        3.6450     1.2710     0.0800 C.ar  1 <1>  -0.1430 
 10 C       -1.7770    -1.1670     0.8180 C.3   1 <1>  -0.2400 
 11 C       -0.3330     0.9430    -2.0940 C.3   1 <1>  -0.2400 
 12 C        3.4760    -2.4190     0.1230 C.ar  1 <1>   0.1000 
 13 C        4.1390     1.9940    -0.9980 C.ar  1 <1>  -0.1500 
 14 C        3.8470     1.7590     1.3650 C.ar  1 <1>  -0.1500 
 15 C        3.2980    -3.0780     1.3330 C.ar  1 <1>  -0.1500 
 16 C        3.1740    -3.0850    -1.0570 C.ar  1 <1>  -0.1500 
 17 C        4.8110     3.1880    -0.8020 C.ar  1 <1>  -0.1500 
 18 C        4.5190     2.9520     1.5630 C.ar  1 <1>  -0.1500 
 19 C        2.8210    -4.3750     1.3620 C.ar  1 <1>  -0.1500 
 20 C        2.6960    -4.3820    -1.0310 C.ar  1 <1>  -0.1500 
 21 C        5.0030     3.6760     0.4870 C.ar  1 <1>   0.0830 
 22 C        2.5180    -5.0300     0.1800 C.ar  1 <1>  -0.1500 
 23 O        5.6460     4.8350     0.7700 O.3   1 <1>  -0.3630 
 24 C        6.1610     5.6570    -0.2510 C.3   1 <1>   0.1200 
 25 C        6.8060     6.8750     0.4040 C.3   1 <1>  -0.2400 
 26 H        2.6970    -0.0910    -1.2090 H     1 <1>   0.0800 
 27 H       -1.1390    -1.4040    -1.2180 H     1 <1>   0.0800 
 28 H       -1.5420     1.1970    -0.3330 H     1 <1>   0.0800 
 29 H        4.4680    -0.8540     0.9320 H     1 <1>   0.4000 
 30 H       -1.4880    -0.6350     1.7080 H     1 <1>   0.0800 
 31 H       -1.7780    -2.2220     1.0230 H     1 <1>   0.0800 
 32 H       -2.7770    -0.8710     0.5560 H     1 <1>   0.0800 
 33 H        0.5320     0.3900    -2.4130 H     1 <1>   0.0800 
 34 H       -0.1550     1.9960    -2.2230 H     1 <1>   0.0800 
 35 H       -1.1630     0.6630    -2.7180 H     1 <1>   0.0800 
 36 H        4.0080     1.6290    -2.0020 H     1 <1>   0.1500 
 37 H        3.4860     1.2210     2.2270 H     1 <1>   0.1500 
 38 H        3.5250    -2.5710     2.2530 H     1 <1>   0.1500 
 39 H        3.3230    -2.5820    -1.9940 H     1 <1>   0.1500 
 40 H        5.1780     3.7190    -1.6590 H     1 <1>   0.1500 
 41 H        4.6710     3.3310     2.5570 H     1 <1>   0.1500 
 42 H        2.6810    -4.8750     2.3050 H     1 <1>   0.1500 
 43 H        2.4650    -4.8900    -1.9510 H     1 <1>   0.1500 
 44 H        2.1450    -6.0390     0.2030 H     1 <1>   0.1500 
 45 H        5.3490     5.9550    -0.8910 H     1 <1>   0.0800 
 46 H        6.8900     5.0930    -0.8060 H     1 <1>   0.0800 
 47 H        6.0730     7.4210     0.9710 H     1 <1>   0.0800 
 48 H        7.2110     7.5240    -0.3510 H     1 <1>   0.0800 
 49 H        7.6040     6.5640     1.0550 H     1 <1>   0.0800 
@<TRIPOS>BOND
  1   1   2  2   
  2   1   3  1   
  3   1   4  1   
  4   1   5  1   
  5   3   6  1   
  6   4   7  1   
  7   5   8  1   
  8   5   9  1   
  9   5  26  1   
 10   6   7  1   
 11   6  10  1   
 12   6  27  1   
 13   7  11  1   
 14   7  28  1   
 15   8  12  1   
 16   8  29  1   
 17   9  13  ar  
 18   9  14  ar  
 19  10  30  1   
 20  10  31  1   
 21  10  32  1   
 22  11  33  1   
 23  11  34  1   
 24  11  35  1   
 25  12  15  ar  
 26  12  16  ar  
 27  13  17  ar  
 28  13  36  1   
 29  14  18  ar  
 30  14  37  1   
 31  15  19  ar  
 32  15  38  1   
 33  16  20  ar  
 34  16  39  1   
 35  17  21  ar  
 36  17  40  1   
 37  18  21  ar  
 38  18  41  1   
 39  19  22  ar  
 40  19  42  1   
 41  20  22  ar  
 42  20  43  1   
 43  21  23  1   
 44  22  44  1   
 45  23  24  1   
 46  24  25  1   
 47  24  45  1   
 48  24  46  1   
 49  25  47  1   
 50  25  48  1   
 51  25  49  1   
@<TRIPOS>SUBSTRUCTURE
  1 ****   5 GROUP 4 **** **** 0

# MOE 2024.06 (io_trps.svl 2023.06)
