@<TRIPOS>MOLECULE
NONAME
48 49 1 0 0 
SMALL
USER_CHARGES


@<TRIPOS>ATOM
  1 O        5.7510    -5.7510     0.8530 O.3   1 <1>  -0.3630 
  2 C        6.5440    -4.6520     0.7510 C.ar  1 <1>   0.0830 
  3 C        4.3540    -5.6550     0.7310 C.3   1 <1>   0.1200 
  4 C        7.9050    -4.8490     0.5290 C.ar  1 <1>  -0.1440 
  5 C        6.0440    -3.3560     0.8520 C.ar  1 <1>  -0.1500 
  6 C        3.8110    -7.0850     0.6550 C.3   1 <1>   0.3430 
  7 C        8.7390    -3.7500     0.3930 C.ar  1 <1>  -0.1500 
  8 C        8.5040    -6.2470     0.4270 C.3   1 <1>   0.1220 
  9 C        6.8900    -2.2700     0.7190 C.ar  1 <1>  -0.1500 
 10 N        2.3180    -7.1380     0.5140 N.4   1 <1>  -0.9590 
 11 C        8.2410    -2.4610     0.4850 C.ar  1 <1>  -0.1430 
 12 C        8.4090    -6.7630    -1.0000 C.2   1 <1>  -0.2880 
 13 C        1.8340    -8.5340     0.7300 C.3   1 <1>   0.3430 
 14 C        1.8540    -6.6060    -0.8050 C.3   1 <1>   0.3430 
 15 C        9.1720    -1.2720     0.3340 C.3   1 <1>  -0.0970 
 16 C        9.4390    -7.1860    -1.7380 C.2   1 <1>  -0.3000 
 17 C        0.3060    -8.5570     0.7230 C.3   1 <1>  -0.1600 
 18 C        0.3260    -6.5890    -0.8450 C.3   1 <1>  -0.1600 
 19 C       -0.2630    -7.9810    -0.5810 C.3   1 <1>  -0.0800 
 20 C       -1.7930    -7.9180    -0.5230 C.3   1 <1>  -0.2400 
 21 H        4.1400    -5.1050    -0.1670 H     1 <1>   0.0800 
 22 H        3.9780    -5.1440     1.5990 H     1 <1>   0.0800 
 23 H        5.0070    -3.1640     1.0400 H     1 <1>   0.1500 
 24 H        4.1020    -7.5990     1.5570 H     1 <1>   0.0800 
 25 H        4.2700    -7.5870    -0.1810 H     1 <1>   0.0800 
 26 H        9.7890    -3.8980     0.2110 H     1 <1>   0.1500 
 27 H        7.9890    -6.9200     1.0880 H     1 <1>   0.0800 
 28 H        9.5330    -6.2250     0.7380 H     1 <1>   0.0800 
 29 H        6.4950    -1.2730     0.8000 H     1 <1>   0.1500 
 30 H        1.8920    -6.5600     1.2510 H     1 <1>   0.4500 
 31 H        7.3990    -6.7490    -1.3710 H     1 <1>   0.1500 
 32 H        2.1930    -8.9090     1.6750 H     1 <1>   0.0800 
 33 H        2.2070    -9.1750    -0.0530 H     1 <1>   0.0800 
 34 H        2.2270    -7.2300    -1.6020 H     1 <1>   0.0800 
 35 H        2.2240    -5.6050    -0.9570 H     1 <1>   0.0800 
 36 H        9.9440    -1.4900    -0.3810 H     1 <1>   0.0800 
 37 H        9.6290    -1.0450     1.2810 H     1 <1>   0.0800 
 38 H        8.6300    -0.4070    -0.0060 H     1 <1>   0.0800 
 39 H        9.3470    -7.5440    -2.7500 H     1 <1>   0.1500 
 40 H       10.4610    -7.2100    -1.3990 H     1 <1>   0.1500 
 41 H       -0.0630    -8.0020     1.5690 H     1 <1>   0.0800 
 42 H       -0.0260    -9.5750     0.8380 H     1 <1>   0.0800 
 43 H        0.0090    -6.2460    -1.8150 H     1 <1>   0.0800 
 44 H       -0.0410    -5.8840    -0.1190 H     1 <1>   0.0800 
 45 H        0.0140    -8.6330    -1.3950 H     1 <1>   0.0800 
 46 H       -2.1250    -7.2780     0.2760 H     1 <1>   0.0800 
 47 H       -2.2030    -8.9010    -0.3640 H     1 <1>   0.0800 
 48 H       -2.1890    -7.5390    -1.4490 H     1 <1>   0.0800 
@<TRIPOS>BOND
  1   1   2  1   
  2   1   3  1   
  3   2   4  ar  
  4   2   5  ar  
  5   3   6  1   
  6   3  21  1   
  7   3  22  1   
  8   4   7  ar  
  9   4   8  1   
 10   5   9  ar  
 11   5  23  1   
 12   6  10  1   
 13   6  24  1   
 14   6  25  1   
 15   7  11  ar  
 16   7  26  1   
 17   8  12  1   
 18   8  27  1   
 19   8  28  1   
 20   9  11  ar  
 21   9  29  1   
 22  10  13  1   
 23  10  14  1   
 24  10  30  1   
 25  11  15  1   
 26  12  16  2   
 27  12  31  1   
 28  13  17  1   
 29  13  32  1   
 30  13  33  1   
 31  14  18  1   
 32  14  34  1   
 33  14  35  1   
 34  15  36  1   
 35  15  37  1   
 36  15  38  1   
 37  16  39  1   
 38  16  40  1   
 39  17  19  1   
 40  17  41  1   
 41  17  42  1   
 42  18  19  1   
 43  18  43  1   
 44  18  44  1   
 45  19  20  1   
 46  19  45  1   
 47  20  46  1   
 48  20  47  1   
 49  20  48  1   
@<TRIPOS>SUBSTRUCTURE
  1 ****   3 GROUP 4 **** **** 0

# MOE 2024.06 (io_trps.svl 2023.06)
