@<TRIPOS>MOLECULE
NONAME
44 45 1 0 0 
SMALL
USER_CHARGES


@<TRIPOS>ATOM
  1 O       -4.3380     4.2640     2.3290 O.2   1 <1>  -0.5700 
  2 C       -3.7870     3.6890     1.4110 C.2   1 <1>   0.5440 
  3 N       -4.5570     2.9710     0.5380 N.am  1 <1>  -0.7300 
  4 C       -2.3490     3.7830     1.2260 C.ar  1 <1>   0.0860 
  5 C       -6.0160     2.8090     0.6480 C.3   1 <1>   0.2200 
  6 C       -1.6120     2.7580     0.6270 C.ar  1 <1>  -0.1500 
  7 C       -1.6480     4.9150     1.6420 C.ar  1 <1>  -0.1500 
  8 C       -6.3910     1.3990     0.1980 C.3   1 <1>  -0.1600 
  9 C       -6.6940     3.8460    -0.2430 C.3   1 <1>  -0.1600 
 10 C       -0.2460     2.8650     0.4400 C.ar  1 <1>  -0.1500 
 11 C       -0.2820     5.0290     1.4590 C.ar  1 <1>  -0.1500 
 12 C       -7.9140     1.1610     0.2250 C.3   1 <1>   0.2560 
 13 C       -8.2290     3.7150    -0.2340 C.3   1 <1>   0.2560 
 14 C        0.4210     4.0040     0.8540 C.ar  1 <1>  -0.1500 
 15 N       -8.6290     2.2820    -0.4930 N.4   1 <1>  -0.1220 
 16 C       -8.2040    -0.1410    -0.5410 C.3   1 <1>  -0.2400 
 17 C       -8.4000     0.9600     1.6760 C.3   1 <1>  -0.2400 
 18 C       -8.8080     4.2820     1.0800 C.3   1 <1>  -0.2400 
 19 C       -8.7850     4.5680    -1.3870 C.3   1 <1>  -0.2400 
 20 O       -9.9890     2.1300    -0.3930 O.2   1 <1>  -0.7500 
 21 H       -4.1270     2.6110    -0.3120 H     1 <1>   0.3700 
 22 H       -6.3090     2.9560     1.6740 H     1 <1>   0.0800 
 23 H       -2.1100     1.8590     0.3120 H     1 <1>   0.1500 
 24 H       -2.1890     5.7150     2.1170 H     1 <1>   0.1500 
 25 H       -5.9090     0.6840     0.8420 H     1 <1>   0.0800 
 26 H       -6.0260     1.2400    -0.8010 H     1 <1>   0.0800 
 27 H       -6.3320     3.7370    -1.2500 H     1 <1>   0.0800 
 28 H       -6.4210     4.8300     0.0970 H     1 <1>   0.0800 
 29 H        0.3030     2.0640    -0.0240 H     1 <1>   0.1500 
 30 H        0.2330     5.9150     1.7880 H     1 <1>   0.1500 
 31 H        1.4850     4.0900     0.7090 H     1 <1>   0.1500 
 32 H       -8.4280     2.1300    -1.4830 H     1 <1>   0.3600 
 33 H       -7.9040    -0.0630    -1.5700 H     1 <1>   0.0800 
 34 H       -9.2570    -0.3630    -0.5070 H     1 <1>   0.0800 
 35 H       -7.6780    -0.9670    -0.0970 H     1 <1>   0.0800 
 36 H       -8.1150     1.7650     2.3190 H     1 <1>   0.0800 
 37 H       -7.9760     0.0620     2.0870 H     1 <1>   0.0800 
 38 H       -9.4700     0.8580     1.7040 H     1 <1>   0.0800 
 39 H       -8.3640     3.8420     1.9470 H     1 <1>   0.0800 
 40 H       -9.8720     4.1290     1.1200 H     1 <1>   0.0800 
 41 H       -8.6260     5.3390     1.1370 H     1 <1>   0.0800 
 42 H       -8.4320     4.2150    -2.3390 H     1 <1>   0.0800 
 43 H       -8.4870     5.5950    -1.2750 H     1 <1>   0.0800 
 44 H       -9.8620     4.5340    -1.3860 H     1 <1>   0.0800 
@<TRIPOS>BOND
  1   1   2  2   
  2   2   3  am  
  3   2   4  1   
  4   3   5  1   
  5   3  21  1   
  6   4   6  ar  
  7   4   7  ar  
  8   5   8  1   
  9   5   9  1   
 10   5  22  1   
 11   6  10  ar  
 12   6  23  1   
 13   7  11  ar  
 14   7  24  1   
 15   8  12  1   
 16   8  25  1   
 17   8  26  1   
 18   9  13  1   
 19   9  27  1   
 20   9  28  1   
 21  10  14  ar  
 22  10  29  1   
 23  11  14  ar  
 24  11  30  1   
 25  12  15  1   
 26  12  16  1   
 27  12  17  1   
 28  13  15  1   
 29  13  18  1   
 30  13  19  1   
 31  14  31  1   
 32  15  20  2   
 33  15  32  1   
 34  16  33  1   
 35  16  34  1   
 36  16  35  1   
 37  17  36  1   
 38  17  37  1   
 39  17  38  1   
 40  18  39  1   
 41  18  40  1   
 42  18  41  1   
 43  19  42  1   
 44  19  43  1   
 45  19  44  1   
@<TRIPOS>SUBSTRUCTURE
  1 ****   5 GROUP 4 **** **** 0

# MOE 2024.06 (io_trps.svl 2023.06)
