@<TRIPOS>MOLECULE
NONAME
53 55 1 0 0 
SMALL
USER_CHARGES


@<TRIPOS>ATOM
  1 O        0.0980     2.4240    -1.3290 O.2   1 <1>  -0.5700 
  2 C        0.2400     3.0340    -0.2960 C.2   1 <1>   0.5690 
  3 N       -0.7440     3.3720     0.5920 N.am  1 <1>  -0.2370 
  4 C        1.6050     3.5540     0.1620 C.3   1 <1>   0.2510 
  5 C       -2.1130     3.0370     0.4570 C.ar  1 <1>   0.1170 
  6 C       -0.2020     4.0970     1.6210 C.2   1 <1>   0.5690 
  7 N        2.5900     2.4790     0.4020 N.3   1 <1>  -0.9000 
  8 C        1.2880     4.2750     1.4740 C.3   1 <1>  -0.0990 
  9 C       -2.4990     1.7410     0.1280 C.ar  1 <1>  -0.1500 
 10 C       -3.1070     3.9930     0.6460 C.ar  1 <1>  -0.1500 
 11 O       -0.7980     4.5850     2.5450 O.2   1 <1>  -0.5700 
 12 C        3.9780     2.9240     0.4560 C.3   1 <1>   0.1900 
 13 C       -3.8350     1.4050    -0.0120 C.ar  1 <1>  -0.1500 
 14 C       -4.4430     3.6630     0.5080 C.ar  1 <1>  -0.1500 
 15 C        4.5500     3.0900    -0.9640 C.3   1 <1>  -0.0170 
 16 C        4.7380     1.8730     1.2590 C.3   1 <1>  -0.2400 
 17 C       -4.8180     2.3720     0.1780 C.ar  1 <1>   0.0830 
 18 C        5.9550     3.6750    -0.9400 C.ar  1 <1>  -0.1430 
 19 O       -6.1500     2.1340     0.0600 O.3   1 <1>  -0.3630 
 20 C        7.0610     2.8600    -1.1290 C.ar  1 <1>  -0.1500 
 21 C        6.1410     5.0330    -0.7280 C.ar  1 <1>  -0.1500 
 22 C       -6.6330     0.8550    -0.2830 C.3   1 <1>   0.1200 
 23 C        8.3370     3.3950    -1.1030 C.ar  1 <1>  -0.1500 
 24 C        7.4170     5.5700    -0.7020 C.ar  1 <1>  -0.1500 
 25 C       -8.1590     0.9210    -0.3410 C.3   1 <1>  -0.1600 
 26 C        8.5160     4.7510    -0.8890 C.ar  1 <1>  -0.1500 
 27 C       -8.7640    -0.4390    -0.7100 C.3   1 <1>  -0.2400 
 28 H        1.9640     4.2470    -0.5780 H     1 <1>   0.0800 
 29 H        2.5020     1.7810    -0.3520 H     1 <1>   0.3600 
 30 H        1.5230     5.3200     1.4110 H     1 <1>   0.0800 
 31 H        1.7870     3.8290     2.3160 H     1 <1>   0.0800 
 32 H       -1.7480     0.9860    -0.0250 H     1 <1>   0.1500 
 33 H       -2.8380     5.0010     0.9070 H     1 <1>   0.1500 
 34 H        4.0390     3.8630     0.9830 H     1 <1>   0.0800 
 35 H       -4.0870     0.3940    -0.2690 H     1 <1>   0.1500 
 36 H       -5.2050     4.4060     0.6570 H     1 <1>   0.1500 
 37 H        3.9270     3.7490    -1.5390 H     1 <1>   0.0800 
 38 H        4.5630     2.1370    -1.4610 H     1 <1>   0.0800 
 39 H        4.7260     0.9240     0.7540 H     1 <1>   0.0800 
 40 H        4.2930     1.7620     2.2310 H     1 <1>   0.0800 
 41 H        5.7610     2.1780     1.3940 H     1 <1>   0.0800 
 42 H        6.9360     1.8050    -1.2950 H     1 <1>   0.1500 
 43 H        5.2950     5.6810    -0.5830 H     1 <1>   0.1500 
 44 H       -6.3110     0.1570     0.4700 H     1 <1>   0.0800 
 45 H       -6.2280     0.5850    -1.2430 H     1 <1>   0.0800 
 46 H        9.1910     2.7570    -1.2490 H     1 <1>   0.1500 
 47 H        7.5550     6.6240    -0.5380 H     1 <1>   0.1500 
 48 H       -8.4530     1.6510    -1.0750 H     1 <1>   0.0800 
 49 H       -8.5350     1.2280     0.6200 H     1 <1>   0.0800 
 50 H        9.5080     5.1670    -0.8690 H     1 <1>   0.1500 
 51 H       -8.4120    -0.7580    -1.6760 H     1 <1>   0.0800 
 52 H       -9.8370    -0.3650    -0.7450 H     1 <1>   0.0800 
 53 H       -8.4960    -1.1810     0.0210 H     1 <1>   0.0800 
@<TRIPOS>BOND
  1   1   2  2   
  2   2   3  am  
  3   2   4  1   
  4   3   5  1   
  5   3   6  am  
  6   4   7  1   
  7   4   8  1   
  8   4  28  1   
  9   5   9  ar  
 10   5  10  ar  
 11   6   8  1   
 12   6  11  2   
 13   7  12  1   
 14   7  29  1   
 15   8  30  1   
 16   8  31  1   
 17   9  13  ar  
 18   9  32  1   
 19  10  14  ar  
 20  10  33  1   
 21  12  15  1   
 22  12  16  1   
 23  12  34  1   
 24  13  17  ar  
 25  13  35  1   
 26  14  17  ar  
 27  14  36  1   
 28  15  18  1   
 29  15  37  1   
 30  15  38  1   
 31  16  39  1   
 32  16  40  1   
 33  16  41  1   
 34  17  19  1   
 35  18  20  ar  
 36  18  21  ar  
 37  19  22  1   
 38  20  23  ar  
 39  20  42  1   
 40  21  24  ar  
 41  21  43  1   
 42  22  25  1   
 43  22  44  1   
 44  22  45  1   
 45  23  26  ar  
 46  23  46  1   
 47  24  26  ar  
 48  24  47  1   
 49  25  27  1   
 50  25  48  1   
 51  25  49  1   
 52  26  50  1   
 53  27  51  1   
 54  27  52  1   
 55  27  53  1   
@<TRIPOS>SUBSTRUCTURE
  1 ****   2 GROUP 4 **** **** 0

# MOE 2024.06 (io_trps.svl 2023.06)
