@<TRIPOS>MOLECULE
NONAME
48 50 1 0 0 
SMALL
USER_CHARGES


@<TRIPOS>ATOM
  1 CL      -1.6740     1.5560     1.7890 Cl    1 <1>  -0.1770 
  2 C       -2.5690     0.1630     1.2170 C.ar  1 <1>   0.1770 
  3 C       -2.0080    -1.1070     1.2830 C.ar  1 <1>   0.0830 
  4 C       -3.8310     0.3670     0.7060 C.ar  1 <1>  -0.1500 
  5 O       -0.7560    -1.2310     1.7930 O.3   1 <1>  -0.3630 
  6 C       -2.7590    -2.1860     0.8260 C.ar  1 <1>  -0.1500 
  7 C       -4.5880    -0.7010     0.2270 C.ar  1 <1>   0.0860 
  8 C       -0.1070    -2.4770     1.9140 C.3   1 <1>   0.0400 
  9 C       -4.0390    -1.9910     0.3110 C.ar  1 <1>   0.0830 
 10 C       -5.8960    -0.4420    -0.3160 C.2   1 <1>   0.3030 
 11 O       -4.8130    -3.0290    -0.1050 O.3   1 <1>  -0.3630 
 12 N       -6.8390     0.1770     0.2650 N.2   1 <1>  -0.5130 
 13 C       -6.2820    -0.8940    -1.7020 C.3   1 <1>  -0.0990 
 14 C       -4.3150    -4.3470    -0.2160 C.3   1 <1>   0.0400 
 15 O       -7.8990     0.2540    -0.5100 O.3   1 <1>  -0.2170 
 16 C       -7.7110    -0.3680    -1.7700 C.3   1 <1>   0.2610 
 17 C       -8.8110    -1.4120    -2.0170 C.2   1 <1>   0.5690 
 18 O       -9.3890    -1.3420    -3.0750 O.2   1 <1>  -0.5700 
 19 N       -9.2050    -2.3490    -1.0790 N.am  1 <1>  -0.6600 
 20 C       -8.5360    -2.6170     0.2280 C.3   1 <1>   0.1400 
 21 C      -10.6120    -2.8430    -1.0840 C.3   1 <1>   0.1400 
 22 C       -9.2790    -1.8670     1.3490 C.3   1 <1>   0.3430 
 23 C      -11.4020    -2.1130     0.0240 C.3   1 <1>   0.3430 
 24 N      -10.7480    -2.2290     1.3860 N.4   1 <1>  -0.9590 
 25 C      -11.4600    -1.3770     2.3850 C.3   1 <1>   0.2630 
 26 H       -4.2340     1.3640     0.6760 H     1 <1>   0.1500 
 27 H       -2.3460    -3.1720     0.8830 H     1 <1>   0.1500 
 28 H        0.8640    -2.3060     2.3440 H     1 <1>   0.0800 
 29 H        0.0010    -2.9120     0.9360 H     1 <1>   0.0800 
 30 H       -0.6850    -3.1130     2.5610 H     1 <1>   0.0800 
 31 H       -6.2550    -1.9590    -1.8250 H     1 <1>   0.0800 
 32 H       -5.6680    -0.4250    -2.4480 H     1 <1>   0.0800 
 33 H       -5.0880    -4.9650    -0.6370 H     1 <1>   0.0800 
 34 H       -4.0540    -4.7090     0.7630 H     1 <1>   0.0800 
 35 H       -3.4590    -4.3450    -0.8680 H     1 <1>   0.0800 
 36 H       -7.7840     0.4050    -2.5130 H     1 <1>   0.0800 
 37 H       -7.5060    -2.3290     0.2080 H     1 <1>   0.0800 
 38 H       -8.5540    -3.6740     0.4270 H     1 <1>   0.0800 
 39 H      -10.6260    -3.9060    -0.9170 H     1 <1>   0.0800 
 40 H      -11.0810    -2.6580    -2.0360 H     1 <1>   0.0800 
 41 H       -9.1670    -0.8080     1.1800 H     1 <1>   0.0800 
 42 H       -8.8180    -2.0960     2.2950 H     1 <1>   0.0800 
 43 H      -12.4030    -2.5100     0.0630 H     1 <1>   0.0800 
 44 H      -11.4710    -1.0740    -0.2530 H     1 <1>   0.0800 
 45 H      -10.8160    -3.2130     1.6800 H     1 <1>   0.4500 
 46 H      -11.3960    -0.3380     2.1030 H     1 <1>   0.0800 
 47 H      -11.0170    -1.4950     3.3610 H     1 <1>   0.0800 
 48 H      -12.4990    -1.6560     2.4450 H     1 <1>   0.0800 
@<TRIPOS>BOND
  1   1   2  1   
  2   2   3  ar  
  3   2   4  ar  
  4   3   5  1   
  5   3   6  ar  
  6   4   7  ar  
  7   4  26  1   
  8   5   8  1   
  9   6   9  ar  
 10   6  27  1   
 11   7   9  ar  
 12   7  10  1   
 13   8  28  1   
 14   8  29  1   
 15   8  30  1   
 16   9  11  1   
 17  10  12  2   
 18  10  13  1   
 19  11  14  1   
 20  12  15  1   
 21  13  16  1   
 22  13  31  1   
 23  13  32  1   
 24  14  33  1   
 25  14  34  1   
 26  14  35  1   
 27  15  16  1   
 28  16  17  1   
 29  16  36  1   
 30  17  18  2   
 31  17  19  am  
 32  19  20  1   
 33  19  21  1   
 34  20  22  1   
 35  20  37  1   
 36  20  38  1   
 37  21  23  1   
 38  21  39  1   
 39  21  40  1   
 40  22  24  1   
 41  22  41  1   
 42  22  42  1   
 43  23  24  1   
 44  23  43  1   
 45  23  44  1   
 46  24  25  1   
 47  24  45  1   
 48  25  46  1   
 49  25  47  1   
 50  25  48  1   
@<TRIPOS>SUBSTRUCTURE
  1 ****  10 GROUP 4 **** **** 0

# MOE 2024.06 (io_trps.svl 2023.06)
