@<TRIPOS>MOLECULE
NONAME
39 39 1 0 0 
SMALL
USER_CHARGES


@<TRIPOS>ATOM
  1 O        0.2730     0.4860     0.9890 O.3   1 <1>  -0.6800 
  2 C       -0.3200     1.5760     0.3950 C.3   1 <1>   0.4800 
  3 C        0.8060     2.4840     0.0290 C.1   1 <1>  -0.2000 
  4 C       -1.1280     1.1020    -0.8520 C.3   1 <1>  -0.0800 
  5 C       -1.1780     2.2450     1.4680 C.3   1 <1>  -0.2400 
  6 C        1.7940     3.1050    -0.1980 C.1   1 <1>  -0.2000 
  7 C       -2.3000     0.1540    -0.5210 C.3   1 <1>  -0.2400 
  8 C       -0.2530     0.4290    -1.9320 C.3   1 <1>  -0.2400 
  9 C        3.1440     3.6910    -0.3830 C.3   1 <1>   0.5430 
 10 N        4.1080     2.5630    -0.3430 N.4   1 <1>  -0.9590 
 11 C        4.1350     1.9010     1.0000 C.3   1 <1>   0.3430 
 12 C        5.4620     2.9730    -0.8050 C.3   1 <1>   0.3430 
 13 C        5.0260     0.6590     0.9430 C.3   1 <1>  -0.1600 
 14 C        6.3700     1.7440    -0.8930 C.3   1 <1>  -0.1600 
 15 C        6.4370     0.9890     0.4410 C.3   1 <1>  -0.1600 
 16 H       -0.4210    -0.1730     1.1670 H     1 <1>   0.4000 
 17 H       -1.5540     1.9850    -1.2980 H     1 <1>   0.0800 
 18 H       -0.5570     2.6030     2.2700 H     1 <1>   0.0800 
 19 H       -1.9030     1.5650     1.8750 H     1 <1>   0.0800 
 20 H       -1.6960     3.0870     1.0460 H     1 <1>   0.0800 
 21 H       -1.9490    -0.7510    -0.0580 H     1 <1>   0.0800 
 22 H       -2.8220    -0.1150    -1.4230 H     1 <1>   0.0800 
 23 H       -3.0130     0.6260     0.1290 H     1 <1>   0.0800 
 24 H        0.2180    -0.4570    -1.5430 H     1 <1>   0.0800 
 25 H        0.5110     1.0990    -2.2830 H     1 <1>   0.0800 
 26 H       -0.8550     0.1480    -2.7790 H     1 <1>   0.0800 
 27 H        3.3550     4.4000     0.4010 H     1 <1>   0.0800 
 28 H        3.1890     4.1930    -1.3360 H     1 <1>   0.0800 
 29 H        3.7380     1.8600    -0.9950 H     1 <1>   0.4500 
 30 H        3.1380     1.6070     1.2930 H     1 <1>   0.0800 
 31 H        4.5180     2.5860     1.7390 H     1 <1>   0.0800 
 32 H        5.8860     3.6810    -0.1110 H     1 <1>   0.0800 
 33 H        5.4000     3.4400    -1.7750 H     1 <1>   0.0800 
 34 H        4.5680    -0.0750     0.3010 H     1 <1>   0.0800 
 35 H        5.0870     0.2270     1.9270 H     1 <1>   0.0800 
 36 H        7.3610     2.0580    -1.1730 H     1 <1>   0.0800 
 37 H        6.0110     1.0890    -1.6670 H     1 <1>   0.0800 
 38 H        7.0030     0.0800     0.3190 H     1 <1>   0.0800 
 39 H        6.9460     1.5950     1.1730 H     1 <1>   0.0800 
@<TRIPOS>BOND
  1   1   2  1   
  2   1  16  1   
  3   2   3  1   
  4   2   4  1   
  5   2   5  1   
  6   3   6  3   
  7   4   7  1   
  8   4   8  1   
  9   4  17  1   
 10   5  18  1   
 11   5  19  1   
 12   5  20  1   
 13   6   9  1   
 14   7  21  1   
 15   7  22  1   
 16   7  23  1   
 17   8  24  1   
 18   8  25  1   
 19   8  26  1   
 20   9  10  1   
 21   9  27  1   
 22   9  28  1   
 23  10  11  1   
 24  10  12  1   
 25  10  29  1   
 26  11  13  1   
 27  11  30  1   
 28  11  31  1   
 29  12  14  1   
 30  12  32  1   
 31  12  33  1   
 32  13  15  1   
 33  13  34  1   
 34  13  35  1   
 35  14  15  1   
 36  14  36  1   
 37  14  37  1   
 38  15  38  1   
 39  15  39  1   
@<TRIPOS>SUBSTRUCTURE
  1 ****   6 GROUP 4 **** **** 0

# MOE 2024.06 (io_trps.svl 2023.06)
