@<TRIPOS>MOLECULE
NONAME
55 58 1 0 0 
SMALL
USER_CHARGES


@<TRIPOS>ATOM
  1 O       -0.4800    -0.1960    -0.0310 O.3   1 <1>  -0.3630 
  2 C       -1.7170    -0.6130     0.3470 C.ar  1 <1>   0.0830 
  3 C        0.5420    -0.4690     0.9010 C.3   1 <1>   0.0400 
  4 C       -2.5320     0.2120     1.1330 C.ar  1 <1>   0.0830 
  5 C       -2.1750    -1.8910    -0.0050 C.ar  1 <1>   0.0820 
  6 O       -2.2300     1.4860     1.5020 O.3   1 <1>  -0.3630 
  7 C       -3.7460    -0.2620     1.6010 C.ar  1 <1>  -0.1500 
  8 O       -1.5130    -2.7760    -0.7990 O.3   1 <1>  -0.3630 
  9 C       -3.3930    -2.3400     0.4760 C.ar  1 <1>  -0.1500 
 10 C       -1.6080     2.3630     0.5850 C.3   1 <1>   0.0400 
 11 C       -4.1870    -1.5350     1.2770 C.ar  1 <1>  -0.1430 
 12 C       -0.7410    -2.3280    -1.8940 C.3   1 <1>   0.0400 
 13 C       -5.5260    -2.0330     1.7790 C.3   1 <1>   0.4860 
 14 N       -6.4870    -2.0200     0.6410 N.4   1 <1>  -0.9590 
 15 C       -6.7210    -0.6280     0.1420 C.3   1 <1>   0.3430 
 16 C       -7.7490    -2.7350     0.9930 C.3   1 <1>   0.3430 
 17 C       -7.6280    -0.6580    -1.0820 C.3   1 <1>  -0.1600 
 18 C       -8.6690    -2.7960    -0.2200 C.3   1 <1>  -0.1600 
 19 C       -8.9340    -1.4060    -0.8020 C.3   1 <1>   0.2820 
 20 C       -9.9100    -0.5850     0.0570 C.ar  1 <1>  -0.1430 
 21 C       -9.7450    -1.5290    -2.0810 C.2   1 <1>  -0.2880 
 22 C      -11.0580    -0.3290    -0.6770 C.ar  1 <1>   0.0280 
 23 C       -9.8000    -0.1090     1.3560 C.ar  1 <1>  -0.1500 
 24 C      -10.9260    -0.9150    -1.9710 C.2   1 <1>  -0.1780 
 25 C      -12.1030     0.3980    -0.1270 C.ar  1 <1>  -0.1500 
 26 C      -10.8440     0.6180     1.9060 C.ar  1 <1>  -0.1500 
 27 C      -11.9910     0.8700     1.1690 C.ar  1 <1>  -0.1500 
 28 H        0.6000    -1.5320     1.0540 H     1 <1>   0.0800 
 29 H        1.4700    -0.1010     0.5020 H     1 <1>   0.0800 
 30 H        0.3140     0.0310     1.8270 H     1 <1>   0.0800 
 31 H       -4.3320     0.3910     2.2240 H     1 <1>   0.1500 
 32 H       -3.6980    -3.3370     0.2080 H     1 <1>   0.1500 
 33 H       -1.8290     3.3720     0.8820 H     1 <1>   0.0800 
 34 H       -1.9910     2.1760    -0.4020 H     1 <1>   0.0800 
 35 H       -0.5450     2.2050     0.6150 H     1 <1>   0.0800 
 36 H       -1.2360    -1.4950    -2.3610 H     1 <1>   0.0800 
 37 H        0.2330    -2.0410    -1.5410 H     1 <1>   0.0800 
 38 H       -0.6450    -3.1400    -2.5920 H     1 <1>   0.0800 
 39 H       -5.8800    -1.4030     2.5780 H     1 <1>   0.0800 
 40 H       -5.4100    -3.0360     2.1580 H     1 <1>   0.0800 
 41 H       -6.0250    -2.5310    -0.1220 H     1 <1>   0.4500 
 42 H       -5.7830    -0.1680    -0.1280 H     1 <1>   0.0800 
 43 H       -7.1750    -0.0290     0.9130 H     1 <1>   0.0800 
 44 H       -8.2510    -2.2240     1.7980 H     1 <1>   0.0800 
 45 H       -7.5270    -3.7380     1.3210 H     1 <1>   0.0800 
 46 H       -7.1060    -1.1260    -1.8970 H     1 <1>   0.0800 
 47 H       -7.8550     0.3500    -1.3820 H     1 <1>   0.0800 
 48 H       -9.6050    -3.2440     0.0650 H     1 <1>   0.0800 
 49 H       -8.2250    -3.4260    -0.9700 H     1 <1>   0.0800 
 50 H       -9.3440    -2.0630    -2.9250 H     1 <1>   0.1500 
 51 H       -8.9300    -0.2820     1.9570 H     1 <1>   0.1500 
 52 H      -11.7070    -0.8360    -2.7080 H     1 <1>   0.1500 
 53 H      -12.9880     0.5890    -0.7070 H     1 <1>   0.1500 
 54 H      -10.7710     0.9930     2.9130 H     1 <1>   0.1500 
 55 H      -12.7980     1.4350     1.6050 H     1 <1>   0.1500 
@<TRIPOS>BOND
  1   1   2  1   
  2   1   3  1   
  3   2   4  ar  
  4   2   5  ar  
  5   3  28  1   
  6   3  29  1   
  7   3  30  1   
  8   4   6  1   
  9   4   7  ar  
 10   5   8  1   
 11   5   9  ar  
 12   6  10  1   
 13   7  11  ar  
 14   7  31  1   
 15   8  12  1   
 16   9  11  ar  
 17   9  32  1   
 18  10  33  1   
 19  10  34  1   
 20  10  35  1   
 21  11  13  1   
 22  12  36  1   
 23  12  37  1   
 24  12  38  1   
 25  13  14  1   
 26  13  39  1   
 27  13  40  1   
 28  14  15  1   
 29  14  16  1   
 30  14  41  1   
 31  15  17  1   
 32  15  42  1   
 33  15  43  1   
 34  16  18  1   
 35  16  44  1   
 36  16  45  1   
 37  17  19  1   
 38  17  46  1   
 39  17  47  1   
 40  18  19  1   
 41  18  48  1   
 42  18  49  1   
 43  19  20  1   
 44  19  21  1   
 45  20  22  ar  
 46  20  23  ar  
 47  21  24  2   
 48  21  50  1   
 49  22  24  1   
 50  22  25  ar  
 51  23  26  ar  
 52  23  51  1   
 53  24  52  1   
 54  25  27  ar  
 55  25  53  1   
 56  26  27  ar  
 57  26  54  1   
 58  27  55  1   
@<TRIPOS>SUBSTRUCTURE
  1 ****  15 GROUP 4 **** **** 0

# MOE 2024.06 (io_trps.svl 2023.06)
