@<TRIPOS>MOLECULE
NONAME
49 50 1 0 0 
SMALL
USER_CHARGES


@<TRIPOS>ATOM
  1 O        0.6950    -3.4320     0.7350 O.2   1 <1>  -0.5700 
  2 C        0.8790    -4.4510     0.1180 C.2   1 <1>   0.5690 
  3 N        2.0960    -4.8600    -0.3460 N.am  1 <1>  -0.5470 
  4 C       -0.3160    -5.3430    -0.1440 C.3   1 <1>  -0.0990 
  5 C        3.3570    -4.2430    -0.2700 C.ar  1 <1>   0.1170 
  6 C       -1.5990    -4.5920     0.2220 C.3   1 <1>   0.3430 
  7 C        4.4880    -5.0380    -0.3900 C.ar  1 <1>  -0.1500 
  8 C        3.5300    -2.8740    -0.1000 C.ar  1 <1>  -0.1500 
  9 N       -2.8250    -5.4020    -0.0500 N.4   1 <1>  -0.9590 
 10 C        5.7590    -4.4950    -0.3380 C.ar  1 <1>   0.0830 
 11 C        4.7940    -2.3120    -0.0460 C.ar  1 <1>   0.0830 
 12 C       -4.0360    -4.5160    -0.0350 C.3   1 <1>   0.3430 
 13 C       -3.0010    -6.5400     0.8970 C.3   1 <1>   0.3430 
 14 O        6.7920    -5.3660    -0.4650 O.3   1 <1>  -0.3630 
 15 C        5.9180    -3.1240    -0.1650 C.ar  1 <1>  -0.1500 
 16 O        4.8540    -0.9660     0.1220 O.3   1 <1>  -0.3620 
 17 C       -5.3570    -5.3140    -0.0600 C.3   1 <1>  -0.0800 
 18 C       -4.1010    -7.4740     0.3750 C.3   1 <1>  -0.1600 
 19 C        8.1320    -4.9320    -0.4040 C.3   1 <1>   0.0400 
 20 C        6.0850    -0.2890     0.2400 C.3   1 <1>   0.0400 
 21 C       -5.1560    -6.7740    -0.5020 C.3   1 <1>  -0.1600 
 22 C       -6.3880    -4.6230    -0.9620 C.3   1 <1>  -0.2400 
 23 H        2.1270    -5.7800    -0.7820 H     1 <1>   0.3700 
 24 H       -0.2080    -6.2260     0.4560 H     1 <1>   0.0800 
 25 H       -0.3290    -5.6060    -1.1850 H     1 <1>   0.0800 
 26 H       -1.6320    -3.6810    -0.3550 H     1 <1>   0.0800 
 27 H       -1.5650    -4.3110     1.2630 H     1 <1>   0.0800 
 28 H        4.3950    -6.0990    -0.5230 H     1 <1>   0.1500 
 29 H        2.6830    -2.2210    -0.0100 H     1 <1>   0.1500 
 30 H       -2.7700    -5.8020    -0.9950 H     1 <1>   0.4500 
 31 H       -4.0030    -3.8650    -0.8940 H     1 <1>   0.0800 
 32 H       -4.0260    -3.8930     0.8460 H     1 <1>   0.0800 
 33 H       -3.2850    -6.1570     1.8650 H     1 <1>   0.0800 
 34 H       -2.0850    -7.0950     1.0100 H     1 <1>   0.0800 
 35 H        6.8970    -2.6960    -0.1250 H     1 <1>   0.1500 
 36 H       -5.7550    -5.3190     0.9420 H     1 <1>   0.0800 
 37 H       -4.5850    -7.9200     1.2270 H     1 <1>   0.0800 
 38 H       -3.6540    -8.2790    -0.1820 H     1 <1>   0.0800 
 39 H        8.7670    -5.7920    -0.5180 H     1 <1>   0.0800 
 40 H        8.3070    -4.4730     0.5530 H     1 <1>   0.0800 
 41 H        8.3110    -4.2370    -1.2060 H     1 <1>   0.0800 
 42 H        5.8770     0.7560     0.3850 H     1 <1>   0.0800 
 43 H        6.6480    -0.4270    -0.6660 H     1 <1>   0.0800 
 44 H        6.6160    -0.6770     1.0910 H     1 <1>   0.0800 
 45 H       -4.8350    -6.7930    -1.5300 H     1 <1>   0.0800 
 46 H       -6.0870    -7.3140    -0.4460 H     1 <1>   0.0800 
 47 H       -6.0500    -4.5920    -1.9840 H     1 <1>   0.0800 
 48 H       -6.5700    -3.6160    -0.6290 H     1 <1>   0.0800 
 49 H       -7.3250    -5.1550    -0.9330 H     1 <1>   0.0800 
@<TRIPOS>BOND
  1   1   2  2   
  2   2   3  am  
  3   2   4  1   
  4   3   5  1   
  5   3  23  1   
  6   4   6  1   
  7   4  24  1   
  8   4  25  1   
  9   5   7  ar  
 10   5   8  ar  
 11   6   9  1   
 12   6  26  1   
 13   6  27  1   
 14   7  10  ar  
 15   7  28  1   
 16   8  11  ar  
 17   8  29  1   
 18   9  12  1   
 19   9  13  1   
 20   9  30  1   
 21  10  14  1   
 22  10  15  ar  
 23  11  15  ar  
 24  11  16  1   
 25  12  17  1   
 26  12  31  1   
 27  12  32  1   
 28  13  18  1   
 29  13  33  1   
 30  13  34  1   
 31  14  19  1   
 32  15  35  1   
 33  16  20  1   
 34  17  21  1   
 35  17  22  1   
 36  17  36  1   
 37  18  21  1   
 38  18  37  1   
 39  18  38  1   
 40  19  39  1   
 41  19  40  1   
 42  19  41  1   
 43  20  42  1   
 44  20  43  1   
 45  20  44  1   
 46  21  45  1   
 47  21  46  1   
 48  22  47  1   
 49  22  48  1   
 50  22  49  1   
@<TRIPOS>SUBSTRUCTURE
  1 ****   2 GROUP 4 **** **** 0

# MOE 2024.06 (io_trps.svl 2023.06)
