@<TRIPOS>MOLECULE
NONAME
37 38 1 0 0 
SMALL
USER_CHARGES


@<TRIPOS>ATOM
  1 S       -0.1060    -0.0300     0.1690 S.o2  1 <1>   1.4470 
  2 O       -0.5270    -0.7630    -1.0070 O.2   1 <1>  -0.6500 
  3 O       -0.5790    -0.4490     1.4700 O.2   1 <1>  -0.6500 
  4 N       -0.6120     1.5790    -0.0540 N.am  1 <1>  -0.8490 
  5 C        1.7030     0.0990     0.2040 C.ar  1 <1>  -0.0090 
  6 C       -2.0340     1.7520     0.2510 C.3   1 <1>   0.1160 
  7 C       -0.3190     2.0920    -1.3960 C.3   1 <1>   0.1160 
  8 C        2.5040    -0.7390    -0.5620 C.ar  1 <1>  -0.1500 
  9 C        2.3390     1.0400     1.0050 C.ar  1 <1>  -0.1500 
 10 C        3.8830    -0.6360    -0.5370 C.ar  1 <1>  -0.1500 
 11 C        3.7180     1.1480     1.0330 C.ar  1 <1>  -0.1500 
 12 C        4.5140     0.3130     0.2560 C.ar  1 <1>   0.1170 
 13 N        5.9140     0.3770     0.2500 N.am  1 <1>  -0.5470 
 14 C        6.7720     1.3820     0.5950 C.2   1 <1>   0.6300 
 15 O        6.4230     2.4690     0.9830 O.2   1 <1>  -0.5700 
 16 C        8.2600     1.0870     0.4740 C.3   1 <1>  -0.1000 
 17 C        9.1050     1.8120    -0.5290 C.3   1 <1>  -0.1950 
 18 C        8.8300     0.3560    -0.7180 C.3   1 <1>  -0.2000 
 19 C       10.5090     2.2960    -0.1670 C.3   1 <1>  -0.1450 
 20 H       -2.2280     1.4680     1.2720 H     1 <1>   0.0800 
 21 H       -2.6350     1.1380    -0.3990 H     1 <1>   0.0800 
 22 H       -2.3180     2.7830     0.1300 H     1 <1>   0.0800 
 23 H        0.7350     2.0070    -1.6030 H     1 <1>   0.0800 
 24 H       -0.5920     3.1310    -1.4610 H     1 <1>   0.0800 
 25 H       -0.8660     1.5380    -2.1420 H     1 <1>   0.0800 
 26 H        2.0370    -1.4830    -1.1880 H     1 <1>   0.1500 
 27 H        1.7430     1.6990     1.6150 H     1 <1>   0.1500 
 28 H        4.4710    -1.2980    -1.1460 H     1 <1>   0.1500 
 29 H        4.1710     1.8870     1.6680 H     1 <1>   0.1500 
 30 H        6.3820    -0.4500    -0.1120 H     1 <1>   0.3700 
 31 H        8.6990     0.9020     1.4380 H     1 <1>   0.1000 
 32 H        8.5910     2.5030    -1.1780 H     1 <1>   0.1000 
 33 H        8.2010     0.0820    -1.5470 H     1 <1>   0.1000 
 34 H        9.6270    -0.3490    -0.5570 H     1 <1>   0.1000 
 35 H       11.0010     1.5970     0.4870 H     1 <1>   0.0800 
 36 H       10.4490     3.2480     0.3310 H     1 <1>   0.0800 
 37 H       11.1000     2.4090    -1.0580 H     1 <1>   0.0800 
@<TRIPOS>BOND
  1   1   2  2   
  2   1   3  2   
  3   1   4  am  
  4   1   5  1   
  5   4   6  1   
  6   4   7  1   
  7   5   8  ar  
  8   5   9  ar  
  9   6  20  1   
 10   6  21  1   
 11   6  22  1   
 12   7  23  1   
 13   7  24  1   
 14   7  25  1   
 15   8  10  ar  
 16   8  26  1   
 17   9  11  ar  
 18   9  27  1   
 19  10  12  ar  
 20  10  28  1   
 21  11  12  ar  
 22  11  29  1   
 23  12  13  1   
 24  13  14  am  
 25  13  30  1   
 26  14  15  2   
 27  14  16  1   
 28  16  17  1   
 29  16  18  1   
 30  16  31  1   
 31  17  18  1   
 32  17  19  1   
 33  17  32  1   
 34  18  33  1   
 35  18  34  1   
 36  19  35  1   
 37  19  36  1   
 38  19  37  1   
@<TRIPOS>SUBSTRUCTURE
  1 ****  12 GROUP 4 **** **** 0

# MOE 2024.06 (io_trps.svl 2023.06)
