@<TRIPOS>MOLECULE
NONAME
29 29 1 0 0 
SMALL
USER_CHARGES


@<TRIPOS>ATOM
  1 O        1.8990    -1.7740    -2.0970 O.2   1 <1>  -0.5700 
  2 C        1.9380    -2.2430    -0.9840 C.2   1 <1>   0.6590 
  3 O        2.5530    -1.6180     0.0170 O.3   1 <1>  -0.4300 
  4 C        1.2570    -3.5740    -0.6470 C.3   1 <1>   0.1240 
  5 C        3.3330    -0.4620    -0.1690 C.3   1 <1>   0.1200 
  6 C       -0.1140    -3.3520     0.0020 C.ar  1 <1>  -0.1440 
  7 C        2.1170    -4.5020     0.2280 C.3   1 <1>  -0.2660 
  8 C        2.4340     0.7650    -0.0320 C.3   1 <1>  -0.2400 
  9 C       -1.2620    -3.8200    -0.6200 C.ar  1 <1>  -0.1500 
 10 C       -0.2310    -2.6840     1.2130 C.ar  1 <1>  -0.1500 
 11 C        3.4130    -4.8000    -0.4660 C.2   1 <1>   0.9060 
 12 C       -2.5050    -3.6240    -0.0440 C.ar  1 <1>  -0.1500 
 13 C       -1.4730    -2.4860     1.7910 C.ar  1 <1>  -0.1500 
 14 O        3.3790    -5.5220    -1.4640 O.co2 1 <1>  -0.9000 
 15 O        4.4510    -4.3060    -0.0230 O.co2 1 <1>  -0.9000 
 16 C       -2.6120    -2.9550     1.1630 C.ar  1 <1>  -0.1500 
 17 H        1.1100    -4.0770    -1.5870 H     1 <1>   0.0800 
 18 H        3.8050    -0.5080    -1.1370 H     1 <1>   0.0800 
 19 H        4.0960    -0.4650     0.5900 H     1 <1>   0.0800 
 20 H        1.6070    -5.4310     0.3930 H     1 <1>   0.0800 
 21 H        2.3310    -4.0500     1.1760 H     1 <1>   0.0800 
 22 H        1.6800     0.7550    -0.7990 H     1 <1>   0.0800 
 23 H        3.0220     1.6580    -0.1420 H     1 <1>   0.0800 
 24 H        1.9660     0.7740     0.9350 H     1 <1>   0.0800 
 25 H       -1.1910    -4.3420    -1.5590 H     1 <1>   0.1500 
 26 H        0.6500    -2.3160     1.7110 H     1 <1>   0.1500 
 27 H       -3.3880    -3.9910    -0.5370 H     1 <1>   0.1500 
 28 H       -1.5490    -1.9660     2.7300 H     1 <1>   0.1500 
 29 H       -3.5770    -2.8020     1.6110 H     1 <1>   0.1500 
@<TRIPOS>BOND
  1   1   2  2   
  2   2   3  1   
  3   2   4  1   
  4   3   5  1   
  5   4   6  1   
  6   4   7  1   
  7   4  17  1   
  8   5   8  1   
  9   5  18  1   
 10   5  19  1   
 11   6   9  ar  
 12   6  10  ar  
 13   7  11  1   
 14   7  20  1   
 15   7  21  1   
 16   8  22  1   
 17   8  23  1   
 18   8  24  1   
 19   9  12  ar  
 20   9  25  1   
 21  10  13  ar  
 22  10  26  1   
 23  11  14  ar  
 24  11  15  ar  
 25  12  16  ar  
 26  12  27  1   
 27  13  16  ar  
 28  13  28  1   
 29  16  29  1   
@<TRIPOS>SUBSTRUCTURE
  1 ****   4 GROUP 4 **** **** 0

# MOE 2024.06 (io_trps.svl 2023.06)
