@<TRIPOS>MOLECULE
NONAME
38 39 1 0 0 
SMALL
USER_CHARGES


@<TRIPOS>ATOM
  1 O       -1.7070     0.7970     0.5780 O.3   1 <1>  -0.3630 
  2 C       -0.9560     1.8450     0.1440 C.ar  1 <1>   0.0830 
  3 C       -1.2250    -0.0860     1.5720 C.3   1 <1>   0.0400 
  4 C       -1.4120     2.5520    -0.9660 C.ar  1 <1>  -0.1440 
  5 C        0.2280     2.2340     0.7660 C.ar  1 <1>  -0.1500 
  6 C       -0.6850     3.6320    -1.4450 C.ar  1 <1>  -0.1500 
  7 C       -2.7010     2.1470    -1.6550 C.3   1 <1>   0.4870 
  8 C        0.9450     3.3140     0.2830 C.ar  1 <1>  -0.1500 
  9 C        0.4900     4.0120    -0.8210 C.ar  1 <1>  -0.1500 
 10 N       -3.8090     2.2170    -0.6710 N.4   1 <1>  -0.9590 
 11 C       -5.0080     1.4920    -1.1600 C.3   1 <1>   0.3430 
 12 C       -4.0490     3.6120    -0.2070 C.3   1 <1>   0.3430 
 13 C       -6.0430     1.2800    -0.0530 C.3   1 <1>  -0.1600 
 14 C       -4.5320     3.5910     1.2420 C.3   1 <1>  -0.1600 
 15 C       -6.7700     2.5700     0.3530 C.3   1 <1>  -0.1600 
 16 C       -6.0470     3.3950     1.4270 C.3   1 <1>  -0.1600 
 17 H       -1.1130     0.4520     2.4970 H     1 <1>   0.0800 
 18 H       -0.2830    -0.4960     1.2510 H     1 <1>   0.0800 
 19 H       -1.9400    -0.8790     1.6980 H     1 <1>   0.0800 
 20 H        0.6110     1.7160     1.6250 H     1 <1>   0.1500 
 21 H       -1.0160     4.1880    -2.3050 H     1 <1>   0.1500 
 22 H       -2.5930     1.1370    -2.0170 H     1 <1>   0.0800 
 23 H       -2.8990     2.7950    -2.4930 H     1 <1>   0.0800 
 24 H        1.8600     3.6120     0.7660 H     1 <1>   0.1500 
 25 H        1.0550     4.8510    -1.1930 H     1 <1>   0.1500 
 26 H       -3.4270     1.6990     0.1380 H     1 <1>   0.4500 
 27 H       -4.7070     0.5250    -1.5310 H     1 <1>   0.0800 
 28 H       -5.4590     2.0350    -1.9750 H     1 <1>   0.0800 
 29 H       -4.7610     4.1150    -0.8400 H     1 <1>   0.0800 
 30 H       -3.1220     4.1630    -0.2370 H     1 <1>   0.0800 
 31 H       -5.5990     0.7980     0.8010 H     1 <1>   0.0800 
 32 H       -6.7820     0.6030    -0.4450 H     1 <1>   0.0800 
 33 H       -4.2720     4.5340     1.6920 H     1 <1>   0.0800 
 34 H       -3.9940     2.8360     1.7890 H     1 <1>   0.0800 
 35 H       -7.7390     2.3080     0.7450 H     1 <1>   0.0800 
 36 H       -6.9480     3.1780    -0.5190 H     1 <1>   0.0800 
 37 H       -6.5190     4.3630     1.4670 H     1 <1>   0.0800 
 38 H       -6.2110     2.9360     2.3880 H     1 <1>   0.0800 
@<TRIPOS>BOND
  1   1   2  1   
  2   1   3  1   
  3   2   4  ar  
  4   2   5  ar  
  5   3  17  1   
  6   3  18  1   
  7   3  19  1   
  8   4   6  ar  
  9   4   7  1   
 10   5   8  ar  
 11   5  20  1   
 12   6   9  ar  
 13   6  21  1   
 14   7  10  1   
 15   7  22  1   
 16   7  23  1   
 17   8   9  ar  
 18   8  24  1   
 19   9  25  1   
 20  10  11  1   
 21  10  12  1   
 22  10  26  1   
 23  11  13  1   
 24  11  27  1   
 25  11  28  1   
 26  12  14  1   
 27  12  29  1   
 28  12  30  1   
 29  13  15  1   
 30  13  31  1   
 31  13  32  1   
 32  14  16  1   
 33  14  33  1   
 34  14  34  1   
 35  15  16  1   
 36  15  35  1   
 37  15  36  1   
 38  16  37  1   
 39  16  38  1   
@<TRIPOS>SUBSTRUCTURE
  1 ****  10 GROUP 4 **** **** 0

# MOE 2024.06 (io_trps.svl 2023.06)
