@<TRIPOS>MOLECULE
NONAME
41 42 1 0 0 
SMALL
USER_CHARGES


@<TRIPOS>ATOM
  1 O        0.9970    -2.2760     1.3120 O.3   1 <1>  -0.5600 
  2 C        0.4630    -2.6560     0.0740 C.3   1 <1>   0.1200 
  3 C        1.4880    -0.9610     1.3530 C.3   1 <1>   0.1200 
  4 C        1.5470    -2.6330    -1.0280 C.3   1 <1>   0.3430 
  5 C        2.4660    -0.6700     0.1900 C.3   1 <1>   0.3430 
  6 N        2.7840    -1.9180    -0.5770 N.4   1 <1>  -0.9590 
  7 C        3.8090    -1.7410    -1.6340 C.3   1 <1>   0.4860 
  8 C        5.0930    -1.2630    -0.9860 C.ar  1 <1>  -0.1430 
  9 C        5.7400    -2.0540    -0.0410 C.ar  1 <1>   0.0820 
 10 C        5.6220    -0.0280    -1.3330 C.ar  1 <1>  -0.1500 
 11 O        5.1620    -3.2470     0.2770 O.3   1 <1>  -0.3630 
 12 C        6.9240    -1.6070     0.5370 C.ar  1 <1>  -0.1500 
 13 C        6.7890     0.4280    -0.7450 C.ar  1 <1>   0.0820 
 14 C        5.8070    -4.1570     1.1460 C.3   1 <1>   0.0400 
 15 C        7.4580    -0.3830     0.1780 C.ar  1 <1>   0.0820 
 16 O        7.2150     1.6630    -1.1150 O.3   1 <1>  -0.3630 
 17 O        8.6330    -0.0280     0.7500 O.3   1 <1>  -0.3620 
 18 C        7.3950     2.6240    -0.0950 C.3   1 <1>   0.0400 
 19 C        9.7580    -0.0070    -0.1020 C.3   1 <1>   0.0400 
 20 H       -0.3450    -1.9870    -0.1710 H     1 <1>   0.0800 
 21 H        0.0580    -3.6480     0.1770 H     1 <1>   0.0800 
 22 H        1.9920    -0.8340     2.2950 H     1 <1>   0.0800 
 23 H        0.6540    -0.2810     1.3250 H     1 <1>   0.0800 
 24 H        1.1400    -2.1580    -1.9050 H     1 <1>   0.0800 
 25 H        1.7950    -3.6480    -1.2930 H     1 <1>   0.0800 
 26 H        3.3700    -0.2390     0.5920 H     1 <1>   0.0800 
 27 H        2.0230     0.0600    -0.4670 H     1 <1>   0.0800 
 28 H        3.2370    -2.5400     0.1180 H     1 <1>   0.4500 
 29 H        3.4720    -1.0280    -2.3680 H     1 <1>   0.0800 
 30 H        3.9970    -2.6830    -2.1250 H     1 <1>   0.0800 
 31 H        5.1430     0.6040    -2.0600 H     1 <1>   0.1500 
 32 H        7.4590    -2.1880     1.2640 H     1 <1>   0.1500 
 33 H        5.9130    -3.7050     2.1170 H     1 <1>   0.0800 
 34 H        6.7700    -4.4120     0.7370 H     1 <1>   0.0800 
 35 H        5.2000    -5.0420     1.2230 H     1 <1>   0.0800 
 36 H        7.4900     3.5900    -0.5580 H     1 <1>   0.0800 
 37 H        8.2890     2.4000     0.4560 H     1 <1>   0.0800 
 38 H        6.5390     2.6100     0.5560 H     1 <1>   0.0800 
 39 H       10.6200     0.2540     0.4840 H     1 <1>   0.0800 
 40 H        9.6060     0.7230    -0.8770 H     1 <1>   0.0800 
 41 H        9.8870    -0.9850    -0.5320 H     1 <1>   0.0800 
@<TRIPOS>BOND
  1   1   2  1   
  2   1   3  1   
  3   2   4  1   
  4   2  20  1   
  5   2  21  1   
  6   3   5  1   
  7   3  22  1   
  8   3  23  1   
  9   4   6  1   
 10   4  24  1   
 11   4  25  1   
 12   5   6  1   
 13   5  26  1   
 14   5  27  1   
 15   6   7  1   
 16   6  28  1   
 17   7   8  1   
 18   7  29  1   
 19   7  30  1   
 20   8   9  ar  
 21   8  10  ar  
 22   9  11  1   
 23   9  12  ar  
 24  10  13  ar  
 25  10  31  1   
 26  11  14  1   
 27  12  15  ar  
 28  12  32  1   
 29  13  15  ar  
 30  13  16  1   
 31  14  33  1   
 32  14  34  1   
 33  14  35  1   
 34  15  17  1   
 35  16  18  1   
 36  17  19  1   
 37  18  36  1   
 38  18  37  1   
 39  18  38  1   
 40  19  39  1   
 41  19  40  1   
 42  19  41  1   
@<TRIPOS>SUBSTRUCTURE
  1 ****   8 GROUP 4 **** **** 0

# MOE 2024.06 (io_trps.svl 2023.06)
