@<TRIPOS>MOLECULE
NONAME
38 40 1 0 0 
SMALL
USER_CHARGES


@<TRIPOS>ATOM
  1 S       -0.6350     0.7120     0.5260 S.3   1 <1>  -0.3710 
  2 C       -0.2470    -0.8720    -0.1850 C.2   1 <1>   0.6510 
  3 C       -1.6160     0.4320     2.0850 C.3   1 <1>   0.1310 
  4 N        0.7940    -0.9500    -0.9570 N.2   1 <1>  -0.4500 
  5 N       -1.0420    -1.9210     0.1150 N.am  1 <1>  -0.4900 
  6 C       -2.9090     1.2350     2.0240 C.2   1 <1>   0.5690 
  7 N        1.1610    -2.1440    -1.4980 N.2   1 <1>  -0.4500 
  8 C       -0.6940    -3.1400    -0.3710 C.2   1 <1>   0.6300 
  9 O       -3.0050     2.2030     2.7410 O.2   1 <1>  -0.5700 
 10 N       -3.9020     0.8770     1.1400 N.am  1 <1>  -0.4770 
 11 C        0.4620    -3.1980    -1.2190 C.2   1 <1>   0.3890 
 12 O       -1.3820    -4.1020    -0.0520 O.2   1 <1>  -0.5700 
 13 C       -4.0410    -0.3930     0.5600 C.ar  1 <1>   0.1170 
 14 C       -4.6270     1.9610     0.4380 C.3   1 <1>   0.1400 
 15 C        0.8850    -4.5300    -1.8170 C.3   1 <1>  -0.1790 
 16 C       -4.1510    -0.5230    -0.8250 C.ar  1 <1>  -0.1440 
 17 C       -4.0790    -1.5340     1.3550 C.ar  1 <1>  -0.1500 
 18 C       -4.0640     2.0370    -0.9840 C.3   1 <1>  -0.1600 
 19 C       -4.2360    -1.7840    -1.3910 C.ar  1 <1>  -0.1500 
 20 C       -4.2260     0.7030    -1.7340 C.3   1 <1>  -0.0170 
 21 C       -4.1700    -2.7880     0.7830 C.ar  1 <1>  -0.1500 
 22 C       -4.2400    -2.9130    -0.5920 C.ar  1 <1>  -0.1500 
 23 H       -1.0060     0.7900     2.8940 H     1 <1>   0.0800 
 24 H       -1.7910    -0.6160     2.2140 H     1 <1>   0.0800 
 25 H       -1.9600    -1.8240     0.5410 H     1 <1>   0.3700 
 26 H       -4.4920     2.9030     0.9430 H     1 <1>   0.0800 
 27 H       -5.6780     1.7320     0.4180 H     1 <1>   0.0800 
 28 H        1.1070    -5.2280    -1.0310 H     1 <1>   0.0800 
 29 H        1.7610    -4.4050    -2.4290 H     1 <1>   0.0800 
 30 H        0.0910    -4.9260    -2.4230 H     1 <1>   0.0800 
 31 H       -4.0490    -1.4390     2.4260 H     1 <1>   0.1500 
 32 H       -3.0180     2.2880    -0.9230 H     1 <1>   0.0800 
 33 H       -4.5540     2.8230    -1.5290 H     1 <1>   0.0800 
 34 H       -4.3110    -1.8930    -2.4600 H     1 <1>   0.1500 
 35 H       -5.1900     0.6960    -2.2120 H     1 <1>   0.0800 
 36 H       -3.4780     0.6330    -2.5040 H     1 <1>   0.0800 
 37 H       -4.1890    -3.6710     1.4000 H     1 <1>   0.1500 
 38 H       -4.3020    -3.8920    -1.0390 H     1 <1>   0.1500 
@<TRIPOS>BOND
  1   1   2  1   
  2   1   3  1   
  3   2   4  2   
  4   2   5  1   
  5   3   6  1   
  6   3  23  1   
  7   3  24  1   
  8   4   7  1   
  9   5   8  am  
 10   5  25  1   
 11   6   9  2   
 12   6  10  am  
 13   7  11  2   
 14   8  11  1   
 15   8  12  2   
 16  10  13  1   
 17  10  14  1   
 18  11  15  1   
 19  13  16  ar  
 20  13  17  ar  
 21  14  18  1   
 22  14  26  1   
 23  14  27  1   
 24  15  28  1   
 25  15  29  1   
 26  15  30  1   
 27  16  19  ar  
 28  16  20  1   
 29  17  21  ar  
 30  17  31  1   
 31  18  20  1   
 32  18  32  1   
 33  18  33  1   
 34  19  22  ar  
 35  19  34  1   
 36  20  35  1   
 37  20  36  1   
 38  21  22  ar  
 39  21  37  1   
 40  22  38  1   
@<TRIPOS>SUBSTRUCTURE
  1 ****   5 GROUP 4 **** **** 0

# MOE 2024.06 (io_trps.svl 2023.06)
