@<TRIPOS>MOLECULE
NONAME
43 46 1 0 0 
SMALL
USER_CHARGES


@<TRIPOS>ATOM
  1 S        0.5170     0.0470    -1.3800 S.3   1 <1>  -0.0800 
  2 C        0.6430     1.5980    -0.5590 C.2   1 <1>  -0.1400 
  3 C       -0.9330    -0.3670    -0.4860 C.2   1 <1>  -0.1100 
  4 C       -0.3710     1.7400     0.3200 C.2   1 <1>  -0.1500 
  5 C        1.8160     2.4760    -0.9620 C.3   1 <1>   0.4690 
  6 C       -1.2660     0.6230     0.3610 C.2   1 <1>  -0.1500 
  7 N        3.0640     1.8440    -0.4930 N.pl3 1 <1>  -0.8530 
  8 C        1.7120     3.9010    -0.3930 C.3   1 <1>  -0.1600 
  9 C        4.1290     2.5910    -0.0020 C.2   1 <1>  -0.0680 
 10 C        3.0220     4.7190    -0.5800 C.3   1 <1>   0.1760 
 11 N        4.1550     3.9400    -0.0400 N.pl3 1 <1>   0.3140 
 12 C        5.2960     2.1740     0.5740 C.2   1 <1>  -0.0860 
 13 C        2.9450     6.1170     0.0540 C.3   1 <1>   1.0200 
 14 N        5.3170     4.4250     0.4580 N.2   1 <1>  -0.7070 
 15 C        5.7520     0.8490     0.8700 C.2   1 <1>   0.7160 
 16 C        5.9710     3.3740     0.8310 C.2   1 <1>   0.1390 
 17 F        2.8570     6.0990     1.3800 F     1 <1>  -0.3400 
 18 F        3.9580     6.9140    -0.2620 F     1 <1>  -0.3400 
 19 F        1.8550     6.7560    -0.3610 F     1 <1>  -0.3400 
 20 O        4.9530    -0.0190     1.1860 O.2   1 <1>  -0.5700 
 21 N        7.0910     0.5170     0.8070 N.am  1 <1>  -0.6600 
 22 C        7.6170    -0.7340     1.4330 C.3   1 <1>   0.1400 
 23 C        8.0110     1.0880    -0.2220 C.3   1 <1>   0.1400 
 24 C        8.0880    -1.7200     0.3520 C.3   1 <1>   0.1200 
 25 C        8.4750    -0.0060    -1.2010 C.3   1 <1>   0.1200 
 26 O        9.0030    -1.1010    -0.5080 O.3   1 <1>  -0.5600 
 27 H       -1.3860    -1.3210    -0.6920 H     1 <1>   0.1500 
 28 H       -0.5420     2.5870     0.9600 H     1 <1>   0.1500 
 29 H        1.8500     2.5280    -2.0370 H     1 <1>   0.0800 
 30 H       -2.1120     0.6170     1.0250 H     1 <1>   0.1500 
 31 H        2.9370     0.8880    -0.1230 H     1 <1>   0.4000 
 32 H        1.4880     3.8400     0.6580 H     1 <1>   0.0800 
 33 H        0.8890     4.4000    -0.8720 H     1 <1>   0.0800 
 34 H        3.2040     4.8510    -1.6280 H     1 <1>   0.0800 
 35 H        6.9410     3.4180     1.2980 H     1 <1>   0.1500 
 36 H        6.8650    -1.2030     2.0430 H     1 <1>   0.0800 
 37 H        8.4480    -0.4870     2.0700 H     1 <1>   0.0800 
 38 H        8.8690     1.5150     0.2650 H     1 <1>   0.0800 
 39 H        7.5220     1.8650    -0.7830 H     1 <1>   0.0800 
 40 H        7.2510    -2.0750    -0.2250 H     1 <1>   0.0800 
 41 H        8.5790    -2.5620     0.8060 H     1 <1>   0.0800 
 42 H        9.2450     0.3760    -1.8470 H     1 <1>   0.0800 
 43 H        7.6520    -0.3460    -1.8060 H     1 <1>   0.0800 
@<TRIPOS>BOND
  1   1   2  1   
  2   1   3  1   
  3   2   4  2   
  4   2   5  1   
  5   3   6  2   
  6   3  27  1   
  7   4   6  1   
  8   4  28  1   
  9   5   7  1   
 10   5   8  1   
 11   5  29  1   
 12   6  30  1   
 13   7   9  1   
 14   7  31  1   
 15   8  10  1   
 16   8  32  1   
 17   8  33  1   
 18   9  11  1   
 19   9  12  2   
 20  10  11  1   
 21  10  13  1   
 22  10  34  1   
 23  11  14  1   
 24  12  15  1   
 25  12  16  1   
 26  13  17  1   
 27  13  18  1   
 28  13  19  1   
 29  14  16  2   
 30  15  20  2   
 31  15  21  am  
 32  16  35  1   
 33  21  22  1   
 34  21  23  1   
 35  22  24  1   
 36  22  36  1   
 37  22  37  1   
 38  23  25  1   
 39  23  38  1   
 40  23  39  1   
 41  24  26  1   
 42  24  40  1   
 43  24  41  1   
 44  25  26  1   
 45  25  42  1   
 46  25  43  1   
@<TRIPOS>SUBSTRUCTURE
  1 ****   9 GROUP 4 **** **** 0

# MOE 2024.06 (io_trps.svl 2023.06)
