@<TRIPOS>MOLECULE
NONAME
32 33 1 0 0 
SMALL
USER_CHARGES


@<TRIPOS>ATOM
  1 S        0.0130     0.0130    -0.7120 S.3   1 <1>  -0.2420 
  2 C       -0.5260    -1.5550    -0.1390 C.2   1 <1>   0.6160 
  3 C       -1.6530     0.5850    -0.7280 C.2   1 <1>   0.1150 
  4 O        0.2980    -2.4350     0.0580 O.2   1 <1>  -0.5700 
  5 N       -1.8440    -1.6180     0.0190 N.2   1 <1>  -0.8300 
  6 C       -2.4330    -0.4710    -0.2950 C.2   1 <1>   0.2780 
  7 C       -1.9020     1.8970    -1.1440 C.2   1 <1>   0.4960 
  8 N       -3.8430    -0.4470    -0.1790 N.ar  1 <1>  -0.0750 
  9 O       -3.0060     2.4220    -1.1750 O.2   1 <1>  -0.5700 
 10 C       -4.5610    -1.4620    -0.7070 C.ar  1 <1>   0.2110 
 11 C       -4.5000     0.5300     0.4840 C.ar  1 <1>   0.2110 
 12 C       -5.9370    -1.5010    -0.6120 C.ar  1 <1>  -0.1500 
 13 C       -5.8760     0.5300     0.6000 C.ar  1 <1>  -0.1500 
 14 C       -6.6390    -0.4950     0.0450 C.ar  1 <1>  -0.1430 
 15 C       -8.1780    -0.5590     0.1350 C.3   1 <1>   0.1430 
 16 C       -8.7860     0.6360     0.8870 C.3   1 <1>  -0.2400 
 17 C       -8.5950    -1.8380     0.8760 C.3   1 <1>  -0.2400 
 18 C       -8.7740    -0.5720    -1.2800 C.3   1 <1>  -0.2400 
 19 H       -1.0690     2.5020    -1.4550 H     1 <1>   0.0600 
 20 H       -4.0240    -2.2530    -1.2060 H     1 <1>   0.1500 
 21 H       -3.9230     1.3230     0.9280 H     1 <1>   0.1500 
 22 H       -6.4590    -2.3310    -1.0550 H     1 <1>   0.1500 
 23 H       -6.3310     1.3450     1.1310 H     1 <1>   0.1500 
 24 H       -8.4260     0.6730     1.9000 H     1 <1>   0.0800 
 25 H       -9.8580     0.5540     0.9220 H     1 <1>   0.0800 
 26 H       -8.5430     1.5600     0.3930 H     1 <1>   0.0800 
 27 H       -8.1590    -1.8560     1.8590 H     1 <1>   0.0800 
 28 H       -8.2750    -2.7170     0.3480 H     1 <1>   0.0800 
 29 H       -9.6650    -1.8850     0.9790 H     1 <1>   0.0800 
 30 H       -8.4650     0.3060    -1.8200 H     1 <1>   0.0800 
 31 H       -9.8490    -0.5820    -1.2380 H     1 <1>   0.0800 
 32 H       -8.4570    -1.4380    -1.8310 H     1 <1>   0.0800 
@<TRIPOS>BOND
  1   1   2  1   
  2   1   3  1   
  3   2   4  2   
  4   2   5  1   
  5   3   6  2   
  6   3   7  1   
  7   5   6  1   
  8   6   8  1   
  9   7   9  2   
 10   7  19  1   
 11   8  10  ar  
 12   8  11  ar  
 13  10  12  ar  
 14  10  20  1   
 15  11  13  ar  
 16  11  21  1   
 17  12  14  ar  
 18  12  22  1   
 19  13  14  ar  
 20  13  23  1   
 21  14  15  1   
 22  15  16  1   
 23  15  17  1   
 24  15  18  1   
 25  16  24  1   
 26  16  25  1   
 27  16  26  1   
 28  17  27  1   
 29  17  28  1   
 30  17  29  1   
 31  18  30  1   
 32  18  31  1   
 33  18  32  1   
@<TRIPOS>SUBSTRUCTURE
  1 ****   8 GROUP 4 **** **** 0

# MOE 2024.06 (io_trps.svl 2023.06)
