@<TRIPOS>MOLECULE
NONAME
48 51 1 0 0 
SMALL
USER_CHARGES


@<TRIPOS>ATOM
  1 O       -0.7760     0.9050    -2.1220 O.2   1 <1>  -0.5700 
  2 C       -1.7770     0.5130    -1.5690 C.2   1 <1>   0.5690 
  3 N       -2.6960     1.3640    -0.9910 N.am  1 <1>  -0.2980 
  4 C       -2.0450    -0.9740    -1.5400 C.3   1 <1>  -0.1790 
  5 N       -3.9750     1.0500    -0.5910 N.2   1 <1>  -0.5120 
  6 C       -2.4400     2.8190    -0.9190 C.3   1 <1>   0.3640 
  7 C       -4.6030     2.1150    -0.2840 C.2   1 <1>   0.3030 
  8 C       -1.2710     3.1490     0.0130 C.ar  1 <1>  -0.1440 
  9 C       -3.7600     3.3630    -0.3670 C.3   1 <1>  -0.0190 
 10 C       -5.9880     2.2780     0.0680 C.ar  1 <1>   0.0860 
 11 C       -0.2660     4.0060    -0.4130 C.ar  1 <1>  -0.1500 
 12 C       -1.1970     2.6060     1.2900 C.ar  1 <1>  -0.1500 
 13 C       -4.4910     4.3990    -1.2310 C.3   1 <1>  -0.1600 
 14 C       -6.6060     3.5310    -0.0620 C.ar  1 <1>  -0.1440 
 15 C       -6.7510     1.2030     0.5200 C.ar  1 <1>  -0.1500 
 16 C        0.7900     4.3270     0.4230 C.ar  1 <1>  -0.1500 
 17 C       -0.1440     2.9260     2.1270 C.ar  1 <1>  -0.1500 
 18 C       -5.8330     4.7550    -0.5650 C.3   1 <1>  -0.0170 
 19 C       -7.9410     3.6840     0.2710 C.ar  1 <1>  -0.1500 
 20 C       -8.0900     1.3600     0.8510 C.ar  1 <1>   0.0830 
 21 C        0.8550     3.7870     1.7040 C.ar  1 <1>   0.0830 
 22 C       -8.6790     2.6060     0.7250 C.ar  1 <1>  -0.1500 
 23 O       -8.8830     0.3540     1.2980 O.3   1 <1>  -0.3630 
 24 O        1.8510     4.0500     2.5860 O.3   1 <1>  -0.3630 
 25 C       -8.3930    -0.9630     1.4230 C.3   1 <1>   0.0400 
 26 C        2.9570     4.8450     2.2230 C.3   1 <1>   0.0400 
 27 H       -2.9160    -1.1920    -2.1270 H     1 <1>   0.0800 
 28 H       -2.2110    -1.2880    -0.5270 H     1 <1>   0.0800 
 29 H       -1.2030    -1.5070    -1.9410 H     1 <1>   0.0800 
 30 H       -2.2560     3.1860    -1.9140 H     1 <1>   0.0800 
 31 H       -3.6170     3.7570     0.6230 H     1 <1>   0.0800 
 32 H       -0.2970     4.4250    -1.4030 H     1 <1>   0.1500 
 33 H       -1.9590     1.9280     1.6350 H     1 <1>   0.1500 
 34 H       -4.6770     3.9850    -2.2080 H     1 <1>   0.0800 
 35 H       -3.8910     5.2840    -1.3440 H     1 <1>   0.0800 
 36 H       -6.2680     0.2480     0.6040 H     1 <1>   0.1500 
 37 H        1.5490     4.9910     0.0600 H     1 <1>   0.1500 
 38 H       -0.0870     2.5060     3.1150 H     1 <1>   0.1500 
 39 H       -6.4390     5.3030    -1.2660 H     1 <1>   0.0800 
 40 H       -5.6450     5.4000     0.2760 H     1 <1>   0.0800 
 41 H       -8.4190     4.6440     0.1780 H     1 <1>   0.1500 
 42 H       -9.7160     2.7240     0.9840 H     1 <1>   0.1500 
 43 H       -9.1960    -1.5850     1.7760 H     1 <1>   0.0800 
 44 H       -7.5850    -0.9700     2.1320 H     1 <1>   0.0800 
 45 H       -8.0630    -1.3050     0.4580 H     1 <1>   0.0800 
 46 H        3.6270     4.8880     3.0630 H     1 <1>   0.0800 
 47 H        2.6110     5.8340     1.9800 H     1 <1>   0.0800 
 48 H        3.4520     4.3910     1.3830 H     1 <1>   0.0800 
@<TRIPOS>BOND
  1   1   2  2   
  2   2   3  am  
  3   2   4  1   
  4   3   5  1   
  5   3   6  1   
  6   4  27  1   
  7   4  28  1   
  8   4  29  1   
  9   5   7  2   
 10   6   8  1   
 11   6   9  1   
 12   6  30  1   
 13   7   9  1   
 14   7  10  1   
 15   8  11  ar  
 16   8  12  ar  
 17   9  13  1   
 18   9  31  1   
 19  10  14  ar  
 20  10  15  ar  
 21  11  16  ar  
 22  11  32  1   
 23  12  17  ar  
 24  12  33  1   
 25  13  18  1   
 26  13  34  1   
 27  13  35  1   
 28  14  18  1   
 29  14  19  ar  
 30  15  20  ar  
 31  15  36  1   
 32  16  21  ar  
 33  16  37  1   
 34  17  21  ar  
 35  17  38  1   
 36  18  39  1   
 37  18  40  1   
 38  19  22  ar  
 39  19  41  1   
 40  20  22  ar  
 41  20  23  1   
 42  21  24  1   
 43  22  42  1   
 44  23  25  1   
 45  24  26  1   
 46  25  43  1   
 47  25  44  1   
 48  25  45  1   
 49  26  46  1   
 50  26  47  1   
 51  26  48  1   
@<TRIPOS>SUBSTRUCTURE
  1 ****   9 GROUP 4 **** **** 0

# MOE 2024.06 (io_trps.svl 2023.06)
