@<TRIPOS>MOLECULE
NONAME
43 45 1 0 0 
SMALL
USER_CHARGES


@<TRIPOS>ATOM
  1 N        0.0790     0.2350    -0.5680 N.4   1 <1>  -0.9590 
  2 C       -1.0860    -0.6330    -0.9720 C.3   1 <1>   0.3430 
  3 C       -0.1050     1.7080    -0.7800 C.3   1 <1>   0.3430 
  4 C        1.3330    -0.1990    -1.2650 C.3   1 <1>   0.4860 
  5 C       -2.1710    -0.7980     0.1330 C.3   1 <1>   0.3430 
  6 C       -1.4870     2.2390    -0.3930 C.3   1 <1>  -0.1600 
  7 C        2.4980     0.4680    -0.5630 C.ar  1 <1>  -0.1440 
  8 N       -2.9190     0.4500     0.5500 N.4   1 <1>  -0.9590 
  9 C       -2.0860     1.6460     0.8800 C.3   1 <1>   0.3430 
 10 C        3.1430     1.5380    -1.1270 C.ar  1 <1>  -0.1500 
 11 C        2.9150    -0.0070     0.6910 C.ar  1 <1>  -0.1500 
 12 C       -3.8160     0.1330     1.7140 C.3   1 <1>   0.2630 
 13 C        4.1970     2.1970    -0.4640 C.ar  1 <1>   0.0000 
 14 C        3.9370     0.6130     1.3530 C.ar  1 <1>  -0.1500 
 15 C        4.5970     1.7300     0.8060 C.ar  1 <1>   0.0000 
 16 C        4.8640     3.3080    -1.0180 C.ar  1 <1>  -0.1500 
 17 C        5.6430     2.3960     1.4750 C.ar  1 <1>  -0.1500 
 18 C        5.8750     3.9360    -0.3450 C.ar  1 <1>  -0.1500 
 19 C        6.2680     3.4760     0.9160 C.ar  1 <1>  -0.1500 
 20 H        0.3050     0.0940     0.4270 H     1 <1>   0.4500 
 21 H       -0.7170    -1.6210    -1.2020 H     1 <1>   0.0800 
 22 H       -1.5390    -0.2490    -1.8720 H     1 <1>   0.0800 
 23 H        0.0730     1.9510    -1.8160 H     1 <1>   0.0800 
 24 H        0.6410     2.2340    -0.2020 H     1 <1>   0.0800 
 25 H        1.3110     0.0890    -2.3040 H     1 <1>   0.0800 
 26 H        1.4540    -1.2690    -1.2070 H     1 <1>   0.0800 
 27 H       -1.6990    -1.2310     1.0000 H     1 <1>   0.0800 
 28 H       -2.8900    -1.5220    -0.2190 H     1 <1>   0.0800 
 29 H       -2.1690     2.1420    -1.2190 H     1 <1>   0.0800 
 30 H       -1.3690     3.2970    -0.2330 H     1 <1>   0.0800 
 31 H       -3.5520     0.7270    -0.2200 H     1 <1>   0.4500 
 32 H       -2.7200     2.3940     1.3330 H     1 <1>   0.0800 
 33 H       -1.3150     1.3970     1.5920 H     1 <1>   0.0800 
 34 H        2.8680     1.9160    -2.0970 H     1 <1>   0.1500 
 35 H        2.4450    -0.8670     1.1370 H     1 <1>   0.1500 
 36 H       -3.2340    -0.1520     2.5760 H     1 <1>   0.0800 
 37 H       -4.4830    -0.6780     1.4680 H     1 <1>   0.0800 
 38 H       -4.4130     0.9930     1.9740 H     1 <1>   0.0800 
 39 H        4.2670     0.2540     2.3130 H     1 <1>   0.1500 
 40 H        4.5670     3.6620    -1.9890 H     1 <1>   0.1500 
 41 H        5.9470     2.0380     2.4430 H     1 <1>   0.1500 
 42 H        6.3820     4.7850    -0.7720 H     1 <1>   0.1500 
 43 H        7.0670     3.9810     1.4310 H     1 <1>   0.1500 
@<TRIPOS>BOND
  1   1   2  1   
  2   1   3  1   
  3   1   4  1   
  4   1  20  1   
  5   2   5  1   
  6   2  21  1   
  7   2  22  1   
  8   3   6  1   
  9   3  23  1   
 10   3  24  1   
 11   4   7  1   
 12   4  25  1   
 13   4  26  1   
 14   5   8  1   
 15   5  27  1   
 16   5  28  1   
 17   6   9  1   
 18   6  29  1   
 19   6  30  1   
 20   7  10  ar  
 21   7  11  ar  
 22   8   9  1   
 23   8  12  1   
 24   8  31  1   
 25   9  32  1   
 26   9  33  1   
 27  10  13  ar  
 28  10  34  1   
 29  11  14  ar  
 30  11  35  1   
 31  12  36  1   
 32  12  37  1   
 33  12  38  1   
 34  13  15  ar  
 35  13  16  ar  
 36  14  15  ar  
 37  14  39  1   
 38  15  17  ar  
 39  16  18  ar  
 40  16  40  1   
 41  17  19  ar  
 42  17  41  1   
 43  18  19  ar  
 44  18  42  1   
 45  19  43  1   
@<TRIPOS>SUBSTRUCTURE
  1 ****   7 GROUP 4 **** **** 0

# MOE 2024.06 (io_trps.svl 2023.06)
