@<TRIPOS>MOLECULE
NONAME
35 36 1 0 0 
SMALL
USER_CHARGES


@<TRIPOS>ATOM
  1 CL      -2.0060     0.5960     1.5040 Cl    1 <1>  -0.1770 
  2 C       -0.9810     1.8350     0.8200 C.ar  1 <1>   0.1770 
  3 C       -1.3970     2.5230    -0.3130 C.ar  1 <1>  -0.1440 
  4 C        0.2250     2.1090     1.4350 C.ar  1 <1>  -0.1500 
  5 C       -0.5740     3.5100    -0.8400 C.ar  1 <1>  -0.1500 
  6 C       -2.7280     2.1910    -0.9610 C.3   1 <1>   0.4870 
  7 C        1.0260     3.0960     0.8950 C.ar  1 <1>   0.1770 
  8 C        0.6400     3.7980    -0.2340 C.ar  1 <1>  -0.1500 
  9 N       -3.8320     2.6350    -0.0720 N.4   1 <1>  -0.9590 
 10 CL       2.5510     3.4680     1.6510 Cl    1 <1>  -0.1770 
 11 C       -5.1860     2.1740    -0.5080 C.3   1 <1>   0.3430 
 12 C       -3.8450     4.1160     0.2020 C.3   1 <1>   0.3430 
 13 C       -6.2430     2.4630     0.5910 C.3   1 <1>   0.2000 
 14 C       -5.1480     4.5850     0.9040 C.3   1 <1>   0.2000 
 15 O       -5.8310     3.4910     1.4570 O.3   1 <1>  -0.5600 
 16 C       -6.4790     1.2410     1.4770 C.3   1 <1>  -0.2400 
 17 C       -6.0930     5.3700    -0.0140 C.3   1 <1>  -0.2400 
 18 H        0.5380     1.5710     2.3120 H     1 <1>   0.1500 
 19 H       -0.8560     4.0610    -1.7240 H     1 <1>   0.1500 
 20 H       -2.7880     1.1250    -1.1160 H     1 <1>   0.0800 
 21 H       -2.8030     2.6780    -1.9200 H     1 <1>   0.0800 
 22 H        1.2910     4.5580    -0.6300 H     1 <1>   0.1500 
 23 H       -3.6830     2.1910     0.8490 H     1 <1>   0.4500 
 24 H       -5.1790     1.1170    -0.7200 H     1 <1>   0.0800 
 25 H       -5.4730     2.6870    -1.4110 H     1 <1>   0.0800 
 26 H       -3.7350     4.6660    -0.7170 H     1 <1>   0.0800 
 27 H       -3.0050     4.3720     0.8290 H     1 <1>   0.0800 
 28 H       -7.1750     2.7560     0.1370 H     1 <1>   0.0800 
 29 H       -4.8790     5.2260     1.7280 H     1 <1>   0.0800 
 30 H       -5.5720     0.9430     1.9710 H     1 <1>   0.0800 
 31 H       -6.8420     0.4160     0.8900 H     1 <1>   0.0800 
 32 H       -7.2220     1.4720     2.2210 H     1 <1>   0.0800 
 33 H       -6.3500     4.8200    -0.9000 H     1 <1>   0.0800 
 34 H       -5.6240     6.2890    -0.3180 H     1 <1>   0.0800 
 35 H       -6.9920     5.6220     0.5220 H     1 <1>   0.0800 
@<TRIPOS>BOND
  1   1   2  1   
  2   2   3  ar  
  3   2   4  ar  
  4   3   5  ar  
  5   3   6  1   
  6   4   7  ar  
  7   4  18  1   
  8   5   8  ar  
  9   5  19  1   
 10   6   9  1   
 11   6  20  1   
 12   6  21  1   
 13   7   8  ar  
 14   7  10  1   
 15   8  22  1   
 16   9  11  1   
 17   9  12  1   
 18   9  23  1   
 19  11  13  1   
 20  11  24  1   
 21  11  25  1   
 22  12  14  1   
 23  12  26  1   
 24  12  27  1   
 25  13  15  1   
 26  13  16  1   
 27  13  28  1   
 28  14  15  1   
 29  14  17  1   
 30  14  29  1   
 31  16  30  1   
 32  16  31  1   
 33  16  32  1   
 34  17  33  1   
 35  17  34  1   
 36  17  35  1   
@<TRIPOS>SUBSTRUCTURE
  1 ****   9 GROUP 4 **** **** 0

# MOE 2024.06 (io_trps.svl 2023.06)
