@<TRIPOS>MOLECULE
NONAME
41 42 1 0 0 
SMALL
USER_CHARGES


@<TRIPOS>ATOM
  1 S       -0.1890    -0.6560     0.2120 S.3   1 <1>  -0.2860 
  2 C        1.4700    -0.1560    -0.2600 C.2   1 <1>   0.2420 
  3 C       -0.7440    -1.6450    -1.2650 C.3   1 <1>   0.1310 
  4 N        1.9970    -0.4370    -1.3970 N.2   1 <1>  -0.3380 
  5 N        2.2710     0.5440     0.5430 N.pl3 1 <1>   0.0480 
  6 C       -2.1790    -2.1260    -1.1150 C.2   1 <1>   0.5690 
  7 N        3.2220     0.0970    -1.3670 N.2   1 <1>  -0.3380 
  8 C        3.3710     0.6710    -0.2160 C.2   1 <1>   0.0060 
  9 C        1.9930     1.0240     1.9110 C.3   1 <1>   0.0160 
 10 O       -2.5270    -3.0730    -1.7750 O.2   1 <1>  -0.5700 
 11 N       -3.0070    -1.4660    -0.2450 N.am  1 <1>  -0.5470 
 12 C        4.6270     1.4050     0.2450 C.3   1 <1>   0.0200 
 13 C       -4.3610    -1.6560     0.0750 C.ar  1 <1>   0.1170 
 14 C        5.7800     1.3310    -0.7670 C.3   1 <1>  -0.1600 
 15 C       -4.8290    -1.1580     1.2900 C.ar  1 <1>  -0.1500 
 16 C       -5.2550    -2.3060    -0.7750 C.ar  1 <1>  -0.1500 
 17 C        7.0260     2.0720    -0.2620 C.3   1 <1>  -0.1600 
 18 C       -6.1560    -1.3060     1.6560 C.ar  1 <1>  -0.1500 
 19 C       -6.5850    -2.4630    -0.4230 C.ar  1 <1>  -0.1500 
 20 C        8.1640     1.9890    -1.2830 C.3   1 <1>  -0.2400 
 21 C       -7.0110    -1.9590     0.7900 C.ar  1 <1>   0.1900 
 22 F       -8.2660    -2.1020     1.1300 F     1 <1>  -0.1900 
 23 H       -0.0750    -2.4810    -1.3560 H     1 <1>   0.0800 
 24 H       -0.6500    -1.0120    -2.1280 H     1 <1>   0.0800 
 25 H        1.0030     1.4390     1.9500 H     1 <1>   0.0800 
 26 H        2.7030     1.7820     2.1880 H     1 <1>   0.0800 
 27 H        2.0620     0.1990     2.5960 H     1 <1>   0.0800 
 28 H       -2.5330    -0.7500     0.3060 H     1 <1>   0.3700 
 29 H        4.9540     0.9760     1.1760 H     1 <1>   0.0800 
 30 H        4.3780     2.4370     0.4160 H     1 <1>   0.0800 
 31 H        5.4590     1.7620    -1.7000 H     1 <1>   0.0800 
 32 H        6.0240     0.2980    -0.9490 H     1 <1>   0.0800 
 33 H       -4.1530    -0.6540     1.9560 H     1 <1>   0.1500 
 34 H       -4.9180    -2.6920    -1.7200 H     1 <1>   0.1500 
 35 H        7.3540     1.6390     0.6680 H     1 <1>   0.0800 
 36 H        6.7860     3.1070    -0.0860 H     1 <1>   0.0800 
 37 H       -6.5260    -0.9260     2.5920 H     1 <1>   0.1500 
 38 H       -7.2780    -2.9660    -1.0730 H     1 <1>   0.1500 
 39 H        8.4350     0.9630    -1.4610 H     1 <1>   0.0800 
 40 H        9.0290     2.5120    -0.9150 H     1 <1>   0.0800 
 41 H        7.8650     2.4340    -2.2160 H     1 <1>   0.0800 
@<TRIPOS>BOND
  1   1   2  1   
  2   1   3  1   
  3   2   4  2   
  4   2   5  1   
  5   3   6  1   
  6   3  23  1   
  7   3  24  1   
  8   4   7  1   
  9   5   8  1   
 10   5   9  1   
 11   6  10  2   
 12   6  11  am  
 13   7   8  2   
 14   8  12  1   
 15   9  25  1   
 16   9  26  1   
 17   9  27  1   
 18  11  13  1   
 19  11  28  1   
 20  12  14  1   
 21  12  29  1   
 22  12  30  1   
 23  13  15  ar  
 24  13  16  ar  
 25  14  17  1   
 26  14  31  1   
 27  14  32  1   
 28  15  18  ar  
 29  15  33  1   
 30  16  19  ar  
 31  16  34  1   
 32  17  20  1   
 33  17  35  1   
 34  17  36  1   
 35  18  21  ar  
 36  18  37  1   
 37  19  21  ar  
 38  19  38  1   
 39  20  39  1   
 40  20  40  1   
 41  20  41  1   
 42  21  22  1   
@<TRIPOS>SUBSTRUCTURE
  1 ****   1 GROUP 4 **** **** 0

# MOE 2024.06 (io_trps.svl 2023.06)
