@<TRIPOS>MOLECULE
NONAME
37 37 1 0 0 
SMALL
USER_CHARGES


@<TRIPOS>ATOM
  1 N       -0.3020    -0.0060     0.0090 N.2   1 <1>  -0.3380 
  2 N       -1.3910     0.7770     0.0070 N.2   1 <1>  -0.3380 
  3 C       -0.7190    -1.2240    -0.0680 C.2   1 <1>   0.2700 
  4 C       -2.4200     0.0070    -0.0770 C.2   1 <1>   0.0060 
  5 N       -2.0480    -1.2780    -0.1270 N.pl3 1 <1>   0.0330 
  6 N        0.1110    -2.3220    -0.0850 N.pl3 1 <1>  -0.8840 
  7 C       -3.8800     0.4390    -0.1220 C.3   1 <1>   0.0200 
  8 C       -4.0580     1.9620    -0.0260 C.3   1 <1>  -0.1600 
  9 C       -5.5380     2.3650    -0.0720 C.3   1 <1>  -0.1600 
 10 C       -5.6950     3.8870     0.0250 C.3   1 <1>  -0.1600 
 11 C       -7.1720     4.2970    -0.0210 C.3   1 <1>  -0.1600 
 12 C       -7.3250     5.8200     0.0760 C.3   1 <1>  -0.1600 
 13 C       -8.8020     6.2310     0.0310 C.3   1 <1>  -0.1600 
 14 C       -8.9550     7.7530     0.1280 C.3   1 <1>  -0.1600 
 15 C      -10.4300     8.1630     0.0830 C.3   1 <1>  -0.2400 
 16 H       -2.6140    -2.1190    -0.2230 H     1 <1>   0.2700 
 17 H        0.1210    -2.8270     0.8040 H     1 <1>   0.4000 
 18 H        1.0710    -2.0220    -0.2810 H     1 <1>   0.4000 
 19 H       -4.4030    -0.0280     0.6940 H     1 <1>   0.0800 
 20 H       -4.3130     0.0920    -1.0430 H     1 <1>   0.0800 
 21 H       -3.5310     2.4290    -0.8410 H     1 <1>   0.0800 
 22 H       -3.6170     2.3100     0.8930 H     1 <1>   0.0800 
 23 H       -6.0630     1.9010     0.7460 H     1 <1>   0.0800 
 24 H       -5.9760     2.0200    -0.9930 H     1 <1>   0.0800 
 25 H       -5.1690     4.3530    -0.7920 H     1 <1>   0.0800 
 26 H       -5.2550     4.2340     0.9450 H     1 <1>   0.0800 
 27 H       -7.6970     3.8330     0.7960 H     1 <1>   0.0800 
 28 H       -7.6110     3.9520    -0.9410 H     1 <1>   0.0800 
 29 H       -6.8000     6.2850    -0.7410 H     1 <1>   0.0800 
 30 H       -6.8860     6.1650     0.9970 H     1 <1>   0.0800 
 31 H       -9.3280     5.7670     0.8480 H     1 <1>   0.0800 
 32 H       -9.2420     5.8860    -0.8890 H     1 <1>   0.0800 
 33 H       -8.4320     8.2220    -0.6880 H     1 <1>   0.0800 
 34 H       -8.5190     8.1030     1.0490 H     1 <1>   0.0800 
 35 H      -10.8810     7.8420    -0.8390 H     1 <1>   0.0800 
 36 H      -10.5160     9.2330     0.1520 H     1 <1>   0.0800 
 37 H      -10.9670     7.7220     0.9040 H     1 <1>   0.0800 
@<TRIPOS>BOND
  1   1   2  1   
  2   1   3  2   
  3   2   4  2   
  4   3   5  1   
  5   3   6  1   
  6   4   5  1   
  7   4   7  1   
  8   5  16  1   
  9   6  17  1   
 10   6  18  1   
 11   7   8  1   
 12   7  19  1   
 13   7  20  1   
 14   8   9  1   
 15   8  21  1   
 16   8  22  1   
 17   9  10  1   
 18   9  23  1   
 19   9  24  1   
 20  10  11  1   
 21  10  25  1   
 22  10  26  1   
 23  11  12  1   
 24  11  27  1   
 25  11  28  1   
 26  12  13  1   
 27  12  29  1   
 28  12  30  1   
 29  13  14  1   
 30  13  31  1   
 31  13  32  1   
 32  14  15  1   
 33  14  33  1   
 34  14  34  1   
 35  15  35  1   
 36  15  36  1   
 37  15  37  1   
@<TRIPOS>SUBSTRUCTURE
  1 ****   8 GROUP 4 **** **** 0

# MOE 2024.06 (io_trps.svl 2023.06)
