@<TRIPOS>MOLECULE
NONAME
37 38 1 0 0 
SMALL
USER_CHARGES


@<TRIPOS>ATOM
  1 N       -0.7480    -0.8700     1.8520 N.pl3 1 <1>   0.0330 
  2 C       -1.3470    -0.2680     0.8060 C.2   1 <1>  -0.3320 
  3 C       -1.0730    -2.1740     1.7470 C.2   1 <1>   0.0360 
  4 C       -1.9960    -1.2450     0.1270 C.2   1 <1>   0.0460 
  5 C       -1.2270     1.2270     0.5580 C.3   1 <1>  -0.0600 
  6 N       -1.8240    -2.4410     0.7280 N.2   1 <1>  -0.5650 
  7 C       -2.8390    -1.1250    -1.1380 C.3   1 <1>   0.5240 
  8 N       -4.2450    -1.5120    -0.8320 N.4   1 <1>  -0.9590 
  9 C       -4.4300    -2.9780    -0.7820 C.3   1 <1>   0.3430 
 10 C       -5.2470    -0.8370    -1.6820 C.3   1 <1>   0.3430 
 11 C       -5.2110    -3.3420     0.4820 C.3   1 <1>  -0.1600 
 12 C       -5.8690     0.3000    -0.8770 C.3   1 <1>  -0.1600 
 13 C       -6.5850    -2.6620     0.6520 C.3   1 <1>  -0.1600 
 14 C       -6.9510    -0.1480     0.1240 C.3   1 <1>  -0.1600 
 15 C       -6.5400    -1.2050     1.1660 C.3   1 <1>  -0.1600 
 16 H       -0.1610    -0.4410     2.5760 H     1 <1>   0.2700 
 17 H       -0.7270    -2.9070     2.4570 H     1 <1>   0.1500 
 18 H       -0.1940     1.4970     0.4200 H     1 <1>   0.0800 
 19 H       -1.6150     1.7760     1.3990 H     1 <1>   0.0800 
 20 H       -1.7730     1.5210    -0.3200 H     1 <1>   0.0800 
 21 H       -2.4310    -1.7590    -1.9080 H     1 <1>   0.0800 
 22 H       -2.8040    -0.1040    -1.4770 H     1 <1>   0.0800 
 23 H       -4.4020    -1.2050     0.1360 H     1 <1>   0.4500 
 24 H       -3.4710    -3.4730    -0.7470 H     1 <1>   0.0800 
 25 H       -4.9560    -3.3220    -1.6580 H     1 <1>   0.0800 
 26 H       -6.0210    -1.5270    -1.9780 H     1 <1>   0.0800 
 27 H       -4.7770    -0.4500    -2.5720 H     1 <1>   0.0800 
 28 H       -4.5970    -3.1550     1.3470 H     1 <1>   0.0800 
 29 H       -5.3710    -4.4050     0.4530 H     1 <1>   0.0800 
 30 H       -6.3390     0.9730    -1.5740 H     1 <1>   0.0800 
 31 H       -5.1030     0.8630    -0.3720 H     1 <1>   0.0800 
 32 H       -7.1230    -3.2370     1.3880 H     1 <1>   0.0800 
 33 H       -7.1560    -2.7380    -0.2580 H     1 <1>   0.0800 
 34 H       -7.8160    -0.4990    -0.4150 H     1 <1>   0.0800 
 35 H       -7.2710     0.7310     0.6600 H     1 <1>   0.0800 
 36 H       -5.5900    -0.9650     1.6120 H     1 <1>   0.0800 
 37 H       -7.2610    -1.1390     1.9650 H     1 <1>   0.0800 
@<TRIPOS>BOND
  1   1   2  1   
  2   1   3  1   
  3   1  16  1   
  4   2   4  2   
  5   2   5  1   
  6   3   6  2   
  7   3  17  1   
  8   4   6  1   
  9   4   7  1   
 10   5  18  1   
 11   5  19  1   
 12   5  20  1   
 13   7   8  1   
 14   7  21  1   
 15   7  22  1   
 16   8   9  1   
 17   8  10  1   
 18   8  23  1   
 19   9  11  1   
 20   9  24  1   
 21   9  25  1   
 22  10  12  1   
 23  10  26  1   
 24  10  27  1   
 25  11  13  1   
 26  11  28  1   
 27  11  29  1   
 28  12  14  1   
 29  12  30  1   
 30  12  31  1   
 31  13  15  1   
 32  13  32  1   
 33  13  33  1   
 34  14  15  1   
 35  14  34  1   
 36  14  35  1   
 37  15  36  1   
 38  15  37  1   
@<TRIPOS>SUBSTRUCTURE
  1 ****   8 GROUP 4 **** **** 0

# MOE 2024.06 (io_trps.svl 2023.06)
