@<TRIPOS>MOLECULE
NONAME
49 50 1 0 0 
SMALL
USER_CHARGES


@<TRIPOS>ATOM
  1 S        1.1670     1.8300    -1.2760 S.o2  1 <1>   1.3330 
  2 O        1.4490     2.6790    -2.4080 O.2   1 <1>  -0.6500 
  3 O        2.2100     1.4260    -0.3670 O.2   1 <1>  -0.6500 
  4 N       -0.0540     2.6430    -0.3620 N.am  1 <1>  -0.6930 
  5 C        0.3030     0.3920    -1.8710 C.3   1 <1>  -0.1350 
  6 C       -0.7540     1.9830     0.6390 C.ar  1 <1>   0.1990 
  7 C        0.1620     4.1140    -0.1810 C.3   1 <1>   0.2570 
  8 C       -2.1260     1.8150     0.5160 C.ar  1 <1>  -0.1500 
  9 C       -0.1140     1.4770     1.7690 C.ar  1 <1>  -0.1500 
 10 C        1.2830     4.4740     0.8100 C.2   1 <1>   0.5690 
 11 C       -2.8110     1.1440     1.5070 C.ar  1 <1>   0.1900 
 12 C       -0.8180     0.8060     2.7560 C.ar  1 <1>  -0.1500 
 13 O        0.9740     4.4710     1.9810 O.2   1 <1>  -0.5700 
 14 N        2.5630     4.8140     0.4220 N.am  1 <1>  -0.6600 
 15 F       -4.1010     0.9840     1.3800 F     1 <1>  -0.1900 
 16 C       -2.1860     0.6320     2.6290 C.ar  1 <1>  -0.1500 
 17 C        3.6370     4.9670     1.4430 C.3   1 <1>   0.1400 
 18 C        3.0240     5.0940    -0.9700 C.3   1 <1>   0.1400 
 19 C        4.7960     4.0250     1.1120 C.3   1 <1>  -0.1600 
 20 C        4.2210     4.2070    -1.3300 C.3   1 <1>  -0.1600 
 21 C        5.3620     4.2970    -0.2970 C.3   1 <1>  -0.0190 
 22 C        6.5310     3.3670    -0.6380 C.2   1 <1>   0.6590 
 23 O        6.6570     2.8540    -1.7210 O.2   1 <1>  -0.5700 
 24 O        7.4250     3.1790     0.3260 O.3   1 <1>  -0.4300 
 25 C        8.5380     2.3370     0.1410 C.3   1 <1>   0.1200 
 26 C        9.3280     2.3050     1.4450 C.3   1 <1>  -0.2400 
 27 H        0.9490    -0.1890    -2.4990 H     1 <1>   0.0800 
 28 H       -0.5570     0.6860    -2.4390 H     1 <1>   0.0800 
 29 H       -0.0150    -0.2180    -1.0490 H     1 <1>   0.0800 
 30 H       -0.7460     4.5380     0.2060 H     1 <1>   0.0800 
 31 H        0.3310     4.5730    -1.1340 H     1 <1>   0.0800 
 32 H       -2.6480     2.2000    -0.3390 H     1 <1>   0.1500 
 33 H        0.9480     1.6210     1.8800 H     1 <1>   0.1500 
 34 H       -0.3020     0.4260     3.6220 H     1 <1>   0.1500 
 35 H       -2.7570     0.1170     3.3800 H     1 <1>   0.1500 
 36 H        3.2700     4.7360     2.4290 H     1 <1>   0.0800 
 37 H        3.9780     5.9880     1.4480 H     1 <1>   0.0800 
 38 H        3.3180     6.1270    -1.0310 H     1 <1>   0.0800 
 39 H        2.2430     4.9370    -1.6890 H     1 <1>   0.0800 
 40 H        4.4470     3.0080     1.1760 H     1 <1>   0.0800 
 41 H        5.5660     4.1570     1.8510 H     1 <1>   0.0800 
 42 H        4.5880     4.4940    -2.3000 H     1 <1>   0.0800 
 43 H        3.8940     3.1870    -1.4060 H     1 <1>   0.0800 
 44 H        5.7520     5.2980    -0.3130 H     1 <1>   0.0800 
 45 H        9.1340     2.7320    -0.6650 H     1 <1>   0.0800 
 46 H        8.1820     1.3550    -0.1200 H     1 <1>   0.0800 
 47 H        9.6680     3.2940     1.6970 H     1 <1>   0.0800 
 48 H       10.1840     1.6650     1.3340 H     1 <1>   0.0800 
 49 H        8.7140     1.9210     2.2400 H     1 <1>   0.0800 
@<TRIPOS>BOND
  1   1   2  2   
  2   1   3  2   
  3   1   4  am  
  4   1   5  1   
  5   4   6  1   
  6   4   7  1   
  7   5  27  1   
  8   5  28  1   
  9   5  29  1   
 10   6   8  ar  
 11   6   9  ar  
 12   7  10  1   
 13   7  30  1   
 14   7  31  1   
 15   8  11  ar  
 16   8  32  1   
 17   9  12  ar  
 18   9  33  1   
 19  10  13  2   
 20  10  14  am  
 21  11  15  1   
 22  11  16  ar  
 23  12  16  ar  
 24  12  34  1   
 25  14  17  1   
 26  14  18  1   
 27  16  35  1   
 28  17  19  1   
 29  17  36  1   
 30  17  37  1   
 31  18  20  1   
 32  18  38  1   
 33  18  39  1   
 34  19  21  1   
 35  19  40  1   
 36  19  41  1   
 37  20  21  1   
 38  20  42  1   
 39  20  43  1   
 40  21  22  1   
 41  21  44  1   
 42  22  23  2   
 43  22  24  1   
 44  24  25  1   
 45  25  26  1   
 46  25  45  1   
 47  25  46  1   
 48  26  47  1   
 49  26  48  1   
 50  26  49  1   
@<TRIPOS>SUBSTRUCTURE
  1 ****   3 GROUP 4 **** **** 0

# MOE 2024.06 (io_trps.svl 2023.06)
