@<TRIPOS>MOLECULE
NONAME
46 48 1 0 0 
SMALL
USER_CHARGES


@<TRIPOS>ATOM
  1 O        0.5880     6.3850    -1.5040 O.3   1 <1>  -0.5600 
  2 C        0.0220     7.4300    -0.7660 C.3   1 <1>   0.1200 
  3 C       -0.2470     5.2650    -1.5990 C.3   1 <1>   0.1200 
  4 C       -0.3080     6.9630     0.6630 C.3   1 <1>   0.1100 
  5 C       -0.5910     4.7270    -0.1980 C.3   1 <1>   0.1100 
  6 N       -1.1930     5.7830     0.6450 N.3   1 <1>  -0.8100 
  7 C       -1.4680     5.3110     2.0120 C.3   1 <1>   0.3100 
  8 C       -2.5500     4.2850     2.0000 C.1   1 <1>  -0.2000 
  9 C       -3.4310     3.4910     1.9360 C.1   1 <1>  -0.2000 
 10 C       -4.5640     2.5350     1.7580 C.3   1 <1>   0.0400 
 11 C       -5.0930     2.5360     0.3120 C.3   1 <1>   0.2070 
 12 C       -5.8210     3.8450    -0.0220 C.ar  1 <1>  -0.1440 
 13 C       -5.9520     1.3030    -0.0060 C.ar  1 <1>  -0.1440 
 14 C       -5.0880     4.9490    -0.4380 C.ar  1 <1>  -0.1500 
 15 C       -7.2020     3.9650     0.0810 C.ar  1 <1>  -0.1500 
 16 C       -5.9550     0.8120    -1.3050 C.ar  1 <1>  -0.1500 
 17 C       -6.7330     0.6600     0.9490 C.ar  1 <1>  -0.1500 
 18 C       -5.7170     6.1430    -0.7450 C.ar  1 <1>  -0.1500 
 19 C       -7.8330     5.1580    -0.2270 C.ar  1 <1>  -0.1500 
 20 C       -6.7090    -0.2980    -1.6430 C.ar  1 <1>  -0.1500 
 21 C       -7.4870    -0.4510     0.6140 C.ar  1 <1>  -0.1500 
 22 C       -7.0910     6.2490    -0.6410 C.ar  1 <1>  -0.1500 
 23 C       -7.4750    -0.9330    -0.6820 C.ar  1 <1>  -0.1500 
 24 H       -0.8680     7.7650    -1.2680 H     1 <1>   0.0800 
 25 H        0.7330     8.2360    -0.7410 H     1 <1>   0.0800 
 26 H        0.2720     4.5160    -2.1700 H     1 <1>   0.0800 
 27 H       -1.1430     5.5460    -2.1240 H     1 <1>   0.0800 
 28 H       -0.7940     7.7660     1.1890 H     1 <1>   0.0800 
 29 H        0.6110     6.7300     1.1740 H     1 <1>   0.0800 
 30 H        0.3060     4.3510     0.2620 H     1 <1>   0.0800 
 31 H       -1.2820     3.9090    -0.3050 H     1 <1>   0.0800 
 32 H       -1.7970     6.1390     2.6160 H     1 <1>   0.0800 
 33 H       -0.5760     4.9000     2.4510 H     1 <1>   0.0800 
 34 H       -5.3540     2.8010     2.4350 H     1 <1>   0.0800 
 35 H       -4.2130     1.5500     2.0090 H     1 <1>   0.0800 
 36 H       -4.2300     2.4750    -0.3290 H     1 <1>   0.0800 
 37 H       -4.0150     4.8920    -0.5170 H     1 <1>   0.1500 
 38 H       -7.8020     3.1310     0.3990 H     1 <1>   0.1500 
 39 H       -5.3710     1.3000    -2.0670 H     1 <1>   0.1500 
 40 H       -6.7720     1.0150     1.9630 H     1 <1>   0.1500 
 41 H       -5.1310     6.9880    -1.0620 H     1 <1>   0.1500 
 42 H       -8.9030     5.2350    -0.1440 H     1 <1>   0.1500 
 43 H       -6.7010    -0.6670    -2.6540 H     1 <1>   0.1500 
 44 H       -8.0860    -0.9410     1.3620 H     1 <1>   0.1500 
 45 H       -7.5810     7.1760    -0.8800 H     1 <1>   0.1500 
 46 H       -8.0610    -1.7960    -0.9440 H     1 <1>   0.1500 
@<TRIPOS>BOND
  1   1   2  1   
  2   1   3  1   
  3   2   4  1   
  4   2  24  1   
  5   2  25  1   
  6   3   5  1   
  7   3  26  1   
  8   3  27  1   
  9   4   6  1   
 10   4  28  1   
 11   4  29  1   
 12   5   6  1   
 13   5  30  1   
 14   5  31  1   
 15   6   7  1   
 16   7   8  1   
 17   7  32  1   
 18   7  33  1   
 19   8   9  3   
 20   9  10  1   
 21  10  11  1   
 22  10  34  1   
 23  10  35  1   
 24  11  12  1   
 25  11  13  1   
 26  11  36  1   
 27  12  14  ar  
 28  12  15  ar  
 29  13  16  ar  
 30  13  17  ar  
 31  14  18  ar  
 32  14  37  1   
 33  15  19  ar  
 34  15  38  1   
 35  16  20  ar  
 36  16  39  1   
 37  17  21  ar  
 38  17  40  1   
 39  18  22  ar  
 40  18  41  1   
 41  19  22  ar  
 42  19  42  1   
 43  20  23  ar  
 44  20  43  1   
 45  21  23  ar  
 46  21  44  1   
 47  22  45  1   
 48  23  46  1   
@<TRIPOS>SUBSTRUCTURE
  1 ****  11 GROUP 4 **** **** 0

# MOE 2024.06 (io_trps.svl 2023.06)
