@<TRIPOS>MOLECULE
NONAME
30 31 1 0 0 
SMALL
USER_CHARGES


@<TRIPOS>ATOM
  1 S       -0.0650     0.0270     0.6800 S.3   1 <1>  -0.3320 
  2 C       -1.5440     0.9910     0.4180 C.ar  1 <1>   0.7220 
  3 C        1.2820     1.2870     0.8820 C.3   1 <1>  -0.0100 
  4 N       -1.3720     2.2760     0.3790 N.ar  1 <1>  -0.6200 
  5 N       -2.6470     0.3240     0.2880 N.ar  1 <1>  -0.6200 
  6 C       -2.4920     2.9330     0.1960 C.ar  1 <1>   0.7030 
  7 C       -3.6980     1.0890     0.1020 C.ar  1 <1>   0.7200 
  8 O       -2.4510     4.2710     0.1410 O.3   1 <1>  -0.1650 
  9 N       -3.6740     2.4010     0.0480 N.ar  1 <1>  -0.6200 
 10 N       -4.9170     0.4680    -0.0500 N.pl3 1 <1>  -0.8380 
 11 C       -1.2650     4.9300     0.1240 C.ar  1 <1>   0.3920 
 12 C       -6.2090     1.2100     0.0090 C.3   1 <1>   0.1290 
 13 C       -5.0440    -1.0050    -0.2520 C.3   1 <1>   0.1290 
 14 N       -0.9350     5.5880     1.2300 N.ar  1 <1>  -0.3100 
 15 C       -0.4860     4.8800    -1.0220 C.ar  1 <1>  -0.1500 
 16 N        0.2220     6.2100     1.2770 N.ar  1 <1>  -0.3100 
 17 C        0.7140     5.5280    -0.9780 C.ar  1 <1>  -0.1500 
 18 C        1.0510     6.1810     0.2050 C.ar  1 <1>   0.1390 
 19 O        2.1610     6.7560     0.2740 O.3   1 <1>  -0.8290 
 20 H        2.2030     0.7640     1.0610 H     1 <1>   0.0800 
 21 H        1.0280     1.9170     1.7160 H     1 <1>   0.0800 
 22 H        1.3370     1.8670    -0.0230 H     1 <1>   0.0800 
 23 H       -6.1080     2.1110     0.5910 H     1 <1>   0.0800 
 24 H       -6.9660     0.5990     0.4680 H     1 <1>   0.0800 
 25 H       -6.5200     1.4720    -0.9870 H     1 <1>   0.0800 
 26 H       -4.1630    -1.4040    -0.7260 H     1 <1>   0.0800 
 27 H       -5.8900    -1.2210    -0.8810 H     1 <1>   0.0800 
 28 H       -5.1760    -1.4890     0.7000 H     1 <1>   0.0800 
 29 H       -0.8130     4.3500    -1.8930 H     1 <1>   0.1500 
 30 H        1.4090     5.5590    -1.7930 H     1 <1>   0.1500 
@<TRIPOS>BOND
  1   1   2  1   
  2   1   3  1   
  3   2   4  ar  
  4   2   5  ar  
  5   3  20  1   
  6   3  21  1   
  7   3  22  1   
  8   4   6  ar  
  9   5   7  ar  
 10   6   8  1   
 11   6   9  ar  
 12   7   9  ar  
 13   7  10  1   
 14   8  11  1   
 15  10  12  1   
 16  10  13  1   
 17  11  14  ar  
 18  11  15  ar  
 19  12  23  1   
 20  12  24  1   
 21  12  25  1   
 22  13  26  1   
 23  13  27  1   
 24  13  28  1   
 25  14  16  ar  
 26  15  17  ar  
 27  15  29  1   
 28  16  18  ar  
 29  17  18  ar  
 30  17  30  1   
 31  18  19  1   
@<TRIPOS>SUBSTRUCTURE
  1 ****   4 GROUP 4 **** **** 0

# MOE 2024.06 (io_trps.svl 2023.06)
