@<TRIPOS>MOLECULE
NONAME
34 35 1 0 0 
SMALL
USER_CHARGES


@<TRIPOS>ATOM
  1 BR      -3.3970     1.8640     2.3980 Br    1 <1>  -0.1110 
  2 C       -1.8580     2.5100     1.4300 C.ar  1 <1>   0.1110 
  3 C       -1.7250     2.3160     0.0500 C.ar  1 <1>   0.0860 
  4 C       -0.9030     3.1520     2.1970 C.ar  1 <1>  -0.1500 
  5 C       -2.7080     1.6700    -0.7950 C.2   1 <1>   0.6340 
  6 C       -0.5420     2.7950    -0.5200 C.ar  1 <1>  -0.1500 
  7 C        0.2470     3.6220     1.5920 C.ar  1 <1>  -0.1500 
  8 O       -2.4100     1.0410    -1.7870 O.2   1 <1>  -0.5700 
  9 O       -4.0060     1.8030    -0.5030 O.3   1 <1>  -0.4300 
 10 C        0.4260     3.4390     0.2320 C.ar  1 <1>  -0.1500 
 11 C       -5.0310     1.2240    -1.2980 C.3   1 <1>   0.2000 
 12 C       -6.3290     1.9780    -0.9670 C.3   1 <1>   0.3430 
 13 C       -5.1720    -0.2700    -0.9380 C.3   1 <1>  -0.1600 
 14 N       -6.5900     1.9200     0.5170 N.4   1 <1>  -0.9590 
 15 C       -6.3350    -0.5520     0.0370 C.3   1 <1>  -0.1600 
 16 C       -6.5110     0.5360     1.1050 C.3   1 <1>   0.3430 
 17 C       -7.8570     2.6150     0.8880 C.3   1 <1>   0.2630 
 18 H       -1.0520     3.2800     3.2550 H     1 <1>   0.1500 
 19 H       -0.3770     2.6600    -1.5770 H     1 <1>   0.1500 
 20 H        1.0010     4.1250     2.1740 H     1 <1>   0.1500 
 21 H        1.3240     3.7980    -0.2420 H     1 <1>   0.1500 
 22 H       -4.7780     1.3510    -2.3390 H     1 <1>   0.0800 
 23 H       -7.1460     1.5250    -1.5030 H     1 <1>   0.0800 
 24 H       -6.2380     3.0010    -1.2920 H     1 <1>   0.0800 
 25 H       -4.2470    -0.6360    -0.5260 H     1 <1>   0.0800 
 26 H       -5.3500    -0.8270    -1.8420 H     1 <1>   0.0800 
 27 H       -5.7960     2.4320     0.9360 H     1 <1>   0.4500 
 28 H       -6.1690    -1.4990     0.5220 H     1 <1>   0.0800 
 29 H       -7.2550    -0.6420    -0.5130 H     1 <1>   0.0800 
 30 H       -7.3980     0.3270     1.6820 H     1 <1>   0.0800 
 31 H       -5.6690     0.4900     1.7770 H     1 <1>   0.0800 
 32 H       -8.7040     2.1020     0.4630 H     1 <1>   0.0800 
 33 H       -7.8480     3.6300     0.5230 H     1 <1>   0.0800 
 34 H       -7.9700     2.6380     1.9600 H     1 <1>   0.0800 
@<TRIPOS>BOND
  1   1   2  1   
  2   2   3  ar  
  3   2   4  ar  
  4   3   5  1   
  5   3   6  ar  
  6   4   7  ar  
  7   4  18  1   
  8   5   8  2   
  9   5   9  1   
 10   6  10  ar  
 11   6  19  1   
 12   7  10  ar  
 13   7  20  1   
 14   9  11  1   
 15  10  21  1   
 16  11  12  1   
 17  11  13  1   
 18  11  22  1   
 19  12  14  1   
 20  12  23  1   
 21  12  24  1   
 22  13  15  1   
 23  13  25  1   
 24  13  26  1   
 25  14  16  1   
 26  14  17  1   
 27  14  27  1   
 28  15  16  1   
 29  15  28  1   
 30  15  29  1   
 31  16  30  1   
 32  16  31  1   
 33  17  32  1   
 34  17  33  1   
 35  17  34  1   
@<TRIPOS>SUBSTRUCTURE
  1 ****   9 GROUP 4 **** **** 0

# MOE 2024.06 (io_trps.svl 2023.06)
