@<TRIPOS>MOLECULE
NONAME
58 59 1 0 0 
SMALL
USER_CHARGES


@<TRIPOS>ATOM
  1 O       -0.0450    -1.2730     0.8710 O.2   1 <1>  -0.5700 
  2 C       -0.8780    -1.7640     0.1360 C.2   1 <1>   0.6900 
  3 N       -2.1820    -1.3450     0.1610 N.am  1 <1>  -0.6600 
  4 N       -0.4650    -2.7510    -0.6880 N.am  1 <1>  -0.7300 
  5 C       -2.7080    -0.5670     1.3120 C.3   1 <1>   0.1400 
  6 C       -3.0430    -1.3160    -1.0500 C.3   1 <1>   0.1400 
  7 C       -1.1850    -4.0270    -0.8630 C.3   1 <1>   0.1400 
  8 C       -4.1060    -1.0770     1.6810 C.3   1 <1>  -0.1600 
  9 C       -4.4400    -1.8430    -0.7020 C.3   1 <1>  -0.1600 
 10 C       -0.3000    -5.1690    -0.3650 C.3   1 <1>  -0.1600 
 11 C       -5.0550    -1.0680     0.4730 C.3   1 <1>  -0.1600 
 12 C       -1.0080    -6.5240    -0.5030 C.3   1 <1>  -0.1600 
 13 C       -0.1150    -7.6660     0.0000 C.3   1 <1>  -0.1600 
 14 C       -0.8170    -9.0240    -0.1370 C.3   1 <1>  -0.1600 
 15 C        0.0780   -10.1600     0.3600 C.3   1 <1>   0.1400 
 16 N       -0.6340   -11.4420     0.2010 N.am  1 <1>  -0.7300 
 17 C       -0.0450   -12.6230    -0.1090 C.2   1 <1>   0.6900 
 18 O        1.1580   -12.6670    -0.2940 O.2   1 <1>  -0.5700 
 19 N       -0.8120   -13.7560    -0.1860 N.am  1 <1>  -0.6600 
 20 C       -0.1850   -15.1050    -0.2120 C.3   1 <1>   0.1400 
 21 C       -2.2800   -13.7590    -0.4300 C.3   1 <1>   0.1400 
 22 C       -0.8630   -16.0070     0.8270 C.3   1 <1>  -0.1600 
 23 C       -2.9720   -14.6360     0.6190 C.3   1 <1>  -0.1600 
 24 C       -2.3860   -16.0550     0.6360 C.3   1 <1>  -0.1600 
 25 H        0.5480    -2.8540    -0.6660 H     1 <1>   0.3700 
 26 H       -2.7520     0.4740     1.0400 H     1 <1>   0.0800 
 27 H       -2.0520    -0.6670     2.1600 H     1 <1>   0.0800 
 28 H       -2.6110    -1.9030    -1.8410 H     1 <1>   0.0800 
 29 H       -3.1160    -0.2990    -1.3960 H     1 <1>   0.0800 
 30 H       -1.4180    -4.1610    -1.9050 H     1 <1>   0.0800 
 31 H       -2.1050    -4.0060    -0.3020 H     1 <1>   0.0800 
 32 H       -4.5120    -0.4630     2.4650 H     1 <1>   0.0800 
 33 H       -4.0160    -2.0790     2.0630 H     1 <1>   0.0800 
 34 H       -4.3660    -2.8860    -0.4500 H     1 <1>   0.0800 
 35 H       -5.0760    -1.7570    -1.5640 H     1 <1>   0.0800 
 36 H       -0.0590    -4.9990     0.6710 H     1 <1>   0.0800 
 37 H        0.6120    -5.1860    -0.9350 H     1 <1>   0.0800 
 38 H       -5.2370    -0.0500     0.1720 H     1 <1>   0.0800 
 39 H       -5.9980    -1.5080     0.7470 H     1 <1>   0.0800 
 40 H       -1.2580    -6.6950    -1.5370 H     1 <1>   0.0800 
 41 H       -1.9230    -6.5090     0.0650 H     1 <1>   0.0800 
 42 H        0.1360    -7.4950     1.0330 H     1 <1>   0.0800 
 43 H        0.8000    -7.6800    -0.5680 H     1 <1>   0.0800 
 44 H       -1.0580    -9.1980    -1.1720 H     1 <1>   0.0800 
 45 H       -1.7290    -9.0130     0.4350 H     1 <1>   0.0800 
 46 H        0.3230   -10.0190     1.3980 H     1 <1>   0.0800 
 47 H        0.9940   -10.1810    -0.2080 H     1 <1>   0.0800 
 48 H       -1.5710   -11.4930     0.5880 H     1 <1>   0.3700 
 49 H        0.8670   -15.0370     0.0060 H     1 <1>   0.0800 
 50 H       -0.2970   -15.5240    -1.1970 H     1 <1>   0.0800 
 51 H       -2.4640   -14.1570    -1.4130 H     1 <1>   0.0800 
 52 H       -2.6830   -12.7620    -0.3990 H     1 <1>   0.0800 
 53 H       -0.6320   -15.6320     1.8080 H     1 <1>   0.0800 
 54 H       -0.4560   -17.0000     0.7520 H     1 <1>   0.0800 
 55 H       -4.0250   -14.6830     0.4050 H     1 <1>   0.0800 
 56 H       -2.8530   -14.1820     1.5870 H     1 <1>   0.0800 
 57 H       -2.8340   -16.6260     1.4310 H     1 <1>   0.0800 
 58 H       -2.6120   -16.5460    -0.2950 H     1 <1>   0.0800 
@<TRIPOS>BOND
  1   1   2  2   
  2   2   3  am  
  3   2   4  am  
  4   3   5  1   
  5   3   6  1   
  6   4   7  1   
  7   4  25  1   
  8   5   8  1   
  9   5  26  1   
 10   5  27  1   
 11   6   9  1   
 12   6  28  1   
 13   6  29  1   
 14   7  10  1   
 15   7  30  1   
 16   7  31  1   
 17   8  11  1   
 18   8  32  1   
 19   8  33  1   
 20   9  11  1   
 21   9  34  1   
 22   9  35  1   
 23  10  12  1   
 24  10  36  1   
 25  10  37  1   
 26  11  38  1   
 27  11  39  1   
 28  12  13  1   
 29  12  40  1   
 30  12  41  1   
 31  13  14  1   
 32  13  42  1   
 33  13  43  1   
 34  14  15  1   
 35  14  44  1   
 36  14  45  1   
 37  15  16  1   
 38  15  46  1   
 39  15  47  1   
 40  16  17  am  
 41  16  48  1   
 42  17  18  2   
 43  17  19  am  
 44  19  20  1   
 45  19  21  1   
 46  20  22  1   
 47  20  49  1   
 48  20  50  1   
 49  21  23  1   
 50  21  51  1   
 51  21  52  1   
 52  22  24  1   
 53  22  53  1   
 54  22  54  1   
 55  23  24  1   
 56  23  55  1   
 57  23  56  1   
 58  24  57  1   
 59  24  58  1   
@<TRIPOS>SUBSTRUCTURE
  1 ****  12 GROUP 4 **** **** 0

# MOE 2024.06 (io_trps.svl 2023.06)
