@<TRIPOS>MOLECULE
NONAME
42 44 1 0 0 
SMALL
USER_CHARGES


@<TRIPOS>ATOM
  1 BR      -1.4630    -0.6710    -2.9250 Br    1 <1>  -0.1110 
  2 C       -2.8520    -0.4610    -1.6130 C.ar  1 <1>   0.1110 
  3 C       -3.3480     0.8020    -1.3600 C.ar  1 <1>  -0.1500 
  4 C       -3.3230    -1.5790    -0.9540 C.ar  1 <1>  -0.1500 
  5 C       -4.3500     0.9410    -0.4150 C.ar  1 <1>  -0.1500 
  6 C       -4.3260    -1.4190    -0.0120 C.ar  1 <1>  -0.1500 
  7 C       -4.8570    -0.1610     0.2710 C.ar  1 <1>  -0.0090 
  8 S       -6.1800     0.0450     1.4970 S.o2  1 <1>   1.4470 
  9 O       -6.6890    -1.2460     1.9110 O.2   1 <1>  -0.6500 
 10 O       -5.7600     0.9990     2.4990 O.2   1 <1>  -0.6500 
 11 N       -7.4160     0.7850     0.6060 N.am  1 <1>  -0.8490 
 12 C       -8.4510     1.3390     1.5000 C.3   1 <1>   0.1960 
 13 C       -8.0420    -0.1420    -0.3600 C.3   1 <1>   0.1960 
 14 C       -9.5870     2.0530     0.7390 C.3   1 <1>   0.2090 
 15 C       -9.1350     0.5370    -1.2070 C.3   1 <1>   0.2090 
 16 N      -10.1580     1.2190    -0.3620 N.pl3 1 <1>  -0.8380 
 17 C      -11.3790     0.5770    -0.1570 C.ar  1 <1>   0.1000 
 18 C      -12.5230     0.9670    -0.8590 C.ar  1 <1>  -0.1430 
 19 C      -11.4640    -0.4750     0.7520 C.ar  1 <1>  -0.1500 
 20 C      -13.7070     0.2790    -0.6330 C.ar  1 <1>   0.1770 
 21 C      -12.4510     2.1220    -1.8580 C.3   1 <1>  -0.0970 
 22 C      -12.6540    -1.1430     0.9700 C.ar  1 <1>  -0.1500 
 23 CL     -15.1750     0.6930    -1.4940 Cl    1 <1>  -0.1770 
 24 C      -13.7850    -0.7650     0.2720 C.ar  1 <1>  -0.1500 
 25 H       -2.9570     1.6540    -1.8890 H     1 <1>   0.1500 
 26 H       -2.9130    -2.5500    -1.1730 H     1 <1>   0.1500 
 27 H       -4.7500     1.9190    -0.2020 H     1 <1>   0.1500 
 28 H       -4.7020    -2.2830     0.5120 H     1 <1>   0.1500 
 29 H       -8.0020     2.0510     2.1720 H     1 <1>   0.0800 
 30 H       -8.8730     0.5510     2.1010 H     1 <1>   0.0800 
 31 H       -8.4830    -0.9760     0.1600 H     1 <1>   0.0800 
 32 H       -7.2910    -0.5310    -1.0250 H     1 <1>   0.0800 
 33 H       -9.2030     2.9650     0.3160 H     1 <1>   0.0800 
 34 H      -10.3690     2.3170     1.4300 H     1 <1>   0.0800 
 35 H       -9.6170    -0.2000    -1.8260 H     1 <1>   0.0800 
 36 H       -8.6790     1.2650    -1.8550 H     1 <1>   0.0800 
 37 H      -10.5870    -0.7750     1.2920 H     1 <1>   0.1500 
 38 H      -11.8030     2.8960    -1.4890 H     1 <1>   0.0800 
 39 H      -13.4140     2.5640    -2.0310 H     1 <1>   0.0800 
 40 H      -12.0590     1.7650    -2.7920 H     1 <1>   0.0800 
 41 H      -12.7000    -1.9530     1.6780 H     1 <1>   0.1500 
 42 H      -14.7210    -1.2720     0.4210 H     1 <1>   0.1500 
@<TRIPOS>BOND
  1   1   2  1   
  2   2   3  ar  
  3   2   4  ar  
  4   3   5  ar  
  5   3  25  1   
  6   4   6  ar  
  7   4  26  1   
  8   5   7  ar  
  9   5  27  1   
 10   6   7  ar  
 11   6  28  1   
 12   7   8  1   
 13   8   9  2   
 14   8  10  2   
 15   8  11  am  
 16  11  12  1   
 17  11  13  1   
 18  12  14  1   
 19  12  29  1   
 20  12  30  1   
 21  13  15  1   
 22  13  31  1   
 23  13  32  1   
 24  14  16  1   
 25  14  33  1   
 26  14  34  1   
 27  15  16  1   
 28  15  35  1   
 29  15  36  1   
 30  16  17  1   
 31  17  18  ar  
 32  17  19  ar  
 33  18  20  ar  
 34  18  21  1   
 35  19  22  ar  
 36  19  37  1   
 37  20  23  1   
 38  20  24  ar  
 39  21  38  1   
 40  21  39  1   
 41  21  40  1   
 42  22  24  ar  
 43  22  41  1   
 44  24  42  1   
@<TRIPOS>SUBSTRUCTURE
  1 ****  13 GROUP 4 **** **** 0

# MOE 2024.06 (io_trps.svl 2023.06)
