@<TRIPOS>MOLECULE
NONAME
34 35 1 0 0 
SMALL
USER_CHARGES


@<TRIPOS>ATOM
  1 CL       1.0440    -1.0500    -2.1890 Cl    1 <1>  -0.1770 
  2 C        2.1510     0.2560    -1.8300 C.ar  1 <1>   0.1770 
  3 C        3.4800     0.1820    -2.2060 C.ar  1 <1>   0.1900 
  4 C        1.6850     1.3710    -1.1620 C.ar  1 <1>  -0.1500 
  5 F        3.9280    -0.8750    -2.8380 F     1 <1>  -0.1900 
  6 C        4.3580     1.2100    -1.9290 C.ar  1 <1>  -0.1500 
  7 C        2.5460     2.4290    -0.8580 C.ar  1 <1>   0.1990 
  8 C        3.8820     2.3240    -1.2570 C.ar  1 <1>  -0.1500 
  9 N        2.0830     3.5600    -0.1670 N.am  1 <1>  -0.6930 
 10 S        2.5620     5.1810    -0.5600 S.o2  1 <1>   1.3330 
 11 C        1.0670     3.4130     0.9320 C.3   1 <1>   0.2570 
 12 O        1.4500     6.0320    -0.2080 O.2   1 <1>  -0.6500 
 13 O        3.0990     5.1840    -1.8960 O.2   1 <1>  -0.6500 
 14 C        3.8820     5.4870     0.5960 C.3   1 <1>  -0.1350 
 15 C       -0.3960     3.4330     0.4720 C.2   1 <1>   0.5690 
 16 O       -1.0830     2.4690     0.7230 O.2   1 <1>  -0.5700 
 17 N       -0.8820     4.5170    -0.1890 N.am  1 <1>  -0.5790 
 18 C       -2.2390     4.6730    -0.7250 C.3   1 <1>   0.0490 
 19 C       -2.3900     5.3670    -2.0370 C.3   1 <1>  -0.2000 
 20 C       -2.8160     6.0480    -0.7710 C.3   1 <1>  -0.2000 
 21 H        0.6460     1.4020    -0.8960 H     1 <1>   0.1500 
 22 H        5.3870     1.1370    -2.2350 H     1 <1>   0.1500 
 23 H        4.5690     3.1220    -1.0520 H     1 <1>   0.1500 
 24 H        1.2000     4.1970     1.6540 H     1 <1>   0.0800 
 25 H        1.2410     2.4810     1.4400 H     1 <1>   0.0800 
 26 H        3.5270     5.3920     1.6030 H     1 <1>   0.0800 
 27 H        4.2600     6.4810     0.4610 H     1 <1>   0.0800 
 28 H        4.6870     4.7960     0.4460 H     1 <1>   0.0800 
 29 H       -0.2460     5.3070    -0.3730 H     1 <1>   0.3700 
 30 H       -2.8890     3.8420    -0.5000 H     1 <1>   0.1000 
 31 H       -3.1530     5.0270    -2.7150 H     1 <1>   0.1000 
 32 H       -1.5060     5.7100    -2.5460 H     1 <1>   0.1000 
 33 H       -2.2300     6.8700    -0.3990 H     1 <1>   0.1000 
 34 H       -3.8690     6.1730    -0.5900 H     1 <1>   0.1000 
@<TRIPOS>BOND
  1   1   2  1   
  2   2   3  ar  
  3   2   4  ar  
  4   3   5  1   
  5   3   6  ar  
  6   4   7  ar  
  7   4  21  1   
  8   6   8  ar  
  9   6  22  1   
 10   7   8  ar  
 11   7   9  1   
 12   8  23  1   
 13   9  10  am  
 14   9  11  1   
 15  10  12  2   
 16  10  13  2   
 17  10  14  1   
 18  11  15  1   
 19  11  24  1   
 20  11  25  1   
 21  14  26  1   
 22  14  27  1   
 23  14  28  1   
 24  15  16  2   
 25  15  17  am  
 26  17  18  1   
 27  17  29  1   
 28  18  19  1   
 29  18  20  1   
 30  18  30  1   
 31  19  20  1   
 32  19  31  1   
 33  19  32  1   
 34  20  33  1   
 35  20  34  1   
@<TRIPOS>SUBSTRUCTURE
  1 ****   9 GROUP 4 **** **** 0

# MOE 2024.06 (io_trps.svl 2023.06)
