@<TRIPOS>MOLECULE
NONAME
43 44 1 0 0 
SMALL
USER_CHARGES


@<TRIPOS>ATOM
  1 O        0.0420    -0.1610    -1.4220 O.2   1 <1>  -0.5700 
  2 C        0.0300    -1.3500    -1.1740 C.2   1 <1>   0.5440 
  3 N        1.1960    -2.0140    -0.9210 N.am  1 <1>  -0.4930 
  4 C       -1.2290    -2.0700    -1.1140 C.ar  1 <1>   0.0860 
  5 C        2.5150    -1.5920    -0.9560 C.2   1 <1>   0.5790 
  6 C       -2.3950    -1.4220    -0.7060 C.ar  1 <1>  -0.1500 
  7 C       -1.3260    -3.4220    -1.4560 C.ar  1 <1>  -0.1500 
  8 N        2.9550    -0.4130    -1.3910 N.2   1 <1>  -0.2270 
  9 N        3.4310    -2.3870    -0.5550 N.2   1 <1>  -0.7070 
 10 C       -3.6080    -2.0940    -0.6240 C.ar  1 <1>   0.0830 
 11 C       -2.5290    -4.1000    -1.3750 C.ar  1 <1>  -0.1500 
 12 N        4.2230    -0.4450    -1.2590 N.2   1 <1>  -0.4180 
 13 N        4.4990    -1.6340    -0.7530 N.pl3 1 <1>   0.5800 
 14 O       -4.7680    -1.5130    -0.2320 O.3   1 <1>  -0.3630 
 15 C       -3.6670    -3.4360    -0.9570 C.ar  1 <1>  -0.1500 
 16 C        5.8700    -2.0830    -0.4410 C.3   1 <1>   0.0960 
 17 C       -4.8320    -0.1370     0.0720 C.3   1 <1>   0.1200 
 18 C        6.2140    -1.8460     1.0380 C.3   1 <1>  -0.1600 
 19 C       -6.2760     0.2050     0.4390 C.3   1 <1>  -0.1600 
 20 C        7.6400    -2.3090     1.3610 C.3   1 <1>  -0.2400 
 21 C       -6.4240     1.6930     0.7840 C.3   1 <1>  -0.1600 
 22 C       -7.8720     2.0310     1.1500 C.3   1 <1>  -0.2400 
 23 H        1.1280    -2.9640    -0.5770 H     1 <1>   0.3700 
 24 H       -2.3230    -0.3800    -0.4550 H     1 <1>   0.1500 
 25 H       -0.4570    -3.9540    -1.8000 H     1 <1>   0.1500 
 26 H       -2.5850    -5.1420    -1.6400 H     1 <1>   0.1500 
 27 H       -4.6090    -3.9520    -0.8900 H     1 <1>   0.1500 
 28 H        6.5520    -1.5410    -1.0710 H     1 <1>   0.0800 
 29 H        5.9400    -3.1280    -0.6760 H     1 <1>   0.0800 
 30 H       -4.5180     0.4180    -0.7950 H     1 <1>   0.0800 
 31 H       -4.1730     0.0590     0.9000 H     1 <1>   0.0800 
 32 H        5.5190    -2.3860     1.6580 H     1 <1>   0.0800 
 33 H        6.1250    -0.7960     1.2620 H     1 <1>   0.0800 
 34 H       -6.5730    -0.3910     1.2840 H     1 <1>   0.0800 
 35 H       -6.9140    -0.0340    -0.3940 H     1 <1>   0.0800 
 36 H        7.7500    -3.3620     1.1660 H     1 <1>   0.0800 
 37 H        7.8560    -2.1330     2.4010 H     1 <1>   0.0800 
 38 H        8.3570    -1.7680     0.7690 H     1 <1>   0.0800 
 39 H       -6.1230     2.2920    -0.0580 H     1 <1>   0.0800 
 40 H       -5.7830     1.9370     1.6150 H     1 <1>   0.0800 
 41 H       -8.5280     1.8140     0.3260 H     1 <1>   0.0800 
 42 H       -7.9570     3.0770     1.3890 H     1 <1>   0.0800 
 43 H       -8.1880     1.4580     2.0040 H     1 <1>   0.0800 
@<TRIPOS>BOND
  1   1   2  2   
  2   2   3  am  
  3   2   4  1   
  4   3   5  1   
  5   3  23  1   
  6   4   6  ar  
  7   4   7  ar  
  8   5   8  1   
  9   5   9  2   
 10   6  10  ar  
 11   6  24  1   
 12   7  11  ar  
 13   7  25  1   
 14   8  12  2   
 15   9  13  1   
 16  10  14  1   
 17  10  15  ar  
 18  11  15  ar  
 19  11  26  1   
 20  12  13  1   
 21  13  16  1   
 22  14  17  1   
 23  15  27  1   
 24  16  18  1   
 25  16  28  1   
 26  16  29  1   
 27  17  19  1   
 28  17  30  1   
 29  17  31  1   
 30  18  20  1   
 31  18  32  1   
 32  18  33  1   
 33  19  21  1   
 34  19  34  1   
 35  19  35  1   
 36  20  36  1   
 37  20  37  1   
 38  20  38  1   
 39  21  22  1   
 40  21  39  1   
 41  21  40  1   
 42  22  41  1   
 43  22  42  1   
 44  22  43  1   
@<TRIPOS>SUBSTRUCTURE
  1 ****   2 GROUP 4 **** **** 0

# MOE 2024.06 (io_trps.svl 2023.06)
