@<TRIPOS>MOLECULE
NONAME
28 28 1 0 0 
SMALL
USER_CHARGES


@<TRIPOS>ATOM
  1 S       -0.0600     0.3950    -0.5620 S.3   1 <1>  -0.3320 
  2 C       -1.5480    -0.4820    -0.0630 C.ar  1 <1>   0.4120 
  3 C        1.3370    -0.7590    -0.1200 C.3   1 <1>   0.1310 
  4 N       -1.3180    -1.6730     0.4680 N.ar  1 <1>  -0.6200 
  5 C       -2.7870     0.1170    -0.2580 C.ar  1 <1>   0.0730 
  6 C        2.6960    -0.1680    -0.4710 C.2   1 <1>   0.5690 
  7 C       -2.4080    -2.3270     0.8380 C.ar  1 <1>   0.1600 
  8 C       -2.8890     1.4070    -0.8640 C.1   1 <1>   0.4840 
  9 C       -3.9180    -0.5950     0.1460 C.ar  1 <1>   0.1000 
 10 O        3.6910    -0.8060    -0.2410 O.2   1 <1>  -0.5700 
 11 N        2.8000     1.0530    -1.0330 N.am  1 <1>  -0.8000 
 12 C       -3.6910    -1.8440     0.7020 C.ar  1 <1>  -0.1500 
 13 N       -2.9730     2.4470    -1.3290 N.1   1 <1>  -0.5570 
 14 N       -5.2240    -0.1300     0.0210 N.pl3 1 <1>  -0.8380 
 15 C       -5.6680     1.1670     0.6050 C.3   1 <1>   0.1290 
 16 C       -6.2560    -0.9090    -0.7140 C.3   1 <1>   0.1290 
 17 H        1.1800    -1.6730    -0.6610 H     1 <1>   0.0800 
 18 H        1.2770    -0.9450     0.9360 H     1 <1>   0.0800 
 19 H       -2.2640    -3.3020     1.2760 H     1 <1>   0.1500 
 20 H        3.7170     1.4360    -1.2640 H     1 <1>   0.3700 
 21 H        1.9820     1.6280    -1.2470 H     1 <1>   0.3700 
 22 H       -4.5270    -2.4310     1.0330 H     1 <1>   0.1500 
 23 H       -4.9040     1.5680     1.2490 H     1 <1>   0.0800 
 24 H       -6.5630     1.0210     1.1840 H     1 <1>   0.0800 
 25 H       -5.8670     1.8730    -0.1830 H     1 <1>   0.0800 
 26 H       -5.8130    -1.7730    -1.1780 H     1 <1>   0.0800 
 27 H       -6.6980    -0.2950    -1.4800 H     1 <1>   0.0800 
 28 H       -7.0250    -1.2310    -0.0330 H     1 <1>   0.0800 
@<TRIPOS>BOND
  1   1   2  1   
  2   1   3  1   
  3   2   4  ar  
  4   2   5  ar  
  5   3   6  1   
  6   3  17  1   
  7   3  18  1   
  8   4   7  ar  
  9   5   8  1   
 10   5   9  ar  
 11   6  10  2   
 12   6  11  am  
 13   7  12  ar  
 14   7  19  1   
 15   8  13  3   
 16   9  12  ar  
 17   9  14  1   
 18  11  20  1   
 19  11  21  1   
 20  12  22  1   
 21  14  15  1   
 22  14  16  1   
 23  15  23  1   
 24  15  24  1   
 25  15  25  1   
 26  16  26  1   
 27  16  27  1   
 28  16  28  1   
@<TRIPOS>SUBSTRUCTURE
  1 ****   2 GROUP 4 **** **** 0

# MOE 2024.06 (io_trps.svl 2023.06)
