@<TRIPOS>MOLECULE
NONAME
59 60 1 0 0 
SMALL
USER_CHARGES


@<TRIPOS>ATOM
  1 O        0.5940    -1.0240    -0.5120 O.2   1 <1>  -0.5700 
  2 C        1.7090    -1.2760    -0.1260 C.2   1 <1>   0.5690 
  3 N        2.0710    -2.5580     0.2350 N.am  1 <1>  -0.6600 
  4 C        2.6660    -0.0900    -0.1270 C.3   1 <1>  -0.0190 
  5 C        3.3340    -2.9810     0.9090 C.3   1 <1>   0.1400 
  6 C        1.0270    -3.6290     0.1850 C.3   1 <1>   0.1400 
  7 C        3.8760    -0.3960    -1.0150 C.3   1 <1>   0.3430 
  8 C        3.0210     0.4680     1.2680 C.3   1 <1>  -0.1600 
  9 C        4.1010    -3.9870     0.0520 C.3   1 <1>  -0.2400 
 10 C        0.8840    -4.1620    -1.2410 C.3   1 <1>  -0.2400 
 11 N        5.1120     0.3340    -0.5730 N.4   1 <1>  -0.9590 
 12 C        3.9640     1.6840     1.1560 C.3   1 <1>  -0.1600 
 13 C        4.8110     1.7250    -0.1240 C.3   1 <1>   0.3430 
 14 C        6.1720     0.2960    -1.6170 C.3   1 <1>   0.4860 
 15 C        7.4740     0.7320    -0.9790 C.ar  1 <1>  -0.1430 
 16 C        7.9250     2.0310    -1.1500 C.ar  1 <1>  -0.1500 
 17 C        8.2140    -0.1490    -0.2050 C.ar  1 <1>  -0.1500 
 18 C        9.0840     2.4750    -0.5380 C.ar  1 <1>   0.0820 
 19 C        9.3930     0.2680     0.4060 C.ar  1 <1>   0.0820 
 20 O        9.3730     3.7870    -0.7660 O.3   1 <1>  -0.3630 
 21 C        9.8370     1.5830     0.2380 C.ar  1 <1>   0.0820 
 22 O       10.1360    -0.5730     1.1820 O.3   1 <1>  -0.3630 
 23 C       10.1100     4.5540     0.1620 C.3   1 <1>   0.0400 
 24 O       10.9970     1.9720     0.8330 O.3   1 <1>  -0.3630 
 25 C       10.0010    -1.9750     1.1160 C.3   1 <1>   0.0400 
 26 C       12.1830     1.5700     0.1860 C.3   1 <1>   0.0400 
 27 H        2.1390     0.7040    -0.6290 H     1 <1>   0.0800 
 28 H        3.0960    -3.4230     1.8630 H     1 <1>   0.0800 
 29 H        3.9720    -2.1420     1.0940 H     1 <1>   0.0800 
 30 H        0.0810    -3.2260     0.5110 H     1 <1>   0.0800 
 31 H        1.2820    -4.4340     0.8520 H     1 <1>   0.0800 
 32 H        3.6270    -0.1230    -2.0280 H     1 <1>   0.0800 
 33 H        4.0680    -1.4560    -1.0060 H     1 <1>   0.0800 
 34 H        3.4910    -0.2820     1.8750 H     1 <1>   0.0800 
 35 H        2.1170     0.7590     1.7790 H     1 <1>   0.0800 
 36 H        3.5660    -4.9180    -0.0030 H     1 <1>   0.0800 
 37 H        5.0580    -4.1890     0.5000 H     1 <1>   0.0800 
 38 H        4.2570    -3.6110    -0.9420 H     1 <1>   0.0800 
 39 H        0.5680    -3.3750    -1.9020 H     1 <1>   0.0800 
 40 H        0.1360    -4.9340    -1.2600 H     1 <1>   0.0800 
 41 H        1.8080    -4.5770    -1.5950 H     1 <1>   0.0800 
 42 H        5.5010    -0.1390     0.2510 H     1 <1>   0.4500 
 43 H        4.6150     1.7090     2.0130 H     1 <1>   0.0800 
 44 H        3.3810     2.5890     1.1890 H     1 <1>   0.0800 
 45 H        4.2680     2.2430    -0.8990 H     1 <1>   0.0800 
 46 H        5.7210     2.2710     0.0730 H     1 <1>   0.0800 
 47 H        5.9190     0.9510    -2.4350 H     1 <1>   0.0800 
 48 H        6.2830    -0.7050    -2.0010 H     1 <1>   0.0800 
 49 H        7.3820     2.7340    -1.7580 H     1 <1>   0.1500 
 50 H        7.8710    -1.1570    -0.0740 H     1 <1>   0.1500 
 51 H        9.9370     5.5930    -0.0490 H     1 <1>   0.0800 
 52 H       11.1550     4.3310     0.0460 H     1 <1>   0.0800 
 53 H        9.7790     4.3190     1.1580 H     1 <1>   0.0800 
 54 H       10.7920    -2.4110     1.6990 H     1 <1>   0.0800 
 55 H        9.0510    -2.2570     1.5300 H     1 <1>   0.0800 
 56 H       10.0910    -2.2890     0.0910 H     1 <1>   0.0800 
 57 H       12.2420     0.4960     0.1890 H     1 <1>   0.0800 
 58 H       12.1730     1.9430    -0.8230 H     1 <1>   0.0800 
 59 H       13.0160     1.9830     0.7250 H     1 <1>   0.0800 
@<TRIPOS>BOND
  1   1   2  2   
  2   2   3  am  
  3   2   4  1   
  4   3   5  1   
  5   3   6  1   
  6   4   7  1   
  7   4   8  1   
  8   4  27  1   
  9   5   9  1   
 10   5  28  1   
 11   5  29  1   
 12   6  10  1   
 13   6  30  1   
 14   6  31  1   
 15   7  11  1   
 16   7  32  1   
 17   7  33  1   
 18   8  12  1   
 19   8  34  1   
 20   8  35  1   
 21   9  36  1   
 22   9  37  1   
 23   9  38  1   
 24  10  39  1   
 25  10  40  1   
 26  10  41  1   
 27  11  13  1   
 28  11  14  1   
 29  11  42  1   
 30  12  13  1   
 31  12  43  1   
 32  12  44  1   
 33  13  45  1   
 34  13  46  1   
 35  14  15  1   
 36  14  47  1   
 37  14  48  1   
 38  15  16  ar  
 39  15  17  ar  
 40  16  18  ar  
 41  16  49  1   
 42  17  19  ar  
 43  17  50  1   
 44  18  20  1   
 45  18  21  ar  
 46  19  21  ar  
 47  19  22  1   
 48  20  23  1   
 49  21  24  1   
 50  22  25  1   
 51  23  51  1   
 52  23  52  1   
 53  23  53  1   
 54  24  26  1   
 55  25  54  1   
 56  25  55  1   
 57  25  56  1   
 58  26  57  1   
 59  26  58  1   
 60  26  59  1   
@<TRIPOS>SUBSTRUCTURE
  1 ****  11 GROUP 4 **** **** 0

# MOE 2024.06 (io_trps.svl 2023.06)
