@<TRIPOS>MOLECULE
NONAME
32 32 1 0 0 
SMALL
USER_CHARGES


@<TRIPOS>ATOM
  1 O        0.5300    -1.7130     1.4810 O.2   1 <1>  -0.5700 
  2 C       -0.0530    -2.0960     0.4960 C.2   1 <1>   0.5690 
  3 N       -1.3860    -1.9310     0.3380 N.am  1 <1>  -0.7300 
  4 C        0.7230    -2.7920    -0.6060 C.3   1 <1>  -0.0990 
  5 C       -2.2820    -1.3570     1.3430 C.3   1 <1>   0.3640 
  6 C        0.8030    -1.9590    -1.8950 C.3   1 <1>  -0.2400 
  7 C       -3.6380    -2.0400     1.2110 C.ar  1 <1>  -0.1430 
  8 C       -2.3750     0.1500     1.1210 C.3   1 <1>  -0.2400 
  9 C       -4.3910    -1.9340     0.0490 C.ar  1 <1>  -0.1500 
 10 C       -4.1360    -2.7950     2.2640 C.ar  1 <1>  -0.1500 
 11 C       -5.6180    -2.5660    -0.0680 C.ar  1 <1>   0.0820 
 12 C       -5.3620    -3.4280     2.1580 C.ar  1 <1>  -0.1500 
 13 O       -6.2760    -2.4040    -1.2430 O.3   1 <1>  -0.3630 
 14 C       -6.1060    -3.3170     0.9970 C.ar  1 <1>  -0.1500 
 15 C       -7.5390    -2.9920    -1.4620 C.3   1 <1>   0.0400 
 16 H       -1.8640    -2.3130    -0.4760 H     1 <1>   0.3700 
 17 H        0.2580    -3.7380    -0.8110 H     1 <1>   0.0800 
 18 H        1.7190    -2.9870    -0.2490 H     1 <1>   0.0800 
 19 H       -1.8750    -1.5400     2.3240 H     1 <1>   0.0800 
 20 H       -0.1810    -1.7770    -2.2910 H     1 <1>   0.0800 
 21 H        1.3820    -2.4790    -2.6370 H     1 <1>   0.0800 
 22 H        1.2730    -1.0120    -1.6920 H     1 <1>   0.0800 
 23 H       -2.7100     0.3760     0.1260 H     1 <1>   0.0800 
 24 H       -1.4110     0.5990     1.2810 H     1 <1>   0.0800 
 25 H       -3.0690     0.5750     1.8230 H     1 <1>   0.0800 
 26 H       -4.0370    -1.3570    -0.7850 H     1 <1>   0.1500 
 27 H       -3.5680    -2.8950     3.1740 H     1 <1>   0.1500 
 28 H       -5.7370    -4.0100     2.9820 H     1 <1>   0.1500 
 29 H       -7.0520    -3.8190     0.9400 H     1 <1>   0.1500 
 30 H       -7.8650    -2.7250    -2.4510 H     1 <1>   0.0800 
 31 H       -8.2330    -2.6100    -0.7330 H     1 <1>   0.0800 
 32 H       -7.4460    -4.0600    -1.3830 H     1 <1>   0.0800 
@<TRIPOS>BOND
  1   1   2  2   
  2   2   3  am  
  3   2   4  1   
  4   3   5  1   
  5   3  16  1   
  6   4   6  1   
  7   4  17  1   
  8   4  18  1   
  9   5   7  1   
 10   5   8  1   
 11   5  19  1   
 12   6  20  1   
 13   6  21  1   
 14   6  22  1   
 15   7   9  ar  
 16   7  10  ar  
 17   8  23  1   
 18   8  24  1   
 19   8  25  1   
 20   9  11  ar  
 21   9  26  1   
 22  10  12  ar  
 23  10  27  1   
 24  11  13  1   
 25  11  14  ar  
 26  12  14  ar  
 27  12  28  1   
 28  13  15  1   
 29  14  29  1   
 30  15  30  1   
 31  15  31  1   
 32  15  32  1   
@<TRIPOS>SUBSTRUCTURE
  1 ****   7 GROUP 4 **** **** 0

# MOE 2024.06 (io_trps.svl 2023.06)
