@<TRIPOS>MOLECULE
NONAME
46 48 1 0 0 
SMALL
USER_CHARGES


@<TRIPOS>ATOM
  1 CL      -0.9100     0.5390    -0.7480 Cl    1 <1>  -0.1770 
  2 C       -2.3850     1.1770    -0.0650 C.ar  1 <1>   0.1770 
  3 C       -3.5970     0.6270    -0.4330 C.ar  1 <1>  -0.1500 
  4 C       -2.3100     2.2220     0.8350 C.ar  1 <1>  -0.1500 
  5 C       -4.7750     1.1290     0.1070 C.ar  1 <1>   0.1170 
  6 C       -3.4770     2.7300     1.3820 C.ar  1 <1>  -0.1500 
  7 N       -6.0360     0.6080    -0.2260 N.am  1 <1>  -0.5470 
  8 C       -4.7100     2.1890     1.0220 C.ar  1 <1>   0.0830 
  9 C       -6.5020    -0.1700    -1.2440 C.2   1 <1>   0.5690 
 10 O       -5.8950     2.6500     1.5250 O.3   1 <1>  -0.3630 
 11 O       -5.8050    -0.6570    -2.1020 O.2   1 <1>  -0.5700 
 12 C       -8.0130    -0.4140    -1.2800 C.3   1 <1>   0.1710 
 13 C       -5.9320     3.6830     2.4860 C.3   1 <1>   0.0400 
 14 N       -8.8050     0.5810    -0.4950 N.3   1 <1>  -0.8100 
 15 C      -10.1770     0.0930    -0.2510 C.3   1 <1>   0.1100 
 16 C       -8.8510     1.8930    -1.1860 C.3   1 <1>   0.1100 
 17 C      -10.9920     1.0880     0.5950 C.3   1 <1>   0.1400 
 18 C       -9.6140     2.9350    -0.3530 C.3   1 <1>   0.1400 
 19 N      -10.9880     2.4440    -0.0330 N.am  1 <1>  -0.6600 
 20 C      -12.1140     3.0180    -0.5910 C.2   1 <1>   0.7150 
 21 O      -11.9670     3.8090    -1.5080 O.2   1 <1>  -0.5700 
 22 C      -13.4410     2.7020    -0.1020 C.2   1 <1>   0.0550 
 23 O      -14.4620     2.5380    -0.9390 O.3   1 <1>  -0.2800 
 24 C      -13.8990     2.5190     1.1690 C.2   1 <1>  -0.1500 
 25 C      -15.5420     2.2590    -0.2460 C.2   1 <1>  -0.0100 
 26 C      -15.2610     2.2300     1.0740 C.2   1 <1>  -0.1500 
 27 H       -3.6120    -0.1860    -1.1330 H     1 <1>   0.1500 
 28 H       -1.3510     2.6280     1.1020 H     1 <1>   0.1500 
 29 H       -3.4010     3.5420     2.0790 H     1 <1>   0.1500 
 30 H       -6.8030     0.9850     0.3460 H     1 <1>   0.3700 
 31 H       -8.1780    -1.3970    -0.8770 H     1 <1>   0.0800 
 32 H       -8.3390    -0.4190    -2.3050 H     1 <1>   0.0800 
 33 H       -6.9610     3.8620     2.7450 H     1 <1>   0.0800 
 34 H       -5.5030     4.5730     2.0610 H     1 <1>   0.0800 
 35 H       -5.3870     3.3700     3.3590 H     1 <1>   0.0800 
 36 H      -10.1340    -0.8480     0.2710 H     1 <1>   0.0800 
 37 H      -10.6820    -0.0670    -1.1890 H     1 <1>   0.0800 
 38 H       -9.3350     1.7920    -2.1440 H     1 <1>   0.0800 
 39 H       -7.8530     2.2580    -1.3570 H     1 <1>   0.0800 
 40 H      -10.5600     1.1540     1.5780 H     1 <1>   0.0800 
 41 H      -11.9940     0.7130     0.6940 H     1 <1>   0.0800 
 42 H       -9.6560     3.8640    -0.8940 H     1 <1>   0.0800 
 43 H       -9.0790     3.1140     0.5630 H     1 <1>   0.0800 
 44 H      -13.3380     2.5880     2.0840 H     1 <1>   0.1500 
 45 H      -16.4690     2.0960    -0.7680 H     1 <1>   0.1500 
 46 H      -15.9250     2.0340     1.8970 H     1 <1>   0.1500 
@<TRIPOS>BOND
  1   1   2  1   
  2   2   3  ar  
  3   2   4  ar  
  4   3   5  ar  
  5   3  27  1   
  6   4   6  ar  
  7   4  28  1   
  8   5   7  1   
  9   5   8  ar  
 10   6   8  ar  
 11   6  29  1   
 12   7   9  am  
 13   7  30  1   
 14   8  10  1   
 15   9  11  2   
 16   9  12  1   
 17  10  13  1   
 18  12  14  1   
 19  12  31  1   
 20  12  32  1   
 21  13  33  1   
 22  13  34  1   
 23  13  35  1   
 24  14  15  1   
 25  14  16  1   
 26  15  17  1   
 27  15  36  1   
 28  15  37  1   
 29  16  18  1   
 30  16  38  1   
 31  16  39  1   
 32  17  19  1   
 33  17  40  1   
 34  17  41  1   
 35  18  19  1   
 36  18  42  1   
 37  18  43  1   
 38  19  20  am  
 39  20  21  2   
 40  20  22  1   
 41  22  23  1   
 42  22  24  2   
 43  23  25  1   
 44  24  26  1   
 45  24  44  1   
 46  25  26  2   
 47  25  45  1   
 48  26  46  1   
@<TRIPOS>SUBSTRUCTURE
  1 ****  16 GROUP 4 **** **** 0

# MOE 2024.06 (io_trps.svl 2023.06)
