@<TRIPOS>MOLECULE
NONAME
41 42 1 0 0 
SMALL
USER_CHARGES


@<TRIPOS>ATOM
  1 S        0.1310    -1.6100     0.3410 S.3   1 <1>  -0.2860 
  2 C       -1.5430    -1.0320     0.0410 C.2   1 <1>   0.2420 
  3 C        1.1220    -0.0340     0.2780 C.3   1 <1>   0.1310 
  4 N       -1.8350     0.1960    -0.1970 N.2   1 <1>  -0.3380 
  5 N       -2.6000    -1.8430     0.0390 N.pl3 1 <1>   0.0480 
  6 C        2.6140    -0.3120     0.3610 C.2   1 <1>   0.5690 
  7 N       -3.1600     0.2250    -0.3720 N.2   1 <1>  -0.3380 
  8 C       -3.5940    -0.9840    -0.2300 C.2   1 <1>   0.0060 
  9 C       -2.6480    -3.3020     0.2750 C.3   1 <1>   0.0960 
 10 O        3.3290     0.5630     0.7840 O.2   1 <1>  -0.5700 
 11 N        3.0680    -1.5360    -0.0520 N.am  1 <1>  -0.5470 
 12 C       -5.0550    -1.3740    -0.3560 C.3   1 <1>  -0.0600 
 13 C       -2.4260    -4.0680    -1.0360 C.3   1 <1>  -0.1600 
 14 C        4.3520    -2.1020    -0.1210 C.ar  1 <1>   0.1170 
 15 C       -2.4820    -5.5830    -0.8100 C.3   1 <1>  -0.2400 
 16 C        4.4820    -3.4910    -0.1970 C.ar  1 <1>  -0.1430 
 17 C        5.5040    -1.3210    -0.1340 C.ar  1 <1>  -0.1500 
 18 C        5.7420    -4.0640    -0.2800 C.ar  1 <1>  -0.1500 
 19 C        3.2610    -4.4030    -0.1860 C.3   1 <1>  -0.0970 
 20 C        6.7570    -1.8990    -0.2150 C.ar  1 <1>  -0.1500 
 21 C        6.8770    -3.2740    -0.2880 C.ar  1 <1>  -0.1500 
 22 H        0.8040     0.5750     1.1050 H     1 <1>   0.0800 
 23 H        0.8850     0.4590    -0.6460 H     1 <1>   0.0800 
 24 H       -3.6050    -3.5560     0.6940 H     1 <1>   0.0800 
 25 H       -1.8880    -3.5640     0.9890 H     1 <1>   0.0800 
 26 H        2.3220    -2.1880    -0.2870 H     1 <1>   0.3700 
 27 H       -5.1780    -2.1090    -1.1300 H     1 <1>   0.0800 
 28 H       -5.6410    -0.5080    -0.6110 H     1 <1>   0.0800 
 29 H       -5.4150    -1.7680     0.5760 H     1 <1>   0.0800 
 30 H       -1.4640    -3.8100    -1.4450 H     1 <1>   0.0800 
 31 H       -3.1840    -3.7910    -1.7490 H     1 <1>   0.0800 
 32 H       -1.7190    -5.8910    -0.1160 H     1 <1>   0.0800 
 33 H       -2.3220    -6.0990    -1.7410 H     1 <1>   0.0800 
 34 H       -3.4430    -5.8740    -0.4220 H     1 <1>   0.0800 
 35 H        5.4300    -0.2510    -0.0840 H     1 <1>   0.1500 
 36 H        5.8520    -5.1330    -0.3370 H     1 <1>   0.1500 
 37 H        2.6740    -4.2230     0.6970 H     1 <1>   0.0800 
 38 H        3.5530    -5.4380    -0.1870 H     1 <1>   0.0800 
 39 H        2.6580    -4.2230    -1.0570 H     1 <1>   0.0800 
 40 H        7.6360    -1.2780    -0.2210 H     1 <1>   0.1500 
 41 H        7.8510    -3.7270    -0.3520 H     1 <1>   0.1500 
@<TRIPOS>BOND
  1   1   2  1   
  2   1   3  1   
  3   2   4  2   
  4   2   5  1   
  5   3   6  1   
  6   3  22  1   
  7   3  23  1   
  8   4   7  1   
  9   5   8  1   
 10   5   9  1   
 11   6  10  2   
 12   6  11  am  
 13   7   8  2   
 14   8  12  1   
 15   9  13  1   
 16   9  24  1   
 17   9  25  1   
 18  11  14  1   
 19  11  26  1   
 20  12  27  1   
 21  12  28  1   
 22  12  29  1   
 23  13  15  1   
 24  13  30  1   
 25  13  31  1   
 26  14  16  ar  
 27  14  17  ar  
 28  15  32  1   
 29  15  33  1   
 30  15  34  1   
 31  16  18  ar  
 32  16  19  1   
 33  17  20  ar  
 34  17  35  1   
 35  18  21  ar  
 36  18  36  1   
 37  19  37  1   
 38  19  38  1   
 39  19  39  1   
 40  20  21  ar  
 41  20  40  1   
 42  21  41  1   
@<TRIPOS>SUBSTRUCTURE
  1 ****   1 GROUP 4 **** **** 0

# MOE 2024.06 (io_trps.svl 2023.06)
