@<TRIPOS>MOLECULE
NONAME
54 57 1 0 0 
SMALL
USER_CHARGES


@<TRIPOS>ATOM
  1 N       -0.0280    -0.3170     0.2910 N.3   1 <1>  -0.8100 
  2 C        0.1010     0.4230     1.5730 C.3   1 <1>   0.1100 
  3 C        1.1890    -1.1280     0.0510 C.3   1 <1>   0.1100 
  4 C       -1.2580    -1.1300     0.2410 C.3   1 <1>   0.1100 
  5 C        1.3400     1.3500     1.5870 C.3   1 <1>   0.3430 
  6 C        2.4870    -0.2870     0.1450 C.3   1 <1>   0.3430 
  7 C       -2.3490    -0.4090    -0.5700 C.3   1 <1>  -0.0800 
  8 N        2.1750     1.1660     0.3490 N.4   1 <1>  -0.9590 
  9 C       -2.7060     1.1040    -0.0160 C.3   1 <1>   0.0580 
 10 C       -3.7990    -1.2800    -0.5750 C.3   1 <1>  -0.1600 
 11 C        3.3720     2.0420     0.2610 C.3   1 <1>   0.3430 
 12 C       -3.9490     1.9400     0.6080 C.2   1 <1>  -0.2880 
 13 C       -3.8300     0.3980    -0.0680 C.3   1 <1>  -0.1600 
 14 C       -4.9830    -0.2620    -0.0490 C.3   1 <1>   0.0580 
 15 C        2.9530     3.5070     0.1480 C.3   1 <1>  -0.1600 
 16 C       -5.1460     1.2200     0.5910 C.2   1 <1>  -0.2880 
 17 C        4.1650     4.4150    -0.0920 C.3   1 <1>  -0.0170 
 18 C        3.7090     5.8600    -0.1690 C.ar  1 <1>  -0.1440 
 19 C        3.3030     6.4030    -1.3790 C.ar  1 <1>  -0.1500 
 20 C        3.6880     6.6500     0.9710 C.ar  1 <1>  -0.1500 
 21 C        2.8780     7.7180    -1.4490 C.ar  1 <1>  -0.1500 
 22 C        3.2620     7.9650     0.9020 C.ar  1 <1>  -0.1500 
 23 C        2.8560     8.5000    -0.3070 C.ar  1 <1>  -0.1500 
 24 H        0.1750    -0.2760     2.3890 H     1 <1>   0.0800 
 25 H       -0.7780     1.0200     1.7460 H     1 <1>   0.0800 
 26 H        1.1310    -1.5670    -0.9310 H     1 <1>   0.0800 
 27 H        1.2390    -1.9360     0.7630 H     1 <1>   0.0800 
 28 H       -1.6130    -1.3400     1.2360 H     1 <1>   0.0800 
 29 H       -1.0610    -2.0740    -0.2400 H     1 <1>   0.0800 
 30 H        1.9270     1.1440     2.4670 H     1 <1>   0.0800 
 31 H        1.0010     2.3700     1.6510 H     1 <1>   0.0800 
 32 H        3.0530    -0.4190    -0.7630 H     1 <1>   0.0800 
 33 H        3.0870    -0.6520     0.9620 H     1 <1>   0.0800 
 34 H       -1.9910    -0.3390    -1.5870 H     1 <1>   0.0800 
 35 H        1.5160     1.3810    -0.4170 H     1 <1>   0.4500 
 36 H       -2.4050     1.7340    -0.8420 H     1 <1>   0.0800 
 37 H       -3.7380    -2.1380     0.0760 H     1 <1>   0.0800 
 38 H       -4.0180    -1.6410    -1.5690 H     1 <1>   0.0800 
 39 H        3.9440     1.7770    -0.6140 H     1 <1>   0.0800 
 40 H        3.9970     1.9040     1.1280 H     1 <1>   0.0800 
 41 H       -3.7730     2.9400     0.9690 H     1 <1>   0.1500 
 42 H       -4.0320     0.7600    -1.1640 H     1 <1>   0.0800 
 43 H       -3.5870    -0.0280     1.0440 H     1 <1>   0.0800 
 44 H       -5.6590    -0.2210    -0.8920 H     1 <1>   0.0800 
 45 H        2.4690     3.8280     1.0530 H     1 <1>   0.0800 
 46 H        2.2680     3.6290    -0.6720 H     1 <1>   0.0800 
 47 H       -6.1200     1.5250     0.9380 H     1 <1>   0.1500 
 48 H        4.6580     4.1480    -1.0120 H     1 <1>   0.0800 
 49 H        4.8790     4.3080     0.7070 H     1 <1>   0.0800 
 50 H        3.3160     5.8090    -2.2760 H     1 <1>   0.1500 
 51 H        4.0030     6.2510     1.9180 H     1 <1>   0.1500 
 52 H        2.5650     8.1350    -2.3900 H     1 <1>   0.1500 
 53 H        3.2490     8.5750     1.7890 H     1 <1>   0.1500 
 54 H        2.5260     9.5220    -0.3610 H     1 <1>   0.1500 
@<TRIPOS>BOND
  1   1   2  1   
  2   1   3  1   
  3   1   4  1   
  4   2   5  1   
  5   2  24  1   
  6   2  25  1   
  7   3   6  1   
  8   3  26  1   
  9   3  27  1   
 10   4   7  1   
 11   4  28  1   
 12   4  29  1   
 13   5   8  1   
 14   5  30  1   
 15   5  31  1   
 16   6   8  1   
 17   6  32  1   
 18   6  33  1   
 19   7   9  1   
 20   7  10  1   
 21   7  34  1   
 22   8  11  1   
 23   8  35  1   
 24   9  12  1   
 25   9  13  1   
 26   9  36  1   
 27  10  14  1   
 28  10  37  1   
 29  10  38  1   
 30  11  15  1   
 31  11  39  1   
 32  11  40  1   
 33  12  16  2   
 34  12  41  1   
 35  13  14  1   
 36  13  42  1   
 37  13  43  1   
 38  14  16  1   
 39  14  44  1   
 40  15  17  1   
 41  15  45  1   
 42  15  46  1   
 43  16  47  1   
 44  17  18  1   
 45  17  48  1   
 46  17  49  1   
 47  18  19  ar  
 48  18  20  ar  
 49  19  21  ar  
 50  19  50  1   
 51  20  22  ar  
 52  20  51  1   
 53  21  23  ar  
 54  21  52  1   
 55  22  23  ar  
 56  22  53  1   
 57  23  54  1   
@<TRIPOS>SUBSTRUCTURE
  1 ****   5 GROUP 4 **** **** 0

# MOE 2024.06 (io_trps.svl 2023.06)
