@<TRIPOS>MOLECULE
NONAME
40 40 1 0 0 
SMALL
USER_CHARGES


@<TRIPOS>ATOM
  1 S        0.1360    -0.2430     0.2480 S.3   1 <1>  -0.0800 
  2 C       -0.4750     1.3820     0.0740 C.2   1 <1>   0.1040 
  3 C       -1.4570    -0.9780     0.0550 C.2   1 <1>  -0.0450 
  4 N        0.3880     2.4600     0.1290 N.am  1 <1>  -0.4940 
  5 C       -1.8350     1.3690    -0.1110 C.2   1 <1>  -0.0860 
  6 C       -2.3660     0.0240    -0.1390 C.2   1 <1>  -0.1810 
  7 C       -1.5140    -2.4170     0.1310 C.2   1 <1>   0.8050 
  8 C        1.7370     2.5820     0.3590 C.2   1 <1>   0.5690 
  9 C       -2.5780     2.6030    -0.2480 C.2   1 <1>   0.8060 
 10 C       -3.8510    -0.2420    -0.3850 C.3   1 <1>  -0.0590 
 11 O       -2.5480    -3.0570     0.0930 O.2   1 <1>  -0.5700 
 12 O       -0.3650    -3.0950     0.2540 O.3   1 <1>  -0.4300 
 13 O        2.4630     1.6520     0.6090 O.2   1 <1>  -0.5700 
 14 C        2.3280     3.9950     0.2960 C.3   1 <1>  -0.0190 
 15 O       -2.0360     3.6850    -0.4070 O.2   1 <1>  -0.5700 
 16 O       -3.9140     2.5860    -0.1800 O.3   1 <1>  -0.4300 
 17 C       -0.3260    -4.5060     0.3420 C.3   1 <1>   0.0400 
 18 C        3.4420     4.0960    -0.7590 C.3   1 <1>  -0.2400 
 19 C        2.8600     4.4400     1.6680 C.3   1 <1>  -0.2400 
 20 C       -4.6870     3.7600    -0.2930 C.3   1 <1>   0.1200 
 21 C       -6.1570     3.3660    -0.1830 C.3   1 <1>  -0.2400 
 22 H       -0.0810     3.3550    -0.0440 H     1 <1>   0.3700 
 23 H       -4.0660    -1.2840    -0.5150 H     1 <1>   0.0800 
 24 H       -4.1750     0.2610    -1.2780 H     1 <1>   0.0800 
 25 H       -4.4330     0.1110     0.4480 H     1 <1>   0.0800 
 26 H        1.5470     4.6770     0.0110 H     1 <1>   0.0800 
 27 H        0.7010    -4.8120     0.4340 H     1 <1>   0.0800 
 28 H       -0.7590    -4.9230    -0.5510 H     1 <1>   0.0800 
 29 H       -0.8850    -4.8160     1.2080 H     1 <1>   0.0800 
 30 H        4.2580     3.4410    -0.5040 H     1 <1>   0.0800 
 31 H        3.8130     5.1030    -0.8230 H     1 <1>   0.0800 
 32 H        3.0650     3.8060    -1.7240 H     1 <1>   0.0800 
 33 H        3.6580     3.7910     1.9860 H     1 <1>   0.0800 
 34 H        2.0750     4.3980     2.4020 H     1 <1>   0.0800 
 35 H        3.2330     5.4480     1.6200 H     1 <1>   0.0800 
 36 H       -4.4810     4.2170    -1.2460 H     1 <1>   0.0800 
 37 H       -4.4080     4.4320     0.5020 H     1 <1>   0.0800 
 38 H       -6.4210     2.6890    -0.9760 H     1 <1>   0.0800 
 39 H       -6.7740     4.2420    -0.2640 H     1 <1>   0.0800 
 40 H       -6.3470     2.9000     0.7670 H     1 <1>   0.0800 
@<TRIPOS>BOND
  1   1   2  1   
  2   1   3  1   
  3   2   4  1   
  4   2   5  2   
  5   3   6  2   
  6   3   7  1   
  7   4   8  am  
  8   4  22  1   
  9   5   6  1   
 10   5   9  1   
 11   6  10  1   
 12   7  11  2   
 13   7  12  1   
 14   8  13  2   
 15   8  14  1   
 16   9  15  2   
 17   9  16  1   
 18  10  23  1   
 19  10  24  1   
 20  10  25  1   
 21  12  17  1   
 22  14  18  1   
 23  14  19  1   
 24  14  26  1   
 25  16  20  1   
 26  17  27  1   
 27  17  28  1   
 28  17  29  1   
 29  18  30  1   
 30  18  31  1   
 31  18  32  1   
 32  19  33  1   
 33  19  34  1   
 34  19  35  1   
 35  20  21  1   
 36  20  36  1   
 37  20  37  1   
 38  21  38  1   
 39  21  39  1   
 40  21  40  1   
@<TRIPOS>SUBSTRUCTURE
  1 ****   2 GROUP 4 **** **** 0

# MOE 2024.06 (io_trps.svl 2023.06)
