@<TRIPOS>MOLECULE
NONAME
44 46 1 0 0 
SMALL
USER_CHARGES


@<TRIPOS>ATOM
  1 S       -0.1310     0.1560     0.5940 S.o2  1 <1>   1.4470 
  2 O       -0.6150     0.4190     1.9330 O.2   1 <1>  -0.6500 
  3 O       -0.3220    -1.1580     0.0170 O.2   1 <1>  -0.6500 
  4 N       -0.8990     1.2690    -0.4290 N.am  1 <1>  -0.8490 
  5 C        1.6190     0.6100     0.4530 C.ar  1 <1>  -0.0090 
  6 C       -0.8740     2.6280     0.1220 C.3   1 <1>   0.1960 
  7 C       -2.2720     0.8510    -0.7300 C.3   1 <1>   0.1960 
  8 C        2.2600     0.6060    -0.7800 C.ar  1 <1>  -0.1500 
  9 C        2.3670     0.9820     1.5640 C.ar  1 <1>  -0.1500 
 10 C       -1.4370     3.6240    -0.8960 C.3   1 <1>  -0.1600 
 11 C       -2.8980     1.7860    -1.7710 C.3   1 <1>  -0.1600 
 12 C        3.5910     0.9620    -0.9010 C.ar  1 <1>  -0.1500 
 13 C        3.6990     1.3380     1.4480 C.ar  1 <1>  -0.1500 
 14 C       -2.8640     3.2480    -1.3100 C.3   1 <1>  -0.1600 
 15 C        4.3330     1.3380     0.2110 C.ar  1 <1>   0.1170 
 16 N        5.6810     1.6830     0.0410 N.am  1 <1>  -0.5470 
 17 C        6.5080     2.4680     0.8010 C.2   1 <1>   0.5770 
 18 O        6.1490     3.0290     1.8070 O.2   1 <1>  -0.5700 
 19 C        7.9540     2.6220     0.3440 C.3   1 <1>   0.0530 
 20 C        8.6030     4.0080     0.6200 C.3   1 <1>   0.0000 
 21 C        8.1420     2.9320    -1.1670 C.3   1 <1>   0.0000 
 22 C        9.3120     3.8590    -0.7500 C.3   1 <1>   0.0000 
 23 H        0.1390     2.9090     0.3580 H     1 <1>   0.0800 
 24 H       -1.4540     2.6690     1.0310 H     1 <1>   0.0800 
 25 H       -2.8610     0.8540     0.1730 H     1 <1>   0.0800 
 26 H       -2.2700    -0.1510    -1.1260 H     1 <1>   0.0800 
 27 H        1.7000     0.3210    -1.6560 H     1 <1>   0.1500 
 28 H        1.9020     0.9920     2.5360 H     1 <1>   0.1500 
 29 H       -0.7960     3.6360    -1.7610 H     1 <1>   0.0800 
 30 H       -1.4330     4.6120    -0.4700 H     1 <1>   0.0800 
 31 H       -3.9150     1.4870    -1.9530 H     1 <1>   0.0800 
 32 H       -2.3550     1.6830    -2.6950 H     1 <1>   0.0800 
 33 H        4.0530     0.9500    -1.8720 H     1 <1>   0.1500 
 34 H        4.2440     1.6140     2.3330 H     1 <1>   0.1500 
 35 H       -3.2010     3.8930    -2.1030 H     1 <1>   0.0800 
 36 H       -3.5260     3.3730    -0.4700 H     1 <1>   0.0800 
 37 H        6.1040     1.3230    -0.8120 H     1 <1>   0.3700 
 38 H        8.5840     1.8110     0.6700 H     1 <1>   0.0000 
 39 H        9.2750     4.0150     1.4600 H     1 <1>   0.0000 
 40 H        7.8940     4.8180     0.6270 H     1 <1>   0.0000 
 41 H        7.3180     3.4780    -1.5950 H     1 <1>   0.0000 
 42 H        8.4450     2.0820    -1.7520 H     1 <1>   0.0000 
 43 H       10.2510     3.3370    -0.6790 H     1 <1>   0.0000 
 44 H        9.3670     4.7730    -1.3150 H     1 <1>   0.0000 
@<TRIPOS>BOND
  1   1   2  2   
  2   1   3  2   
  3   1   4  am  
  4   1   5  1   
  5   4   6  1   
  6   4   7  1   
  7   5   8  ar  
  8   5   9  ar  
  9   6  10  1   
 10   6  23  1   
 11   6  24  1   
 12   7  11  1   
 13   7  25  1   
 14   7  26  1   
 15   8  12  ar  
 16   8  27  1   
 17   9  13  ar  
 18   9  28  1   
 19  10  14  1   
 20  10  29  1   
 21  10  30  1   
 22  11  14  1   
 23  11  31  1   
 24  11  32  1   
 25  12  15  ar  
 26  12  33  1   
 27  13  15  ar  
 28  13  34  1   
 29  14  35  1   
 30  14  36  1   
 31  15  16  1   
 32  16  17  am  
 33  16  37  1   
 34  17  18  2   
 35  17  19  1   
 36  19  20  1   
 37  19  21  1   
 38  19  38  1   
 39  20  22  1   
 40  20  39  1   
 41  20  40  1   
 42  21  22  1   
 43  21  41  1   
 44  21  42  1   
 45  22  43  1   
 46  22  44  1   
@<TRIPOS>SUBSTRUCTURE
  1 ****   8 GROUP 4 **** **** 0

# MOE 2024.06 (io_trps.svl 2023.06)
