@<TRIPOS>MOLECULE
NONAME
46 47 1 0 0 
SMALL
USER_CHARGES


@<TRIPOS>ATOM
  1 O       -0.2470    -0.0380     0.7360 O.2   1 <1>  -0.5700 
  2 C       -0.1990     1.0470     0.1920 C.2   1 <1>   0.6900 
  3 N       -1.3120     1.7660    -0.1210 N.am  1 <1>  -0.5470 
  4 N        1.0070     1.5820    -0.1230 N.am  1 <1>  -0.7300 
  5 C       -2.6750     1.4400    -0.0330 C.ar  1 <1>   0.1170 
  6 C        2.2810     0.9290     0.2080 C.3   1 <1>   0.2200 
  7 C       -3.6210     2.4580     0.1180 C.ar  1 <1>  -0.1430 
  8 C       -3.1190     0.1230    -0.1180 C.ar  1 <1>  -0.1500 
  9 C        3.3700     1.9790     0.4020 C.3   1 <1>  -0.1600 
 10 C        2.6580    -0.0440    -0.9060 C.3   1 <1>  -0.1600 
 11 C       -4.9700     2.1440     0.1830 C.ar  1 <1>  -0.1500 
 12 C       -3.2050     3.9200     0.2220 C.3   1 <1>  -0.0970 
 13 C       -4.4650    -0.1830    -0.0500 C.ar  1 <1>  -0.1500 
 14 C        4.7070     1.2990     0.6880 C.3   1 <1>   0.3430 
 15 C        3.9990    -0.7000    -0.6000 C.3   1 <1>   0.3430 
 16 C       -5.3940     0.8300     0.1000 C.ar  1 <1>  -0.1500 
 17 N        5.0500     0.3480    -0.4190 N.4   1 <1>  -0.9590 
 18 C        6.3990    -0.2680    -0.3030 C.3   1 <1>   0.4230 
 19 C        6.6070    -0.9460     1.0530 C.3   1 <1>  -0.2400 
 20 C        7.4590     0.8010    -0.5480 C.3   1 <1>  -0.2400 
 21 H       -1.1360     2.7420    -0.3220 H     1 <1>   0.3700 
 22 H        1.0380     2.3700    -0.7670 H     1 <1>   0.3700 
 23 H        2.1580     0.3780     1.1290 H     1 <1>   0.0800 
 24 H       -2.4100    -0.6740    -0.2390 H     1 <1>   0.1500 
 25 H        3.1140     2.6050     1.2390 H     1 <1>   0.0800 
 26 H        3.4620     2.6000    -0.4710 H     1 <1>   0.0800 
 27 H        2.7060     0.4610    -1.8540 H     1 <1>   0.0800 
 28 H        1.9060    -0.8120    -0.9720 H     1 <1>   0.0800 
 29 H       -5.7050     2.9200     0.3000 H     1 <1>   0.1500 
 30 H       -2.5020     4.0470     1.0270 H     1 <1>   0.0800 
 31 H       -4.0540     4.5490     0.4200 H     1 <1>   0.0800 
 32 H       -2.7560     4.2430    -0.7000 H     1 <1>   0.0800 
 33 H       -4.7870    -1.2070    -0.1150 H     1 <1>   0.1500 
 34 H        4.6410     0.7620     1.6210 H     1 <1>   0.0800 
 35 H        5.4750     2.0490     0.7860 H     1 <1>   0.0800 
 36 H        4.2680    -1.3610    -1.4090 H     1 <1>   0.0800 
 37 H        3.9100    -1.2890     0.3000 H     1 <1>   0.0800 
 38 H       -6.4430     0.5950     0.1520 H     1 <1>   0.1500 
 39 H        5.0680     0.8980    -1.2870 H     1 <1>   0.4500 
 40 H        6.5030    -1.0170    -1.0730 H     1 <1>   0.0800 
 41 H        6.6160    -0.2360     1.8600 H     1 <1>   0.0800 
 42 H        7.5610    -1.4440     1.0540 H     1 <1>   0.0800 
 43 H        5.8570    -1.6930     1.2370 H     1 <1>   0.0800 
 44 H        7.4680     1.5430     0.2300 H     1 <1>   0.0800 
 45 H        7.3070     1.2780    -1.5000 H     1 <1>   0.0800 
 46 H        8.4310     0.3400    -0.5670 H     1 <1>   0.0800 
@<TRIPOS>BOND
  1   1   2  2   
  2   2   3  am  
  3   2   4  am  
  4   3   5  1   
  5   3  21  1   
  6   4   6  1   
  7   4  22  1   
  8   5   7  ar  
  9   5   8  ar  
 10   6   9  1   
 11   6  10  1   
 12   6  23  1   
 13   7  11  ar  
 14   7  12  1   
 15   8  13  ar  
 16   8  24  1   
 17   9  14  1   
 18   9  25  1   
 19   9  26  1   
 20  10  15  1   
 21  10  27  1   
 22  10  28  1   
 23  11  16  ar  
 24  11  29  1   
 25  12  30  1   
 26  12  31  1   
 27  12  32  1   
 28  13  16  ar  
 29  13  33  1   
 30  14  17  1   
 31  14  34  1   
 32  14  35  1   
 33  15  17  1   
 34  15  36  1   
 35  15  37  1   
 36  16  38  1   
 37  17  18  1   
 38  17  39  1   
 39  18  19  1   
 40  18  20  1   
 41  18  40  1   
 42  19  41  1   
 43  19  42  1   
 44  19  43  1   
 45  20  44  1   
 46  20  45  1   
 47  20  46  1   
@<TRIPOS>SUBSTRUCTURE
  1 ****   4 GROUP 4 **** **** 0

# MOE 2024.06 (io_trps.svl 2023.06)
