@<TRIPOS>MOLECULE
NONAME
55 57 1 0 0 
SMALL
USER_CHARGES


@<TRIPOS>ATOM
  1 O        1.9860    -1.2870     3.2890 O.2   1 <1>  -0.5700 
  2 C        1.1460    -1.5380     2.4580 C.2   1 <1>   0.5690 
  3 N        1.0980    -0.9790     1.2170 N.am  1 <1>  -0.5470 
  4 C        0.0270    -2.5310     2.7910 C.3   1 <1>   0.1710 
  5 C        1.7720     0.0880     0.6020 C.ar  1 <1>   0.1170 
  6 N       -1.1560    -2.4140     1.8850 N.3   1 <1>  -0.8100 
  7 C        1.1570     0.7280    -0.4790 C.ar  1 <1>   0.0820 
  8 C        3.0200     0.5250     1.0260 C.ar  1 <1>  -0.1500 
  9 C       -2.0430    -3.5940     1.9740 C.3   1 <1>   0.1100 
 10 C       -1.9490    -1.1910     2.1710 C.3   1 <1>   0.1100 
 11 O       -0.0740     0.2700    -0.8610 O.3   1 <1>  -0.3630 
 12 C        1.7980     1.7870    -1.1120 C.ar  1 <1>  -0.1500 
 13 C        3.6550     1.5800     0.3940 C.ar  1 <1>  -0.1500 
 14 C       -3.2240    -3.4930     0.9880 C.3   1 <1>   0.2090 
 15 C       -3.1150    -1.0270     1.1810 C.3   1 <1>   0.2090 
 16 C       -0.7450     0.8190    -1.9750 C.3   1 <1>   0.0400 
 17 C        3.0420     2.2160    -0.6810 C.ar  1 <1>   0.0820 
 18 N       -4.0000    -2.2310     1.1850 N.pl3 1 <1>  -0.8380 
 19 O        3.5920     3.2590    -1.3570 O.3   1 <1>  -0.3630 
 20 C       -5.1590    -2.1190     0.4250 C.ar  1 <1>   0.1000 
 21 C        4.8500     3.7800    -0.9860 C.3   1 <1>   0.0400 
 22 C       -5.1160    -1.9770    -0.9560 C.ar  1 <1>  -0.1500 
 23 C       -6.3950    -2.1480     1.0550 C.ar  1 <1>  -0.1500 
 24 C       -6.2780    -1.8610    -1.6980 C.ar  1 <1>   0.0820 
 25 C       -7.5640    -2.0360     0.3250 C.ar  1 <1>  -0.1500 
 26 O       -6.1340    -1.7230    -3.0420 O.3   1 <1>  -0.3630 
 27 C       -7.5120    -1.8920    -1.0510 C.ar  1 <1>  -0.1500 
 28 C       -7.2570    -1.6250    -3.8890 C.3   1 <1>   0.0400 
 29 H        0.2620    -1.2810     0.7020 H     1 <1>   0.3700 
 30 H       -0.2760    -2.3870     3.8130 H     1 <1>   0.0800 
 31 H        0.4450    -3.5170     2.7030 H     1 <1>   0.0800 
 32 H        3.5020     0.0370     1.8540 H     1 <1>   0.1500 
 33 H       -2.4330    -3.6870     2.9740 H     1 <1>   0.0800 
 34 H       -1.4810    -4.4830     1.7470 H     1 <1>   0.0800 
 35 H       -1.3230    -0.3180     2.1030 H     1 <1>   0.0800 
 36 H       -2.3480    -1.2360     3.1700 H     1 <1>   0.0800 
 37 H        1.3580     2.3020    -1.9430 H     1 <1>   0.1500 
 38 H        4.6180     1.8860     0.7540 H     1 <1>   0.1500 
 39 H       -3.8810    -4.3340     1.1280 H     1 <1>   0.0800 
 40 H       -2.8450    -3.5290    -0.0190 H     1 <1>   0.0800 
 41 H       -2.7180    -0.8700     0.1940 H     1 <1>   0.0800 
 42 H       -3.6960    -0.1630     1.4510 H     1 <1>   0.0800 
 43 H       -1.6740     0.2920    -2.1000 H     1 <1>   0.0800 
 44 H       -0.1330     0.6910    -2.8500 H     1 <1>   0.0800 
 45 H       -0.9390     1.8600    -1.7880 H     1 <1>   0.0800 
 46 H        5.0820     4.5950    -1.6470 H     1 <1>   0.0800 
 47 H        5.5910     3.0070    -1.0850 H     1 <1>   0.0800 
 48 H        4.7960     4.1360     0.0280 H     1 <1>   0.0800 
 49 H       -4.1700    -1.9560    -1.4600 H     1 <1>   0.1500 
 50 H       -6.4230    -2.2590     2.1230 H     1 <1>   0.1500 
 51 H       -8.5140    -2.0600     0.8290 H     1 <1>   0.1500 
 52 H       -8.4320    -1.8050    -1.5950 H     1 <1>   0.1500 
 53 H       -6.9050    -1.5340    -4.9010 H     1 <1>   0.0800 
 54 H       -7.8230    -0.7510    -3.6190 H     1 <1>   0.0800 
 55 H       -7.8490    -2.5170    -3.7860 H     1 <1>   0.0800 
@<TRIPOS>BOND
  1   1   2  2   
  2   2   3  am  
  3   2   4  1   
  4   3   5  1   
  5   3  29  1   
  6   4   6  1   
  7   4  30  1   
  8   4  31  1   
  9   5   7  ar  
 10   5   8  ar  
 11   6   9  1   
 12   6  10  1   
 13   7  11  1   
 14   7  12  ar  
 15   8  13  ar  
 16   8  32  1   
 17   9  14  1   
 18   9  33  1   
 19   9  34  1   
 20  10  15  1   
 21  10  35  1   
 22  10  36  1   
 23  11  16  1   
 24  12  17  ar  
 25  12  37  1   
 26  13  17  ar  
 27  13  38  1   
 28  14  18  1   
 29  14  39  1   
 30  14  40  1   
 31  15  18  1   
 32  15  41  1   
 33  15  42  1   
 34  16  43  1   
 35  16  44  1   
 36  16  45  1   
 37  17  19  1   
 38  18  20  1   
 39  19  21  1   
 40  20  22  ar  
 41  20  23  ar  
 42  21  46  1   
 43  21  47  1   
 44  21  48  1   
 45  22  24  ar  
 46  22  49  1   
 47  23  25  ar  
 48  23  50  1   
 49  24  26  1   
 50  24  27  ar  
 51  25  27  ar  
 52  25  51  1   
 53  26  28  1   
 54  27  52  1   
 55  28  53  1   
 56  28  54  1   
 57  28  55  1   
@<TRIPOS>SUBSTRUCTURE
  1 ****  15 GROUP 4 **** **** 0

# MOE 2024.06 (io_trps.svl 2023.06)
