@<TRIPOS>MOLECULE
NONAME
55 58 1 0 0 
SMALL
USER_CHARGES


@<TRIPOS>ATOM
  1 F        0.1400    -0.9350    -0.9690 F     1 <1>  -0.1900 
  2 C       -1.0020    -1.5170    -0.7160 C.ar  1 <1>   0.1900 
  3 C       -1.0110    -2.8670    -0.4210 C.ar  1 <1>  -0.1500 
  4 C       -2.1580    -0.7630    -0.7510 C.ar  1 <1>  -0.1500 
  5 C       -2.2240    -3.4790    -0.1570 C.ar  1 <1>  -0.1500 
  6 C       -3.3650    -1.3870    -0.4850 C.ar  1 <1>  -0.1500 
  7 C       -3.4150    -2.7510    -0.1910 C.ar  1 <1>  -0.0230 
  8 N       -4.6640    -3.3840     0.0740 N.pl3 1 <1>   0.5930 
  9 N       -5.6030    -2.8320     0.8990 N.2   1 <1>  -0.7070 
 10 C       -5.1180    -4.5830    -0.4220 C.2   1 <1>  -0.0680 
 11 C       -6.5770    -3.6830     0.9330 C.2   1 <1>   0.1080 
 12 N       -4.4520    -5.4310    -1.3240 N.pl3 1 <1>  -0.8840 
 13 C       -6.3480    -4.8050     0.1230 C.2   1 <1>  -0.0540 
 14 C       -7.8340    -3.4630     1.7810 C.3   1 <1>   0.2910 
 15 C       -7.2290    -5.9190    -0.1080 C.ar  1 <1>   0.0540 
 16 N       -8.9090    -2.6950     1.0970 N.3   1 <1>  -0.8100 
 17 C       -7.6290    -6.7610     0.9270 C.ar  1 <1>  -0.1500 
 18 C       -7.7170    -6.1800    -1.3860 C.ar  1 <1>  -0.1500 
 19 C       -8.4750    -1.3170     0.7600 C.3   1 <1>   0.1100 
 20 C       -9.4240    -3.3840    -0.1090 C.3   1 <1>   0.1100 
 21 C       -8.5020    -7.8090     0.7000 C.ar  1 <1>  -0.1500 
 22 C       -8.5890    -7.2280    -1.6210 C.ar  1 <1>  -0.1500 
 23 C       -9.5880    -0.5090     0.0490 C.3   1 <1>   0.3430 
 24 C      -10.5930    -2.6110    -0.7650 C.3   1 <1>   0.3430 
 25 C       -8.9860    -8.0420    -0.5750 C.ar  1 <1>  -0.1500 
 26 N      -10.8550    -1.3050    -0.0660 N.4   1 <1>  -0.9590 
 27 C      -11.9830    -0.5190    -0.6190 C.3   1 <1>   0.3430 
 28 C      -13.2970    -1.2440    -0.3520 C.3   1 <1>  -0.2400 
 29 H       -0.0890    -3.4190    -0.3980 H     1 <1>   0.1500 
 30 H       -2.1090     0.2870    -0.9790 H     1 <1>   0.1500 
 31 H       -2.2480    -4.5290     0.0840 H     1 <1>   0.1500 
 32 H       -4.2760    -0.8140    -0.4990 H     1 <1>   0.1500 
 33 H       -4.9540    -6.2510    -1.6890 H     1 <1>   0.4000 
 34 H       -3.7560    -5.0460    -1.9750 H     1 <1>   0.4000 
 35 H       -7.5470    -2.9360     2.6740 H     1 <1>   0.0800 
 36 H       -8.2290    -4.4130     2.0920 H     1 <1>   0.0800 
 37 H       -7.2430    -6.5960     1.9180 H     1 <1>   0.1500 
 38 H       -7.4040    -5.5530    -2.2020 H     1 <1>   0.1500 
 39 H       -7.6120    -1.3450     0.1170 H     1 <1>   0.0800 
 40 H       -8.1850    -0.8040     1.6610 H     1 <1>   0.0800 
 41 H       -9.7590    -4.3740     0.1540 H     1 <1>   0.0800 
 42 H       -8.6360    -3.4900    -0.8340 H     1 <1>   0.0800 
 43 H       -8.8020    -8.4480     1.5130 H     1 <1>   0.1500 
 44 H       -8.9560    -7.4170    -2.6160 H     1 <1>   0.1500 
 45 H       -9.2430    -0.2250    -0.9310 H     1 <1>   0.0800 
 46 H       -9.7690     0.3950     0.6070 H     1 <1>   0.0800 
 47 H      -11.4750    -3.2290    -0.7280 H     1 <1>   0.0800 
 48 H      -10.3610    -2.4350    -1.8020 H     1 <1>   0.0800 
 49 H       -9.6640    -8.8600    -0.7530 H     1 <1>   0.1500 
 50 H      -11.0590    -1.5820     0.9070 H     1 <1>   0.4500 
 51 H      -11.8490    -0.3690    -1.6780 H     1 <1>   0.0800 
 52 H      -12.0170     0.4480    -0.1420 H     1 <1>   0.0800 
 53 H      -13.3520    -2.1710    -0.8930 H     1 <1>   0.0800 
 54 H      -14.1130    -0.6260    -0.6830 H     1 <1>   0.0800 
 55 H      -13.4260    -1.4270     0.7000 H     1 <1>   0.0800 
@<TRIPOS>BOND
  1   1   2  1   
  2   2   3  ar  
  3   2   4  ar  
  4   3   5  ar  
  5   3  29  1   
  6   4   6  ar  
  7   4  30  1   
  8   5   7  ar  
  9   5  31  1   
 10   6   7  ar  
 11   6  32  1   
 12   7   8  1   
 13   8   9  1   
 14   8  10  1   
 15   9  11  2   
 16  10  12  1   
 17  10  13  2   
 18  11  13  1   
 19  11  14  1   
 20  12  33  1   
 21  12  34  1   
 22  13  15  1   
 23  14  16  1   
 24  14  35  1   
 25  14  36  1   
 26  15  17  ar  
 27  15  18  ar  
 28  16  19  1   
 29  16  20  1   
 30  17  21  ar  
 31  17  37  1   
 32  18  22  ar  
 33  18  38  1   
 34  19  23  1   
 35  19  39  1   
 36  19  40  1   
 37  20  24  1   
 38  20  41  1   
 39  20  42  1   
 40  21  25  ar  
 41  21  43  1   
 42  22  25  ar  
 43  22  44  1   
 44  23  26  1   
 45  23  45  1   
 46  23  46  1   
 47  24  26  1   
 48  24  47  1   
 49  24  48  1   
 50  25  49  1   
 51  26  27  1   
 52  26  50  1   
 53  27  28  1   
 54  27  51  1   
 55  27  52  1   
 56  28  53  1   
 57  28  54  1   
 58  28  55  1   
@<TRIPOS>SUBSTRUCTURE
  1 ****  11 GROUP 4 **** **** 0

# MOE 2024.06 (io_trps.svl 2023.06)
