@<TRIPOS>MOLECULE
NONAME
40 42 1 0 0 
SMALL
USER_CHARGES


@<TRIPOS>ATOM
  1 S       -0.6380     0.5320    -0.9870 S.3   1 <1>  -0.3320 
  2 C        0.6630     1.5960    -0.3720 C.ar  1 <1>   0.7220 
  3 C       -1.8220     1.6610    -1.8480 C.3   1 <1>   0.0700 
  4 N        0.5590     2.8760    -0.6910 N.ar  1 <1>  -0.6200 
  5 N        1.5880     0.9860     0.3470 N.ar  1 <1>  -0.6200 
  6 C       -2.6680     2.3840    -0.7960 C.3   1 <1>  -0.1600 
  7 C        1.4960     3.6460    -0.1950 C.ar  1 <1>   0.1670 
  8 C        2.5220     1.7790     0.8190 C.ar  1 <1>   0.1670 
  9 C       -3.4830     3.5090    -1.4350 C.3   1 <1>   0.1400 
 10 C        2.5160     3.1340     0.5750 C.ar  1 <1>  -0.1500 
 11 C        1.3950     5.1240    -0.5050 C.3   1 <1>  -0.0960 
 12 C        3.6090     1.1330     1.6520 C.3   1 <1>  -0.0960 
 13 N       -4.1560     4.2930    -0.3840 N.am  1 <1>  -0.4770 
 14 C       -3.6820     5.4530     0.1630 C.2   1 <1>   0.6900 
 15 C       -5.3210     3.9570     0.3010 C.ar  1 <1>   0.1170 
 16 O       -2.6690     6.0480    -0.1650 O.2   1 <1>  -0.5700 
 17 N       -4.5130     5.8560     1.1520 N.am  1 <1>  -0.5470 
 18 C       -5.5410     4.9350     1.2580 C.ar  1 <1>   0.1170 
 19 C       -6.1980     2.8890     0.1720 C.ar  1 <1>  -0.1500 
 20 C       -6.6360     4.8720     2.1060 C.ar  1 <1>  -0.1500 
 21 C       -7.2930     2.8210     1.0170 C.ar  1 <1>  -0.1500 
 22 C       -7.5110     3.8070     1.9780 C.ar  1 <1>  -0.1500 
 23 H       -2.4300     1.0510    -2.4930 H     1 <1>   0.0800 
 24 H       -1.2390     2.3460    -2.4390 H     1 <1>   0.0800 
 25 H       -2.0220     2.8150    -0.0520 H     1 <1>   0.0800 
 26 H       -3.3230     1.6790    -0.3150 H     1 <1>   0.0800 
 27 H       -4.2180     3.1090    -2.1110 H     1 <1>   0.0800 
 28 H       -2.8280     4.1630    -1.9870 H     1 <1>   0.0800 
 29 H        3.2810     3.7730     0.9730 H     1 <1>   0.1500 
 30 H        1.4750     5.2760    -1.5660 H     1 <1>   0.0800 
 31 H        2.1720     5.6780    -0.0130 H     1 <1>   0.0800 
 32 H        0.4410     5.4960    -0.1760 H     1 <1>   0.0800 
 33 H        4.1180     0.3910     1.0640 H     1 <1>   0.0800 
 34 H        3.1680     0.6530     2.5060 H     1 <1>   0.0800 
 35 H        4.3230     1.8600     1.9900 H     1 <1>   0.0800 
 36 H       -4.3380     6.6880     1.7090 H     1 <1>   0.3700 
 37 H       -6.0220     2.1320    -0.5700 H     1 <1>   0.1500 
 38 H       -6.7930     5.6380     2.8440 H     1 <1>   0.1500 
 39 H       -7.9850     2.0010     0.9330 H     1 <1>   0.1500 
 40 H       -8.3690     3.7370     2.6250 H     1 <1>   0.1500 
@<TRIPOS>BOND
  1   1   2  1   
  2   1   3  1   
  3   2   4  ar  
  4   2   5  ar  
  5   3   6  1   
  6   3  23  1   
  7   3  24  1   
  8   4   7  ar  
  9   5   8  ar  
 10   6   9  1   
 11   6  25  1   
 12   6  26  1   
 13   7  10  ar  
 14   7  11  1   
 15   8  10  ar  
 16   8  12  1   
 17   9  13  1   
 18   9  27  1   
 19   9  28  1   
 20  10  29  1   
 21  11  30  1   
 22  11  31  1   
 23  11  32  1   
 24  12  33  1   
 25  12  34  1   
 26  12  35  1   
 27  13  14  am  
 28  13  15  1   
 29  14  16  2   
 30  14  17  am  
 31  15  18  ar  
 32  15  19  ar  
 33  17  18  1   
 34  17  36  1   
 35  18  20  ar  
 36  19  21  ar  
 37  19  37  1   
 38  20  22  ar  
 39  20  38  1   
 40  21  22  ar  
 41  21  39  1   
 42  22  40  1   
@<TRIPOS>SUBSTRUCTURE
  1 ****   6 GROUP 4 **** **** 0

# MOE 2024.06 (io_trps.svl 2023.06)
