@<TRIPOS>MOLECULE
NONAME
47 48 1 0 0 
SMALL
USER_CHARGES


@<TRIPOS>ATOM
  1 S        0.0210    -2.1770    -0.0910 S.3   1 <1>  -0.2860 
  2 C       -1.6800    -1.6070    -0.1700 C.2   1 <1>   0.2420 
  3 C        0.9370    -0.8300    -0.9930 C.3   1 <1>   0.1310 
  4 N       -2.0290    -0.4920    -0.7020 N.2   1 <1>  -0.3380 
  5 N       -2.7010    -2.3080     0.3210 N.pl3 1 <1>   0.0480 
  6 C        2.4380    -1.0480    -0.9280 C.2   1 <1>   0.5690 
  7 N       -3.3570    -0.4300    -0.5690 N.2   1 <1>  -0.3380 
  8 C       -3.7410    -1.5090     0.0340 C.2   1 <1>   0.0060 
  9 C       -2.6660    -3.6260     0.9870 C.3   1 <1>   0.0160 
 10 O        3.1130    -0.6550    -1.8480 O.2   1 <1>  -0.5700 
 11 N        2.9590    -1.6730     0.1700 N.am  1 <1>  -0.5470 
 12 C       -5.1850    -1.8550     0.3860 C.3   1 <1>   0.0200 
 13 C        4.2880    -2.0450     0.4260 C.ar  1 <1>   0.1170 
 14 C       -6.2010    -0.8310    -0.1420 C.3   1 <1>  -0.1600 
 15 C        4.6040    -3.4030     0.5190 C.ar  1 <1>  -0.1430 
 16 C        5.2920    -1.0910     0.6190 C.ar  1 <1>  -0.1430 
 17 C       -7.6400    -1.2200     0.2220 C.3   1 <1>  -0.1600 
 18 C        5.9040    -3.7920     0.7960 C.ar  1 <1>  -0.1500 
 19 C        3.5430    -4.4770     0.3070 C.3   1 <1>  -0.0970 
 20 C        6.5860    -1.5020     0.8910 C.ar  1 <1>  -0.1500 
 21 C        5.0070     0.4040     0.5450 C.3   1 <1>  -0.0970 
 22 C       -8.6390    -0.1890    -0.3110 C.3   1 <1>  -0.2400 
 23 C        6.8940    -2.8460     0.9810 C.ar  1 <1>  -0.1500 
 24 H        0.6730     0.1030    -0.5320 H     1 <1>   0.0800 
 25 H        0.5970    -0.8420    -2.0120 H     1 <1>   0.0800 
 26 H       -1.8200    -3.6710     1.6480 H     1 <1>   0.0800 
 27 H       -2.5790    -4.3960     0.2420 H     1 <1>   0.0800 
 28 H       -3.5650    -3.7760     1.5550 H     1 <1>   0.0800 
 29 H        2.2710    -2.0820     0.8010 H     1 <1>   0.3700 
 30 H       -5.2740    -1.9140     1.4560 H     1 <1>   0.0800 
 31 H       -5.4190    -2.8200    -0.0270 H     1 <1>   0.0800 
 32 H       -6.1070    -0.7610    -1.2130 H     1 <1>   0.0800 
 33 H       -5.9740     0.1370     0.2720 H     1 <1>   0.0800 
 34 H       -7.7390    -1.2840     1.2930 H     1 <1>   0.0800 
 35 H       -7.8730    -2.1850    -0.1960 H     1 <1>   0.0800 
 36 H        6.1580    -4.8350     0.8670 H     1 <1>   0.1500 
 37 H        3.0710    -4.3410    -0.6500 H     1 <1>   0.0800 
 38 H        2.7980    -4.4170     1.0790 H     1 <1>   0.0800 
 39 H        3.9790    -5.4590     0.3300 H     1 <1>   0.0800 
 40 H        7.3670    -0.7750     1.0340 H     1 <1>   0.1500 
 41 H        4.0920     0.6390     1.0550 H     1 <1>   0.0800 
 42 H        4.9210     0.7050    -0.4840 H     1 <1>   0.0800 
 43 H        5.7990     0.9700     1.0000 H     1 <1>   0.0800 
 44 H       -8.4380     0.7810     0.1090 H     1 <1>   0.0800 
 45 H       -9.6410    -0.4750    -0.0480 H     1 <1>   0.0800 
 46 H       -8.5720    -0.1210    -1.3830 H     1 <1>   0.0800 
 47 H        7.9020    -3.1550     1.1920 H     1 <1>   0.1500 
@<TRIPOS>BOND
  1   1   2  1   
  2   1   3  1   
  3   2   4  2   
  4   2   5  1   
  5   3   6  1   
  6   3  24  1   
  7   3  25  1   
  8   4   7  1   
  9   5   8  1   
 10   5   9  1   
 11   6  10  2   
 12   6  11  am  
 13   7   8  2   
 14   8  12  1   
 15   9  26  1   
 16   9  27  1   
 17   9  28  1   
 18  11  13  1   
 19  11  29  1   
 20  12  14  1   
 21  12  30  1   
 22  12  31  1   
 23  13  15  ar  
 24  13  16  ar  
 25  14  17  1   
 26  14  32  1   
 27  14  33  1   
 28  15  18  ar  
 29  15  19  1   
 30  16  20  ar  
 31  16  21  1   
 32  17  22  1   
 33  17  34  1   
 34  17  35  1   
 35  18  23  ar  
 36  18  36  1   
 37  19  37  1   
 38  19  38  1   
 39  19  39  1   
 40  20  23  ar  
 41  20  40  1   
 42  21  41  1   
 43  21  42  1   
 44  21  43  1   
 45  22  44  1   
 46  22  45  1   
 47  22  46  1   
 48  23  47  1   
@<TRIPOS>SUBSTRUCTURE
  1 ****   1 GROUP 4 **** **** 0

# MOE 2024.06 (io_trps.svl 2023.06)
