@<TRIPOS>MOLECULE
NONAME
48 50 1 0 0 
SMALL
USER_CHARGES


@<TRIPOS>ATOM
  1 S        0.1180     0.6270     0.9220 S.o2  1 <1>   1.4470 
  2 O       -0.6210     1.2400    -0.1560 O.2   1 <1>  -0.6500 
  3 O       -0.2930     0.8060     2.2940 O.2   1 <1>  -0.6500 
  4 N       -0.1040    -1.0630     0.7050 N.am  1 <1>  -0.7570 
  5 C        1.9150     0.8310     0.7720 C.ar  1 <1>  -0.0090 
  6 C       -0.0740    -1.7910    -0.4770 C.ar  1 <1>   0.1990 
  7 C        2.4540     2.0830     0.4890 C.ar  1 <1>   0.0830 
  8 C        2.7920    -0.2320     0.9570 C.ar  1 <1>  -0.1500 
  9 C       -0.5660    -3.0920    -0.4750 C.ar  1 <1>  -0.1500 
 10 C        0.4430    -1.2820    -1.6660 C.ar  1 <1>  -0.1500 
 11 O        1.5960     3.1170     0.3510 O.3   1 <1>  -0.3630 
 12 C        3.8330     2.2410     0.3660 C.ar  1 <1>  -0.1500 
 13 C        4.1740    -0.1060     0.8300 C.ar  1 <1>   0.0860 
 14 C       -0.5440    -3.8640    -1.6220 C.ar  1 <1>  -0.1500 
 15 C        0.4670    -2.0510    -2.8150 C.ar  1 <1>  -0.1500 
 16 C        2.0140     4.4310     0.0530 C.3   1 <1>   0.0400 
 17 C        4.6730     1.1600     0.5340 C.ar  1 <1>  -0.1500 
 18 C        5.0690    -1.2320     1.0170 C.2   1 <1>   0.5440 
 19 C       -0.0260    -3.3440    -2.7960 C.ar  1 <1>  -0.1500 
 20 O        6.0550    -1.0850     1.7140 O.2   1 <1>  -0.5700 
 21 N        4.8470    -2.4610     0.4280 N.am  1 <1>  -0.6600 
 22 C        4.0170    -2.6670    -0.7930 C.3   1 <1>   0.1400 
 23 C        5.5980    -3.6730     0.8600 C.3   1 <1>   0.1400 
 24 C        3.0210    -3.8060    -0.5540 C.3   1 <1>  -0.1600 
 25 C        4.6180    -4.8260     1.1100 C.3   1 <1>  -0.1600 
 26 C        3.7300    -5.0930    -0.1130 C.3   1 <1>  -0.1600 
 27 H       -0.6680    -1.4110     1.4730 H     1 <1>   0.4200 
 28 H        2.4070    -1.2030     1.2140 H     1 <1>   0.1500 
 29 H       -0.9690    -3.5040     0.4320 H     1 <1>   0.1500 
 30 H        0.8220    -0.2790    -1.7090 H     1 <1>   0.1500 
 31 H        4.2680     3.1970     0.1460 H     1 <1>   0.1500 
 32 H       -0.9300    -4.8690    -1.6050 H     1 <1>   0.1500 
 33 H        0.8640    -1.6420    -3.7290 H     1 <1>   0.1500 
 34 H        1.1380     5.0510    -0.0090 H     1 <1>   0.0800 
 35 H        2.5270     4.4290    -0.8920 H     1 <1>   0.0800 
 36 H        2.6550     4.7820     0.8420 H     1 <1>   0.0800 
 37 H        5.7390     1.2850     0.4460 H     1 <1>   0.1500 
 38 H       -0.0110    -3.9410    -3.6910 H     1 <1>   0.1500 
 39 H        4.6680    -2.9260    -1.6110 H     1 <1>   0.0800 
 40 H        3.4920    -1.7700    -1.0650 H     1 <1>   0.0800 
 41 H        6.1510    -3.4760     1.7630 H     1 <1>   0.0800 
 42 H        6.2990    -3.9440     0.0900 H     1 <1>   0.0800 
 43 H        2.4720    -3.9910    -1.4600 H     1 <1>   0.0800 
 44 H        2.3170    -3.5030     0.2000 H     1 <1>   0.0800 
 45 H        4.0050    -4.5770     1.9580 H     1 <1>   0.0800 
 46 H        5.1730    -5.7140     1.3560 H     1 <1>   0.0800 
 47 H        4.3390    -5.4600    -0.9220 H     1 <1>   0.0800 
 48 H        3.0010    -5.8490     0.1240 H     1 <1>   0.0800 
@<TRIPOS>BOND
  1   1   2  2   
  2   1   3  2   
  3   1   4  am  
  4   1   5  1   
  5   4   6  1   
  6   4  27  1   
  7   5   7  ar  
  8   5   8  ar  
  9   6   9  ar  
 10   6  10  ar  
 11   7  11  1   
 12   7  12  ar  
 13   8  13  ar  
 14   8  28  1   
 15   9  14  ar  
 16   9  29  1   
 17  10  15  ar  
 18  10  30  1   
 19  11  16  1   
 20  12  17  ar  
 21  12  31  1   
 22  13  17  ar  
 23  13  18  1   
 24  14  19  ar  
 25  14  32  1   
 26  15  19  ar  
 27  15  33  1   
 28  16  34  1   
 29  16  35  1   
 30  16  36  1   
 31  17  37  1   
 32  18  20  2   
 33  18  21  am  
 34  19  38  1   
 35  21  22  1   
 36  21  23  1   
 37  22  24  1   
 38  22  39  1   
 39  22  40  1   
 40  23  25  1   
 41  23  41  1   
 42  23  42  1   
 43  24  26  1   
 44  24  43  1   
 45  24  44  1   
 46  25  26  1   
 47  25  45  1   
 48  25  46  1   
 49  26  47  1   
 50  26  48  1   
@<TRIPOS>SUBSTRUCTURE
  1 ****   8 GROUP 4 **** **** 0

# MOE 2024.06 (io_trps.svl 2023.06)
