@<TRIPOS>MOLECULE
NONAME
30 30 1 0 0 
SMALL
USER_CHARGES


@<TRIPOS>ATOM
  1 O        2.8310    -0.6120    -2.7370 O.co2 1 <1>  -0.9000 
  2 C        2.1760    -1.3550    -2.0010 C.2   1 <1>   0.9060 
  3 O        0.9450    -1.4010    -2.0040 O.co2 1 <1>  -0.9000 
  4 C        2.9350    -2.2360    -1.0460 C.3   1 <1>  -0.2660 
  5 C        3.3800    -1.4460     0.2020 C.3   1 <1>  -0.0990 
  6 C        4.5110    -2.1250     0.9460 C.2   1 <1>   0.5690 
  7 O        4.3400    -2.5540     2.0620 O.2   1 <1>  -0.5700 
  8 N        5.7010    -2.2150     0.3130 N.am  1 <1>  -0.7300 
  9 C        6.9180    -2.8040     0.8670 C.3   1 <1>   0.3640 
 10 C        8.1230    -2.0950     0.2570 C.ar  1 <1>  -0.1440 
 11 C        6.9280    -4.2980     0.5530 C.3   1 <1>  -0.2400 
 12 C        8.3180    -2.0580    -1.1180 C.ar  1 <1>  -0.1500 
 13 C        9.0450    -1.4680     1.0840 C.ar  1 <1>  -0.1500 
 14 C        9.4150    -1.4060    -1.6560 C.ar  1 <1>  -0.1500 
 15 C       10.1420    -0.8170     0.5470 C.ar  1 <1>  -0.1500 
 16 C       10.3280    -0.7860    -0.8230 C.ar  1 <1>  -0.1500 
 17 H        3.7830    -2.6170    -1.5800 H     1 <1>   0.0800 
 18 H        2.3120    -3.0610    -0.7610 H     1 <1>   0.0800 
 19 H        2.5400    -1.3120     0.8590 H     1 <1>   0.0800 
 20 H        3.7190    -0.4710    -0.0980 H     1 <1>   0.0800 
 21 H        5.8000    -1.7950    -0.6120 H     1 <1>   0.3700 
 22 H        6.9150    -2.6700     1.9360 H     1 <1>   0.0800 
 23 H        6.8690    -4.4680    -0.5060 H     1 <1>   0.0800 
 24 H        6.0930    -4.7730     1.0360 H     1 <1>   0.0800 
 25 H        7.8350    -4.7380     0.9250 H     1 <1>   0.0800 
 26 H        7.6160    -2.5350    -1.7800 H     1 <1>   0.1500 
 27 H        8.9110    -1.4820     2.1510 H     1 <1>   0.1500 
 28 H        9.5540    -1.3820    -2.7230 H     1 <1>   0.1500 
 29 H       10.8510    -0.3340     1.1970 H     1 <1>   0.1500 
 30 H       11.1800    -0.2780    -1.2410 H     1 <1>   0.1500 
@<TRIPOS>BOND
  1   1   2  ar  
  2   2   3  ar  
  3   2   4  1   
  4   4   5  1   
  5   4  17  1   
  6   4  18  1   
  7   5   6  1   
  8   5  19  1   
  9   5  20  1   
 10   6   7  2   
 11   6   8  am  
 12   8   9  1   
 13   8  21  1   
 14   9  10  1   
 15   9  11  1   
 16   9  22  1   
 17  10  12  ar  
 18  10  13  ar  
 19  11  23  1   
 20  11  24  1   
 21  11  25  1   
 22  12  14  ar  
 23  12  26  1   
 24  13  15  ar  
 25  13  27  1   
 26  14  16  ar  
 27  14  28  1   
 28  15  16  ar  
 29  15  29  1   
 30  16  30  1   
@<TRIPOS>SUBSTRUCTURE
  1 ****   8 GROUP 4 **** **** 0

# MOE 2024.06 (io_trps.svl 2023.06)
