@<TRIPOS>MOLECULE
NONAME
49 50 1 0 0 
SMALL
USER_CHARGES


@<TRIPOS>ATOM
  1 S        3.0660    -3.2360    -3.4440 S.3   1 <1>  -0.3710 
  2 C        1.7090    -3.7080    -2.3830 C.2   1 <1>   0.6510 
  3 C        4.5740    -3.3810    -2.3440 C.3   1 <1>   0.0700 
  4 N        1.9930    -3.9220    -1.1690 N.2   1 <1>  -0.6210 
  5 N        0.4720    -3.7820    -2.9170 N.am  1 <1>  -0.4900 
  6 C        4.4190    -2.4520    -1.1150 C.3   1 <1>   0.3430 
  7 C        1.0020    -4.2270    -0.2990 C.2   1 <1>   0.0210 
  8 C       -0.5760    -4.1100    -2.1020 C.2   1 <1>   0.6160 
  9 N        4.6860    -3.0250     0.2620 N.4   1 <1>  -0.9590 
 10 O        1.3960    -4.3690     0.8650 O.3   1 <1>  -0.8500 
 11 C       -0.3190    -4.3390    -0.7440 C.2   1 <1>  -0.1240 
 12 O       -1.6760    -4.1640    -2.6720 O.2   1 <1>  -0.5700 
 13 C        4.3770    -4.4820     0.4330 C.3   1 <1>   0.3430 
 14 C        3.7760    -2.3080     1.1980 C.3   1 <1>   0.3430 
 15 C       -1.4230    -4.7010     0.2550 C.3   1 <1>   0.0580 
 16 C        5.6880    -5.2280     0.6290 C.3   1 <1>  -0.2400 
 17 C        4.3310    -2.3780     2.6170 C.3   1 <1>  -0.2400 
 18 C       -2.0950    -6.0420    -0.0920 C.3   1 <1>  -0.1600 
 19 C       -2.4650    -3.5770     0.3940 C.3   1 <1>  -0.1600 
 20 C       -3.1840    -6.4030     0.9300 C.3   1 <1>  -0.1600 
 21 C       -3.5530    -3.9450     1.4140 C.3   1 <1>  -0.1600 
 22 C       -4.2210    -5.2790     1.0550 C.3   1 <1>  -0.1600 
 23 H        5.4170    -3.0850    -2.9410 H     1 <1>   0.0800 
 24 H        4.6590    -4.4210    -2.0940 H     1 <1>   0.0800 
 25 H        0.2820    -3.6150    -3.8950 H     1 <1>   0.3700 
 26 H        3.4030    -2.0930    -1.1270 H     1 <1>   0.0800 
 27 H        5.0430    -1.5880    -1.2610 H     1 <1>   0.0800 
 28 H        5.6530    -2.8640     0.5480 H     1 <1>   0.4500 
 29 H        3.8530    -4.8800    -0.4160 H     1 <1>   0.0800 
 30 H        3.7300    -4.6350     1.2840 H     1 <1>   0.0800 
 31 H        2.7870    -2.7400     1.1580 H     1 <1>   0.0800 
 32 H        3.6920    -1.2740     0.9090 H     1 <1>   0.0800 
 33 H       -0.9660    -4.8240     1.2220 H     1 <1>   0.0800 
 34 H        6.3270    -5.1100    -0.2260 H     1 <1>   0.0800 
 35 H        5.4740    -6.2750     0.7470 H     1 <1>   0.0800 
 36 H        6.1890    -4.8870     1.5170 H     1 <1>   0.0800 
 37 H        4.3470    -3.3920     2.9730 H     1 <1>   0.0800 
 38 H        3.6840    -1.8180     3.2670 H     1 <1>   0.0800 
 39 H        5.3160    -1.9520     2.6680 H     1 <1>   0.0800 
 40 H       -1.3450    -6.8130    -0.1090 H     1 <1>   0.0800 
 41 H       -2.5370    -5.9850    -1.0700 H     1 <1>   0.0800 
 42 H       -2.9280    -3.3900    -0.5580 H     1 <1>   0.0800 
 43 H       -1.9660    -2.6760     0.7050 H     1 <1>   0.0800 
 44 H       -2.7240    -6.5730     1.8880 H     1 <1>   0.0800 
 45 H       -3.6700    -7.3140     0.6280 H     1 <1>   0.0800 
 46 H       -4.2930    -3.1650     1.4460 H     1 <1>   0.0800 
 47 H       -3.1080    -4.0210     2.3920 H     1 <1>   0.0800 
 48 H       -4.9420    -5.5360     1.8100 H     1 <1>   0.0800 
 49 H       -4.7420    -5.1730     0.1180 H     1 <1>   0.0800 
@<TRIPOS>BOND
  1   1   2  1   
  2   1   3  1   
  3   2   4  2   
  4   2   5  1   
  5   3   6  1   
  6   3  23  1   
  7   3  24  1   
  8   4   7  1   
  9   5   8  am  
 10   5  25  1   
 11   6   9  1   
 12   6  26  1   
 13   6  27  1   
 14   7  10  1   
 15   7  11  2   
 16   8  11  1   
 17   8  12  2   
 18   9  13  1   
 19   9  14  1   
 20   9  28  1   
 21  11  15  1   
 22  13  16  1   
 23  13  29  1   
 24  13  30  1   
 25  14  17  1   
 26  14  31  1   
 27  14  32  1   
 28  15  18  1   
 29  15  19  1   
 30  15  33  1   
 31  16  34  1   
 32  16  35  1   
 33  16  36  1   
 34  17  37  1   
 35  17  38  1   
 36  17  39  1   
 37  18  20  1   
 38  18  40  1   
 39  18  41  1   
 40  19  21  1   
 41  19  42  1   
 42  19  43  1   
 43  20  22  1   
 44  20  44  1   
 45  20  45  1   
 46  21  22  1   
 47  21  46  1   
 48  21  47  1   
 49  22  48  1   
 50  22  49  1   
@<TRIPOS>SUBSTRUCTURE
  1 ****   7 GROUP 4 **** **** 0

# MOE 2024.06 (io_trps.svl 2023.06)
