@<TRIPOS>MOLECULE
NONAME
48 50 1 0 0 
SMALL
USER_CHARGES


@<TRIPOS>ATOM
  1 O       -1.6760     0.0960    -0.6710 O.3   1 <1>  -0.3630 
  2 C       -2.2040     0.9300     0.2690 C.ar  1 <1>   0.0820 
  3 C       -0.3610     0.2180    -1.1600 C.3   1 <1>   0.1200 
  4 C       -1.6160     2.0840     0.8150 C.ar  1 <1>   0.0820 
  5 C       -3.4660     0.5600     0.6990 C.ar  1 <1>  -0.1500 
  6 C       -0.1070    -0.9400    -2.1200 C.3   1 <1>  -0.2400 
  7 O       -0.3920     2.5310     0.4630 O.3   1 <1>  -0.5320 
  8 C       -2.3050     2.8240     1.7640 C.ar  1 <1>  -0.1500 
  9 C       -4.1620     1.3080     1.6360 C.ar  1 <1>  -0.1430 
 10 C       -3.5710     2.4420     2.1720 C.ar  1 <1>  -0.1500 
 11 C       -5.5600     0.8920     2.0520 C.3   1 <1>   0.4860 
 12 N       -6.4560     1.0090     0.8700 N.4   1 <1>  -0.9590 
 13 C       -6.5180     2.4270     0.3490 C.3   1 <1>   0.3430 
 14 C       -7.8370     0.4740     1.1510 C.3   1 <1>   0.3430 
 15 C       -7.4350     2.5700    -0.8850 C.3   1 <1>   0.2090 
 16 C       -8.7650     0.5620    -0.0790 C.3   1 <1>   0.2090 
 17 N       -8.7700     1.9400    -0.6530 N.pl3 1 <1>  -0.8380 
 18 C       -9.8970     2.7310    -0.4350 C.ar  1 <1>   0.1000 
 19 C       -9.8670     3.8490     0.3960 C.ar  1 <1>  -0.1500 
 20 C      -11.0970     2.3970    -1.0510 C.ar  1 <1>  -0.1500 
 21 C      -11.0060     4.6050     0.6060 C.ar  1 <1>  -0.1500 
 22 C      -12.2380     3.1490    -0.8420 C.ar  1 <1>  -0.1500 
 23 C      -12.1940     4.2550    -0.0110 C.ar  1 <1>  -0.1500 
 24 H        0.3190     0.1790    -0.3270 H     1 <1>   0.0800 
 25 H       -0.2730     1.1610    -1.6710 H     1 <1>   0.0800 
 26 H       -3.8870    -0.3360     0.2780 H     1 <1>   0.1500 
 27 H       -0.2070    -1.8780    -1.6040 H     1 <1>   0.0800 
 28 H        0.8910    -0.8710    -2.5130 H     1 <1>   0.0800 
 29 H       -0.8010    -0.9020    -2.9400 H     1 <1>   0.0800 
 30 H       -0.1090     3.3210     0.9580 H     1 <1>   0.4500 
 31 H       -1.8570     3.7040     2.1910 H     1 <1>   0.1500 
 32 H       -4.0800     3.0380     2.9120 H     1 <1>   0.1500 
 33 H       -5.9110     1.5240     2.8520 H     1 <1>   0.0800 
 34 H       -5.5370    -0.1270     2.4040 H     1 <1>   0.0800 
 35 H       -6.0370     0.4450     0.1200 H     1 <1>   0.4500 
 36 H       -5.5290     2.7660     0.0850 H     1 <1>   0.0800 
 37 H       -6.8920     3.0760     1.1210 H     1 <1>   0.0800 
 38 H       -8.2890     1.0410     1.9470 H     1 <1>   0.0800 
 39 H       -7.7770    -0.5540     1.4680 H     1 <1>   0.0800 
 40 H       -6.9710     2.1020    -1.7360 H     1 <1>   0.0800 
 41 H       -7.5620     3.6120    -1.1230 H     1 <1>   0.0800 
 42 H       -9.7650     0.2880     0.2140 H     1 <1>   0.0800 
 43 H       -8.4440    -0.1340    -0.8340 H     1 <1>   0.0800 
 44 H       -8.9580     4.1330     0.8850 H     1 <1>   0.1500 
 45 H      -11.1300     1.5450    -1.7040 H     1 <1>   0.1500 
 46 H      -10.9740     5.4670     1.2500 H     1 <1>   0.1500 
 47 H      -13.1590     2.8780    -1.3280 H     1 <1>   0.1500 
 48 H      -13.0820     4.8430     0.1510 H     1 <1>   0.1500 
@<TRIPOS>BOND
  1   1   2  1   
  2   1   3  1   
  3   2   4  ar  
  4   2   5  ar  
  5   3   6  1   
  6   3  24  1   
  7   3  25  1   
  8   4   7  1   
  9   4   8  ar  
 10   5   9  ar  
 11   5  26  1   
 12   6  27  1   
 13   6  28  1   
 14   6  29  1   
 15   7  30  1   
 16   8  10  ar  
 17   8  31  1   
 18   9  10  ar  
 19   9  11  1   
 20  10  32  1   
 21  11  12  1   
 22  11  33  1   
 23  11  34  1   
 24  12  13  1   
 25  12  14  1   
 26  12  35  1   
 27  13  15  1   
 28  13  36  1   
 29  13  37  1   
 30  14  16  1   
 31  14  38  1   
 32  14  39  1   
 33  15  17  1   
 34  15  40  1   
 35  15  41  1   
 36  16  17  1   
 37  16  42  1   
 38  16  43  1   
 39  17  18  1   
 40  18  19  ar  
 41  18  20  ar  
 42  19  21  ar  
 43  19  44  1   
 44  20  22  ar  
 45  20  45  1   
 46  21  23  ar  
 47  21  46  1   
 48  22  23  ar  
 49  22  47  1   
 50  23  48  1   
@<TRIPOS>SUBSTRUCTURE
  1 ****  13 GROUP 4 **** **** 0

# MOE 2024.06 (io_trps.svl 2023.06)
