@<TRIPOS>MOLECULE
NONAME
55 57 1 0 0 
SMALL
USER_CHARGES


@<TRIPOS>ATOM
  1 O        1.4950    -2.4590    -1.7370 O.2   1 <1>  -0.5700 
  2 C        1.3260    -3.2010    -0.7880 C.2   1 <1>   0.6900 
  3 N        2.4050    -3.8430    -0.2460 N.am  1 <1>  -0.6600 
  4 N        0.1240    -3.3500    -0.1770 N.am  1 <1>  -0.5470 
  5 C        3.5910    -4.0710    -1.1220 C.3   1 <1>   0.1400 
  6 C        2.7840    -3.4840     1.1490 C.3   1 <1>   0.1400 
  7 C       -1.0180    -2.5310    -0.1540 C.ar  1 <1>   0.1170 
  8 C        4.4690    -2.8050    -1.1530 C.3   1 <1>   0.3430 
  9 C        3.6570    -2.2110     1.1340 C.3   1 <1>   0.3430 
 10 C       -1.8070    -2.5280     1.0010 C.ar  1 <1>   0.0820 
 11 C       -1.3910    -1.7340    -1.2290 C.ar  1 <1>  -0.1500 
 12 N        4.8640    -2.3500     0.2370 N.4   1 <1>  -0.9590 
 13 O       -1.4100    -3.3350     2.0330 O.3   1 <1>  -0.3620 
 14 C       -2.9380    -1.7220     1.0650 C.ar  1 <1>  -0.1500 
 15 C       -2.5180    -0.9340    -1.1610 C.ar  1 <1>  -0.1500 
 16 C        5.6860    -1.1040     0.2530 C.3   1 <1>   0.4230 
 17 C       -2.2430    -3.5270     3.1570 C.3   1 <1>   0.0400 
 18 C       -3.2960    -0.9240    -0.0080 C.ar  1 <1>   0.0830 
 19 C        5.0110     0.0700    -0.4800 C.3   1 <1>  -0.1600 
 20 C        7.0770    -1.3860    -0.3280 C.3   1 <1>  -0.1600 
 21 O       -4.4140    -0.1670     0.1440 O.3   1 <1>  -0.3620 
 22 C        5.8880     1.3280    -0.4020 C.3   1 <1>  -0.1600 
 23 C        7.9610    -0.1320    -0.2530 C.3   1 <1>  -0.1600 
 24 C       -4.8590     0.6830    -0.8890 C.3   1 <1>   0.0400 
 25 C        7.2950     1.0590    -0.9550 C.3   1 <1>  -0.1600 
 26 H        0.1060    -4.0640     0.5480 H     1 <1>   0.3700 
 27 H        3.2600    -4.2990    -2.1220 H     1 <1>   0.0800 
 28 H        4.1550    -4.9130    -0.7620 H     1 <1>   0.0800 
 29 H        3.3190    -4.3000     1.6020 H     1 <1>   0.0800 
 30 H        1.9020    -3.3000     1.7390 H     1 <1>   0.0800 
 31 H        3.9040    -2.0280    -1.6430 H     1 <1>   0.0800 
 32 H        5.3470    -2.9980    -1.7450 H     1 <1>   0.0800 
 33 H        3.9700    -1.9850     2.1400 H     1 <1>   0.0800 
 34 H        3.0440    -1.3940     0.7890 H     1 <1>   0.0800 
 35 H       -0.8050    -1.7370    -2.1290 H     1 <1>   0.1500 
 36 H        5.4510    -3.0910     0.6360 H     1 <1>   0.4500 
 37 H       -3.5620    -1.6870     1.9360 H     1 <1>   0.1500 
 38 H       -2.7700    -0.3310    -2.0130 H     1 <1>   0.1500 
 39 H        5.8270    -0.8050     1.2790 H     1 <1>   0.0800 
 40 H       -1.7760    -4.2490     3.8020 H     1 <1>   0.0800 
 41 H       -3.1970    -3.8970     2.8260 H     1 <1>   0.0800 
 42 H       -2.3520    -2.5910     3.6760 H     1 <1>   0.0800 
 43 H        4.0560     0.2940    -0.0390 H     1 <1>   0.0800 
 44 H        4.8620    -0.1640    -1.5180 H     1 <1>   0.0800 
 45 H        7.0020    -1.6810    -1.3600 H     1 <1>   0.0800 
 46 H        7.5550    -2.1760     0.2250 H     1 <1>   0.0800 
 47 H        5.9640     1.6580     0.6210 H     1 <1>   0.0800 
 48 H        5.4300     2.1240    -0.9660 H     1 <1>   0.0800 
 49 H        8.9140    -0.3310    -0.7160 H     1 <1>   0.0800 
 50 H        8.1470     0.1210     0.7770 H     1 <1>   0.0800 
 51 H       -5.7510     1.1810    -0.5520 H     1 <1>   0.0800 
 52 H       -5.0790     0.0900    -1.7590 H     1 <1>   0.0800 
 53 H       -4.0940     1.4090    -1.1000 H     1 <1>   0.0800 
 54 H        7.9050     1.9380    -0.8260 H     1 <1>   0.0800 
 55 H        7.2320     0.8630    -2.0120 H     1 <1>   0.0800 
@<TRIPOS>BOND
  1   1   2  2   
  2   2   3  am  
  3   2   4  am  
  4   3   5  1   
  5   3   6  1   
  6   4   7  1   
  7   4  26  1   
  8   5   8  1   
  9   5  27  1   
 10   5  28  1   
 11   6   9  1   
 12   6  29  1   
 13   6  30  1   
 14   7  10  ar  
 15   7  11  ar  
 16   8  12  1   
 17   8  31  1   
 18   8  32  1   
 19   9  12  1   
 20   9  33  1   
 21   9  34  1   
 22  10  13  1   
 23  10  14  ar  
 24  11  15  ar  
 25  11  35  1   
 26  12  16  1   
 27  12  36  1   
 28  13  17  1   
 29  14  18  ar  
 30  14  37  1   
 31  15  18  ar  
 32  15  38  1   
 33  16  19  1   
 34  16  20  1   
 35  16  39  1   
 36  17  40  1   
 37  17  41  1   
 38  17  42  1   
 39  18  21  1   
 40  19  22  1   
 41  19  43  1   
 42  19  44  1   
 43  20  23  1   
 44  20  45  1   
 45  20  46  1   
 46  21  24  1   
 47  22  25  1   
 48  22  47  1   
 49  22  48  1   
 50  23  25  1   
 51  23  49  1   
 52  23  50  1   
 53  24  51  1   
 54  24  52  1   
 55  24  53  1   
 56  25  54  1   
 57  25  55  1   
@<TRIPOS>SUBSTRUCTURE
  1 ****   2 GROUP 4 **** **** 0

# MOE 2024.06 (io_trps.svl 2023.06)
