@<TRIPOS>MOLECULE
NONAME
31 31 1 0 0 
SMALL
USER_CHARGES


@<TRIPOS>ATOM
  1 I        1.2650     0.3060    -1.0450 I     1 <1>  -0.0810 
  2 C        0.6440    -1.6110    -0.3510 C.ar  1 <1>   0.0810 
  3 C        1.5260    -2.4310     0.3600 C.ar  1 <1>   0.0860 
  4 C       -0.6640    -1.9670    -0.6250 C.ar  1 <1>  -0.1500 
  5 C        2.8980    -2.0960     0.6220 C.2   1 <1>   0.3770 
  6 C        1.0040    -3.6400     0.8230 C.ar  1 <1>  -0.1500 
  7 C       -1.1380    -3.1820    -0.1650 C.ar  1 <1>  -0.1500 
  8 P        4.0900    -2.3110    -0.7350 P.3   1 <1>   1.3490 
  9 O        3.1880    -1.7340     1.7430 O.2   1 <1>  -0.5700 
 10 C       -0.3030    -4.0140     0.5630 C.ar  1 <1>  -0.1500 
 11 O        3.5320    -2.8730    -1.9690 O.2   1 <1>  -0.7000 
 12 O        4.8090    -0.8940    -0.9760 O.3   1 <1>  -0.5510 
 13 O        5.2810    -3.2320    -0.1670 O.3   1 <1>  -0.5510 
 14 C        5.5970    -0.3070    -0.0010 C.3   1 <1>   0.1200 
 15 C        5.1090    -4.5990    -0.0700 C.3   1 <1>   0.1200 
 16 C        6.0960     1.0230    -0.5520 C.3   1 <1>  -0.2400 
 17 C        6.3850    -5.1850     0.5210 C.3   1 <1>  -0.2400 
 18 H       -1.3070    -1.3090    -1.1830 H     1 <1>   0.1500 
 19 H        1.6340    -4.2970     1.4000 H     1 <1>   0.1500 
 20 H       -2.1540    -3.4790    -0.3680 H     1 <1>   0.1500 
 21 H       -0.6770    -4.9550     0.9290 H     1 <1>   0.1500 
 22 H        6.4230    -0.9620     0.2210 H     1 <1>   0.0800 
 23 H        5.0050    -0.1500     0.8860 H     1 <1>   0.0800 
 24 H        4.9270    -4.9940    -1.0580 H     1 <1>   0.0800 
 25 H        4.2660    -4.8030     0.5680 H     1 <1>   0.0800 
 26 H        6.6770     0.8600    -1.4420 H     1 <1>   0.0800 
 27 H        6.7150     1.5100     0.1790 H     1 <1>   0.0800 
 28 H        5.2630     1.6650    -0.7790 H     1 <1>   0.0800 
 29 H        7.2220    -4.9670    -0.1190 H     1 <1>   0.0800 
 30 H        6.2900    -6.2520     0.6070 H     1 <1>   0.0800 
 31 H        6.5640    -4.7750     1.4990 H     1 <1>   0.0800 
@<TRIPOS>BOND
  1   1   2  1   
  2   2   3  ar  
  3   2   4  ar  
  4   3   5  1   
  5   3   6  ar  
  6   4   7  ar  
  7   4  18  1   
  8   5   8  1   
  9   5   9  2   
 10   6  10  ar  
 11   6  19  1   
 12   7  10  ar  
 13   7  20  1   
 14   8  11  2   
 15   8  12  1   
 16   8  13  1   
 17  10  21  1   
 18  12  14  1   
 19  13  15  1   
 20  14  16  1   
 21  14  22  1   
 22  14  23  1   
 23  15  17  1   
 24  15  24  1   
 25  15  25  1   
 26  16  26  1   
 27  16  27  1   
 28  16  28  1   
 29  17  29  1   
 30  17  30  1   
 31  17  31  1   
@<TRIPOS>SUBSTRUCTURE
  1 ****   5 GROUP 4 **** **** 0

# MOE 2024.06 (io_trps.svl 2023.06)
