@<TRIPOS>MOLECULE
NONAME
40 40 1 0 0 
SMALL
USER_CHARGES


@<TRIPOS>ATOM
  1 O        4.2160    -2.8890    -0.0610 O.3   1 <1>  -0.5600 
  2 C        5.5960    -2.9490     0.0840 C.3   1 <1>   0.2000 
  3 C        3.5320    -4.0870     0.1830 C.3   1 <1>   0.1200 
  4 C        6.0580    -1.5380     0.4280 C.3   1 <1>  -0.2400 
  5 C        6.2070    -3.4250    -1.2340 C.3   1 <1>  -0.2400 
  6 C        2.0290    -3.8580    -0.0290 C.3   1 <1>   0.2000 
  7 O        1.7020    -2.6690     0.6100 O.3   1 <1>  -0.6800 
  8 C        1.1770    -5.0240     0.5180 C.3   1 <1>   0.1100 
  9 N       -0.2190    -5.0690     0.0070 N.3   1 <1>  -0.8100 
 10 C       -0.9090    -6.2940     0.4730 C.3   1 <1>   0.1100 
 11 C       -0.9960    -3.8580     0.3930 C.3   1 <1>   0.1100 
 12 C       -2.3370    -6.4230    -0.1130 C.3   1 <1>   0.3430 
 13 C       -2.5080    -3.9780     0.0930 C.3   1 <1>   0.3430 
 14 N       -2.7720    -5.1570    -0.7930 N.4   1 <1>  -0.9590 
 15 C       -4.1640    -5.2100    -1.3220 C.3   1 <1>   0.2630 
 16 H        5.8450    -3.6180     0.8920 H     1 <1>   0.0800 
 17 H        3.7220    -4.3900     1.1980 H     1 <1>   0.0800 
 18 H        3.8890    -4.8460    -0.4920 H     1 <1>   0.0800 
 19 H        5.7930    -0.8540    -0.3580 H     1 <1>   0.0800 
 20 H        7.1260    -1.5200     0.5540 H     1 <1>   0.0800 
 21 H        5.6030    -1.2170     1.3480 H     1 <1>   0.0800 
 22 H        5.9020    -2.7810    -2.0390 H     1 <1>   0.0800 
 23 H        5.9110    -4.4340    -1.4510 H     1 <1>   0.0800 
 24 H        7.2800    -3.4010    -1.1670 H     1 <1>   0.0800 
 25 H        1.8450    -3.7360    -1.0820 H     1 <1>   0.0800 
 26 H        2.4810    -2.0770     0.4880 H     1 <1>   0.4000 
 27 H        1.1810    -4.9870     1.5940 H     1 <1>   0.0800 
 28 H        1.6610    -5.9400     0.2240 H     1 <1>   0.0800 
 29 H       -0.9680    -6.2870     1.5480 H     1 <1>   0.0800 
 30 H       -0.3390    -7.1630     0.1870 H     1 <1>   0.0800 
 31 H       -0.6220    -3.0130    -0.1580 H     1 <1>   0.0800 
 32 H       -0.8570    -3.6430     1.4390 H     1 <1>   0.0800 
 33 H       -3.0210    -6.6740     0.6800 H     1 <1>   0.0800 
 34 H       -2.3480    -7.2340    -0.8230 H     1 <1>   0.0800 
 35 H       -2.8450    -3.0700    -0.3780 H     1 <1>   0.0800 
 36 H       -3.0450    -4.0900     1.0200 H     1 <1>   0.0800 
 37 H       -2.0860    -5.0400    -1.5580 H     1 <1>   0.4500 
 38 H       -4.8680    -5.3270    -0.5150 H     1 <1>   0.0800 
 39 H       -4.2730    -6.0400    -2.0010 H     1 <1>   0.0800 
 40 H       -4.3950    -4.3010    -1.8540 H     1 <1>   0.0800 
@<TRIPOS>BOND
  1   1   2  1   
  2   1   3  1   
  3   2   4  1   
  4   2   5  1   
  5   2  16  1   
  6   3   6  1   
  7   3  17  1   
  8   3  18  1   
  9   4  19  1   
 10   4  20  1   
 11   4  21  1   
 12   5  22  1   
 13   5  23  1   
 14   5  24  1   
 15   6   7  1   
 16   6   8  1   
 17   6  25  1   
 18   7  26  1   
 19   8   9  1   
 20   8  27  1   
 21   8  28  1   
 22   9  10  1   
 23   9  11  1   
 24  10  12  1   
 25  10  29  1   
 26  10  30  1   
 27  11  13  1   
 28  11  31  1   
 29  11  32  1   
 30  12  14  1   
 31  12  33  1   
 32  12  34  1   
 33  13  14  1   
 34  13  35  1   
 35  13  36  1   
 36  14  15  1   
 37  14  37  1   
 38  15  38  1   
 39  15  39  1   
 40  15  40  1   
@<TRIPOS>SUBSTRUCTURE
  1 ****   6 GROUP 4 **** **** 0

# MOE 2024.06 (io_trps.svl 2023.06)
