@<TRIPOS>MOLECULE
NONAME
42 44 1 0 0 
SMALL
USER_CHARGES


@<TRIPOS>ATOM
  1 S        0.3520    -0.1310    -1.2670 S.o2  1 <1>   1.5010 
  2 O        0.9690    -0.4520    -2.5370 O.2   1 <1>  -0.6500 
  3 O        0.2050     1.2540    -0.8750 O.2   1 <1>  -0.6500 
  4 N        1.2840    -0.8880    -0.0730 N.am  1 <1>  -0.8490 
  5 C       -1.2300    -0.9710    -1.1300 C.2   1 <1>  -0.0630 
  6 C        2.5320    -0.1420     0.1770 C.3   1 <1>   0.1960 
  7 C        1.6030    -2.2890    -0.4150 C.3   1 <1>   0.1960 
  8 C       -1.8200    -1.6910    -2.1600 C.2   1 <1>   0.1390 
  9 C       -2.1070    -1.1000    -0.1030 C.2   1 <1>  -0.3020 
 10 C        3.3960    -0.7730     1.2880 C.3   1 <1>   0.2090 
 11 C        2.4120    -2.9970     0.6900 C.3   1 <1>   0.2090 
 12 N       -2.9500    -2.2270    -1.8140 N.2   1 <1>  -0.7070 
 13 N       -3.1320    -1.8560    -0.5360 N.pl3 1 <1>   0.3140 
 14 N        3.6350    -2.2320     1.0720 N.pl3 1 <1>  -0.8380 
 15 C       -4.3260    -2.2560     0.2360 C.3   1 <1>   0.0960 
 16 C        4.8500    -2.6290     0.5240 C.ar  1 <1>   0.1000 
 17 C       -4.0080    -3.4190     1.1840 C.3   1 <1>  -0.2400 
 18 C        5.7610    -3.3150     1.3160 C.ar  1 <1>  -0.1500 
 19 C        5.1840    -2.3630    -0.7990 C.ar  1 <1>  -0.1500 
 20 C        6.9770    -3.7280     0.8030 C.ar  1 <1>  -0.1500 
 21 C        6.3990    -2.7730    -1.3170 C.ar  1 <1>  -0.1500 
 22 C        7.2990    -3.4570    -0.5170 C.ar  1 <1>  -0.1500 
 23 H        2.2940     0.8670     0.4720 H     1 <1>   0.0800 
 24 H        3.1110    -0.0860    -0.7290 H     1 <1>   0.0800 
 25 H        2.1700    -2.3270    -1.3300 H     1 <1>   0.0800 
 26 H        0.6920    -2.8400    -0.5710 H     1 <1>   0.0800 
 27 H       -1.3890    -1.7990    -3.1430 H     1 <1>   0.1500 
 28 H       -2.0460    -0.6980     0.8920 H     1 <1>   0.1500 
 29 H        2.9010    -0.6400     2.2330 H     1 <1>   0.0800 
 30 H        4.3410    -0.2600     1.3380 H     1 <1>   0.0800 
 31 H        2.6960    -3.9780     0.3500 H     1 <1>   0.0800 
 32 H        1.7910    -3.1170     1.5600 H     1 <1>   0.0800 
 33 H       -5.0930    -2.5490    -0.4600 H     1 <1>   0.0800 
 34 H       -4.6750    -1.4050     0.7910 H     1 <1>   0.0800 
 35 H       -3.6640    -4.2700     0.6210 H     1 <1>   0.0800 
 36 H       -4.8950    -3.7030     1.7220 H     1 <1>   0.0800 
 37 H       -3.2530    -3.1320     1.8940 H     1 <1>   0.0800 
 38 H        5.5020    -3.5200     2.3380 H     1 <1>   0.1500 
 39 H        4.4900    -1.8360    -1.4240 H     1 <1>   0.1500 
 40 H        7.6730    -4.2590     1.4290 H     1 <1>   0.1500 
 41 H        6.6470    -2.5620    -2.3430 H     1 <1>   0.1500 
 42 H        8.2450    -3.7770    -0.9180 H     1 <1>   0.1500 
@<TRIPOS>BOND
  1   1   2  2   
  2   1   3  2   
  3   1   4  am  
  4   1   5  1   
  5   4   6  1   
  6   4   7  1   
  7   5   8  1   
  8   5   9  2   
  9   6  10  1   
 10   6  23  1   
 11   6  24  1   
 12   7  11  1   
 13   7  25  1   
 14   7  26  1   
 15   8  12  2   
 16   8  27  1   
 17   9  13  1   
 18   9  28  1   
 19  10  14  1   
 20  10  29  1   
 21  10  30  1   
 22  11  14  1   
 23  11  31  1   
 24  11  32  1   
 25  12  13  1   
 26  13  15  1   
 27  14  16  1   
 28  15  17  1   
 29  15  33  1   
 30  15  34  1   
 31  16  18  ar  
 32  16  19  ar  
 33  17  35  1   
 34  17  36  1   
 35  17  37  1   
 36  18  20  ar  
 37  18  38  1   
 38  19  21  ar  
 39  19  39  1   
 40  20  22  ar  
 41  20  40  1   
 42  21  22  ar  
 43  21  41  1   
 44  22  42  1   
@<TRIPOS>SUBSTRUCTURE
  1 ****   7 GROUP 4 **** **** 0

# MOE 2024.06 (io_trps.svl 2023.06)
