@<TRIPOS>MOLECULE
NONAME
45 47 1 0 0 
SMALL
USER_CHARGES


@<TRIPOS>ATOM
  1 CL       1.6810     1.6920    -3.1430 Cl    1 <1>  -0.1770 
  2 C        2.4180     1.5560    -1.5670 C.ar  1 <1>   0.1770 
  3 C        3.6480     0.9420    -1.4450 C.ar  1 <1>  -0.1500 
  4 C        1.7560     2.0690    -0.4680 C.ar  1 <1>  -0.1500 
  5 C        4.2580     0.8280    -0.1980 C.ar  1 <1>   0.0860 
  6 C        2.3420     1.9570     0.7810 C.ar  1 <1>  -0.1500 
  7 C        5.5520     0.1890    -0.0620 C.2   1 <1>   0.5440 
  8 C        3.5760     1.3410     0.9090 C.ar  1 <1>  -0.1500 
  9 O        5.6830    -0.9540    -0.4570 O.2   1 <1>  -0.5700 
 10 N        6.6370     0.8380     0.4970 N.am  1 <1>  -0.6600 
 11 C        7.9050     0.1140     0.7960 C.3   1 <1>   0.1400 
 12 C        6.7070     2.3130     0.6910 C.3   1 <1>   0.1400 
 13 C        9.0380     0.6770    -0.0650 C.3   1 <1>  -0.1600 
 14 C        7.8380     2.8920    -0.1630 C.3   1 <1>  -0.1600 
 15 C        9.1860     2.1980     0.1190 C.3   1 <1>  -0.0190 
 16 C       10.3230     2.7440    -0.7440 C.2   1 <1>   0.5690 
 17 O       10.1030     3.1600    -1.8550 O.2   1 <1>  -0.5700 
 18 N       11.5790     2.7400    -0.2330 N.am  1 <1>  -0.7300 
 19 C       12.7760     3.1660    -0.9770 C.3   1 <1>   0.2840 
 20 C       13.9460     2.3260    -0.5070 C.ar  1 <1>  -0.1430 
 21 C       14.1230     1.0430    -1.0030 C.ar  1 <1>   0.1600 
 22 C       14.8480     2.8130     0.4190 C.ar  1 <1>  -0.1500 
 23 N       15.1050     0.2260    -0.6580 N.ar  1 <1>  -0.6200 
 24 C       15.8780     1.9750     0.7880 C.ar  1 <1>  -0.1500 
 25 C       15.9600     0.7110     0.2280 C.ar  1 <1>   0.1600 
 26 H        4.1390     0.5440    -2.3150 H     1 <1>   0.1500 
 27 H        0.7980     2.5430    -0.5910 H     1 <1>   0.1500 
 28 H        1.8370     2.3440     1.6500 H     1 <1>   0.1500 
 29 H        4.0260     1.2470     1.8820 H     1 <1>   0.1500 
 30 H        7.7990    -0.9410     0.6060 H     1 <1>   0.0800 
 31 H        8.1390     0.2360     1.8390 H     1 <1>   0.0800 
 32 H        6.8890     2.5210     1.7320 H     1 <1>   0.0800 
 33 H        5.7830     2.7860     0.4120 H     1 <1>   0.0800 
 34 H        8.8310     0.4550    -1.0980 H     1 <1>   0.0800 
 35 H        9.9580     0.1850     0.1960 H     1 <1>   0.0800 
 36 H        7.9270     3.9460     0.0290 H     1 <1>   0.0800 
 37 H        7.5790     2.7730    -1.2020 H     1 <1>   0.0800 
 38 H        9.4400     2.3880     1.1470 H     1 <1>   0.0800 
 39 H       11.7670     2.3500     0.6910 H     1 <1>   0.3700 
 40 H       12.9610     4.2100    -0.7890 H     1 <1>   0.0800 
 41 H       12.6220     3.0330    -2.0350 H     1 <1>   0.0800 
 42 H       13.4150     0.6660    -1.7230 H     1 <1>   0.1500 
 43 H       14.7570     3.8010     0.8380 H     1 <1>   0.1500 
 44 H       16.6150     2.2950     1.5030 H     1 <1>   0.1500 
 45 H       16.7700     0.0670     0.5230 H     1 <1>   0.1500 
@<TRIPOS>BOND
  1   1   2  1   
  2   2   3  ar  
  3   2   4  ar  
  4   3   5  ar  
  5   3  26  1   
  6   4   6  ar  
  7   4  27  1   
  8   5   7  1   
  9   5   8  ar  
 10   6   8  ar  
 11   6  28  1   
 12   7   9  2   
 13   7  10  am  
 14   8  29  1   
 15  10  11  1   
 16  10  12  1   
 17  11  13  1   
 18  11  30  1   
 19  11  31  1   
 20  12  14  1   
 21  12  32  1   
 22  12  33  1   
 23  13  15  1   
 24  13  34  1   
 25  13  35  1   
 26  14  15  1   
 27  14  36  1   
 28  14  37  1   
 29  15  16  1   
 30  15  38  1   
 31  16  17  2   
 32  16  18  am  
 33  18  19  1   
 34  18  39  1   
 35  19  20  1   
 36  19  40  1   
 37  19  41  1   
 38  20  21  ar  
 39  20  22  ar  
 40  21  23  ar  
 41  21  42  1   
 42  22  24  ar  
 43  22  43  1   
 44  23  25  ar  
 45  24  25  ar  
 46  24  44  1   
 47  25  45  1   
@<TRIPOS>SUBSTRUCTURE
  1 ****  15 GROUP 4 **** **** 0

# MOE 2024.06 (io_trps.svl 2023.06)
