@<TRIPOS>MOLECULE
NONAME
32 33 1 0 0 
SMALL
USER_CHARGES


@<TRIPOS>ATOM
  1 CL      -1.8350     0.9530     1.8170 Cl    1 <1>  -0.1770 
  2 C       -0.9000     2.1680     0.9800 C.ar  1 <1>   0.1770 
  3 C       -1.2700     2.5600    -0.3000 C.ar  1 <1>  -0.1440 
  4 C        0.1900     2.7220     1.6240 C.ar  1 <1>  -0.1500 
  5 C       -0.5200     3.5350    -0.9480 C.ar  1 <1>  -0.1500 
  6 C       -2.4710     1.9280    -0.9810 C.3   1 <1>   0.4870 
  7 C        0.9180     3.6910     0.9620 C.ar  1 <1>   0.1770 
  8 C        0.5760     4.1010    -0.3140 C.ar  1 <1>  -0.1500 
  9 N       -3.7170     2.3330    -0.2730 N.4   1 <1>  -0.9590 
 10 CL       2.2950     4.4110     1.7510 Cl    1 <1>  -0.1770 
 11 C       -4.8990     1.5620    -0.7890 C.3   1 <1>   0.3430 
 12 C       -3.9450     3.8080    -0.3220 C.3   1 <1>   0.3430 
 13 C       -6.1950     1.9150    -0.0360 C.3   1 <1>   0.2000 
 14 C       -5.1860     4.1680     0.5000 C.3   1 <1>  -0.1600 
 15 O       -7.2450     1.3320    -0.7120 O.3   1 <1>  -0.6800 
 16 C       -6.4390     3.4270     0.0060 C.3   1 <1>  -0.1600 
 17 H        0.4680     2.4110     2.6140 H     1 <1>   0.1500 
 18 H       -0.7690     3.8610    -1.9450 H     1 <1>   0.1500 
 19 H       -2.3650     0.8550    -0.9530 H     1 <1>   0.0800 
 20 H       -2.5140     2.2370    -2.0130 H     1 <1>   0.0800 
 21 H        1.1690     4.8570    -0.8020 H     1 <1>   0.1500 
 22 H       -3.5780     2.0730     0.7150 H     1 <1>   0.4500 
 23 H       -4.7210     0.5030    -0.6900 H     1 <1>   0.0800 
 24 H       -5.0460     1.7890    -1.8320 H     1 <1>   0.0800 
 25 H       -4.0880     4.1230    -1.3430 H     1 <1>   0.0800 
 26 H       -3.0890     4.3310     0.0770 H     1 <1>   0.0800 
 27 H       -6.1700     1.5000     0.9580 H     1 <1>   0.0800 
 28 H       -5.3540     5.2290     0.4300 H     1 <1>   0.0800 
 29 H       -5.0060     3.9410     1.5370 H     1 <1>   0.0800 
 30 H       -8.0980     1.5090    -0.2630 H     1 <1>   0.4000 
 31 H       -7.2670     3.6460     0.6600 H     1 <1>   0.0800 
 32 H       -6.6850     3.7790    -0.9830 H     1 <1>   0.0800 
@<TRIPOS>BOND
  1   1   2  1   
  2   2   3  ar  
  3   2   4  ar  
  4   3   5  ar  
  5   3   6  1   
  6   4   7  ar  
  7   4  17  1   
  8   5   8  ar  
  9   5  18  1   
 10   6   9  1   
 11   6  19  1   
 12   6  20  1   
 13   7   8  ar  
 14   7  10  1   
 15   8  21  1   
 16   9  11  1   
 17   9  12  1   
 18   9  22  1   
 19  11  13  1   
 20  11  23  1   
 21  11  24  1   
 22  12  14  1   
 23  12  25  1   
 24  12  26  1   
 25  13  15  1   
 26  13  16  1   
 27  13  27  1   
 28  14  16  1   
 29  14  28  1   
 30  14  29  1   
 31  15  30  1   
 32  16  31  1   
 33  16  32  1   
@<TRIPOS>SUBSTRUCTURE
  1 ****   9 GROUP 4 **** **** 0

# MOE 2024.06 (io_trps.svl 2023.06)
