@<TRIPOS>MOLECULE
NONAME
29 29 1 0 0 
SMALL
USER_CHARGES


@<TRIPOS>ATOM
  1 CL      -1.7970    -2.1800     1.3830 Cl    1 <1>  -0.1770 
  2 C       -0.5710    -2.8590     0.3380 C.ar  1 <1>   0.1770 
  3 C       -0.7010    -2.7940    -1.0410 C.ar  1 <1>   0.1770 
  4 C        0.5300    -3.4630     0.9120 C.ar  1 <1>  -0.1500 
  5 CL      -2.0940    -2.0330    -1.7770 Cl    1 <1>  -0.1770 
  6 C        0.2770    -3.3360    -1.8560 C.ar  1 <1>  -0.1500 
  7 C        1.5180    -4.0160     0.1060 C.ar  1 <1>   0.1990 
  8 C        1.3800    -3.9420    -1.2790 C.ar  1 <1>  -0.1500 
  9 N        2.6190    -4.6210     0.6970 N.am  1 <1>  -0.6930 
 10 S        2.9110    -6.3180     0.5140 S.o2  1 <1>   1.3330 
 11 C        3.8630    -3.7950     0.8090 C.3   1 <1>   0.2570 
 12 O        3.9950    -6.6380     1.4090 O.2   1 <1>  -0.6500 
 13 O        2.9990    -6.5870    -0.8990 O.2   1 <1>  -0.6500 
 14 C        1.4210    -7.0350     1.1740 C.3   1 <1>  -0.1350 
 15 C        4.7250    -3.7860    -0.4550 C.2   1 <1>   0.6590 
 16 O        4.5500    -2.9770    -1.3330 O.2   1 <1>  -0.5700 
 17 O        5.6700    -4.7150    -0.5320 O.3   1 <1>  -0.4300 
 18 C        6.4680    -4.8770    -1.6850 C.3   1 <1>   0.0400 
 19 H        0.6230    -3.5050     1.9810 H     1 <1>   0.1500 
 20 H        0.1750    -3.2800    -2.9260 H     1 <1>   0.1500 
 21 H        2.1470    -4.3600    -1.9110 H     1 <1>   0.1500 
 22 H        4.4600    -4.1550     1.6280 H     1 <1>   0.0800 
 23 H        3.5890    -2.7790     1.0280 H     1 <1>   0.0800 
 24 H        1.2790    -6.7240     2.1900 H     1 <1>   0.0800 
 25 H        1.4880    -8.1050     1.1480 H     1 <1>   0.0800 
 26 H        0.5720    -6.7310     0.5930 H     1 <1>   0.0800 
 27 H        7.1570    -5.6840    -1.5100 H     1 <1>   0.0800 
 28 H        7.0040    -3.9630    -1.8720 H     1 <1>   0.0800 
 29 H        5.8270    -5.1120    -2.5170 H     1 <1>   0.0800 
@<TRIPOS>BOND
  1   1   2  1   
  2   2   3  ar  
  3   2   4  ar  
  4   3   5  1   
  5   3   6  ar  
  6   4   7  ar  
  7   4  19  1   
  8   6   8  ar  
  9   6  20  1   
 10   7   8  ar  
 11   7   9  1   
 12   8  21  1   
 13   9  10  am  
 14   9  11  1   
 15  10  12  2   
 16  10  13  2   
 17  10  14  1   
 18  11  15  1   
 19  11  22  1   
 20  11  23  1   
 21  14  24  1   
 22  14  25  1   
 23  14  26  1   
 24  15  16  2   
 25  15  17  1   
 26  17  18  1   
 27  18  27  1   
 28  18  28  1   
 29  18  29  1   
@<TRIPOS>SUBSTRUCTURE
  1 ****   7 GROUP 4 **** **** 0

# MOE 2024.06 (io_trps.svl 2023.06)
