@<TRIPOS>MOLECULE
NONAME
50 52 1 0 0 
SMALL
USER_CHARGES


@<TRIPOS>ATOM
  1 O       -0.1870    -1.5150     1.3160 O.3   1 <1>  -0.3630 
  2 C       -1.2120    -1.5750     0.4050 C.ar  1 <1>   0.0830 
  3 C       -0.2100    -0.5700     2.3670 C.3   1 <1>   0.0400 
  4 C       -1.1280    -2.5090    -0.6450 C.ar  1 <1>   0.1000 
  5 C       -2.3260    -0.7420     0.4920 C.ar  1 <1>  -0.1500 
  6 N       -0.0570    -3.3950    -0.8290 N.pl3 1 <1>  -0.8380 
  7 C       -2.1610    -2.5720    -1.5680 C.ar  1 <1>  -0.1500 
  8 C       -3.3440    -0.8260    -0.4420 C.ar  1 <1>  -0.1500 
  9 C        1.2270    -2.8070    -1.3150 C.3   1 <1>   0.2090 
 10 C        0.0420    -4.5370     0.1270 C.3   1 <1>   0.2090 
 11 C       -3.2620    -1.7410    -1.4730 C.ar  1 <1>  -0.1500 
 12 C        2.2580    -2.6240    -0.1830 C.3   1 <1>   0.3430 
 13 C        1.1070    -4.3040     1.2200 C.3   1 <1>   0.3430 
 14 N        2.4320    -3.8660     0.6570 N.4   1 <1>  -0.9590 
 15 C        3.4450    -3.6620     1.7240 C.3   1 <1>   0.4860 
 16 C        4.7810    -3.3780     1.0680 C.ar  1 <1>  -0.1430 
 17 C        5.2950    -2.0900     1.0610 C.ar  1 <1>  -0.1500 
 18 C        5.4960    -4.4000     0.4610 C.ar  1 <1>  -0.1500 
 19 C        6.5020    -1.8260     0.4400 C.ar  1 <1>  -0.1500 
 20 C        6.7030    -4.1310    -0.1590 C.ar  1 <1>  -0.1500 
 21 C        7.2110    -2.8430    -0.1760 C.ar  1 <1>  -0.1430 
 22 C        8.5400    -2.5510    -0.8560 C.3   1 <1>  -0.0170 
 23 C        9.6950    -2.7070     0.1340 C.3   1 <1>  -0.2400 
 24 H        0.6860    -0.6850     2.9480 H     1 <1>   0.0800 
 25 H       -1.0710    -0.7540     2.9860 H     1 <1>   0.0800 
 26 H       -0.2460     0.4200     1.9470 H     1 <1>   0.0800 
 27 H       -2.4330    -0.0170     1.2750 H     1 <1>   0.1500 
 28 H       -2.0960    -3.2850    -2.3700 H     1 <1>   0.1500 
 29 H       -4.2010    -0.1780    -0.3670 H     1 <1>   0.1500 
 30 H        1.0310    -1.8500    -1.7690 H     1 <1>   0.0800 
 31 H        1.6380    -3.4470    -2.0760 H     1 <1>   0.0800 
 32 H        0.2770    -5.4310    -0.4230 H     1 <1>   0.0800 
 33 H       -0.9150    -4.6910     0.5970 H     1 <1>   0.0800 
 34 H       -4.0520    -1.8080    -2.2020 H     1 <1>   0.1500 
 35 H        1.9300    -1.8100     0.4400 H     1 <1>   0.0800 
 36 H        3.2020    -2.3400    -0.6200 H     1 <1>   0.0800 
 37 H        1.2280    -5.2130     1.7850 H     1 <1>   0.0800 
 38 H        0.7340    -3.5490     1.8900 H     1 <1>   0.0800 
 39 H        2.7860    -4.5970     0.0300 H     1 <1>   0.4500 
 40 H        3.5280    -4.5470     2.3330 H     1 <1>   0.0800 
 41 H        3.1610    -2.8360     2.3550 H     1 <1>   0.0800 
 42 H        4.7690    -1.2790     1.5350 H     1 <1>   0.1500 
 43 H        5.1330    -5.4140     0.4640 H     1 <1>   0.1500 
 44 H        6.8970    -0.8230     0.4400 H     1 <1>   0.1500 
 45 H        7.2550    -4.9300    -0.6260 H     1 <1>   0.1500 
 46 H        8.5350    -1.5490    -1.2490 H     1 <1>   0.0800 
 47 H        8.6820    -3.2240    -1.6840 H     1 <1>   0.0800 
 48 H        9.5750    -2.0250     0.9570 H     1 <1>   0.0800 
 49 H       10.6310    -2.4990    -0.3530 H     1 <1>   0.0800 
 50 H        9.7220    -3.7110     0.5200 H     1 <1>   0.0800 
@<TRIPOS>BOND
  1   1   2  1   
  2   1   3  1   
  3   2   4  ar  
  4   2   5  ar  
  5   3  24  1   
  6   3  25  1   
  7   3  26  1   
  8   4   6  1   
  9   4   7  ar  
 10   5   8  ar  
 11   5  27  1   
 12   6   9  1   
 13   6  10  1   
 14   7  11  ar  
 15   7  28  1   
 16   8  11  ar  
 17   8  29  1   
 18   9  12  1   
 19   9  30  1   
 20   9  31  1   
 21  10  13  1   
 22  10  32  1   
 23  10  33  1   
 24  11  34  1   
 25  12  14  1   
 26  12  35  1   
 27  12  36  1   
 28  13  14  1   
 29  13  37  1   
 30  13  38  1   
 31  14  15  1   
 32  14  39  1   
 33  15  16  1   
 34  15  40  1   
 35  15  41  1   
 36  16  17  ar  
 37  16  18  ar  
 38  17  19  ar  
 39  17  42  1   
 40  18  20  ar  
 41  18  43  1   
 42  19  21  ar  
 43  19  44  1   
 44  20  21  ar  
 45  20  45  1   
 46  21  22  1   
 47  22  23  1   
 48  22  46  1   
 49  22  47  1   
 50  23  48  1   
 51  23  49  1   
 52  23  50  1   
@<TRIPOS>SUBSTRUCTURE
  1 ****  12 GROUP 4 **** **** 0

# MOE 2024.06 (io_trps.svl 2023.06)
