@<TRIPOS>MOLECULE
NONAME
36 36 1 0 0 
SMALL
USER_CHARGES


@<TRIPOS>ATOM
  1 BR      -1.0590    -1.5220     1.1790 Br    1 <1>  -0.1110 
  2 C       -2.3680    -0.1670     0.7560 C.ar  1 <1>   0.1110 
  3 C       -2.2910     0.5220    -0.4470 C.ar  1 <1>  -0.1440 
  4 C       -3.3590     0.0780     1.6890 C.ar  1 <1>  -0.1500 
  5 C       -3.2580     1.4810    -0.7040 C.ar  1 <1>  -0.1500 
  6 C       -1.1850     0.2510    -1.4550 C.3   1 <1>  -0.0960 
  7 C       -4.3120     1.0400     1.4090 C.ar  1 <1>  -0.1500 
  8 C       -4.2760     1.7440     0.2080 C.ar  1 <1>   0.1990 
  9 N       -5.2410     2.6960    -0.0920 N.am  1 <1>  -0.6930 
 10 S       -4.9660     4.3800     0.1960 S.o2  1 <1>   1.3330 
 11 C       -6.6250     2.2660    -0.4660 C.3   1 <1>   0.2570 
 12 O       -5.9310     5.1140    -0.5870 O.2   1 <1>  -0.6500 
 13 O       -3.5550     4.6190     0.0190 O.2   1 <1>  -0.6500 
 14 C       -5.3590     4.5580     1.9230 C.3   1 <1>  -0.1350 
 15 C       -7.4230     1.6670     0.6990 C.2   1 <1>   0.5690 
 16 O       -7.9040     2.4440     1.4930 O.2   1 <1>  -0.5700 
 17 N       -7.5840     0.3040     0.8460 N.am  1 <1>  -0.6600 
 18 C       -8.4610    -0.2600     1.9110 C.3   1 <1>   0.0600 
 19 C       -6.9040    -0.7340     0.0170 C.3   1 <1>   0.0600 
 20 H       -3.3790    -0.4730     2.6120 H     1 <1>   0.1500 
 21 H       -3.2340     2.0490    -1.6160 H     1 <1>   0.1500 
 22 H       -0.2260     0.4400    -1.0070 H     1 <1>   0.0800 
 23 H       -1.2870     0.8860    -2.3170 H     1 <1>   0.0800 
 24 H       -1.2230    -0.7740    -1.7790 H     1 <1>   0.0800 
 25 H       -5.0880     1.2460     2.1230 H     1 <1>   0.1500 
 26 H       -6.5650     1.5600    -1.2710 H     1 <1>   0.0800 
 27 H       -7.1830     3.1050    -0.8410 H     1 <1>   0.0800 
 28 H       -6.3920     4.3340     2.0980 H     1 <1>   0.0800 
 29 H       -5.1730     5.5660     2.2370 H     1 <1>   0.0800 
 30 H       -4.7540     3.8970     2.5110 H     1 <1>   0.0800 
 31 H       -9.0200     0.5170     2.4040 H     1 <1>   0.0800 
 32 H       -7.8610    -0.7690     2.6450 H     1 <1>   0.0800 
 33 H       -9.1590    -0.9560     1.4790 H     1 <1>   0.0800 
 34 H       -7.5810    -1.0970    -0.7360 H     1 <1>   0.0800 
 35 H       -6.6020    -1.5580     0.6410 H     1 <1>   0.0800 
 36 H       -6.0220    -0.3430    -0.4580 H     1 <1>   0.0800 
@<TRIPOS>BOND
  1   1   2  1   
  2   2   3  ar  
  3   2   4  ar  
  4   3   5  ar  
  5   3   6  1   
  6   4   7  ar  
  7   4  20  1   
  8   5   8  ar  
  9   5  21  1   
 10   6  22  1   
 11   6  23  1   
 12   6  24  1   
 13   7   8  ar  
 14   7  25  1   
 15   8   9  1   
 16   9  10  am  
 17   9  11  1   
 18  10  12  2   
 19  10  13  2   
 20  10  14  1   
 21  11  15  1   
 22  11  26  1   
 23  11  27  1   
 24  14  28  1   
 25  14  29  1   
 26  14  30  1   
 27  15  16  2   
 28  15  17  am  
 29  17  18  1   
 30  17  19  1   
 31  18  31  1   
 32  18  32  1   
 33  18  33  1   
 34  19  34  1   
 35  19  35  1   
 36  19  36  1   
@<TRIPOS>SUBSTRUCTURE
  1 ****   8 GROUP 4 **** **** 0

# MOE 2024.06 (io_trps.svl 2023.06)
