@<TRIPOS>MOLECULE
NONAME
43 44 1 0 0 
SMALL
USER_CHARGES


@<TRIPOS>ATOM
  1 O       -0.0830    -1.4820     2.0610 O.2   1 <1>  -0.5700 
  2 C       -0.1310    -1.9460     0.9480 C.2   1 <1>   0.5690 
  3 N        0.9050    -1.8800     0.0510 N.am  1 <1>  -0.5470 
  4 C       -1.4270    -2.6370     0.5010 C.3   1 <1>   0.1710 
  5 C        2.1480    -1.2300     0.1220 C.ar  1 <1>   0.1170 
  6 N       -2.5460    -1.7040     0.1730 N.3   1 <1>  -0.8100 
  7 C        3.1500    -1.6180    -0.7600 C.ar  1 <1>  -0.1500 
  8 C        2.4230    -0.2010     1.0160 C.ar  1 <1>  -0.1500 
  9 C       -2.2120    -0.6940    -0.8620 C.3   1 <1>   0.1100 
 10 C       -3.8140    -2.4000    -0.1380 C.3   1 <1>   0.1100 
 11 C        4.3870    -0.9990    -0.7510 C.ar  1 <1>  -0.1500 
 12 C        3.6600     0.4190     1.0280 C.ar  1 <1>  -0.1500 
 13 C       -3.3830     0.2870    -1.1190 C.3   1 <1>   0.3430 
 14 C       -4.9890    -1.4050    -0.3200 C.3   1 <1>   0.3430 
 15 C        4.6510     0.0230     0.1450 C.ar  1 <1>  -0.1440 
 16 N       -4.5260     0.0200    -0.1850 N.4   1 <1>  -0.9590 
 17 C        6.0080     0.7050     0.1590 C.3   1 <1>  -0.0970 
 18 C       -5.5980     1.0400    -0.2700 C.3   1 <1>   0.3430 
 19 C       -6.5080     0.9330     0.9480 C.3   1 <1>  -0.2400 
 20 H        0.7820    -2.4260    -0.7980 H     1 <1>   0.3700 
 21 H       -1.7370    -3.2750     1.3100 H     1 <1>   0.0800 
 22 H       -1.2200    -3.2640    -0.3470 H     1 <1>   0.0800 
 23 H        2.9700    -2.4110    -1.4610 H     1 <1>   0.1500 
 24 H        1.6750     0.1300     1.7120 H     1 <1>   0.1500 
 25 H       -1.9460    -1.1810    -1.7840 H     1 <1>   0.0800 
 26 H       -1.3590    -0.1190    -0.5410 H     1 <1>   0.0800 
 27 H       -4.0570    -3.0760     0.6650 H     1 <1>   0.0800 
 28 H       -3.7010    -2.9870    -1.0340 H     1 <1>   0.0800 
 29 H        5.1480    -1.3170    -1.4430 H     1 <1>   0.1500 
 30 H        3.8460     1.2120     1.7310 H     1 <1>   0.1500 
 31 H       -3.7120     0.1880    -2.1400 H     1 <1>   0.0800 
 32 H       -3.0270     1.2960    -0.9850 H     1 <1>   0.0800 
 33 H       -5.7370    -1.6190     0.4240 H     1 <1>   0.0800 
 34 H       -5.4370    -1.5580    -1.2880 H     1 <1>   0.0800 
 35 H       -4.0850     0.0490     0.7500 H     1 <1>   0.4500 
 36 H        6.7750     0.0240    -0.1630 H     1 <1>   0.0800 
 37 H        6.2480     1.0400     1.1520 H     1 <1>   0.0800 
 38 H        5.9950     1.5530    -0.5010 H     1 <1>   0.0800 
 39 H       -6.1700     0.9060    -1.1750 H     1 <1>   0.0800 
 40 H       -5.1580     2.0240    -0.2900 H     1 <1>   0.0800 
 41 H       -7.0500     0.0050     0.9550 H     1 <1>   0.0800 
 42 H       -7.2290     1.7310     0.9190 H     1 <1>   0.0800 
 43 H       -5.9420     1.0310     1.8570 H     1 <1>   0.0800 
@<TRIPOS>BOND
  1   1   2  2   
  2   2   3  am  
  3   2   4  1   
  4   3   5  1   
  5   3  20  1   
  6   4   6  1   
  7   4  21  1   
  8   4  22  1   
  9   5   7  ar  
 10   5   8  ar  
 11   6   9  1   
 12   6  10  1   
 13   7  11  ar  
 14   7  23  1   
 15   8  12  ar  
 16   8  24  1   
 17   9  13  1   
 18   9  25  1   
 19   9  26  1   
 20  10  14  1   
 21  10  27  1   
 22  10  28  1   
 23  11  15  ar  
 24  11  29  1   
 25  12  15  ar  
 26  12  30  1   
 27  13  16  1   
 28  13  31  1   
 29  13  32  1   
 30  14  16  1   
 31  14  33  1   
 32  14  34  1   
 33  15  17  1   
 34  16  18  1   
 35  16  35  1   
 36  17  36  1   
 37  17  37  1   
 38  17  38  1   
 39  18  19  1   
 40  18  39  1   
 41  18  40  1   
 42  19  41  1   
 43  19  42  1   
 44  19  43  1   
@<TRIPOS>SUBSTRUCTURE
  1 ****   2 GROUP 4 **** **** 0

# MOE 2024.06 (io_trps.svl 2023.06)
