@<TRIPOS>MOLECULE
NONAME
38 40 1 0 0 
SMALL
USER_CHARGES


@<TRIPOS>ATOM
  1 BR      -0.8710     0.2580    -2.2670 Br    1 <1>  -0.1100 
  2 C       -2.3240    -0.5530    -1.2920 C.2   1 <1>   0.1240 
  3 C       -2.0150    -1.1860    -0.0540 C.2   1 <1>   0.3760 
  4 C       -3.5860    -0.5120    -1.7820 C.2   1 <1>  -0.1810 
  5 N       -2.9220    -1.7580     0.6720 N.2   1 <1>  -0.5760 
  6 N       -4.5580    -1.1170    -1.0160 N.pl3 1 <1>   0.6010 
  7 C       -4.2120    -1.7160     0.1760 C.2   1 <1>  -0.0260 
  8 N       -5.8710    -1.2270    -1.2640 N.2   1 <1>  -0.7070 
  9 C       -5.3640    -2.2060     0.6870 C.2   1 <1>  -0.1500 
 10 C       -6.3710    -1.8860    -0.2270 C.2   1 <1>   0.2030 
 11 C       -7.7740    -2.2480    -0.0490 C.2   1 <1>   0.7160 
 12 O       -8.6870    -1.5790    -0.5000 O.2   1 <1>  -0.5700 
 13 N       -8.1290    -3.3830     0.6360 N.am  1 <1>  -0.7300 
 14 C       -9.5260    -3.7920     0.9520 C.3   1 <1>   0.1400 
 15 C      -10.3320    -4.1060    -0.3300 C.3   1 <1>   0.3430 
 16 N      -11.6710    -3.4260    -0.3760 N.4   1 <1>  -0.9590 
 17 C      -12.5380    -4.0200    -1.4520 C.3   1 <1>   0.3430 
 18 C      -11.5190    -1.9440    -0.6230 C.3   1 <1>   0.3430 
 19 C      -13.8680    -3.2550    -1.5890 C.3   1 <1>   0.1200 
 20 C      -12.8820    -1.2520    -0.8160 C.3   1 <1>   0.1200 
 21 O      -13.6260    -1.8970    -1.8110 O.3   1 <1>  -0.5600 
 22 H       -0.9910    -1.1820     0.2750 H     1 <1>   0.0600 
 23 H       -3.8940    -0.0550    -2.7030 H     1 <1>   0.1500 
 24 H       -5.4690    -2.7280     1.6190 H     1 <1>   0.1500 
 25 H       -7.3780    -3.9600     1.0260 H     1 <1>   0.3700 
 26 H       -9.9950    -2.9960     1.5050 H     1 <1>   0.0800 
 27 H       -9.5000    -4.6670     1.5790 H     1 <1>   0.0800 
 28 H      -10.4690    -5.1730    -0.3900 H     1 <1>   0.0800 
 29 H       -9.7530    -3.7980    -1.1860 H     1 <1>   0.0800 
 30 H      -12.1560    -3.5470     0.5210 H     1 <1>   0.4500 
 31 H      -12.7440    -5.0540    -1.2330 H     1 <1>   0.0800 
 32 H      -12.0250    -3.9760    -2.3990 H     1 <1>   0.0800 
 33 H      -10.9260    -1.7810    -1.5100 H     1 <1>   0.0800 
 34 H      -10.9970    -1.4790     0.1970 H     1 <1>   0.0800 
 35 H      -14.4740    -3.3600    -0.7050 H     1 <1>   0.0800 
 36 H      -14.4250    -3.6270    -2.4320 H     1 <1>   0.0800 
 37 H      -12.7360    -0.2320    -1.1270 H     1 <1>   0.0800 
 38 H      -13.4510    -1.2520     0.0970 H     1 <1>   0.0800 
@<TRIPOS>BOND
  1   1   2  1   
  2   2   3  1   
  3   2   4  2   
  4   3   5  2   
  5   3  22  1   
  6   4   6  1   
  7   4  23  1   
  8   5   7  1   
  9   6   7  1   
 10   6   8  1   
 11   7   9  2   
 12   8  10  2   
 13   9  10  1   
 14   9  24  1   
 15  10  11  1   
 16  11  12  2   
 17  11  13  am  
 18  13  14  1   
 19  13  25  1   
 20  14  15  1   
 21  14  26  1   
 22  14  27  1   
 23  15  16  1   
 24  15  28  1   
 25  15  29  1   
 26  16  17  1   
 27  16  18  1   
 28  16  30  1   
 29  17  19  1   
 30  17  31  1   
 31  17  32  1   
 32  18  20  1   
 33  18  33  1   
 34  18  34  1   
 35  19  21  1   
 36  19  35  1   
 37  19  36  1   
 38  20  21  1   
 39  20  37  1   
 40  20  38  1   
@<TRIPOS>SUBSTRUCTURE
  1 ****  11 GROUP 4 **** **** 0

# MOE 2024.06 (io_trps.svl 2023.06)
