@<TRIPOS>MOLECULE
NONAME
39 39 1 0 0 
SMALL
USER_CHARGES


@<TRIPOS>ATOM
  1 CL      -2.2540     1.8810     2.2480 Cl    1 <1>  -0.1770 
  2 C       -1.1710     2.6690     1.1220 C.ar  1 <1>   0.1770 
  3 C       -1.4150     2.5820    -0.2420 C.ar  1 <1>  -0.1440 
  4 C       -0.0970     3.3780     1.6230 C.ar  1 <1>  -0.1500 
  5 C       -0.5470     3.2240    -1.1140 C.ar  1 <1>  -0.1500 
  6 C       -2.6000     1.7950    -0.7640 C.3   1 <1>   0.4870 
  7 C        0.7590     4.0180     0.7430 C.ar  1 <1>  -0.1500 
  8 C        0.5320     3.9400    -0.6210 C.ar  1 <1>  -0.1500 
  9 N       -3.8610     2.4620    -0.3080 N.4   1 <1>  -0.9590 
 10 C       -5.0340     1.5180    -0.4100 C.3   1 <1>   0.3430 
 11 C       -4.0310     3.7720    -1.0040 C.3   1 <1>   0.3430 
 12 C       -6.3020     1.9690     0.3730 C.3   1 <1>   0.3430 
 13 C       -4.4600     4.8210     0.0130 C.3   1 <1>  -0.2400 
 14 N       -7.4020     0.9350     0.4450 N.4   1 <1>  -0.9590 
 15 C       -8.0150     0.6090    -0.8890 C.3   1 <1>   0.2630 
 16 C       -8.4870     1.3990     1.3750 C.3   1 <1>   0.2630 
 17 H        0.0720     3.4300     2.6850 H     1 <1>   0.1500 
 18 H       -0.6880     3.1770    -2.1820 H     1 <1>   0.1500 
 19 H       -2.5440     0.7930    -0.3700 H     1 <1>   0.0800 
 20 H       -2.5670     1.7420    -1.8400 H     1 <1>   0.0800 
 21 H        1.6030     4.5750     1.1190 H     1 <1>   0.1500 
 22 H        1.2060     4.4370    -1.2990 H     1 <1>   0.1500 
 23 H       -3.6610     2.6760     0.6840 H     1 <1>   0.4500 
 24 H       -4.7310     0.5610    -0.0180 H     1 <1>   0.0800 
 25 H       -5.2890     1.3870    -1.4490 H     1 <1>   0.0800 
 26 H       -4.7540     3.6950    -1.8010 H     1 <1>   0.0800 
 27 H       -3.0930     4.0880    -1.4360 H     1 <1>   0.0800 
 28 H       -6.6940     2.8630    -0.0840 H     1 <1>   0.0800 
 29 H       -6.0010     2.2150     1.3780 H     1 <1>   0.0800 
 30 H       -5.4190     4.6050     0.4440 H     1 <1>   0.0800 
 31 H       -4.5340     5.7750    -0.4820 H     1 <1>   0.0800 
 32 H       -3.7230     4.9200     0.7910 H     1 <1>   0.0800 
 33 H       -7.0350     0.0560     0.8520 H     1 <1>   0.4500 
 34 H       -8.4410     1.4930    -1.3360 H     1 <1>   0.0800 
 35 H       -8.8020    -0.1200    -0.7680 H     1 <1>   0.0800 
 36 H       -7.2790     0.1990    -1.5610 H     1 <1>   0.0800 
 37 H       -8.9380     2.3080     1.0080 H     1 <1>   0.0800 
 38 H       -8.0880     1.5860     2.3600 H     1 <1>   0.0800 
 39 H       -9.2560     0.6480     1.4600 H     1 <1>   0.0800 
@<TRIPOS>BOND
  1   1   2  1   
  2   2   3  ar  
  3   2   4  ar  
  4   3   5  ar  
  5   3   6  1   
  6   4   7  ar  
  7   4  17  1   
  8   5   8  ar  
  9   5  18  1   
 10   6   9  1   
 11   6  19  1   
 12   6  20  1   
 13   7   8  ar  
 14   7  21  1   
 15   8  22  1   
 16   9  10  1   
 17   9  11  1   
 18   9  23  1   
 19  10  12  1   
 20  10  24  1   
 21  10  25  1   
 22  11  13  1   
 23  11  26  1   
 24  11  27  1   
 25  12  14  1   
 26  12  28  1   
 27  12  29  1   
 28  13  30  1   
 29  13  31  1   
 30  13  32  1   
 31  14  15  1   
 32  14  16  1   
 33  14  33  1   
 34  15  34  1   
 35  15  35  1   
 36  15  36  1   
 37  16  37  1   
 38  16  38  1   
 39  16  39  1   
@<TRIPOS>SUBSTRUCTURE
  1 ****   9 GROUP 4 **** **** 0

# MOE 2024.06 (io_trps.svl 2023.06)
