@<TRIPOS>MOLECULE
NONAME
32 33 1 0 0 
SMALL
USER_CHARGES


@<TRIPOS>ATOM
  1 CL      -0.0920    -0.3680    -1.4090 Cl    1 <1>  -0.1770 
  2 C       -1.5920    -0.9520    -0.7410 C.ar  1 <1>   0.1770 
  3 C       -2.0980    -0.3690     0.4050 C.ar  1 <1>  -0.1500 
  4 C       -2.2550    -1.9910    -1.3660 C.ar  1 <1>  -0.1500 
  5 C       -3.2910    -0.8320     0.9330 C.ar  1 <1>  -0.1500 
  6 C       -3.4490    -2.4520    -0.8370 C.ar  1 <1>  -0.1500 
  7 C       -3.9760    -1.8700     0.3110 C.ar  1 <1>  -0.1430 
  8 C       -5.2910    -2.3650     0.8840 C.3   1 <1>   0.4870 
  9 N       -6.4040    -1.8530     0.0350 N.4   1 <1>  -0.9590 
 10 C       -6.4770    -0.3450     0.0720 C.3   1 <1>   0.3430 
 11 C       -7.7200    -2.4850     0.4080 C.3   1 <1>   0.3430 
 12 C       -7.6220     0.1990    -0.7990 C.3   1 <1>   0.1400 
 13 C       -8.8920    -1.9550    -0.4480 C.3   1 <1>   0.1400 
 14 N       -8.9120    -0.4680    -0.4470 N.am  1 <1>  -0.6600 
 15 C      -10.0110     0.2560    -0.0700 C.2   1 <1>   0.5700 
 16 O       -9.9840     1.4530     0.0680 O.2   1 <1>  -0.5700 
 17 H       -1.5550     0.4340     0.8740 H     1 <1>   0.1500 
 18 H       -1.8320    -2.4300    -2.2530 H     1 <1>   0.1500 
 19 H       -3.6700    -0.3730     1.8320 H     1 <1>   0.1500 
 20 H       -3.9490    -3.2690    -1.3300 H     1 <1>   0.1500 
 21 H       -5.4050    -2.0190     1.8980 H     1 <1>   0.0800 
 22 H       -5.2910    -3.4430     0.8880 H     1 <1>   0.0800 
 23 H       -6.1770    -2.1120    -0.9330 H     1 <1>   0.4500 
 24 H       -5.5470     0.0780    -0.2730 H     1 <1>   0.0800 
 25 H       -6.6340    -0.0110     1.0840 H     1 <1>   0.0800 
 26 H       -7.9390    -2.2750     1.4420 H     1 <1>   0.0800 
 27 H       -7.6600    -3.5550     0.2950 H     1 <1>   0.0800 
 28 H       -7.4050     0.0280    -1.8390 H     1 <1>   0.0800 
 29 H       -7.6960     1.2640    -0.6560 H     1 <1>   0.0800 
 30 H       -9.8210    -2.3350    -0.0560 H     1 <1>   0.0800 
 31 H       -8.7940    -2.3080    -1.4600 H     1 <1>   0.0800 
 32 H      -10.9330    -0.2640     0.1260 H     1 <1>   0.0600 
@<TRIPOS>BOND
  1   1   2  1   
  2   2   3  ar  
  3   2   4  ar  
  4   3   5  ar  
  5   3  17  1   
  6   4   6  ar  
  7   4  18  1   
  8   5   7  ar  
  9   5  19  1   
 10   6   7  ar  
 11   6  20  1   
 12   7   8  1   
 13   8   9  1   
 14   8  21  1   
 15   8  22  1   
 16   9  10  1   
 17   9  11  1   
 18   9  23  1   
 19  10  12  1   
 20  10  24  1   
 21  10  25  1   
 22  11  13  1   
 23  11  26  1   
 24  11  27  1   
 25  12  14  1   
 26  12  28  1   
 27  12  29  1   
 28  13  14  1   
 29  13  30  1   
 30  13  31  1   
 31  14  15  am  
 32  15  16  2   
 33  15  32  1   
@<TRIPOS>SUBSTRUCTURE
  1 ****  10 GROUP 4 **** **** 0

# MOE 2024.06 (io_trps.svl 2023.06)
