@<TRIPOS>MOLECULE
NONAME
30 30 1 0 0 
SMALL
USER_CHARGES


@<TRIPOS>ATOM
  1 S       -0.1220     0.0640    -0.1250 S.o2  1 <1>   1.3330 
  2 O       -0.8760    -0.2530    -1.3110 O.2   1 <1>  -0.6500 
  3 O        1.1090     0.8100    -0.1860 O.2   1 <1>  -0.6500 
  4 N        0.3090    -1.4090     0.6360 N.am  1 <1>  -0.7570 
  5 C       -1.1850     0.8150     1.0890 C.3   1 <1>  -0.1350 
  6 C       -0.2960    -2.6560     0.4860 C.ar  1 <1>   0.1990 
  7 C        0.5000    -3.8060     0.5310 C.ar  1 <1>   0.0820 
  8 C       -1.6650    -2.7900     0.3060 C.ar  1 <1>  -0.1500 
  9 O        1.8410    -3.6370     0.7120 O.3   1 <1>  -0.3630 
 10 C       -0.0930    -5.0550     0.3910 C.ar  1 <1>  -0.1500 
 11 C       -2.2840    -4.0340     0.1700 C.ar  1 <1>   0.0860 
 12 C        2.7360    -4.7280     0.6930 C.3   1 <1>   0.0400 
 13 C       -1.4600    -5.1610     0.2140 C.ar  1 <1>  -0.1500 
 14 C       -3.7210    -4.1330    -0.0010 C.2   1 <1>   0.6340 
 15 O       -4.4710    -3.1850     0.1090 O.2   1 <1>  -0.5700 
 16 O       -4.2390    -5.3340    -0.2850 O.3   1 <1>  -0.4300 
 17 C       -5.6290    -5.5200    -0.4700 C.3   1 <1>   0.0400 
 18 H        1.3240    -1.4560     0.7240 H     1 <1>   0.4200 
 19 H       -1.5030     1.7810     0.7490 H     1 <1>   0.0800 
 20 H       -0.6620     0.9320     2.0170 H     1 <1>   0.0800 
 21 H       -2.0530     0.2080     1.2540 H     1 <1>   0.0800 
 22 H       -2.2800    -1.9120     0.2630 H     1 <1>   0.1500 
 23 H        0.4900    -5.9560     0.4180 H     1 <1>   0.1500 
 24 H        3.7320    -4.3450     0.8250 H     1 <1>   0.0800 
 25 H        2.6600    -5.2260    -0.2570 H     1 <1>   0.0800 
 26 H        2.4930    -5.3940     1.5010 H     1 <1>   0.0800 
 27 H       -1.8980    -6.1390     0.1090 H     1 <1>   0.1500 
 28 H       -5.8080    -6.5570    -0.6910 H     1 <1>   0.0800 
 29 H       -5.9560    -4.9040    -1.2900 H     1 <1>   0.0800 
 30 H       -6.1420    -5.2380     0.4330 H     1 <1>   0.0800 
@<TRIPOS>BOND
  1   1   2  2   
  2   1   3  2   
  3   1   4  am  
  4   1   5  1   
  5   4   6  1   
  6   4  18  1   
  7   5  19  1   
  8   5  20  1   
  9   5  21  1   
 10   6   7  ar  
 11   6   8  ar  
 12   7   9  1   
 13   7  10  ar  
 14   8  11  ar  
 15   8  22  1   
 16   9  12  1   
 17  10  13  ar  
 18  10  23  1   
 19  11  13  ar  
 20  11  14  1   
 21  12  24  1   
 22  12  25  1   
 23  12  26  1   
 24  13  27  1   
 25  14  15  2   
 26  14  16  1   
 27  16  17  1   
 28  17  28  1   
 29  17  29  1   
 30  17  30  1   
@<TRIPOS>SUBSTRUCTURE
  1 ****   8 GROUP 4 **** **** 0

# MOE 2024.06 (io_trps.svl 2023.06)
