@<TRIPOS>MOLECULE
NONAME
49 51 1 0 0 
SMALL
USER_CHARGES


@<TRIPOS>ATOM
  1 O       -0.1850     0.9250    -1.7980 O.2   1 <1>  -0.5700 
  2 C       -0.4270     1.5090    -0.7730 C.2   1 <1>   0.6590 
  3 O        0.4650     1.6310     0.1990 O.3   1 <1>  -0.4300 
  4 C       -1.7810     2.1470    -0.5090 C.3   1 <1>  -0.0190 
  5 C        1.7600     1.0890     0.0840 C.3   1 <1>   0.1200 
  6 C       -2.8160     1.6560    -1.5310 C.3   1 <1>   0.2090 
  7 C       -1.6960     3.6880    -0.5320 C.3   1 <1>  -0.1600 
  8 C        2.5220     1.4080     1.3660 C.3   1 <1>  -0.2400 
  9 N       -4.1600     2.2660    -1.2310 N.pl3 1 <1>  -0.8380 
 10 C       -3.0880     4.3250    -0.3900 C.3   1 <1>  -0.1600 
 11 C       -5.2390     1.5580    -0.8150 C.ar  1 <1>   0.4610 
 12 C       -4.0870     3.7560    -1.4040 C.3   1 <1>   0.2090 
 13 N       -6.4340     2.1500    -0.7580 N.ar  1 <1>  -0.1790 
 14 C       -5.2020     0.1930    -0.4220 C.ar  1 <1>  -0.1500 
 15 C       -7.6100     1.5360    -0.3660 C.ar  1 <1>   0.3610 
 16 C       -6.3140    -0.4860    -0.0240 C.ar  1 <1>  -0.1430 
 17 C       -7.5750     0.1820     0.0120 C.ar  1 <1>   0.0000 
 18 C       -8.8200     2.2400    -0.3460 C.ar  1 <1>  -0.1500 
 19 C       -6.2160    -1.9500     0.3880 C.3   1 <1>  -0.0970 
 20 C       -8.7820    -0.4200     0.4010 C.ar  1 <1>  -0.1500 
 21 C       -9.9860     1.6240     0.0400 C.ar  1 <1>  -0.1500 
 22 C       -9.9670     0.2760     0.4190 C.ar  1 <1>   0.0830 
 23 O      -11.0710    -0.4030     0.8110 O.3   1 <1>  -0.3620 
 24 C      -12.3430     0.2070     0.8680 C.3   1 <1>   0.0400 
 25 H       -2.0970     1.8260     0.4670 H     1 <1>   0.0800 
 26 H        2.2410     1.5320    -0.7720 H     1 <1>   0.0800 
 27 H        1.6740     0.0250    -0.0600 H     1 <1>   0.0800 
 28 H       -2.8450     0.5830    -1.5390 H     1 <1>   0.0800 
 29 H       -2.5070     1.9580    -2.5190 H     1 <1>   0.0800 
 30 H       -1.2560     4.0040    -1.4630 H     1 <1>   0.0800 
 31 H       -1.0570     4.0300     0.2650 H     1 <1>   0.0800 
 32 H        2.5920     2.4720     1.5010 H     1 <1>   0.0800 
 33 H        3.5160     1.0050     1.3070 H     1 <1>   0.0800 
 34 H        2.0250     0.9690     2.2130 H     1 <1>   0.0800 
 35 H       -3.0060     5.3890    -0.5300 H     1 <1>   0.0800 
 36 H       -3.4620     4.1570     0.6060 H     1 <1>   0.0800 
 37 H       -5.0400     4.2290    -1.2590 H     1 <1>   0.0800 
 38 H       -3.7540     3.9840    -2.4050 H     1 <1>   0.0800 
 39 H       -6.4760     3.1150    -1.0560 H     1 <1>   0.4570 
 40 H       -4.2590    -0.3170    -0.4260 H     1 <1>   0.1500 
 41 H       -8.8480     3.2750    -0.6340 H     1 <1>   0.1500 
 42 H       -5.2050    -2.3100     0.3140 H     1 <1>   0.0800 
 43 H       -6.8330    -2.5590    -0.2490 H     1 <1>   0.0800 
 44 H       -6.5400    -2.0730     1.4070 H     1 <1>   0.0800 
 45 H       -8.8030    -1.4530     0.6970 H     1 <1>   0.1500 
 46 H      -10.9050     2.1820     0.0490 H     1 <1>   0.1500 
 47 H      -13.0510    -0.5300     1.2040 H     1 <1>   0.0800 
 48 H      -12.6130     0.5470    -0.1160 H     1 <1>   0.0800 
 49 H      -12.3100     1.0240     1.5660 H     1 <1>   0.0800 
@<TRIPOS>BOND
  1   1   2  2   
  2   2   3  1   
  3   2   4  1   
  4   3   5  1   
  5   4   6  1   
  6   4   7  1   
  7   4  25  1   
  8   5   8  1   
  9   5  26  1   
 10   5  27  1   
 11   6   9  1   
 12   6  28  1   
 13   6  29  1   
 14   7  10  1   
 15   7  30  1   
 16   7  31  1   
 17   8  32  1   
 18   8  33  1   
 19   8  34  1   
 20   9  11  1   
 21   9  12  1   
 22  10  12  1   
 23  10  35  1   
 24  10  36  1   
 25  11  13  ar  
 26  11  14  ar  
 27  12  37  1   
 28  12  38  1   
 29  13  15  ar  
 30  13  39  1   
 31  14  16  ar  
 32  14  40  1   
 33  15  17  ar  
 34  15  18  ar  
 35  16  17  ar  
 36  16  19  1   
 37  17  20  ar  
 38  18  21  ar  
 39  18  41  1   
 40  19  42  1   
 41  19  43  1   
 42  19  44  1   
 43  20  22  ar  
 44  20  45  1   
 45  21  22  ar  
 46  21  46  1   
 47  22  23  1   
 48  23  24  1   
 49  24  47  1   
 50  24  48  1   
 51  24  49  1   
@<TRIPOS>SUBSTRUCTURE
  1 ****  11 GROUP 4 **** **** 0

# MOE 2024.06 (io_trps.svl 2023.06)
