@<TRIPOS>MOLECULE
NONAME
51 53 1 0 0 
SMALL
USER_CHARGES


@<TRIPOS>ATOM
  1 O        2.7640     1.8110    -1.3450 O.2   1 <1>  -0.5700 
  2 C        2.3160     1.0740    -0.4980 C.2   1 <1>   0.5690 
  3 N        1.4010     1.5310     0.3920 N.am  1 <1>  -0.7300 
  4 C        2.7720    -0.4030    -0.4010 C.3   1 <1>   0.0610 
  5 C        0.8120     2.9080     0.3980 C.3   1 <1>   0.2810 
  6 C        3.4220    -0.6710     0.9700 C.3   1 <1>  -0.2400 
  7 C        1.5640    -1.3440    -0.5690 C.3   1 <1>  -0.2400 
  8 C        3.8030    -0.7560    -1.4930 C.3   1 <1>  -0.2400 
  9 C        1.3310     3.7340     1.6010 C.2   1 <1>   0.6590 
 10 C       -0.7400     2.8370     0.2410 C.3   1 <1>   0.0000 
 11 O        0.8490     3.6320     2.7000 O.2   1 <1>  -0.5700 
 12 O        2.3470     4.5800     1.4230 O.3   1 <1>  -0.4300 
 13 C       -1.0850     2.2340    -1.1490 C.3   1 <1>  -0.1600 
 14 C       -1.3550     4.2610     0.3000 C.3   1 <1>  -0.1600 
 15 C       -1.4330     1.9610     1.3220 C.3   1 <1>  -0.1600 
 16 C        3.3270     4.4730     0.4090 C.3   1 <1>   0.0400 
 17 C       -2.6060     2.1850    -1.3790 C.3   1 <1>  -0.0800 
 18 C       -2.8780     4.2210     0.0790 C.3   1 <1>  -0.0800 
 19 C       -2.9570     1.9160     1.1020 C.3   1 <1>  -0.0800 
 20 C       -3.1750     3.6130    -1.3030 C.3   1 <1>  -0.1600 
 21 C       -3.2540     1.3190    -0.2850 C.3   1 <1>  -0.1600 
 22 C       -3.5220     3.3470     1.1700 C.3   1 <1>  -0.1600 
 23 H        1.0630     0.9200     1.1370 H     1 <1>   0.3700 
 24 H        1.1540     3.4150    -0.4840 H     1 <1>   0.0800 
 25 H        2.7240    -0.5000     1.7690 H     1 <1>   0.0800 
 26 H        4.2650    -0.0170     1.1130 H     1 <1>   0.0800 
 27 H        3.7670    -1.6880     1.0350 H     1 <1>   0.0800 
 28 H        1.0880    -1.1680    -1.5180 H     1 <1>   0.0800 
 29 H        0.8380    -1.1820     0.2070 H     1 <1>   0.0800 
 30 H        1.8750    -2.3730    -0.5300 H     1 <1>   0.0800 
 31 H        3.3810    -0.5970    -2.4700 H     1 <1>   0.0800 
 32 H        4.1110    -1.7840    -1.4170 H     1 <1>   0.0800 
 33 H        4.6740    -0.1300    -1.4000 H     1 <1>   0.0800 
 34 H       -0.6920     1.2360    -1.2300 H     1 <1>   0.0800 
 35 H       -0.6290     2.8210    -1.9270 H     1 <1>   0.0800 
 36 H       -0.9050     4.8890    -0.4490 H     1 <1>   0.0800 
 37 H       -1.1650     4.7120     1.2590 H     1 <1>   0.0800 
 38 H       -1.2430     2.3520     2.3050 H     1 <1>   0.0800 
 39 H       -1.0520     0.9570     1.2920 H     1 <1>   0.0800 
 40 H        4.1030     5.1880     0.6170 H     1 <1>   0.0800 
 41 H        2.8840     4.6880    -0.5470 H     1 <1>   0.0800 
 42 H        3.7400     3.4790     0.4210 H     1 <1>   0.0800 
 43 H       -2.8140     1.7630    -2.3480 H     1 <1>   0.0800 
 44 H       -3.2790     5.2180     0.1310 H     1 <1>   0.0800 
 45 H       -3.4160     1.3100     1.8640 H     1 <1>   0.0800 
 46 H       -2.7360     4.2230    -2.0730 H     1 <1>   0.0800 
 47 H       -4.2380     3.5900    -1.4690 H     1 <1>   0.0800 
 48 H       -2.8710     0.3150    -0.3400 H     1 <1>   0.0800 
 49 H       -4.3170     1.2710    -0.4400 H     1 <1>   0.0800 
 50 H       -4.5890     3.3230     1.0350 H     1 <1>   0.0800 
 51 H       -3.3250     3.7700     2.1400 H     1 <1>   0.0800 
@<TRIPOS>BOND
  1   1   2  2   
  2   2   3  am  
  3   2   4  1   
  4   3   5  1   
  5   3  23  1   
  6   4   6  1   
  7   4   7  1   
  8   4   8  1   
  9   5   9  1   
 10   5  10  1   
 11   5  24  1   
 12   6  25  1   
 13   6  26  1   
 14   6  27  1   
 15   7  28  1   
 16   7  29  1   
 17   7  30  1   
 18   8  31  1   
 19   8  32  1   
 20   8  33  1   
 21   9  11  2   
 22   9  12  1   
 23  10  13  1   
 24  10  14  1   
 25  10  15  1   
 26  12  16  1   
 27  13  17  1   
 28  13  34  1   
 29  13  35  1   
 30  14  18  1   
 31  14  36  1   
 32  14  37  1   
 33  15  19  1   
 34  15  38  1   
 35  15  39  1   
 36  16  40  1   
 37  16  41  1   
 38  16  42  1   
 39  17  20  1   
 40  17  21  1   
 41  17  43  1   
 42  18  20  1   
 43  18  22  1   
 44  18  44  1   
 45  19  21  1   
 46  19  22  1   
 47  19  45  1   
 48  20  46  1   
 49  20  47  1   
 50  21  48  1   
 51  21  49  1   
 52  22  50  1   
 53  22  51  1   
@<TRIPOS>SUBSTRUCTURE
  1 ****   5 GROUP 4 **** **** 0

# MOE 2024.06 (io_trps.svl 2023.06)
