@<TRIPOS>MOLECULE
NONAME
28 27 1 0 0 
SMALL
USER_CHARGES


@<TRIPOS>ATOM
  1 S       -0.9040    -0.2830    -1.3940 S.2   1 <1>  -0.6770 
  2 P       -0.7250    -1.4490     0.1400 P.3   1 <1>   0.9480 
  3 O       -1.6830    -2.7190     0.0340 O.3   1 <1>  -0.5510 
  4 C        0.8920    -2.1460     0.3640 C.3   1 <1>   0.1200 
  5 C       -1.2040    -0.6810     1.6570 C.3   1 <1>  -0.2400 
  6 C       -2.9800    -2.5980    -0.4520 C.3   1 <1>   0.1200 
  7 C        1.8250    -1.0840     0.8190 C.1   1 <1>   0.3570 
  8 C        1.4650    -2.8530    -0.8810 C.3   1 <1>  -0.2400 
  9 C       -3.7030    -3.9460    -0.3070 C.3   1 <1>  -0.0800 
 10 N        2.5240    -0.2830     1.2190 N.1   1 <1>  -0.5570 
 11 C       -5.1120    -3.8530    -0.9050 C.3   1 <1>  -0.2400 
 12 C       -3.7920    -4.3910     1.1600 C.3   1 <1>  -0.2400 
 13 H        0.8580    -2.8720     1.1540 H     1 <1>   0.0800 
 14 H       -1.1300    -1.3570     2.4880 H     1 <1>   0.0800 
 15 H       -2.2190    -0.3370     1.6120 H     1 <1>   0.0800 
 16 H       -0.5930     0.1750     1.8770 H     1 <1>   0.0800 
 17 H       -2.9270    -2.3090    -1.4890 H     1 <1>   0.0800 
 18 H       -3.4930    -1.8330     0.1050 H     1 <1>   0.0800 
 19 H        1.5610    -2.1570    -1.6980 H     1 <1>   0.0800 
 20 H        0.8100    -3.6490    -1.1890 H     1 <1>   0.0800 
 21 H        2.4350    -3.2690    -0.6690 H     1 <1>   0.0800 
 22 H       -3.1510    -4.6840    -0.8650 H     1 <1>   0.0800 
 23 H       -5.7020    -3.1230    -0.3780 H     1 <1>   0.0800 
 24 H       -5.6080    -4.8050    -0.8420 H     1 <1>   0.0800 
 25 H       -5.0600    -3.5690    -1.9420 H     1 <1>   0.0800 
 26 H       -4.3240    -3.6630     1.7470 H     1 <1>   0.0800 
 27 H       -2.8080    -4.5160     1.5760 H     1 <1>   0.0800 
 28 H       -4.3060    -5.3340     1.2330 H     1 <1>   0.0800 
@<TRIPOS>BOND
  1   1   2  2   
  2   2   3  1   
  3   2   4  1   
  4   2   5  1   
  5   3   6  1   
  6   4   7  1   
  7   4   8  1   
  8   4  13  1   
  9   5  14  1   
 10   5  15  1   
 11   5  16  1   
 12   6   9  1   
 13   6  17  1   
 14   6  18  1   
 15   7  10  3   
 16   8  19  1   
 17   8  20  1   
 18   8  21  1   
 19   9  11  1   
 20   9  12  1   
 21   9  22  1   
 22  11  23  1   
 23  11  24  1   
 24  11  25  1   
 25  12  26  1   
 26  12  27  1   
 27  12  28  1   
@<TRIPOS>SUBSTRUCTURE
  1 ****   3 GROUP 4 **** **** 0

# MOE 2024.06 (io_trps.svl 2023.06)
