@<TRIPOS>MOLECULE
NONAME
49 51 1 0 0 
SMALL
USER_CHARGES


@<TRIPOS>ATOM
  1 S        0.0160    -0.8820    -2.3980 S.o2  1 <1>   1.4470 
  2 O        0.9920    -1.6950    -3.0890 O.2   1 <1>  -0.6500 
  3 O       -0.3620     0.4040    -2.9440 O.2   1 <1>  -0.6500 
  4 N        0.6100    -0.6090    -0.8340 N.am  1 <1>  -0.8490 
  5 C       -1.4980    -1.8360    -2.0950 C.ar  1 <1>  -0.0090 
  6 C        1.6130     0.4590    -0.8220 C.3   1 <1>   0.1960 
  7 C        1.1450    -1.8330    -0.2270 C.3   1 <1>   0.1960 
  8 C       -2.3950    -1.4390    -1.1160 C.ar  1 <1>  -0.1500 
  9 C       -1.8060    -2.9690    -2.8340 C.ar  1 <1>  -0.1500 
 10 C        2.0110     0.7960     0.6180 C.3   1 <1>  -0.1600 
 11 C        1.5110    -1.5780     1.2380 C.3   1 <1>  -0.1600 
 12 C       -3.5790    -2.1250    -0.8510 C.ar  1 <1>   0.0860 
 13 C       -2.9680    -3.6780    -2.5930 C.ar  1 <1>  -0.1500 
 14 C        2.5320    -0.4400     1.3630 C.3   1 <1>  -0.0800 
 15 C       -3.8550    -3.2670    -1.6130 C.ar  1 <1>  -0.1440 
 16 C       -4.4640    -1.6220     0.1830 C.2   1 <1>   0.5440 
 17 C        2.8090    -0.1140     2.8350 C.3   1 <1>  -0.2400 
 18 C       -5.1270    -4.0750    -1.3840 C.3   1 <1>  -0.0970 
 19 O       -4.8120    -2.3290     1.1050 O.2   1 <1>  -0.5700 
 20 N       -4.8780    -0.3120     0.1070 N.am  1 <1>  -0.5470 
 21 C       -5.6530     0.4670     0.9860 C.ar  1 <1>   0.1170 
 22 C       -5.4950     1.8540     1.0120 C.ar  1 <1>   0.1600 
 23 C       -6.6010    -0.0770     1.8390 C.ar  1 <1>  -0.1500 
 24 N       -6.1660     2.7010     1.7770 N.ar  1 <1>  -0.6200 
 25 C       -7.3100     0.7840     2.6480 C.ar  1 <1>  -0.1500 
 26 C       -7.0590     2.1440     2.5800 C.ar  1 <1>   0.1600 
 27 H        1.2090     1.3460    -1.2820 H     1 <1>   0.0800 
 28 H        2.4800     0.1540    -1.3870 H     1 <1>   0.0800 
 29 H        2.0170    -2.1640    -0.7690 H     1 <1>   0.0800 
 30 H        0.4060    -2.6160    -0.2680 H     1 <1>   0.0800 
 31 H       -2.1550    -0.5670    -0.5300 H     1 <1>   0.1500 
 32 H       -1.1280    -3.3020    -3.6040 H     1 <1>   0.1500 
 33 H        1.1500     1.1970     1.1250 H     1 <1>   0.0800 
 34 H        2.7690     1.5590     0.6050 H     1 <1>   0.0800 
 35 H        1.9170    -2.4780     1.6620 H     1 <1>   0.0800 
 36 H        0.6140    -1.3330     1.7800 H     1 <1>   0.0800 
 37 H       -3.1770    -4.5560    -3.1810 H     1 <1>   0.1500 
 38 H        3.4550    -0.7540     0.9020 H     1 <1>   0.0800 
 39 H        1.9080     0.2060     3.3290 H     1 <1>   0.0800 
 40 H        3.5410     0.6710     2.9120 H     1 <1>   0.0800 
 41 H        3.1890    -0.9820     3.3440 H     1 <1>   0.0800 
 42 H       -5.9880    -3.4310    -1.3990 H     1 <1>   0.0800 
 43 H       -5.0810    -4.5640    -0.4260 H     1 <1>   0.0800 
 44 H       -5.2540    -4.8260    -2.1420 H     1 <1>   0.0800 
 45 H       -4.5180     0.1880    -0.7060 H     1 <1>   0.3700 
 46 H       -4.7620     2.2890     0.3570 H     1 <1>   0.1500 
 47 H       -6.7840    -1.1360     1.8720 H     1 <1>   0.1500 
 48 H       -8.0520     0.4050     3.3270 H     1 <1>   0.1500 
 49 H       -7.6190     2.8060     3.2180 H     1 <1>   0.1500 
@<TRIPOS>BOND
  1   1   2  2   
  2   1   3  2   
  3   1   4  am  
  4   1   5  1   
  5   4   6  1   
  6   4   7  1   
  7   5   8  ar  
  8   5   9  ar  
  9   6  10  1   
 10   6  27  1   
 11   6  28  1   
 12   7  11  1   
 13   7  29  1   
 14   7  30  1   
 15   8  12  ar  
 16   8  31  1   
 17   9  13  ar  
 18   9  32  1   
 19  10  14  1   
 20  10  33  1   
 21  10  34  1   
 22  11  14  1   
 23  11  35  1   
 24  11  36  1   
 25  12  15  ar  
 26  12  16  1   
 27  13  15  ar  
 28  13  37  1   
 29  14  17  1   
 30  14  38  1   
 31  15  18  1   
 32  16  19  2   
 33  16  20  am  
 34  17  39  1   
 35  17  40  1   
 36  17  41  1   
 37  18  42  1   
 38  18  43  1   
 39  18  44  1   
 40  20  21  1   
 41  20  45  1   
 42  21  22  ar  
 43  21  23  ar  
 44  22  24  ar  
 45  22  46  1   
 46  23  25  ar  
 47  23  47  1   
 48  24  26  ar  
 49  25  26  ar  
 50  25  48  1   
 51  26  49  1   
@<TRIPOS>SUBSTRUCTURE
  1 ****   8 GROUP 4 **** **** 0

# MOE 2024.06 (io_trps.svl 2023.06)
