@<TRIPOS>MOLECULE
NONAME
37 38 1 0 0 
SMALL
USER_CHARGES


@<TRIPOS>ATOM
  1 O        0.1180    -0.4220    -1.2740 O.2   1 <1>  -0.5700 
  2 C        0.0660    -1.0410    -0.2310 C.2   1 <1>   0.6900 
  3 N        1.1830    -1.5080     0.3960 N.am  1 <1>  -0.5470 
  4 N       -1.1280    -1.3040     0.3550 N.am  1 <1>  -0.7300 
  5 C        2.5440    -1.3120     0.1240 C.ar  1 <1>   0.1170 
  6 C       -2.4360    -0.8970    -0.1810 C.3   1 <1>   0.2200 
  7 C        3.0260    -0.2120    -0.5800 C.ar  1 <1>  -0.1500 
  8 C        3.4620    -2.2460     0.5940 C.ar  1 <1>  -0.1500 
  9 C       -3.0080     0.2180     0.7000 C.3   1 <1>  -0.1600 
 10 C       -3.3630    -2.1160    -0.2040 C.3   1 <1>  -0.1600 
 11 C        4.3810    -0.0540    -0.8120 C.ar  1 <1>  -0.1500 
 12 C        4.8180    -2.0910     0.3660 C.ar  1 <1>  -0.1500 
 13 C       -4.4240     0.6090     0.2510 C.3   1 <1>  -0.1600 
 14 C       -4.7790    -1.7270    -0.6540 C.3   1 <1>  -0.1600 
 15 C        5.2800    -0.9930    -0.3390 C.ar  1 <1>  -0.1500 
 16 C       -5.3610    -0.6100     0.2280 C.3   1 <1>  -0.0800 
 17 C       -6.7520    -0.2050    -0.2710 C.3   1 <1>  -0.2400 
 18 H        0.9860    -2.1880     1.1200 H     1 <1>   0.3700 
 19 H       -1.1510    -1.6780     1.2980 H     1 <1>   0.3700 
 20 H       -2.3210    -0.5260    -1.1870 H     1 <1>   0.0800 
 21 H        2.3410     0.5290    -0.9500 H     1 <1>   0.1500 
 22 H        3.1160    -3.1040     1.1390 H     1 <1>   0.1500 
 23 H       -2.3670     1.0800     0.6380 H     1 <1>   0.0800 
 24 H       -3.0430    -0.1100     1.7240 H     1 <1>   0.0800 
 25 H       -3.4160    -2.5500     0.7790 H     1 <1>   0.0800 
 26 H       -2.9650    -2.8500    -0.8820 H     1 <1>   0.0800 
 27 H        4.7340     0.8020    -1.3600 H     1 <1>   0.1500 
 28 H        5.5150    -2.8240     0.7340 H     1 <1>   0.1500 
 29 H       -4.3730     1.0430    -0.7330 H     1 <1>   0.0800 
 30 H       -4.8160     1.3550     0.9200 H     1 <1>   0.0800 
 31 H       -5.4170    -2.5940    -0.6100 H     1 <1>   0.0800 
 32 H       -4.7440    -1.3960    -1.6780 H     1 <1>   0.0800 
 33 H        6.3330    -0.8700    -0.5190 H     1 <1>   0.1500 
 34 H       -5.4600    -0.9850     1.2340 H     1 <1>   0.0800 
 35 H       -6.7000     0.1760    -1.2760 H     1 <1>   0.0800 
 36 H       -7.1690     0.5570     0.3640 H     1 <1>   0.0800 
 37 H       -7.4140    -1.0530    -0.2600 H     1 <1>   0.0800 
@<TRIPOS>BOND
  1   1   2  2   
  2   2   3  am  
  3   2   4  am  
  4   3   5  1   
  5   3  18  1   
  6   4   6  1   
  7   4  19  1   
  8   5   7  ar  
  9   5   8  ar  
 10   6   9  1   
 11   6  10  1   
 12   6  20  1   
 13   7  11  ar  
 14   7  21  1   
 15   8  12  ar  
 16   8  22  1   
 17   9  13  1   
 18   9  23  1   
 19   9  24  1   
 20  10  14  1   
 21  10  25  1   
 22  10  26  1   
 23  11  15  ar  
 24  11  27  1   
 25  12  15  ar  
 26  12  28  1   
 27  13  16  1   
 28  13  29  1   
 29  13  30  1   
 30  14  16  1   
 31  14  31  1   
 32  14  32  1   
 33  15  33  1   
 34  16  17  1   
 35  16  34  1   
 36  17  35  1   
 37  17  36  1   
 38  17  37  1   
@<TRIPOS>SUBSTRUCTURE
  1 ****   2 GROUP 4 **** **** 0

# MOE 2024.06 (io_trps.svl 2023.06)
