@<TRIPOS>MOLECULE
NONAME
34 35 1 0 0 
SMALL
USER_CHARGES


@<TRIPOS>ATOM
  1 S        0.1100     0.3530    -0.2540 S.3   1 <1>  -0.2860 
  2 C       -1.3970    -0.5780    -0.5320 C.2   1 <1>   0.2420 
  3 C        1.3160    -0.4860    -1.3870 C.3   1 <1>   0.1310 
  4 N       -1.4780    -1.5730    -1.3410 N.2   1 <1>  -0.3380 
  5 N       -2.5380    -0.2980     0.0870 N.pl3 1 <1>   0.0480 
  6 C        2.6910     0.1350    -1.2420 C.2   1 <1>   0.6590 
  7 N       -2.7400    -1.9930    -1.2690 N.2   1 <1>  -0.3380 
  8 C       -3.3730    -1.2260    -0.4230 C.2   1 <1>   0.1330 
  9 C       -2.7910     0.7360     1.1120 C.3   1 <1>   0.0160 
 10 O        3.1820     0.7970    -2.1200 O.2   1 <1>  -0.5700 
 11 O        3.3260    -0.1080    -0.1020 O.3   1 <1>  -0.4300 
 12 C       -4.7660    -1.3580    -0.0720 C.ar  1 <1>   0.0530 
 13 C        4.6060     0.4200     0.1530 C.3   1 <1>   0.1200 
 14 C       -5.6500    -0.2800    -0.1730 C.ar  1 <1>  -0.1500 
 15 C       -5.2640    -2.5830     0.3760 C.ar  1 <1>  -0.1500 
 16 C        5.0390    -0.0380     1.5420 C.3   1 <1>  -0.2400 
 17 C       -6.9820    -0.4100     0.1810 C.ar  1 <1>  -0.1500 
 18 C       -6.5930    -2.7310     0.7340 C.ar  1 <1>  -0.1500 
 19 C       -7.4290    -1.6370     0.6320 C.ar  1 <1>   0.1900 
 20 F       -8.6830    -1.7660     0.9710 F     1 <1>  -0.1900 
 21 H        0.9490    -0.3670    -2.3890 H     1 <1>   0.0800 
 22 H        1.3390    -1.5260    -1.1200 H     1 <1>   0.0800 
 23 H       -1.9170     0.8560     1.7270 H     1 <1>   0.0800 
 24 H       -3.6170     0.4400     1.7330 H     1 <1>   0.0800 
 25 H       -3.0170     1.6690     0.6280 H     1 <1>   0.0800 
 26 H        4.5480     1.4950     0.1000 H     1 <1>   0.0800 
 27 H        5.2820     0.0570    -0.6030 H     1 <1>   0.0800 
 28 H       -5.2910     0.6650    -0.5410 H     1 <1>   0.1500 
 29 H       -4.5940    -3.4240     0.4400 H     1 <1>   0.1500 
 30 H        4.3480     0.3230     2.2830 H     1 <1>   0.0800 
 31 H        6.0150     0.3530     1.7650 H     1 <1>   0.0800 
 32 H        5.0820    -1.1120     1.5820 H     1 <1>   0.0800 
 33 H       -7.6660     0.4160     0.1070 H     1 <1>   0.1500 
 34 H       -6.9760    -3.6740     1.0810 H     1 <1>   0.1500 
@<TRIPOS>BOND
  1   1   2  1   
  2   1   3  1   
  3   2   4  2   
  4   2   5  1   
  5   3   6  1   
  6   3  21  1   
  7   3  22  1   
  8   4   7  1   
  9   5   8  1   
 10   5   9  1   
 11   6  10  2   
 12   6  11  1   
 13   7   8  2   
 14   8  12  1   
 15   9  23  1   
 16   9  24  1   
 17   9  25  1   
 18  11  13  1   
 19  12  14  ar  
 20  12  15  ar  
 21  13  16  1   
 22  13  26  1   
 23  13  27  1   
 24  14  17  ar  
 25  14  28  1   
 26  15  18  ar  
 27  15  29  1   
 28  16  30  1   
 29  16  31  1   
 30  16  32  1   
 31  17  19  ar  
 32  17  33  1   
 33  18  19  ar  
 34  18  34  1   
 35  19  20  1   
@<TRIPOS>SUBSTRUCTURE
  1 ****   2 GROUP 4 **** **** 0

# MOE 2024.06 (io_trps.svl 2023.06)
