@<TRIPOS>MOLECULE
NONAME
30 31 1 0 0 
SMALL
USER_CHARGES


@<TRIPOS>ATOM
  1 O       -0.0690     0.3560    -0.7100 O.2   1 <1>  -0.5700 
  2 C       -0.1090     1.5330    -0.4170 C.2   1 <1>   0.6900 
  3 N        1.0260     2.2990    -0.4440 N.am  1 <1>  -0.6600 
  4 N       -1.2950     2.1440    -0.1560 N.am  1 <1>  -0.4900 
  5 C        1.1730     3.6040     0.2400 C.3   1 <1>   0.1400 
  6 C        2.3520     1.7090    -0.7370 C.3   1 <1>   0.1400 
  7 C       -2.3980     1.6370     0.4790 C.2   1 <1>   0.5440 
  8 C        2.6590     3.9290     0.1550 C.3   1 <1>  -0.1600 
  9 C        3.3450     2.5730     0.0310 C.3   1 <1>  -0.1600 
 10 O       -2.2780     0.7110     1.2520 O.2   1 <1>  -0.5700 
 11 C       -3.6980     2.2400     0.2490 C.ar  1 <1>   0.0860 
 12 C       -3.8590     3.6100     0.0240 C.ar  1 <1>  -0.1500 
 13 C       -4.8490     1.4510     0.2440 C.ar  1 <1>  -0.1500 
 14 C       -5.1070     4.1600    -0.2100 C.ar  1 <1>  -0.1500 
 15 C       -6.0990     1.9950     0.0120 C.ar  1 <1>  -0.1500 
 16 C       -6.2300     3.3520    -0.2180 C.ar  1 <1>  -0.1500 
 17 H       -1.3970     3.0280    -0.6300 H     1 <1>   0.3700 
 18 H        0.8720     3.4970     1.2700 H     1 <1>   0.0800 
 19 H        0.5800     4.3630    -0.2400 H     1 <1>   0.0800 
 20 H        2.5350     1.7690    -1.7960 H     1 <1>   0.0800 
 21 H        2.4020     0.6790    -0.4220 H     1 <1>   0.0800 
 22 H        2.9990     4.4830     1.0130 H     1 <1>   0.0800 
 23 H        2.8410     4.5120    -0.7320 H     1 <1>   0.0800 
 24 H        4.2940     2.6340    -0.4730 H     1 <1>   0.0800 
 25 H        3.4930     2.1460     1.0070 H     1 <1>   0.0800 
 26 H       -3.0060     4.2630     0.0420 H     1 <1>   0.1500 
 27 H       -4.7530     0.3940     0.4270 H     1 <1>   0.1500 
 28 H       -5.2110     5.2180    -0.3820 H     1 <1>   0.1500 
 29 H       -6.9700     1.3620     0.0120 H     1 <1>   0.1500 
 30 H       -7.2020     3.7770    -0.4000 H     1 <1>   0.1500 
@<TRIPOS>BOND
  1   1   2  2   
  2   2   3  am  
  3   2   4  am  
  4   3   5  1   
  5   3   6  1   
  6   4   7  am  
  7   4  17  1   
  8   5   8  1   
  9   5  18  1   
 10   5  19  1   
 11   6   9  1   
 12   6  20  1   
 13   6  21  1   
 14   7  10  2   
 15   7  11  1   
 16   8   9  1   
 17   8  22  1   
 18   8  23  1   
 19   9  24  1   
 20   9  25  1   
 21  11  12  ar  
 22  11  13  ar  
 23  12  14  ar  
 24  12  26  1   
 25  13  15  ar  
 26  13  27  1   
 27  14  16  ar  
 28  14  28  1   
 29  15  16  ar  
 30  15  29  1   
 31  16  30  1   
@<TRIPOS>SUBSTRUCTURE
  1 ****   4 GROUP 4 **** **** 0

# MOE 2024.06 (io_trps.svl 2023.06)
