@<TRIPOS>MOLECULE
NONAME
21 20 1 0 0 
SMALL
USER_CHARGES


@<TRIPOS>ATOM
  1 F        1.0540    -0.8030     1.3520 F     1 <1>  -0.3400 
  2 C        1.1850    -0.8280     0.0330 C.3   1 <1>   1.1580 
  3 F        0.0760    -1.3690    -0.4540 F     1 <1>  -0.3400 
  4 F        1.1780     0.4420    -0.3610 F     1 <1>  -0.3400 
  5 C        2.4740    -1.5920    -0.4260 C.2   1 <1>  -0.0380 
  6 N        3.4320    -0.8930    -1.1630 N.pl3 1 <1>  -0.9000 
  7 C        2.6430    -2.9210    -0.1030 C.2   1 <1>   0.0790 
  8 C        1.6630    -3.6370     0.6530 C.1   1 <1>   0.4920 
  9 C        3.7770    -3.7260    -0.4650 C.2   1 <1>   0.7060 
 10 N        0.8620    -4.1810     1.2560 N.1   1 <1>  -0.5570 
 11 O        4.7350    -3.3100    -1.0960 O.2   1 <1>  -0.5700 
 12 O        3.7990    -5.0150    -0.0940 O.3   1 <1>  -0.4300 
 13 C        4.8800    -5.8890    -0.3570 C.3   1 <1>   0.1200 
 14 C        5.9310    -5.7200     0.7380 C.3   1 <1>  -0.2400 
 15 H        4.3070    -1.3470    -1.4900 H     1 <1>   0.4000 
 16 H        3.3590     0.1000    -1.4320 H     1 <1>   0.4000 
 17 H        4.4930    -6.8940    -0.3500 H     1 <1>   0.0800 
 18 H        5.2850    -5.6780    -1.3330 H     1 <1>   0.0800 
 19 H        5.5000    -5.9210     1.7030 H     1 <1>   0.0800 
 20 H        6.3340    -4.7230     0.7220 H     1 <1>   0.0800 
 21 H        6.7370    -6.4110     0.5730 H     1 <1>   0.0800 
@<TRIPOS>BOND
  1   1   2  1   
  2   2   3  1   
  3   2   4  1   
  4   2   5  1   
  5   5   6  1   
  6   5   7  2   
  7   6  15  1   
  8   6  16  1   
  9   7   8  1   
 10   7   9  1   
 11   8  10  3   
 12   9  11  2   
 13   9  12  1   
 14  12  13  1   
 15  13  14  1   
 16  13  17  1   
 17  13  18  1   
 18  14  19  1   
 19  14  20  1   
 20  14  21  1   
@<TRIPOS>SUBSTRUCTURE
  1 ****   7 GROUP 4 **** **** 0

# MOE 2024.06 (io_trps.svl 2023.06)
