@<TRIPOS>MOLECULE
NONAME
39 40 1 0 0 
SMALL
USER_CHARGES


@<TRIPOS>ATOM
  1 P       -0.0860     0.4570     0.0990 P.3   1 <1>   0.9000 
  2 O        0.2640    -0.7860    -0.6440 O.co2 1 <1>  -0.9500 
  3 O        0.4020     0.6330     1.5000 O.co2 1 <1>  -0.9500 
  4 C        0.7660     1.8110    -0.7390 C.3   1 <1>   0.3430 
  5 C       -1.8360     0.7980    -0.0350 C.3   1 <1>  -0.1600 
  6 N        2.1680     1.8670    -0.2040 N.4   1 <1>  -0.9590 
  7 C       -2.6790    -0.2080     0.7560 C.3   1 <1>  -0.0170 
  8 C        2.8030     3.2010    -0.2350 C.3   1 <1>   0.3430 
  9 C        2.9800     0.7490    -0.7590 C.3   1 <1>   0.3430 
 10 C       -4.1650    -0.0320     0.4810 C.ar  1 <1>   0.1670 
 11 C        4.1470     3.1440     0.4960 C.3   1 <1>  -0.1600 
 12 C        4.3270     0.6890    -0.0360 C.3   1 <1>  -0.1600 
 13 N       -4.7120     1.1150     0.8620 N.ar  1 <1>  -0.6200 
 14 C       -4.8670    -1.0520    -0.1440 C.ar  1 <1>  -0.1500 
 15 C        5.0560     2.0400    -0.0600 C.3   1 <1>  -0.1600 
 16 C       -6.0050     1.2440     0.6140 C.ar  1 <1>   0.1600 
 17 C       -6.2140    -0.9030    -0.3970 C.ar  1 <1>  -0.1500 
 18 C       -6.7900     0.2850    -0.0020 C.ar  1 <1>  -0.1500 
 19 H        0.2890     2.7440    -0.5040 H     1 <1>   0.0800 
 20 H        0.7790     1.6970    -1.8080 H     1 <1>   0.0800 
 21 H       -2.1510     0.7550    -1.0600 H     1 <1>   0.0800 
 22 H       -2.0710     1.7780     0.3340 H     1 <1>   0.0800 
 23 H        1.9770     1.5710     0.7870 H     1 <1>   0.4500 
 24 H       -2.4930    -0.0780     1.8080 H     1 <1>   0.0800 
 25 H       -2.3700    -1.2050     0.4940 H     1 <1>   0.0800 
 26 H        2.1620     3.9230     0.2440 H     1 <1>   0.0800 
 27 H        2.9610     3.5010    -1.2570 H     1 <1>   0.0800 
 28 H        3.1350     0.8990    -1.8130 H     1 <1>   0.0800 
 29 H        2.4610    -0.1890    -0.6220 H     1 <1>   0.0800 
 30 H        3.9660     2.9730     1.5440 H     1 <1>   0.0800 
 31 H        4.6390     4.0960     0.4040 H     1 <1>   0.0800 
 32 H        4.9380    -0.0640    -0.5010 H     1 <1>   0.0800 
 33 H        4.1550     0.3810     0.9810 H     1 <1>   0.0800 
 34 H       -4.3630    -1.9570    -0.4310 H     1 <1>   0.1500 
 35 H        5.9560     1.9770     0.5280 H     1 <1>   0.0800 
 36 H        5.3380     2.2780    -1.0720 H     1 <1>   0.0800 
 37 H       -6.4650     2.1680     0.9200 H     1 <1>   0.1500 
 38 H       -6.7850    -1.6760    -0.8800 H     1 <1>   0.1500 
 39 H       -7.8360     0.4680    -0.1670 H     1 <1>   0.1500 
@<TRIPOS>BOND
  1   1   2  ar  
  2   1   3  ar  
  3   1   4  1   
  4   1   5  1   
  5   4   6  1   
  6   4  19  1   
  7   4  20  1   
  8   5   7  1   
  9   5  21  1   
 10   5  22  1   
 11   6   8  1   
 12   6   9  1   
 13   6  23  1   
 14   7  10  1   
 15   7  24  1   
 16   7  25  1   
 17   8  11  1   
 18   8  26  1   
 19   8  27  1   
 20   9  12  1   
 21   9  28  1   
 22   9  29  1   
 23  10  13  ar  
 24  10  14  ar  
 25  11  15  1   
 26  11  30  1   
 27  11  31  1   
 28  12  15  1   
 29  12  32  1   
 30  12  33  1   
 31  13  16  ar  
 32  14  17  ar  
 33  14  34  1   
 34  15  35  1   
 35  15  36  1   
 36  16  18  ar  
 37  16  37  1   
 38  17  18  ar  
 39  17  38  1   
 40  18  39  1   
@<TRIPOS>SUBSTRUCTURE
  1 ****   1 GROUP 4 **** **** 0

# MOE 2024.06 (io_trps.svl 2023.06)
