@<TRIPOS>MOLECULE
NONAME
45 45 1 0 0 
SMALL
USER_CHARGES


@<TRIPOS>ATOM
  1 P       -0.2680     0.1910     0.7780 P.3   1 <1>   0.8390 
  2 O       -0.0950     0.2960     2.2150 O.2   1 <1>  -0.7000 
  3 C       -0.8460    -1.4000     0.2300 C.ar  1 <1>  -0.1390 
  4 C        1.2650     0.4410    -0.0590 C.3   1 <1>  -0.1600 
  5 C       -1.4770     1.3440     0.2090 C.3   1 <1>  -0.1600 
  6 C       -1.0920    -2.4140     1.1490 C.ar  1 <1>  -0.1500 
  7 C       -1.0730    -1.6910    -1.1120 C.ar  1 <1>  -0.1500 
  8 C        2.2830    -0.5090     0.5660 C.3   1 <1>   0.3430 
  9 C       -2.7300     1.1400     1.0550 C.3   1 <1>   0.3430 
 10 C       -1.5420    -3.6610     0.7540 C.ar  1 <1>  -0.1500 
 11 C       -1.5230    -2.9350    -1.5180 C.ar  1 <1>  -0.1500 
 12 N        3.6480    -0.3130    -0.0090 N.4   1 <1>  -0.9590 
 13 N       -3.7930     2.1340     0.7180 N.4   1 <1>  -0.9590 
 14 C       -1.7590    -3.9240    -0.5840 C.ar  1 <1>  -0.1500 
 15 C        3.7670    -0.8310    -1.4100 C.3   1 <1>   0.2630 
 16 C        4.6600    -0.9840     0.8670 C.3   1 <1>   0.2630 
 17 C       -4.8350     2.1360     1.7940 C.3   1 <1>   0.2630 
 18 C       -4.4360     1.8660    -0.6090 C.3   1 <1>   0.2630 
 19 H        1.6100     1.4480     0.0840 H     1 <1>   0.0800 
 20 H        1.1790     0.2500    -1.1110 H     1 <1>   0.0800 
 21 H       -1.7040     1.1990    -0.8300 H     1 <1>   0.0800 
 22 H       -1.1300     2.3500     0.3520 H     1 <1>   0.0800 
 23 H       -0.9300    -2.2350     2.2010 H     1 <1>   0.1500 
 24 H       -0.9020    -0.9500    -1.8730 H     1 <1>   0.1500 
 25 H        1.9690    -1.5320     0.4240 H     1 <1>   0.0800 
 26 H        2.3130    -0.3220     1.6300 H     1 <1>   0.0800 
 27 H       -2.4580     1.2470     2.0950 H     1 <1>   0.0800 
 28 H       -3.1080     0.1380     0.9190 H     1 <1>   0.0800 
 29 H       -1.7240    -4.4280     1.4880 H     1 <1>   0.1500 
 30 H       -1.6930    -3.1410    -2.5620 H     1 <1>   0.1500 
 31 H        3.8640     0.6970    -0.0070 H     1 <1>   0.4500 
 32 H       -3.3690     3.0750     0.7000 H     1 <1>   0.4500 
 33 H       -2.1090    -4.8940    -0.8940 H     1 <1>   0.1500 
 34 H        3.5330    -1.8830    -1.4410 H     1 <1>   0.0800 
 35 H        4.7720    -0.6920    -1.7760 H     1 <1>   0.0800 
 36 H        3.0920    -0.3070    -2.0660 H     1 <1>   0.0800 
 37 H        4.4800    -2.0470     0.9030 H     1 <1>   0.0800 
 38 H        4.6080    -0.5920     1.8700 H     1 <1>   0.0800 
 39 H        5.6560    -0.8170     0.4860 H     1 <1>   0.0800 
 40 H       -5.3110     1.1710     1.8590 H     1 <1>   0.0800 
 41 H       -5.5890     2.8780     1.5850 H     1 <1>   0.0800 
 42 H       -4.3880     2.3640     2.7480 H     1 <1>   0.0800 
 43 H       -4.8760     0.8820    -0.6210 H     1 <1>   0.0800 
 44 H       -3.7100     1.9300    -1.4020 H     1 <1>   0.0800 
 45 H       -5.2120     2.5900    -0.8010 H     1 <1>   0.0800 
@<TRIPOS>BOND
  1   1   2  2   
  2   1   3  1   
  3   1   4  1   
  4   1   5  1   
  5   3   6  ar  
  6   3   7  ar  
  7   4   8  1   
  8   4  19  1   
  9   4  20  1   
 10   5   9  1   
 11   5  21  1   
 12   5  22  1   
 13   6  10  ar  
 14   6  23  1   
 15   7  11  ar  
 16   7  24  1   
 17   8  12  1   
 18   8  25  1   
 19   8  26  1   
 20   9  13  1   
 21   9  27  1   
 22   9  28  1   
 23  10  14  ar  
 24  10  29  1   
 25  11  14  ar  
 26  11  30  1   
 27  12  15  1   
 28  12  16  1   
 29  12  31  1   
 30  13  17  1   
 31  13  18  1   
 32  13  32  1   
 33  14  33  1   
 34  15  34  1   
 35  15  35  1   
 36  15  36  1   
 37  16  37  1   
 38  16  38  1   
 39  16  39  1   
 40  17  40  1   
 41  17  41  1   
 42  17  42  1   
 43  18  43  1   
 44  18  44  1   
 45  18  45  1   
@<TRIPOS>SUBSTRUCTURE
  1 ****   1 GROUP 4 **** **** 0

# MOE 2024.06 (io_trps.svl 2023.06)
