@<TRIPOS>MOLECULE
NONAME
42 43 1 0 0 
SMALL
USER_CHARGES


@<TRIPOS>ATOM
  1 BR       0.4740    -1.4780     0.4670 Br    1 <1>  -0.0580 
  2 C        1.9220    -2.3300    -0.4670 C.2   1 <1>   0.1980 
  3 O        2.8590    -2.9030     0.2460 O.3   1 <1>  -0.2800 
  4 C        2.1280    -2.4310    -1.7940 C.2   1 <1>  -0.1500 
  5 C        3.7410    -3.4170    -0.6160 C.2   1 <1>   0.0550 
  6 C        3.3250    -3.1450    -1.8900 C.2   1 <1>  -0.1500 
  7 C        4.9080    -4.1200    -0.1420 C.2   1 <1>   0.7150 
  8 O        5.7390    -4.5690    -0.9130 O.2   1 <1>  -0.5700 
  9 N        5.1220    -4.2820     1.1940 N.am  1 <1>  -0.7300 
 10 C        6.3090    -4.9600     1.8070 C.3   1 <1>   0.2010 
 11 C        7.5820    -4.1140     1.7810 C.2   1 <1>   0.5690 
 12 O        8.1270    -3.8640     2.8300 O.2   1 <1>  -0.5700 
 13 N        8.0500    -3.6950     0.5680 N.am  1 <1>  -0.5470 
 14 C        9.1940    -2.9410     0.2700 C.ar  1 <1>   0.1170 
 15 C       10.2610    -3.5090    -0.4430 C.ar  1 <1>  -0.1430 
 16 C        9.2600    -1.5980     0.6610 C.ar  1 <1>  -0.1430 
 17 C       11.3680    -2.7230    -0.7310 C.ar  1 <1>  -0.1500 
 18 C       10.3050    -4.9670    -0.9310 C.3   1 <1>   0.0630 
 19 C       10.3800    -0.8430     0.3610 C.ar  1 <1>  -0.1500 
 20 C        8.1210    -0.9200     1.4150 C.3   1 <1>  -0.0970 
 21 C       11.4330    -1.4020    -0.3330 C.ar  1 <1>  -0.1500 
 22 C        9.1890    -5.3010    -1.9290 C.3   1 <1>  -0.2400 
 23 C       10.3440    -5.9680     0.2280 C.3   1 <1>  -0.2400 
 24 H        1.5270    -2.0580    -2.6030 H     1 <1>   0.1500 
 25 H        3.8170    -3.4240    -2.8060 H     1 <1>   0.1500 
 26 H        4.4800    -3.8070     1.8340 H     1 <1>   0.3700 
 27 H        6.5040    -5.8760     1.2770 H     1 <1>   0.0800 
 28 H        6.0830    -5.2110     2.8270 H     1 <1>   0.0800 
 29 H        7.5070    -4.0100    -0.2450 H     1 <1>   0.3700 
 30 H       12.2030    -3.1330    -1.2710 H     1 <1>   0.1500 
 31 H       11.2280    -5.1010    -1.4690 H     1 <1>   0.0800 
 32 H       10.4400     0.1860     0.6660 H     1 <1>   0.1500 
 33 H        7.1750    -1.1730     0.9740 H     1 <1>   0.0800 
 34 H        8.2250     0.1490     1.3910 H     1 <1>   0.0800 
 35 H        8.1270    -1.2390     2.4420 H     1 <1>   0.0800 
 36 H       12.3020    -0.8110    -0.5630 H     1 <1>   0.1500 
 37 H        8.2350    -5.3800    -1.4450 H     1 <1>   0.0800 
 38 H        9.3960    -6.2410    -2.4080 H     1 <1>   0.0800 
 39 H        9.1320    -4.5390    -2.6850 H     1 <1>   0.0800 
 40 H        9.4150    -5.9830     0.7640 H     1 <1>   0.0800 
 41 H       11.1270    -5.6980     0.9150 H     1 <1>   0.0800 
 42 H       10.5390    -6.9580    -0.1430 H     1 <1>   0.0800 
@<TRIPOS>BOND
  1   1   2  1   
  2   2   3  1   
  3   2   4  2   
  4   3   5  1   
  5   4   6  1   
  6   4  24  1   
  7   5   6  2   
  8   5   7  1   
  9   6  25  1   
 10   7   8  2   
 11   7   9  am  
 12   9  10  1   
 13   9  26  1   
 14  10  11  1   
 15  10  27  1   
 16  10  28  1   
 17  11  12  2   
 18  11  13  am  
 19  13  14  1   
 20  13  29  1   
 21  14  15  ar  
 22  14  16  ar  
 23  15  17  ar  
 24  15  18  1   
 25  16  19  ar  
 26  16  20  1   
 27  17  21  ar  
 28  17  30  1   
 29  18  22  1   
 30  18  23  1   
 31  18  31  1   
 32  19  21  ar  
 33  19  32  1   
 34  20  33  1   
 35  20  34  1   
 36  20  35  1   
 37  21  36  1   
 38  22  37  1   
 39  22  38  1   
 40  22  39  1   
 41  23  40  1   
 42  23  41  1   
 43  23  42  1   
@<TRIPOS>SUBSTRUCTURE
  1 ****  13 GROUP 4 **** **** 0

# MOE 2024.06 (io_trps.svl 2023.06)
