@<TRIPOS>MOLECULE
NONAME
50 51 1 0 0 
SMALL
USER_CHARGES


@<TRIPOS>ATOM
  1 O       -0.8710     1.1940    -0.7710 O.2   1 <1>  -0.5700 
  2 C       -0.5920     1.6480     0.3230 C.2   1 <1>   0.6900 
  3 N       -1.5900     2.0310     1.1650 N.am  1 <1>  -0.6600 
  4 N        0.6850     1.8450     0.7090 N.am  1 <1>  -0.7300 
  5 C       -1.8080     3.4940     1.3160 C.3   1 <1>   0.1400 
  6 C       -2.8640     1.2570     1.1160 C.3   1 <1>   0.1400 
  7 C        1.8760     1.4680    -0.0800 C.3   1 <1>   0.1400 
  8 C       -2.6810     4.0120     0.1540 C.3   1 <1>   0.3430 
  9 C       -3.7500     1.7640    -0.0400 C.3   1 <1>   0.3430 
 10 C        2.9350     2.5600     0.0640 C.3   1 <1>  -0.1600 
 11 N       -3.9790     3.2550     0.0280 N.4   1 <1>  -0.9590 
 12 C        4.1930     2.2210    -0.7450 C.3   1 <1>  -0.1600 
 13 C       -4.7600     3.7340    -1.1320 C.3   1 <1>   0.4810 
 14 C        5.2530     3.3160    -0.6020 C.3   1 <1>  -0.2400 
 15 C       -6.1800     3.2720    -0.9260 C.2   1 <1>  -0.2880 
 16 C       -7.1860     4.0540    -0.4990 C.2   1 <1>  -0.1780 
 17 C       -8.5640     3.6750    -0.2730 C.ar  1 <1>   0.0280 
 18 C       -9.3900     4.4870     0.5010 C.ar  1 <1>  -0.1500 
 19 C       -9.1170     2.5110    -0.8040 C.ar  1 <1>  -0.1500 
 20 C      -10.7090     4.1480     0.7440 C.ar  1 <1>  -0.1500 
 21 C      -10.4350     2.1670    -0.5640 C.ar  1 <1>  -0.1500 
 22 C      -11.2340     2.9850     0.2130 C.ar  1 <1>  -0.1500 
 23 H        0.8470     2.0220     1.6990 H     1 <1>   0.3700 
 24 H       -2.2820     3.6950     2.2610 H     1 <1>   0.0800 
 25 H       -0.8600     4.0060     1.3050 H     1 <1>   0.0800 
 26 H       -2.6430     0.2140     0.9620 H     1 <1>   0.0800 
 27 H       -3.3830     1.3500     2.0540 H     1 <1>   0.0800 
 28 H        2.2590     0.5280     0.2820 H     1 <1>   0.0800 
 29 H        1.6080     1.3500    -1.1170 H     1 <1>   0.0800 
 30 H       -2.1160     3.9060    -0.7590 H     1 <1>   0.0800 
 31 H       -2.8790     5.0610     0.3010 H     1 <1>   0.0800 
 32 H       -4.6920     1.2420    -0.0150 H     1 <1>   0.0800 
 33 H       -3.2590     1.5150    -0.9680 H     1 <1>   0.0800 
 34 H        2.5300     3.4930    -0.2890 H     1 <1>   0.0800 
 35 H        3.2000     2.6670     1.1010 H     1 <1>   0.0800 
 36 H       -4.5560     3.4430     0.8580 H     1 <1>   0.4500 
 37 H        4.6040     1.2850    -0.4040 H     1 <1>   0.0800 
 38 H        3.9370     2.1120    -1.7860 H     1 <1>   0.0800 
 39 H       -4.7420     4.8120    -1.1650 H     1 <1>   0.0800 
 40 H       -4.3570     3.3530    -2.0580 H     1 <1>   0.0800 
 41 H        5.5450     3.4270     0.4280 H     1 <1>   0.0800 
 42 H        4.8730     4.2580    -0.9580 H     1 <1>   0.0800 
 43 H        6.1250     3.0620    -1.1780 H     1 <1>   0.0800 
 44 H       -6.3190     2.2310    -1.1590 H     1 <1>   0.1500 
 45 H       -7.0010     5.0920    -0.2780 H     1 <1>   0.1500 
 46 H       -9.0030     5.3960     0.9230 H     1 <1>   0.1500 
 47 H       -8.5230     1.8630    -1.4200 H     1 <1>   0.1500 
 48 H      -11.3300     4.7890     1.3470 H     1 <1>   0.1500 
 49 H      -10.8440     1.2630    -0.9830 H     1 <1>   0.1500 
 50 H      -12.2600     2.7190     0.4010 H     1 <1>   0.1500 
@<TRIPOS>BOND
  1   1   2  2   
  2   2   3  am  
  3   2   4  am  
  4   3   5  1   
  5   3   6  1   
  6   4   7  1   
  7   4  23  1   
  8   5   8  1   
  9   5  24  1   
 10   5  25  1   
 11   6   9  1   
 12   6  26  1   
 13   6  27  1   
 14   7  10  1   
 15   7  28  1   
 16   7  29  1   
 17   8  11  1   
 18   8  30  1   
 19   8  31  1   
 20   9  11  1   
 21   9  32  1   
 22   9  33  1   
 23  10  12  1   
 24  10  34  1   
 25  10  35  1   
 26  11  13  1   
 27  11  36  1   
 28  12  14  1   
 29  12  37  1   
 30  12  38  1   
 31  13  15  1   
 32  13  39  1   
 33  13  40  1   
 34  14  41  1   
 35  14  42  1   
 36  14  43  1   
 37  15  16  2   
 38  15  44  1   
 39  16  17  1   
 40  16  45  1   
 41  17  18  ar  
 42  17  19  ar  
 43  18  20  ar  
 44  18  46  1   
 45  19  21  ar  
 46  19  47  1   
 47  20  22  ar  
 48  20  48  1   
 49  21  22  ar  
 50  21  49  1   
 51  22  50  1   
@<TRIPOS>SUBSTRUCTURE
  1 ****  11 GROUP 4 **** **** 0

# MOE 2024.06 (io_trps.svl 2023.06)
