@<TRIPOS>MOLECULE
NONAME
43 44 1 0 0 
SMALL
USER_CHARGES


@<TRIPOS>ATOM
  1 S        0.0670     1.0040     2.0750 S.o2  1 <1>   1.3330 
  2 O        0.6200    -0.2340     1.5840 O.2   1 <1>  -0.6500 
  3 O        0.6170     1.6280     3.2540 O.2   1 <1>  -0.6500 
  4 N        0.1830     2.1680     0.8020 N.am  1 <1>  -0.6930 
  5 C       -1.6930     0.8520     2.3000 C.3   1 <1>  -0.1350 
  6 C       -0.5260     2.0790    -0.3980 C.ar  1 <1>   0.1990 
  7 C        1.2630     3.1980     0.9660 C.3   1 <1>   0.2570 
  8 C       -0.6480     0.8790    -1.0950 C.ar  1 <1>  -0.1500 
  9 C       -1.1420     3.2090    -0.9270 C.ar  1 <1>  -0.1500 
 10 C        1.9890     3.6130    -0.3200 C.2   1 <1>   0.5690 
 11 C       -1.3710     0.8090    -2.2720 C.ar  1 <1>  -0.1500 
 12 C       -1.8640     3.1450    -2.1050 C.ar  1 <1>  -0.1500 
 13 O        1.8010     4.7430    -0.7150 O.2   1 <1>  -0.5700 
 14 N        2.8400     2.7530    -0.9750 N.am  1 <1>  -0.6600 
 15 C       -1.9830     1.9420    -2.7780 C.ar  1 <1>  -0.1500 
 16 C        3.5870     3.1790    -2.1870 C.3   1 <1>   0.1400 
 17 C        3.0930     1.3420    -0.5760 C.3   1 <1>   0.1400 
 18 C        5.0300     3.5600    -1.8380 C.3   1 <1>  -0.1600 
 19 C        4.2080     1.2360     0.4730 C.3   1 <1>  -0.1600 
 20 C        5.8450     2.4740    -1.1090 C.3   1 <1>  -0.1600 
 21 C        5.3700     2.2370     0.3350 C.3   1 <1>  -0.1600 
 22 H       -1.9030     0.1720     3.1010 H     1 <1>   0.0800 
 23 H       -2.1530     0.4820     1.4050 H     1 <1>   0.0800 
 24 H       -2.1180     1.8070     2.5380 H     1 <1>   0.0800 
 25 H        2.0110     2.8370     1.6460 H     1 <1>   0.0800 
 26 H        0.8310     4.0760     1.4090 H     1 <1>   0.0800 
 27 H       -0.1680    -0.0090    -0.7290 H     1 <1>   0.1500 
 28 H       -1.0510     4.1490    -0.4140 H     1 <1>   0.1500 
 29 H       -1.4560    -0.1270    -2.7970 H     1 <1>   0.1500 
 30 H       -2.3300     4.0310    -2.4990 H     1 <1>   0.1500 
 31 H       -2.5450     1.8900    -3.6950 H     1 <1>   0.1500 
 32 H        3.0970     4.0250    -2.6400 H     1 <1>   0.0800 
 33 H        3.5820     2.3830    -2.9110 H     1 <1>   0.0800 
 34 H        3.3810     0.7790    -1.4460 H     1 <1>   0.0800 
 35 H        2.1960     0.8870    -0.2000 H     1 <1>   0.0800 
 36 H        5.0120     4.4590    -1.2460 H     1 <1>   0.0800 
 37 H        5.5330     3.8030    -2.7570 H     1 <1>   0.0800 
 38 H        4.6030     0.2360     0.4220 H     1 <1>   0.0800 
 39 H        3.7770     1.3390     1.4520 H     1 <1>   0.0800 
 40 H        6.8670     2.8100    -1.0680 H     1 <1>   0.0800 
 41 H        5.8340     1.5530    -1.6670 H     1 <1>   0.0800 
 42 H        6.1960     1.8660     0.9160 H     1 <1>   0.0800 
 43 H        5.0810     3.1790     0.7700 H     1 <1>   0.0800 
@<TRIPOS>BOND
  1   1   2  2   
  2   1   3  2   
  3   1   4  am  
  4   1   5  1   
  5   4   6  1   
  6   4   7  1   
  7   5  22  1   
  8   5  23  1   
  9   5  24  1   
 10   6   8  ar  
 11   6   9  ar  
 12   7  10  1   
 13   7  25  1   
 14   7  26  1   
 15   8  11  ar  
 16   8  27  1   
 17   9  12  ar  
 18   9  28  1   
 19  10  13  2   
 20  10  14  am  
 21  11  15  ar  
 22  11  29  1   
 23  12  15  ar  
 24  12  30  1   
 25  14  16  1   
 26  14  17  1   
 27  15  31  1   
 28  16  18  1   
 29  16  32  1   
 30  16  33  1   
 31  17  19  1   
 32  17  34  1   
 33  17  35  1   
 34  18  20  1   
 35  18  36  1   
 36  18  37  1   
 37  19  21  1   
 38  19  38  1   
 39  19  39  1   
 40  20  21  1   
 41  20  40  1   
 42  20  41  1   
 43  21  42  1   
 44  21  43  1   
@<TRIPOS>SUBSTRUCTURE
  1 ****   4 GROUP 4 **** **** 0

# MOE 2024.06 (io_trps.svl 2023.06)
