@<TRIPOS>MOLECULE
NONAME
34 36 1 0 0 
SMALL
USER_CHARGES


@<TRIPOS>ATOM
  1 S        1.6470     0.7110     1.0060 S.3   1 <1>  -0.0800 
  2 C        2.3340     0.6970    -0.5840 C.2   1 <1>   0.4420 
  3 C        0.1090     0.4440     0.2630 C.2   1 <1>   0.2930 
  4 N        1.4510     0.5070    -1.4950 N.2   1 <1>  -0.3380 
  5 N        3.6970     0.8830    -0.6660 N.am  1 <1>  -0.4940 
  6 N        0.1820     0.3630    -1.0040 N.2   1 <1>  -0.3380 
  7 C       -1.1030     0.3390     1.1720 C.3   1 <1>  -0.0150 
  8 C        4.5220     0.9070    -1.7540 C.2   1 <1>   0.5690 
  9 C       -2.4610     0.7630     0.6990 C.3   1 <1>  -0.2000 
 10 C       -1.7390     1.5760     1.7310 C.3   1 <1>  -0.2000 
 11 O        4.1420     0.7550    -2.8860 O.2   1 <1>  -0.5700 
 12 C        6.0060     1.1370    -1.5200 C.3   1 <1>   0.0440 
 13 C        6.3610     1.1800    -0.0320 C.ar  1 <1>  -0.1430 
 14 C        6.5380     0.0200     0.7190 C.ar  1 <1>  -0.1430 
 15 C        6.4760     2.4180     0.5840 C.ar  1 <1>  -0.1500 
 16 C        6.8240     0.1230     2.0720 C.ar  1 <1>  -0.1500 
 17 C        6.4290    -1.3690     0.1010 C.3   1 <1>  -0.0970 
 18 C        6.7610     2.5100     1.9330 C.ar  1 <1>  -0.1500 
 19 C        6.9340     1.3600     2.6790 C.ar  1 <1>  -0.1500 
 20 H        4.1810     1.0020     0.2260 H     1 <1>   0.3700 
 21 H       -1.0570    -0.5280     1.8060 H     1 <1>   0.1000 
 22 H       -3.3140     0.1790     0.9950 H     1 <1>   0.1000 
 23 H       -2.5550     1.1540    -0.3010 H     1 <1>   0.1000 
 24 H       -1.3490     2.5370     1.4420 H     1 <1>   0.1000 
 25 H       -2.0940     1.5610     2.7460 H     1 <1>   0.1000 
 26 H        6.2770     2.0630    -1.9910 H     1 <1>   0.0800 
 27 H        6.5580     0.3610    -2.0160 H     1 <1>   0.0800 
 28 H        6.3440     3.3250     0.0170 H     1 <1>   0.1500 
 29 H        6.9670    -0.7630     2.6660 H     1 <1>   0.1500 
 30 H        5.4810    -1.4940    -0.3920 H     1 <1>   0.0800 
 31 H        6.5150    -2.1330     0.8520 H     1 <1>   0.0800 
 32 H        7.2180    -1.5160    -0.6150 H     1 <1>   0.0800 
 33 H        6.8500     3.4750     2.4030 H     1 <1>   0.1500 
 34 H        7.1580     1.4270     3.7290 H     1 <1>   0.1500 
@<TRIPOS>BOND
  1   1   2  1   
  2   1   3  1   
  3   2   4  2   
  4   2   5  1   
  5   3   6  2   
  6   3   7  1   
  7   4   6  1   
  8   5   8  am  
  9   5  20  1   
 10   7   9  1   
 11   7  10  1   
 12   7  21  1   
 13   8  11  2   
 14   8  12  1   
 15   9  10  1   
 16   9  22  1   
 17   9  23  1   
 18  10  24  1   
 19  10  25  1   
 20  12  13  1   
 21  12  26  1   
 22  12  27  1   
 23  13  14  ar  
 24  13  15  ar  
 25  14  16  ar  
 26  14  17  1   
 27  15  18  ar  
 28  15  28  1   
 29  16  19  ar  
 30  16  29  1   
 31  17  30  1   
 32  17  31  1   
 33  17  32  1   
 34  18  19  ar  
 35  18  33  1   
 36  19  34  1   
@<TRIPOS>SUBSTRUCTURE
  1 ****   5 GROUP 4 **** **** 0

# MOE 2024.06 (io_trps.svl 2023.06)
