@<TRIPOS>MOLECULE
NONAME
50 51 1 0 0 
SMALL
USER_CHARGES


@<TRIPOS>ATOM
  1 O        0.3270    -1.1390    -1.9760 O.2   1 <1>  -0.5700 
  2 C       -0.7700    -0.9470    -1.4960 C.2   1 <1>   0.6900 
  3 N       -1.5700    -2.0050    -1.1530 N.am  1 <1>  -0.6600 
  4 N       -1.1870     0.3240    -1.3370 N.am  1 <1>  -0.7300 
  5 C       -1.0350    -3.3990    -1.1800 C.3   1 <1>   0.1400 
  6 C       -3.0480    -1.8930    -0.9880 C.3   1 <1>   0.1400 
  7 C       -0.9320     1.1350    -0.1340 C.3   1 <1>   0.4440 
  8 C       -1.5450    -4.2060     0.0280 C.3   1 <1>   0.3430 
  9 C       -3.5270    -2.7170     0.2220 C.3   1 <1>   0.3430 
 10 C       -1.5980     2.5080    -0.3580 C.ar  1 <1>  -0.1440 
 11 C        0.5870     1.2250     0.0660 C.3   1 <1>  -0.2400 
 12 C       -1.5660     0.4750     1.0920 C.3   1 <1>  -0.2400 
 13 N       -3.0460    -4.1450     0.1640 N.4   1 <1>  -0.9590 
 14 C       -0.9810     3.7100    -0.0200 C.ar  1 <1>  -0.1500 
 15 C       -2.8770     2.5700    -0.9020 C.ar  1 <1>  -0.1500 
 16 C       -3.5080    -4.9200     1.3550 C.3   1 <1>   0.2630 
 17 C       -1.5910     4.9460    -0.2210 C.ar  1 <1>   0.0280 
 18 C       -3.5070     3.7830    -1.1070 C.ar  1 <1>  -0.1500 
 19 C       -0.9360     6.1920     0.1240 C.2   1 <1>  -0.1670 
 20 C       -2.8670     4.9580    -0.7690 C.ar  1 <1>  -0.1500 
 21 C       -1.5260     7.1850     0.8070 C.2   1 <1>  -0.3000 
 22 C        0.5000     6.3490    -0.3550 C.3   1 <1>  -0.1020 
 23 H       -0.8930     0.8920    -2.1310 H     1 <1>   0.3700 
 24 H        0.0420    -3.3860    -1.1560 H     1 <1>   0.0800 
 25 H       -1.3340    -3.8770    -2.0970 H     1 <1>   0.0800 
 26 H       -3.5290    -2.2500    -1.8830 H     1 <1>   0.0800 
 27 H       -3.3400    -0.8670    -0.8560 H     1 <1>   0.0800 
 28 H       -1.0850    -3.8070     0.9170 H     1 <1>   0.0800 
 29 H       -1.2260    -5.2310    -0.0750 H     1 <1>   0.0800 
 30 H       -4.6030    -2.6940     0.2590 H     1 <1>   0.0800 
 31 H       -3.1560    -2.2470     1.1180 H     1 <1>   0.0800 
 32 H        1.0230     0.2480     0.1650 H     1 <1>   0.0800 
 33 H        0.8190     1.7650     0.9660 H     1 <1>   0.0800 
 34 H        1.0450     1.7270    -0.7670 H     1 <1>   0.0800 
 35 H       -1.1350    -0.4910     1.2730 H     1 <1>   0.0800 
 36 H       -2.6280     0.3890     0.9660 H     1 <1>   0.0800 
 37 H       -1.3880     1.0900     1.9560 H     1 <1>   0.0800 
 38 H       -3.4460    -4.5720    -0.6850 H     1 <1>   0.4500 
 39 H       -0.0050     3.7190     0.4210 H     1 <1>   0.1500 
 40 H       -3.3980     1.6700    -1.1750 H     1 <1>   0.1500 
 41 H       -3.1020    -4.4960     2.2600 H     1 <1>   0.0800 
 42 H       -3.1880    -5.9470     1.2820 H     1 <1>   0.0800 
 43 H       -4.5850    -4.9020     1.4200 H     1 <1>   0.0800 
 44 H       -4.4960     3.8130    -1.5300 H     1 <1>   0.1500 
 45 H       -3.3580     5.9000    -0.9340 H     1 <1>   0.1500 
 46 H       -1.0500     8.1160     1.0600 H     1 <1>   0.1500 
 47 H       -2.5370     7.1390     1.1720 H     1 <1>   0.1500 
 48 H        1.1520     5.6860     0.1830 H     1 <1>   0.0800 
 49 H        0.8450     7.3560    -0.2040 H     1 <1>   0.0800 
 50 H        0.5610     6.1240    -1.4050 H     1 <1>   0.0800 
@<TRIPOS>BOND
  1   1   2  2   
  2   2   3  am  
  3   2   4  am  
  4   3   5  1   
  5   3   6  1   
  6   4   7  1   
  7   4  23  1   
  8   5   8  1   
  9   5  24  1   
 10   5  25  1   
 11   6   9  1   
 12   6  26  1   
 13   6  27  1   
 14   7  10  1   
 15   7  11  1   
 16   7  12  1   
 17   8  13  1   
 18   8  28  1   
 19   8  29  1   
 20   9  13  1   
 21   9  30  1   
 22   9  31  1   
 23  10  14  ar  
 24  10  15  ar  
 25  11  32  1   
 26  11  33  1   
 27  11  34  1   
 28  12  35  1   
 29  12  36  1   
 30  12  37  1   
 31  13  16  1   
 32  13  38  1   
 33  14  17  ar  
 34  14  39  1   
 35  15  18  ar  
 36  15  40  1   
 37  16  41  1   
 38  16  42  1   
 39  16  43  1   
 40  17  19  1   
 41  17  20  ar  
 42  18  20  ar  
 43  18  44  1   
 44  19  21  2   
 45  19  22  1   
 46  20  45  1   
 47  21  46  1   
 48  21  47  1   
 49  22  48  1   
 50  22  49  1   
 51  22  50  1   
@<TRIPOS>SUBSTRUCTURE
  1 ****   7 GROUP 4 **** **** 0

# MOE 2024.06 (io_trps.svl 2023.06)
