@<TRIPOS>MOLECULE
NONAME
45 47 1 0 0 
SMALL
USER_CHARGES


@<TRIPOS>ATOM
  1 CL       1.3660    -2.6400    -3.1500 Cl    1 <1>  -0.1770 
  2 C        1.6940    -3.0920    -1.4960 C.ar  1 <1>   0.1770 
  3 C        2.9930    -3.0670    -1.0340 C.ar  1 <1>  -0.1500 
  4 C        0.6460    -3.4650    -0.6780 C.ar  1 <1>  -0.1500 
  5 C        3.2690    -3.4240     0.2810 C.ar  1 <1>   0.1000 
  6 C        0.9120    -3.8220     0.6330 C.ar  1 <1>  -0.1500 
  7 N        4.5790    -3.4000     0.7550 N.pl3 1 <1>  -0.8380 
  8 C        2.2130    -3.8040     1.1150 C.ar  1 <1>  -0.1430 
  9 C        5.5450    -4.4210     0.2480 C.3   1 <1>   0.2090 
 10 C        5.1930    -2.0750     1.0660 C.3   1 <1>   0.2090 
 11 C        2.4820    -4.2010     2.5590 C.3   1 <1>  -0.0970 
 12 C        6.5040    -3.8540    -0.8180 C.3   1 <1>   0.1960 
 13 C        6.1460    -1.5990    -0.0470 C.3   1 <1>   0.1960 
 14 N        7.1670    -2.6100    -0.3850 N.am  1 <1>  -0.8490 
 15 S        8.2540    -2.0590    -1.5610 S.o2  1 <1>   1.5010 
 16 O        7.4470    -1.5040    -2.6270 O.2   1 <1>  -0.6500 
 17 O        9.1500    -3.1590    -1.8450 O.2   1 <1>  -0.6500 
 18 C        9.1430    -0.7430    -0.7110 C.2   1 <1>  -0.0630 
 19 C        9.8860    -0.8830     0.4580 C.2   1 <1>   0.1080 
 20 C        9.2530     0.5790    -1.0010 C.2   1 <1>  -0.3020 
 21 N       10.3990     0.2380     0.8600 N.2   1 <1>  -0.7070 
 22 C       10.1020    -2.1760     1.2170 C.3   1 <1>  -0.0590 
 23 N       10.0130     1.1420    -0.0470 N.pl3 1 <1>   0.3140 
 24 C       10.4160     2.5490     0.0540 C.3   1 <1>   0.0160 
 25 H        3.7830    -2.7710    -1.6940 H     1 <1>   0.1500 
 26 H       -0.3580    -3.4760    -1.0620 H     1 <1>   0.1500 
 27 H        0.0990    -4.1140     1.2750 H     1 <1>   0.1500 
 28 H        5.0020    -5.2530    -0.1660 H     1 <1>   0.0800 
 29 H        6.1230    -4.7890     1.0770 H     1 <1>   0.0800 
 30 H        5.7410    -2.1530     1.9880 H     1 <1>   0.0800 
 31 H        4.4150    -1.3450     1.2070 H     1 <1>   0.0800 
 32 H        2.9380    -3.3800     3.0810 H     1 <1>   0.0800 
 33 H        3.1550    -5.0390     2.5840 H     1 <1>   0.0800 
 34 H        1.5750    -4.4720     3.0670 H     1 <1>   0.0800 
 35 H        5.9540    -3.6770    -1.7270 H     1 <1>   0.0800 
 36 H        7.2490    -4.6030    -1.0300 H     1 <1>   0.0800 
 37 H        6.6280    -0.6960     0.2860 H     1 <1>   0.0800 
 38 H        5.5620    -1.3560    -0.9200 H     1 <1>   0.0800 
 39 H        8.8340     1.1250    -1.8260 H     1 <1>   0.1500 
 40 H       10.4960    -2.9290     0.5600 H     1 <1>   0.0800 
 41 H        9.1730    -2.5180     1.6330 H     1 <1>   0.0800 
 42 H       10.8030    -2.0170     2.0170 H     1 <1>   0.0800 
 43 H        9.9180     3.1250    -0.7030 H     1 <1>   0.0800 
 44 H       11.4800     2.6150    -0.0760 H     1 <1>   0.0800 
 45 H       10.1510     2.9170     1.0270 H     1 <1>   0.0800 
@<TRIPOS>BOND
  1   1   2  1   
  2   2   3  ar  
  3   2   4  ar  
  4   3   5  ar  
  5   3  25  1   
  6   4   6  ar  
  7   4  26  1   
  8   5   7  1   
  9   5   8  ar  
 10   6   8  ar  
 11   6  27  1   
 12   7   9  1   
 13   7  10  1   
 14   8  11  1   
 15   9  12  1   
 16   9  28  1   
 17   9  29  1   
 18  10  13  1   
 19  10  30  1   
 20  10  31  1   
 21  11  32  1   
 22  11  33  1   
 23  11  34  1   
 24  12  14  1   
 25  12  35  1   
 26  12  36  1   
 27  13  14  1   
 28  13  37  1   
 29  13  38  1   
 30  14  15  am  
 31  15  16  2   
 32  15  17  2   
 33  15  18  1   
 34  18  19  1   
 35  18  20  2   
 36  19  21  2   
 37  19  22  1   
 38  20  23  1   
 39  20  39  1   
 40  21  23  1   
 41  22  40  1   
 42  22  41  1   
 43  22  42  1   
 44  23  24  1   
 45  24  43  1   
 46  24  44  1   
 47  24  45  1   
@<TRIPOS>SUBSTRUCTURE
  1 ****  13 GROUP 4 **** **** 0

# MOE 2024.06 (io_trps.svl 2023.06)
