@<TRIPOS>MOLECULE
NONAME
36 38 1 0 0 
SMALL
USER_CHARGES


@<TRIPOS>ATOM
  1 O       -1.1400    -0.3670    -2.3430 O.2   1 <1>  -0.5700 
  2 C       -1.7620    -0.5600    -1.3140 C.2   1 <1>   0.5440 
  3 N       -1.3530    -1.5720    -0.4770 N.am  1 <1>  -0.6600 
  4 C       -2.9140     0.2560    -1.0060 C.ar  1 <1>   0.0860 
  5 C       -2.0190    -1.9540     0.7860 C.3   1 <1>   0.1400 
  6 C       -0.2010    -2.4490    -0.7670 C.3   1 <1>   0.1400 
  7 C       -2.9970     1.1310     0.0710 C.ar  1 <1>   0.0820 
  8 C       -4.0390     0.1300    -1.8440 C.ar  1 <1>  -0.1500 
  9 C       -1.3910    -3.2930     1.1590 C.3   1 <1>  -0.1600 
 10 C       -0.0120    -3.2700     0.5040 C.3   1 <1>  -0.1600 
 11 O       -1.9490     1.3860     0.8870 O.3   1 <1>  -0.3620 
 12 C       -4.2050     1.8130     0.3770 C.ar  1 <1>   0.0000 
 13 C       -5.1990     0.8000    -1.5900 C.ar  1 <1>  -0.1500 
 14 C       -0.6600     1.6540     0.3720 C.3   1 <1>   0.0400 
 15 C       -5.3210     1.6460    -0.4720 C.ar  1 <1>   0.0000 
 16 C       -4.3520     2.6660     1.4940 C.ar  1 <1>  -0.1500 
 17 C       -6.5180     2.3270    -0.1810 C.ar  1 <1>  -0.1500 
 18 C       -5.5260     3.3160     1.7570 C.ar  1 <1>  -0.1500 
 19 C       -6.6240     3.1460     0.9090 C.ar  1 <1>  -0.1500 
 20 H       -3.0850    -2.0370     0.6560 H     1 <1>   0.0800 
 21 H       -1.8000    -1.2150     1.5380 H     1 <1>   0.0800 
 22 H        0.6730    -1.8660    -1.0040 H     1 <1>   0.0800 
 23 H       -0.4470    -3.0850    -1.6000 H     1 <1>   0.0800 
 24 H       -3.9570    -0.5190    -2.6990 H     1 <1>   0.1500 
 25 H       -1.9840    -4.0850     0.7350 H     1 <1>   0.0800 
 26 H       -1.3390    -3.4260     2.2250 H     1 <1>   0.0800 
 27 H        0.6880    -2.7620     1.1440 H     1 <1>   0.0800 
 28 H        0.3590    -4.2560     0.2900 H     1 <1>   0.0800 
 29 H       -6.0460     0.6890    -2.2430 H     1 <1>   0.1500 
 30 H       -0.1120     0.7320     0.2970 H     1 <1>   0.0800 
 31 H       -0.1590     2.3180     1.0520 H     1 <1>   0.0800 
 32 H       -0.7520     2.1190    -0.5950 H     1 <1>   0.0800 
 33 H       -3.5120     2.8020     2.1510 H     1 <1>   0.1500 
 34 H       -7.3590     2.1930    -0.8380 H     1 <1>   0.1500 
 35 H       -5.6190     3.9620     2.6120 H     1 <1>   0.1500 
 36 H       -7.5410     3.6640     1.1270 H     1 <1>   0.1500 
@<TRIPOS>BOND
  1   1   2  2   
  2   2   3  am  
  3   2   4  1   
  4   3   5  1   
  5   3   6  1   
  6   4   7  ar  
  7   4   8  ar  
  8   5   9  1   
  9   5  20  1   
 10   5  21  1   
 11   6  10  1   
 12   6  22  1   
 13   6  23  1   
 14   7  11  1   
 15   7  12  ar  
 16   8  13  ar  
 17   8  24  1   
 18   9  10  1   
 19   9  25  1   
 20   9  26  1   
 21  10  27  1   
 22  10  28  1   
 23  11  14  1   
 24  12  15  ar  
 25  12  16  ar  
 26  13  15  ar  
 27  13  29  1   
 28  14  30  1   
 29  14  31  1   
 30  14  32  1   
 31  15  17  ar  
 32  16  18  ar  
 33  16  33  1   
 34  17  19  ar  
 35  17  34  1   
 36  18  19  ar  
 37  18  35  1   
 38  19  36  1   
@<TRIPOS>SUBSTRUCTURE
  1 ****   7 GROUP 4 **** **** 0

# MOE 2024.06 (io_trps.svl 2023.06)
