@<TRIPOS>MOLECULE
NONAME
38 39 1 0 0 
SMALL
USER_CHARGES


@<TRIPOS>ATOM
  1 CL      -0.2450     0.6420     2.3330 Cl    1 <1>  -0.1770 
  2 C       -1.0580     1.7510     1.2550 C.ar  1 <1>   0.1770 
  3 C       -0.3500     2.6890     0.5020 C.ar  1 <1>   0.0860 
  4 C       -2.4350     1.6620     1.1950 C.ar  1 <1>  -0.1500 
  5 C        1.0910     2.8420     0.5350 C.2   1 <1>   0.5440 
  6 C       -1.1040     3.5320    -0.3170 C.ar  1 <1>  -0.1500 
  7 C       -3.1450     2.5200     0.3740 C.ar  1 <1>  -0.1500 
  8 O        1.5740     3.9560     0.4930 O.2   1 <1>  -0.5700 
  9 N        1.9290     1.7650     0.5750 N.am  1 <1>  -0.7300 
 10 C       -2.4890     3.4720    -0.3990 C.ar  1 <1>  -0.0090 
 11 C        3.4030     1.8220     0.5470 C.3   1 <1>   0.1400 
 12 S       -3.4180     4.6270    -1.4490 S.o2  1 <1>   1.4470 
 13 C        3.9090     0.7380    -0.3960 C.3   1 <1>  -0.2400 
 14 O       -2.5560     5.1680    -2.4770 O.2   1 <1>  -0.6500 
 15 O       -4.6720     4.0110    -1.8230 O.2   1 <1>  -0.6500 
 16 N       -3.7870     5.8970    -0.3900 N.am  1 <1>  -0.8490 
 17 C       -2.6220     6.7470    -0.0820 C.3   1 <1>   0.1960 
 18 C       -4.8690     6.7390    -0.9230 C.3   1 <1>   0.1960 
 19 C       -3.0100     7.8980     0.8630 C.3   1 <1>   0.1200 
 20 C       -5.2000     7.8980     0.0350 C.3   1 <1>   0.1200 
 21 O       -4.0550     8.6510     0.3160 O.3   1 <1>  -0.5600 
 22 H       -2.9500     0.9270     1.7900 H     1 <1>   0.1500 
 23 H       -0.5800     4.2640    -0.9120 H     1 <1>   0.1500 
 24 H       -4.2210     2.4540     0.3310 H     1 <1>   0.1500 
 25 H        1.5350     0.8350     0.7350 H     1 <1>   0.3700 
 26 H        3.7860     1.6630     1.5410 H     1 <1>   0.0800 
 27 H        3.7300     2.7900     0.2040 H     1 <1>   0.0800 
 28 H        3.6170    -0.2360    -0.0450 H     1 <1>   0.0800 
 29 H        4.9820     0.7750    -0.4430 H     1 <1>   0.0800 
 30 H        3.5210     0.8980    -1.3860 H     1 <1>   0.0800 
 31 H       -2.2150     7.1680    -0.9870 H     1 <1>   0.0800 
 32 H       -1.8540     6.1580     0.3870 H     1 <1>   0.0800 
 33 H       -5.7560     6.1450    -1.0630 H     1 <1>   0.0800 
 34 H       -4.5850     7.1430    -1.8820 H     1 <1>   0.0800 
 35 H       -2.1730     8.5570     1.0120 H     1 <1>   0.0800 
 36 H       -3.3250     7.5140     1.8180 H     1 <1>   0.0800 
 37 H       -5.5990     7.5190     0.9600 H     1 <1>   0.0800 
 38 H       -5.9250     8.5560    -0.4110 H     1 <1>   0.0800 
@<TRIPOS>BOND
  1   1   2  1   
  2   2   3  ar  
  3   2   4  ar  
  4   3   5  1   
  5   3   6  ar  
  6   4   7  ar  
  7   4  22  1   
  8   5   8  2   
  9   5   9  am  
 10   6  10  ar  
 11   6  23  1   
 12   7  10  ar  
 13   7  24  1   
 14   9  11  1   
 15   9  25  1   
 16  10  12  1   
 17  11  13  1   
 18  11  26  1   
 19  11  27  1   
 20  12  14  2   
 21  12  15  2   
 22  12  16  am  
 23  13  28  1   
 24  13  29  1   
 25  13  30  1   
 26  16  17  1   
 27  16  18  1   
 28  17  19  1   
 29  17  31  1   
 30  17  32  1   
 31  18  20  1   
 32  18  33  1   
 33  18  34  1   
 34  19  21  1   
 35  19  35  1   
 36  19  36  1   
 37  20  21  1   
 38  20  37  1   
 39  20  38  1   
@<TRIPOS>SUBSTRUCTURE
  1 ****   6 GROUP 4 **** **** 0

# MOE 2024.06 (io_trps.svl 2023.06)
