@<TRIPOS>MOLECULE
NONAME
43 43 1 0 0 
SMALL
USER_CHARGES


@<TRIPOS>ATOM
  1 S       -0.8060     0.9260     1.4650 S.o2  1 <1>   1.4470 
  2 O       -0.4550     0.3900     2.7630 O.2   1 <1>  -0.6500 
  3 O       -1.9290     1.8310     1.3590 O.2   1 <1>  -0.6500 
  4 N       -1.1600    -0.4170     0.4870 N.am  1 <1>  -0.8490 
  5 C        0.6460     1.6650     0.6650 C.ar  1 <1>  -0.0090 
  6 C       -2.5250    -0.9550     0.8040 C.3   1 <1>   0.1960 
  7 C       -0.1360    -1.4640     0.5920 C.3   1 <1>   0.1160 
  8 C        1.8060     1.9370     1.3800 C.ar  1 <1>  -0.1500 
  9 C        0.6310     1.9760    -0.6890 C.ar  1 <1>  -0.1500 
 10 P       -3.3070    -2.2380    -0.2060 P.3   1 <1>   1.2420 
 11 C        2.9140     2.4940     0.7650 C.ar  1 <1>  -0.1500 
 12 C        1.7360     2.5330    -1.3110 C.ar  1 <1>  -0.1500 
 13 O       -3.5030    -1.9390    -1.6250 O.2   1 <1>  -0.7000 
 14 O       -2.4650    -3.5880     0.0460 O.3   1 <1>  -0.5510 
 15 O       -4.6900    -2.5350     0.5530 O.3   1 <1>  -0.5510 
 16 C        2.8850     2.7930    -0.5860 C.ar  1 <1>  -0.1430 
 17 C       -1.8800    -4.2860    -1.0010 C.3   1 <1>   0.1200 
 18 C       -5.5400    -3.5170     0.0840 C.3   1 <1>   0.1200 
 19 C        4.0980     3.4060    -1.2630 C.3   1 <1>  -0.0970 
 20 C       -2.9100    -5.2150    -1.6390 C.3   1 <1>  -0.2400 
 21 C       -6.7910    -3.5030     0.9540 C.3   1 <1>  -0.2400 
 22 H       -3.2010    -0.1200     0.7850 H     1 <1>   0.0800 
 23 H       -2.5080    -1.2870     1.8260 H     1 <1>   0.0800 
 24 H        0.8440    -1.0440     0.4390 H     1 <1>   0.0800 
 25 H       -0.2890    -2.2130    -0.1630 H     1 <1>   0.0800 
 26 H       -0.1630    -1.9290     1.5650 H     1 <1>   0.0800 
 27 H        1.8440     1.7110     2.4330 H     1 <1>   0.1500 
 28 H       -0.2590     1.7780    -1.2640 H     1 <1>   0.1500 
 29 H        3.7990     2.6960     1.3450 H     1 <1>   0.1500 
 30 H        1.6930     2.7640    -2.3610 H     1 <1>   0.1500 
 31 H       -1.0720    -4.8670    -0.5900 H     1 <1>   0.0800 
 32 H       -1.4820    -3.5880    -1.7200 H     1 <1>   0.0800 
 33 H       -5.0390    -4.4680     0.1500 H     1 <1>   0.0800 
 34 H       -5.7840    -3.3000    -0.9440 H     1 <1>   0.0800 
 35 H        5.0030     3.0740    -0.7860 H     1 <1>   0.0800 
 36 H        4.0450     4.4780    -1.2010 H     1 <1>   0.0800 
 37 H        4.1370     3.1180    -2.2980 H     1 <1>   0.0800 
 38 H       -3.3180    -5.8830    -0.9020 H     1 <1>   0.0800 
 39 H       -2.4360    -5.8020    -2.4040 H     1 <1>   0.0800 
 40 H       -3.7000    -4.6480    -2.0980 H     1 <1>   0.0800 
 41 H       -6.5330    -3.7080     1.9780 H     1 <1>   0.0800 
 42 H       -7.4770    -4.2590     0.6160 H     1 <1>   0.0800 
 43 H       -7.2760    -2.5460     0.8900 H     1 <1>   0.0800 
@<TRIPOS>BOND
  1   1   2  2   
  2   1   3  2   
  3   1   4  am  
  4   1   5  1   
  5   4   6  1   
  6   4   7  1   
  7   5   8  ar  
  8   5   9  ar  
  9   6  10  1   
 10   6  22  1   
 11   6  23  1   
 12   7  24  1   
 13   7  25  1   
 14   7  26  1   
 15   8  11  ar  
 16   8  27  1   
 17   9  12  ar  
 18   9  28  1   
 19  10  13  2   
 20  10  14  1   
 21  10  15  1   
 22  11  16  ar  
 23  11  29  1   
 24  12  16  ar  
 25  12  30  1   
 26  14  17  1   
 27  15  18  1   
 28  16  19  1   
 29  17  20  1   
 30  17  31  1   
 31  17  32  1   
 32  18  21  1   
 33  18  33  1   
 34  18  34  1   
 35  19  35  1   
 36  19  36  1   
 37  19  37  1   
 38  20  38  1   
 39  20  39  1   
 40  20  40  1   
 41  21  41  1   
 42  21  42  1   
 43  21  43  1   
@<TRIPOS>SUBSTRUCTURE
  1 ****   4 GROUP 4 **** **** 0

# MOE 2024.06 (io_trps.svl 2023.06)
