@<TRIPOS>MOLECULE
NONAME
47 47 1 0 0 
SMALL
USER_CHARGES


@<TRIPOS>ATOM
  1 O       -4.9560     8.1000     0.1260 O.3   1 <1>  -0.3630 
  2 C       -6.1590     7.4650     0.1490 C.ar  1 <1>   0.0830 
  3 C       -3.7420     7.3860     0.1630 C.3   1 <1>   0.1200 
  4 C       -7.3050     8.2550     0.1130 C.ar  1 <1>  -0.1440 
  5 C       -6.2810     6.0770     0.2060 C.ar  1 <1>  -0.1500 
  6 C       -2.6010     8.3980     0.1250 C.3   1 <1>   0.1200 
  7 C       -8.5510     7.6510     0.1360 C.ar  1 <1>  -0.1500 
  8 C       -7.2020     9.7720     0.0500 C.3   1 <1>  -0.0960 
  9 C       -7.5300     5.4800     0.2270 C.ar  1 <1>  -0.1430 
 10 O       -1.3850     7.7110     0.1620 O.3   1 <1>  -0.5600 
 11 C       -8.6640     6.2730     0.1930 C.ar  1 <1>  -0.1500 
 12 C       -7.6550     3.9680     0.2910 C.3   1 <1>  -0.0970 
 13 C       -0.2660     8.5300     0.1340 C.3   1 <1>   0.1200 
 14 C        0.9640     7.6190     0.1810 C.3   1 <1>   0.3430 
 15 N        2.2400     8.4050     0.1540 N.4   1 <1>  -0.9060 
 16 C        3.4810     7.6260     0.1960 C.3   1 <1>   0.5030 
 17 C        4.6200     8.6390     0.1580 C.3   1 <1>  -0.2400 
 18 C        3.5600     6.7110    -1.0250 C.3   1 <1>  -0.2400 
 19 C        3.5450     6.8220     1.4940 C.3   1 <1>  -0.2400 
 20 H       -3.7030     6.7410    -0.6970 H     1 <1>   0.0800 
 21 H       -3.7120     6.8170     1.0750 H     1 <1>   0.0800 
 22 H       -5.4150     5.4470     0.2360 H     1 <1>   0.1500 
 23 H       -2.6620     9.0470     0.9820 H     1 <1>   0.0800 
 24 H       -2.6520     8.9700    -0.7850 H     1 <1>   0.0800 
 25 H       -9.4440     8.2500     0.1100 H     1 <1>   0.1500 
 26 H       -6.6660    10.0620    -0.8350 H     1 <1>   0.0800 
 27 H       -6.6710    10.1350     0.9110 H     1 <1>   0.0800 
 28 H       -8.1740    10.2270     0.0280 H     1 <1>   0.0800 
 29 H       -9.6400     5.8220     0.2120 H     1 <1>   0.1500 
 30 H       -6.8440     3.5010    -0.2370 H     1 <1>   0.0800 
 31 H       -8.5790     3.6470    -0.1560 H     1 <1>   0.0800 
 32 H       -7.6350     3.6460     1.3170 H     1 <1>   0.0800 
 33 H       -0.3000     9.1790     0.9920 H     1 <1>   0.0800 
 34 H       -0.2890     9.1020    -0.7790 H     1 <1>   0.0800 
 35 H        0.9270     6.9540    -0.6650 H     1 <1>   0.0800 
 36 H        0.9160     7.0300     1.0820 H     1 <1>   0.0800 
 37 H        2.2640     9.0480     0.9510 H     1 <1>   0.4500 
 38 H        2.2740     8.9760    -0.6960 H     1 <1>   0.4500 
 39 H        4.5960     9.2220    -0.7460 H     1 <1>   0.0800 
 40 H        5.5660     8.1260     0.1870 H     1 <1>   0.0800 
 41 H        4.5850     9.2990     1.0070 H     1 <1>   0.0800 
 42 H        4.5160     6.2160    -1.0440 H     1 <1>   0.0800 
 43 H        2.8080     5.9430    -0.9960 H     1 <1>   0.0800 
 44 H        3.4640     7.2700    -1.9380 H     1 <1>   0.0800 
 45 H        3.4380     7.4590     2.3530 H     1 <1>   0.0800 
 46 H        4.5000     6.3310     1.5680 H     1 <1>   0.0800 
 47 H        2.7930     6.0540     1.5230 H     1 <1>   0.0800 
@<TRIPOS>BOND
  1   1   2  1   
  2   1   3  1   
  3   2   4  ar  
  4   2   5  ar  
  5   3   6  1   
  6   3  20  1   
  7   3  21  1   
  8   4   7  ar  
  9   4   8  1   
 10   5   9  ar  
 11   5  22  1   
 12   6  10  1   
 13   6  23  1   
 14   6  24  1   
 15   7  11  ar  
 16   7  25  1   
 17   8  26  1   
 18   8  27  1   
 19   8  28  1   
 20   9  11  ar  
 21   9  12  1   
 22  10  13  1   
 23  11  29  1   
 24  12  30  1   
 25  12  31  1   
 26  12  32  1   
 27  13  14  1   
 28  13  33  1   
 29  13  34  1   
 30  14  15  1   
 31  14  35  1   
 32  14  36  1   
 33  15  16  1   
 34  15  37  1   
 35  15  38  1   
 36  16  17  1   
 37  16  18  1   
 38  16  19  1   
 39  17  39  1   
 40  17  40  1   
 41  17  41  1   
 42  18  42  1   
 43  18  43  1   
 44  18  44  1   
 45  19  45  1   
 46  19  46  1   
 47  19  47  1   
@<TRIPOS>SUBSTRUCTURE
  1 ****   3 GROUP 4 **** **** 0

# MOE 2024.06 (io_trps.svl 2023.06)
