@<TRIPOS>MOLECULE
NONAME
39 42 1 0 0 
SMALL
USER_CHARGES


@<TRIPOS>ATOM
  1 O        0.5070     0.5120     1.8920 O.3   1 <1>  -0.6500 
  2 N        1.4700     1.1580     1.5140 N.2   1 <1>  -0.8000 
  3 C        1.2270     2.2150     0.7670 C.2   1 <1>   0.3030 
  4 C        2.3430     2.9720     0.3230 C.ar  1 <1>   0.0860 
  5 C       -0.1910     2.7160     0.3210 C.3   1 <1>   0.0610 
  6 C        2.8490     4.0400     1.0760 C.ar  1 <1>  -0.1500 
  7 C        2.9870     2.6850    -0.8870 C.ar  1 <1>  -0.1500 
  8 C       -0.9260     1.6460    -0.5280 C.3   1 <1>  -0.1600 
  9 C       -1.0720     3.0770     1.5460 C.3   1 <1>  -0.1600 
 10 C       -0.1110     4.0020    -0.5600 C.3   1 <1>  -0.1600 
 11 C        3.9090     4.8030     0.6290 C.ar  1 <1>  -0.1500 
 12 C        4.0480     3.4440    -1.3410 C.ar  1 <1>  -0.1500 
 13 C       -2.3280     2.1220    -0.9560 C.3   1 <1>  -0.0800 
 14 C       -2.4740     3.5540     1.1190 C.3   1 <1>  -0.0800 
 15 C       -1.5020     4.4970    -1.0000 C.3   1 <1>  -0.0800 
 16 C        4.5100     4.5110    -0.5860 C.ar  1 <1>  -0.1500 
 17 C       -3.1570     2.4410     0.3030 C.3   1 <1>  -0.1600 
 18 C       -2.1950     3.3910    -1.8140 C.3   1 <1>  -0.1600 
 19 C       -2.3400     4.8160     0.2500 C.3   1 <1>  -0.1600 
 20 H        2.3830     4.2410     2.0240 H     1 <1>   0.1500 
 21 H        2.6280     1.8430    -1.4510 H     1 <1>   0.1500 
 22 H       -0.3320     1.4040    -1.3890 H     1 <1>   0.0800 
 23 H       -1.0290     0.7410     0.0440 H     1 <1>   0.0800 
 24 H       -1.1790     2.2140     2.1790 H     1 <1>   0.0800 
 25 H       -0.5800     3.8330     2.1300 H     1 <1>   0.0800 
 26 H        0.3740     4.7880    -0.0120 H     1 <1>   0.0800 
 27 H        0.4750     3.8030    -1.4390 H     1 <1>   0.0800 
 28 H        4.2720     5.6200     1.2260 H     1 <1>   0.1500 
 29 H        4.5190     3.2020    -2.2760 H     1 <1>   0.1500 
 30 H       -2.8110     1.3450    -1.5220 H     1 <1>   0.0800 
 31 H       -3.0590     3.7720     1.9960 H     1 <1>   0.0800 
 32 H       -1.3980     5.3820    -1.6030 H     1 <1>   0.0800 
 33 H        5.3360     5.1040    -0.9370 H     1 <1>   0.1500 
 34 H       -3.2420     1.5540     0.9080 H     1 <1>   0.0800 
 35 H       -4.1480     2.7470     0.0210 H     1 <1>   0.0800 
 36 H       -3.1680     3.7230    -2.1290 H     1 <1>   0.0800 
 37 H       -1.6190     3.1720    -2.6960 H     1 <1>   0.0800 
 38 H       -1.8660     5.5970     0.8170 H     1 <1>   0.0800 
 39 H       -3.3150     5.1630    -0.0410 H     1 <1>   0.0800 
@<TRIPOS>BOND
  1   1   2  1   
  2   2   3  2   
  3   3   4  1   
  4   3   5  1   
  5   4   6  ar  
  6   4   7  ar  
  7   5   8  1   
  8   5   9  1   
  9   5  10  1   
 10   6  11  ar  
 11   6  20  1   
 12   7  12  ar  
 13   7  21  1   
 14   8  13  1   
 15   8  22  1   
 16   8  23  1   
 17   9  14  1   
 18   9  24  1   
 19   9  25  1   
 20  10  15  1   
 21  10  26  1   
 22  10  27  1   
 23  11  16  ar  
 24  11  28  1   
 25  12  16  ar  
 26  12  29  1   
 27  13  17  1   
 28  13  18  1   
 29  13  30  1   
 30  14  17  1   
 31  14  19  1   
 32  14  31  1   
 33  15  18  1   
 34  15  19  1   
 35  15  32  1   
 36  16  33  1   
 37  17  34  1   
 38  17  35  1   
 39  18  36  1   
 40  18  37  1   
 41  19  38  1   
 42  19  39  1   
@<TRIPOS>SUBSTRUCTURE
  1 ****   5 GROUP 4 **** **** 0

# MOE 2024.06 (io_trps.svl 2023.06)
