@<TRIPOS>MOLECULE
NONAME
34 35 1 0 0 
SMALL
USER_CHARGES


@<TRIPOS>ATOM
  1 BR      -1.0530    -0.2400    -1.1670 Br    1 <1>  -0.1110 
  2 C       -0.0380    -1.7810    -0.6190 C.ar  1 <1>   0.1110 
  3 C        1.3260    -1.7810    -0.8060 C.ar  1 <1>  -0.1500 
  4 C       -0.7060    -2.8450    -0.0510 C.ar  1 <1>  -0.1500 
  5 C        2.0990    -2.8800    -0.4180 C.ar  1 <1>   0.0860 
  6 C        0.0330    -3.9450     0.3360 C.ar  1 <1>  -0.1500 
  7 C        1.4190    -3.9760     0.1570 C.ar  1 <1>   0.0830 
  8 C        3.5390    -2.8270    -0.6300 C.2   1 <1>   0.5440 
  9 O        2.1390    -5.0660     0.5280 O.3   1 <1>  -0.3630 
 10 O        4.0120    -2.0330    -1.4210 O.2   1 <1>  -0.5700 
 11 N        4.3970    -3.6480     0.0540 N.am  1 <1>  -0.4940 
 12 C        1.5520    -6.2680     0.9840 C.3   1 <1>   0.0400 
 13 C        5.7790    -3.8370    -0.0350 C.2   1 <1>   0.2500 
 14 N        6.3040    -4.9930     0.1510 N.2   1 <1>  -0.3380 
 15 N        6.7470    -2.9470    -0.2810 N.pl3 1 <1>   0.3140 
 16 N        7.6130    -4.8290    -0.0030 N.2   1 <1>   0.0000 
 17 N        7.8960    -3.6070    -0.2630 N.2   1 <1>  -0.4180 
 18 C        6.6640    -1.4760    -0.4660 C.3   1 <1>   0.0960 
 19 C        7.9010    -0.7270     0.0630 C.3   1 <1>  -0.1600 
 20 C        7.7300     0.7900    -0.0750 C.3   1 <1>  -0.2400 
 21 H        1.7910    -0.9210    -1.2560 H     1 <1>   0.1500 
 22 H       -1.7730    -2.8080     0.0800 H     1 <1>   0.1500 
 23 H       -0.4950    -4.7700     0.7780 H     1 <1>   0.1500 
 24 H        3.9180    -4.4260     0.5170 H     1 <1>   0.3700 
 25 H        2.3380    -6.9840     1.1480 H     1 <1>   0.0800 
 26 H        0.8770    -6.6370     0.2310 H     1 <1>   0.0800 
 27 H        1.0350    -6.0790     1.9080 H     1 <1>   0.0800 
 28 H        5.7950    -1.1210     0.0570 H     1 <1>   0.0800 
 29 H        6.5350    -1.2780    -1.5140 H     1 <1>   0.0800 
 30 H        8.7720    -1.0310    -0.4920 H     1 <1>   0.0800 
 31 H        8.0540    -0.9720     1.1000 H     1 <1>   0.0800 
 32 H        7.5920     1.0630    -1.1070 H     1 <1>   0.0800 
 33 H        8.6050     1.2940     0.2960 H     1 <1>   0.0800 
 34 H        6.8780     1.1280     0.4900 H     1 <1>   0.0800 
@<TRIPOS>BOND
  1   1   2  1   
  2   2   3  ar  
  3   2   4  ar  
  4   3   5  ar  
  5   3  21  1   
  6   4   6  ar  
  7   4  22  1   
  8   5   7  ar  
  9   5   8  1   
 10   6   7  ar  
 11   6  23  1   
 12   7   9  1   
 13   8  10  2   
 14   8  11  am  
 15   9  12  1   
 16  11  13  1   
 17  11  24  1   
 18  12  25  1   
 19  12  26  1   
 20  12  27  1   
 21  13  14  2   
 22  13  15  1   
 23  14  16  1   
 24  15  17  1   
 25  15  18  1   
 26  16  17  2   
 27  18  19  1   
 28  18  28  1   
 29  18  29  1   
 30  19  20  1   
 31  19  30  1   
 32  19  31  1   
 33  20  32  1   
 34  20  33  1   
 35  20  34  1   
@<TRIPOS>SUBSTRUCTURE
  1 ****   8 GROUP 4 **** **** 0

# MOE 2024.06 (io_trps.svl 2023.06)
