@<TRIPOS>MOLECULE
NONAME
40 41 1 0 0 
SMALL
USER_CHARGES


@<TRIPOS>ATOM
  1 CL       0.0690     0.8850    -1.8940 Cl    1 <1>  -0.1770 
  2 C        1.5720     1.2570    -1.0850 C.ar  1 <1>   0.1770 
  3 C        2.0580     2.5500    -1.1250 C.ar  1 <1>  -0.1500 
  4 C        2.2450     0.2530    -0.4160 C.ar  1 <1>  -0.1500 
  5 C        3.2500     2.8540    -0.4890 C.ar  1 <1>  -0.1440 
  6 C        3.4400     0.5390     0.2250 C.ar  1 <1>  -0.1440 
  7 C        3.9450     1.8380     0.1690 C.ar  1 <1>   0.0830 
  8 C        3.7640     4.2870    -0.5180 C.3   1 <1>  -0.0960 
  9 C        4.1670    -0.5650     0.9800 C.3   1 <1>  -0.0960 
 10 O        5.1210     2.1170     0.7750 O.3   1 <1>  -0.3630 
 11 C        6.2690     2.0120    -0.0360 C.3   1 <1>   0.1200 
 12 C        7.4900     2.3480     0.8240 C.3   1 <1>   0.1100 
 13 N        8.7450     2.3190     0.0390 N.3   1 <1>  -0.8100 
 14 C        9.1810     0.9410    -0.2770 C.3   1 <1>   0.1100 
 15 C        9.8070     3.0790     0.7290 C.3   1 <1>   0.1100 
 16 C       10.4740     0.9410    -1.1190 C.3   1 <1>   0.3430 
 17 C       11.1070     3.1110    -0.1000 C.3   1 <1>   0.3430 
 18 N       11.5660     1.7270    -0.4550 N.4   1 <1>  -0.9060 
 19 H        1.4990     3.3030    -1.6490 H     1 <1>   0.1500 
 20 H        1.8280    -0.7370    -0.4010 H     1 <1>   0.1500 
 21 H        2.9620     4.9740    -0.7200 H     1 <1>   0.0800 
 22 H        4.5100     4.3950    -1.2830 H     1 <1>   0.0800 
 23 H        4.1950     4.5480     0.4320 H     1 <1>   0.0800 
 24 H        3.5120    -1.3970     1.1640 H     1 <1>   0.0800 
 25 H        4.5140    -0.1950     1.9290 H     1 <1>   0.0800 
 26 H        5.0090    -0.9080     0.4080 H     1 <1>   0.0800 
 27 H        6.1760     2.7090    -0.8490 H     1 <1>   0.0800 
 28 H        6.3170     1.0070    -0.4140 H     1 <1>   0.0800 
 29 H        7.5510     1.6610     1.6510 H     1 <1>   0.0800 
 30 H        7.3390     3.3400     1.2160 H     1 <1>   0.0800 
 31 H        8.4130     0.4400    -0.8400 H     1 <1>   0.0800 
 32 H        9.3380     0.3860     0.6330 H     1 <1>   0.0800 
 33 H       10.0010     2.6490     1.6970 H     1 <1>   0.0800 
 34 H        9.4740     4.0930     0.8810 H     1 <1>   0.0800 
 35 H       10.2490     1.3740    -2.0800 H     1 <1>   0.0800 
 36 H       10.7950    -0.0760    -1.2800 H     1 <1>   0.0800 
 37 H       11.8730     3.6260     0.4560 H     1 <1>   0.0800 
 38 H       10.9170     3.6720    -1.0010 H     1 <1>   0.0800 
 39 H       12.3880     1.7770    -1.0700 H     1 <1>   0.4500 
 40 H       11.8490     1.2430     0.4040 H     1 <1>   0.4500 
@<TRIPOS>BOND
  1   1   2  1   
  2   2   3  ar  
  3   2   4  ar  
  4   3   5  ar  
  5   3  19  1   
  6   4   6  ar  
  7   4  20  1   
  8   5   7  ar  
  9   5   8  1   
 10   6   7  ar  
 11   6   9  1   
 12   7  10  1   
 13   8  21  1   
 14   8  22  1   
 15   8  23  1   
 16   9  24  1   
 17   9  25  1   
 18   9  26  1   
 19  10  11  1   
 20  11  12  1   
 21  11  27  1   
 22  11  28  1   
 23  12  13  1   
 24  12  29  1   
 25  12  30  1   
 26  13  14  1   
 27  13  15  1   
 28  14  16  1   
 29  14  31  1   
 30  14  32  1   
 31  15  17  1   
 32  15  33  1   
 33  15  34  1   
 34  16  18  1   
 35  16  35  1   
 36  16  36  1   
 37  17  18  1   
 38  17  37  1   
 39  17  38  1   
 40  18  39  1   
 41  18  40  1   
@<TRIPOS>SUBSTRUCTURE
  1 ****  11 GROUP 4 **** **** 0

# MOE 2024.06 (io_trps.svl 2023.06)
