@<TRIPOS>MOLECULE
NONAME
30 29 1 0 0 
SMALL
USER_CHARGES


@<TRIPOS>ATOM
  1 P        0.1130    -0.3710    -1.0700 P.3   1 <1>   0.9710 
  2 O        0.7060     0.7760    -1.7480 O.2   1 <1>  -0.7000 
  3 O        0.8440    -0.7400     0.3060 O.3   1 <1>  -0.5510 
  4 C        0.1800    -1.8320    -2.0490 C.3   1 <1>  -0.0990 
  5 C       -1.5860    -0.1020    -0.6010 C.3   1 <1>  -0.1600 
  6 C        2.2230    -0.7880     0.4260 C.3   1 <1>   0.1200 
  7 C       -0.2840    -2.9990    -1.2400 C.2   1 <1>   0.6590 
  8 C       -1.8160     1.1380     0.2780 C.3   1 <1>  -0.2400 
  9 C        2.7300     0.5890     0.8480 C.3   1 <1>  -0.2400 
 10 O       -1.4520    -3.2720    -1.1510 O.2   1 <1>  -0.5700 
 11 O        0.6620    -3.7050    -0.6400 O.3   1 <1>  -0.4300 
 12 C        0.3480    -4.8050     0.1820 C.3   1 <1>   0.1200 
 13 C        1.6510    -5.3520     0.7540 C.3   1 <1>  -0.2400 
 14 H        1.1790    -2.0300    -2.3850 H     1 <1>   0.0800 
 15 H       -0.4440    -1.7500    -2.9160 H     1 <1>   0.0800 
 16 H       -1.9690    -0.9490    -0.0620 H     1 <1>   0.0800 
 17 H       -2.1950     0.0070    -1.4800 H     1 <1>   0.0800 
 18 H        2.6560    -1.1010    -0.5090 H     1 <1>   0.0800 
 19 H        2.4570    -1.5140     1.1850 H     1 <1>   0.0800 
 20 H       -1.2610     1.0510     1.1960 H     1 <1>   0.0800 
 21 H       -2.8610     1.2420     0.5130 H     1 <1>   0.0800 
 22 H       -1.4870     2.0240    -0.2380 H     1 <1>   0.0800 
 23 H        2.5220     1.3180     0.0860 H     1 <1>   0.0800 
 24 H        3.7930     0.5520     0.9990 H     1 <1>   0.0800 
 25 H        2.2620     0.8890     1.7680 H     1 <1>   0.0800 
 26 H       -0.1560    -5.5460    -0.4160 H     1 <1>   0.0800 
 27 H       -0.3070    -4.4680     0.9680 H     1 <1>   0.0800 
 28 H        2.3000    -5.6750    -0.0400 H     1 <1>   0.0800 
 29 H        1.4420    -6.1950     1.3880 H     1 <1>   0.0800 
 30 H        2.1440    -4.5980     1.3400 H     1 <1>   0.0800 
@<TRIPOS>BOND
  1   1   2  2   
  2   1   3  1   
  3   1   4  1   
  4   1   5  1   
  5   3   6  1   
  6   4   7  1   
  7   4  14  1   
  8   4  15  1   
  9   5   8  1   
 10   5  16  1   
 11   5  17  1   
 12   6   9  1   
 13   6  18  1   
 14   6  19  1   
 15   7  10  2   
 16   7  11  1   
 17   8  20  1   
 18   8  21  1   
 19   8  22  1   
 20   9  23  1   
 21   9  24  1   
 22   9  25  1   
 23  11  12  1   
 24  12  13  1   
 25  12  26  1   
 26  12  27  1   
 27  13  28  1   
 28  13  29  1   
 29  13  30  1   
@<TRIPOS>SUBSTRUCTURE
  1 ****   3 GROUP 4 **** **** 0

# MOE 2024.06 (io_trps.svl 2023.06)
