@<TRIPOS>MOLECULE
NONAME
32 32 1 0 0 
SMALL
USER_CHARGES


@<TRIPOS>ATOM
  1 O       -0.9710    -1.2940    -1.9660 O.2   1 <1>  -0.5700 
  2 C       -0.6760    -1.8770    -0.9390 C.2   1 <1>   0.5440 
  3 N        0.5720    -1.6620    -0.3830 N.am  1 <1>  -0.6600 
  4 C       -1.6500    -2.7630    -0.3260 C.ar  1 <1>   0.0860 
  5 C        1.6390    -0.9380    -1.1270 C.3   1 <1>   0.0600 
  6 C        0.9060    -1.9680     1.0350 C.3   1 <1>   0.0600 
  7 C       -2.9570    -2.3340    -0.1080 C.ar  1 <1>  -0.1500 
  8 C       -1.3190    -4.0640     0.0540 C.ar  1 <1>  -0.1500 
  9 C       -3.9010    -3.1640     0.4850 C.ar  1 <1>   0.0820 
 10 C       -2.2490    -4.8980     0.6470 C.ar  1 <1>  -0.1500 
 11 O       -5.1880    -2.8050     0.7290 O.3   1 <1>  -0.3630 
 12 C       -3.5370    -4.4450     0.8640 C.ar  1 <1>  -0.1500 
 13 C       -5.7510    -1.5910     0.2820 C.3   1 <1>   0.2000 
 14 C       -7.0170    -1.3590     1.1020 C.3   1 <1>  -0.2400 
 15 C       -6.0760    -1.7110    -1.2090 C.3   1 <1>  -0.2400 
 16 H        1.4210    -0.9200    -2.1820 H     1 <1>   0.0800 
 17 H        2.5850    -1.4290    -0.9840 H     1 <1>   0.0800 
 18 H        1.7050     0.0750    -0.7710 H     1 <1>   0.0800 
 19 H        0.0180    -2.1860     1.6020 H     1 <1>   0.0800 
 20 H        1.3920    -1.1190     1.4850 H     1 <1>   0.0800 
 21 H        1.5690    -2.8150     1.0770 H     1 <1>   0.0800 
 22 H       -3.2040    -1.3380    -0.4200 H     1 <1>   0.1500 
 23 H       -0.3190    -4.4200    -0.1240 H     1 <1>   0.1500 
 24 H       -1.9750    -5.8980     0.9360 H     1 <1>   0.1500 
 25 H       -4.2710    -5.0830     1.3240 H     1 <1>   0.1500 
 26 H       -5.0570    -0.7910     0.4730 H     1 <1>   0.0800 
 27 H       -7.7130    -2.1640     0.9520 H     1 <1>   0.0800 
 28 H       -7.4850    -0.4380     0.8040 H     1 <1>   0.0800 
 29 H       -6.7690    -1.2920     2.1460 H     1 <1>   0.0800 
 30 H       -6.7530    -2.5290    -1.3780 H     1 <1>   0.0800 
 31 H       -5.1810    -1.8710    -1.7820 H     1 <1>   0.0800 
 32 H       -6.5380    -0.8050    -1.5570 H     1 <1>   0.0800 
@<TRIPOS>BOND
  1   1   2  2   
  2   2   3  am  
  3   2   4  1   
  4   3   5  1   
  5   3   6  1   
  6   4   7  ar  
  7   4   8  ar  
  8   5  16  1   
  9   5  17  1   
 10   5  18  1   
 11   6  19  1   
 12   6  20  1   
 13   6  21  1   
 14   7   9  ar  
 15   7  22  1   
 16   8  10  ar  
 17   8  23  1   
 18   9  11  1   
 19   9  12  ar  
 20  10  12  ar  
 21  10  24  1   
 22  11  13  1   
 23  12  25  1   
 24  13  14  1   
 25  13  15  1   
 26  13  26  1   
 27  14  27  1   
 28  14  28  1   
 29  14  29  1   
 30  15  30  1   
 31  15  31  1   
 32  15  32  1   
@<TRIPOS>SUBSTRUCTURE
  1 ****   7 GROUP 4 **** **** 0

# MOE 2024.06 (io_trps.svl 2023.06)
