@<TRIPOS>MOLECULE
NONAME
54 56 1 0 0 
SMALL
USER_CHARGES


@<TRIPOS>ATOM
  1 O       -0.3150    -1.7920    -1.6060 O.3   1 <1>  -0.3630 
  2 C       -1.2660    -1.6400    -0.6290 C.ar  1 <1>   0.0830 
  3 C       -0.4300    -1.1220    -2.8450 C.3   1 <1>   0.0400 
  4 C       -1.0670    -2.2900     0.6040 C.ar  1 <1>   0.1000 
  5 C       -2.4090    -0.8710    -0.8230 C.ar  1 <1>  -0.1500 
  6 N        0.0480    -3.0880     0.8990 N.pl3 1 <1>  -0.8380 
  7 C       -2.0220    -2.1410     1.5990 C.ar  1 <1>  -0.1500 
  8 C       -3.3480    -0.7390     0.1870 C.ar  1 <1>  -0.1500 
  9 C        1.3380    -2.3370     0.9750 C.3   1 <1>   0.2090 
 10 C        0.1260    -4.3500     0.1060 C.3   1 <1>   0.2090 
 11 C       -3.1550    -1.3740     1.3980 C.ar  1 <1>  -0.1500 
 12 C        2.4850    -3.2480     1.4550 C.3   1 <1>   0.3430 
 13 C        1.2810    -5.2450     0.5970 C.3   1 <1>   0.3430 
 14 N        2.5950    -4.5110     0.6350 N.4   1 <1>  -0.9590 
 15 C        3.7170    -5.3720     1.0880 C.3   1 <1>   0.4860 
 16 C        5.0100    -4.6050     0.8780 C.ar  1 <1>  -0.1430 
 17 C        5.5500    -4.3640    -0.3870 C.ar  1 <1>  -0.1430 
 18 C        5.6500    -4.1210     2.0080 C.ar  1 <1>  -0.1500 
 19 C        6.7100    -3.5950    -0.5030 C.ar  1 <1>  -0.1430 
 20 C        4.9010    -4.9390    -1.6500 C.3   1 <1>  -0.0970 
 21 C        6.8100    -3.3840     1.8950 C.ar  1 <1>  -0.1500 
 22 C        7.3460    -3.1150     0.6430 C.ar  1 <1>   0.0830 
 23 C        7.3110    -3.2760    -1.8770 C.3   1 <1>  -0.0970 
 24 O        8.4910    -2.3960     0.4930 O.3   1 <1>  -0.3630 
 25 C        9.2860    -1.9980     1.5890 C.3   1 <1>   0.0400 
 26 H        0.4320    -1.3650    -3.4400 H     1 <1>   0.0800 
 27 H       -0.4620    -0.0620    -2.6680 H     1 <1>   0.0800 
 28 H       -1.3220    -1.4570    -3.3430 H     1 <1>   0.0800 
 29 H       -2.5980    -0.3620    -1.7480 H     1 <1>   0.1500 
 30 H       -1.8720    -2.6350     2.5410 H     1 <1>   0.1500 
 31 H       -4.2300    -0.1420     0.0290 H     1 <1>   0.1500 
 32 H        1.2250    -1.5140     1.6600 H     1 <1>   0.0800 
 33 H        1.5850    -1.9290     0.0110 H     1 <1>   0.0800 
 34 H        0.2650    -4.1220    -0.9360 H     1 <1>   0.0800 
 35 H       -0.8060    -4.8820     0.2030 H     1 <1>   0.0800 
 36 H       -3.8830    -1.2730     2.1840 H     1 <1>   0.1500 
 37 H        2.3030    -3.5000     2.4860 H     1 <1>   0.0800 
 38 H        3.4100    -2.6960     1.4060 H     1 <1>   0.0800 
 39 H        1.3560    -6.1040    -0.0490 H     1 <1>   0.0800 
 40 H        1.0330    -5.5940     1.5860 H     1 <1>   0.0800 
 41 H        2.8300    -4.2060    -0.3170 H     1 <1>   0.4500 
 42 H        3.7450    -6.2870     0.5200 H     1 <1>   0.0800 
 43 H        3.5990    -5.6210     2.1300 H     1 <1>   0.0800 
 44 H        5.2580    -4.3110     2.9930 H     1 <1>   0.1500 
 45 H        4.2210    -5.7420    -1.4470 H     1 <1>   0.0800 
 46 H        5.6580    -5.3430    -2.3000 H     1 <1>   0.0800 
 47 H        4.3780    -4.1630    -2.1820 H     1 <1>   0.0800 
 48 H        7.2820    -3.0280     2.7910 H     1 <1>   0.1500 
 49 H        7.9210    -4.0980    -2.2050 H     1 <1>   0.0800 
 50 H        7.9240    -2.3940    -1.8490 H     1 <1>   0.0800 
 51 H        6.5460    -3.0920    -2.6070 H     1 <1>   0.0800 
 52 H       10.1580    -1.5010     1.2050 H     1 <1>   0.0800 
 53 H        9.5790    -2.8710     2.1450 H     1 <1>   0.0800 
 54 H        8.7210    -1.3180     2.2020 H     1 <1>   0.0800 
@<TRIPOS>BOND
  1   1   2  1   
  2   1   3  1   
  3   2   4  ar  
  4   2   5  ar  
  5   3  26  1   
  6   3  27  1   
  7   3  28  1   
  8   4   6  1   
  9   4   7  ar  
 10   5   8  ar  
 11   5  29  1   
 12   6   9  1   
 13   6  10  1   
 14   7  11  ar  
 15   7  30  1   
 16   8  11  ar  
 17   8  31  1   
 18   9  12  1   
 19   9  32  1   
 20   9  33  1   
 21  10  13  1   
 22  10  34  1   
 23  10  35  1   
 24  11  36  1   
 25  12  14  1   
 26  12  37  1   
 27  12  38  1   
 28  13  14  1   
 29  13  39  1   
 30  13  40  1   
 31  14  15  1   
 32  14  41  1   
 33  15  16  1   
 34  15  42  1   
 35  15  43  1   
 36  16  17  ar  
 37  16  18  ar  
 38  17  19  ar  
 39  17  20  1   
 40  18  21  ar  
 41  18  44  1   
 42  19  22  ar  
 43  19  23  1   
 44  20  45  1   
 45  20  46  1   
 46  20  47  1   
 47  21  22  ar  
 48  21  48  1   
 49  22  24  1   
 50  23  49  1   
 51  23  50  1   
 52  23  51  1   
 53  24  25  1   
 54  25  52  1   
 55  25  53  1   
 56  25  54  1   
@<TRIPOS>SUBSTRUCTURE
  1 ****  12 GROUP 4 **** **** 0

# MOE 2024.06 (io_trps.svl 2023.06)
