@<TRIPOS>MOLECULE
NONAME
50 52 1 0 0 
SMALL
USER_CHARGES


@<TRIPOS>ATOM
  1 BR       2.3820    -1.5910     0.5290 Br    1 <1>  -0.1110 
  2 C        0.8140    -2.6660     0.2290 C.ar  1 <1>   0.1110 
  3 C       -0.3130    -2.4170     0.9880 C.ar  1 <1>  -0.1500 
  4 C        0.8570    -3.6540    -0.7340 C.ar  1 <1>  -0.1500 
  5 C       -1.4460    -3.1880     0.7700 C.ar  1 <1>  -0.1440 
  6 C       -0.2740    -4.4230    -0.9460 C.ar  1 <1>  -0.1500 
  7 C       -1.4280    -4.1930    -0.1960 C.ar  1 <1>   0.0830 
  8 C       -2.7030    -2.9480     1.5830 C.3   1 <1>   0.4870 
  9 O       -2.5720    -4.9070    -0.3630 O.3   1 <1>  -0.3630 
 10 N       -3.4560    -1.8110     0.9890 N.4   1 <1>  -0.9590 
 11 C       -2.5930    -6.0780    -1.1560 C.3   1 <1>   0.0400 
 12 C       -4.5770    -1.3540     1.8870 C.3   1 <1>   0.3430 
 13 C       -3.9830    -2.1690    -0.3810 C.3   1 <1>   0.3430 
 14 C       -5.3720    -0.1750     1.2890 C.3   1 <1>   0.2090 
 15 C       -4.7850    -1.0250    -1.0350 C.3   1 <1>   0.2090 
 16 N       -5.8070    -0.4560    -0.1080 N.pl3 1 <1>  -0.8380 
 17 C       -7.1370    -0.8330    -0.2970 C.ar  1 <1>   0.1000 
 18 C       -8.0830     0.0900    -0.7420 C.ar  1 <1>  -0.1430 
 19 C       -7.5400    -2.1400    -0.0360 C.ar  1 <1>  -0.1500 
 20 C       -9.3990    -0.3050    -0.9150 C.ar  1 <1>  -0.1500 
 21 C       -7.6870     1.5280    -1.0450 C.3   1 <1>  -0.0970 
 22 C       -8.8550    -2.5330    -0.2090 C.ar  1 <1>  -0.1430 
 23 C       -9.7840    -1.6070    -0.6500 C.ar  1 <1>  -0.1500 
 24 C       -9.2960    -3.9580     0.0750 C.3   1 <1>  -0.0970 
 25 H       -0.2810    -1.6390     1.7300 H     1 <1>   0.1500 
 26 H        1.7570    -3.8160    -1.3020 H     1 <1>   0.1500 
 27 H       -0.2330    -5.1900    -1.6980 H     1 <1>   0.1500 
 28 H       -2.4260    -2.7200     2.5990 H     1 <1>   0.0800 
 29 H       -3.3130    -3.8380     1.5890 H     1 <1>   0.0800 
 30 H       -2.7970    -1.0340     0.8620 H     1 <1>   0.4500 
 31 H       -3.5680    -6.5260    -1.0730 H     1 <1>   0.0800 
 32 H       -1.8480    -6.7640    -0.7910 H     1 <1>   0.0800 
 33 H       -2.4020    -5.8150    -2.1810 H     1 <1>   0.0800 
 34 H       -4.1850    -1.0580     2.8460 H     1 <1>   0.0800 
 35 H       -5.2640    -2.1680     2.0480 H     1 <1>   0.0800 
 36 H       -4.6260    -3.0300    -0.3040 H     1 <1>   0.0800 
 37 H       -3.1660    -2.4350    -1.0320 H     1 <1>   0.0800 
 38 H       -4.7690     0.7160     1.2960 H     1 <1>   0.0800 
 39 H       -6.2390     0.0160     1.9000 H     1 <1>   0.0800 
 40 H       -5.2730    -1.3940    -1.9220 H     1 <1>   0.0800 
 41 H       -4.1150    -0.2400    -1.3400 H     1 <1>   0.0800 
 42 H       -6.8190    -2.8530     0.3060 H     1 <1>   0.1500 
 43 H      -10.1360     0.3990    -1.2570 H     1 <1>   0.1500 
 44 H       -6.9130     1.5420    -1.7910 H     1 <1>   0.0800 
 45 H       -7.3160     1.9990    -0.1530 H     1 <1>   0.0800 
 46 H       -8.5240     2.0940    -1.4100 H     1 <1>   0.0800 
 47 H      -10.8120    -1.8960    -0.7900 H     1 <1>   0.1500 
 48 H       -8.4630    -4.5720     0.3660 H     1 <1>   0.0800 
 49 H       -9.7430    -4.3840    -0.8060 H     1 <1>   0.0800 
 50 H      -10.0220    -3.9640     0.8680 H     1 <1>   0.0800 
@<TRIPOS>BOND
  1   1   2  1   
  2   2   3  ar  
  3   2   4  ar  
  4   3   5  ar  
  5   3  25  1   
  6   4   6  ar  
  7   4  26  1   
  8   5   7  ar  
  9   5   8  1   
 10   6   7  ar  
 11   6  27  1   
 12   7   9  1   
 13   8  10  1   
 14   8  28  1   
 15   8  29  1   
 16   9  11  1   
 17  10  12  1   
 18  10  13  1   
 19  10  30  1   
 20  11  31  1   
 21  11  32  1   
 22  11  33  1   
 23  12  14  1   
 24  12  34  1   
 25  12  35  1   
 26  13  15  1   
 27  13  36  1   
 28  13  37  1   
 29  14  16  1   
 30  14  38  1   
 31  14  39  1   
 32  15  16  1   
 33  15  40  1   
 34  15  41  1   
 35  16  17  1   
 36  17  18  ar  
 37  17  19  ar  
 38  18  20  ar  
 39  18  21  1   
 40  19  22  ar  
 41  19  42  1   
 42  20  23  ar  
 43  20  43  1   
 44  21  44  1   
 45  21  45  1   
 46  21  46  1   
 47  22  23  ar  
 48  22  24  1   
 49  23  47  1   
 50  24  48  1   
 51  24  49  1   
 52  24  50  1   
@<TRIPOS>SUBSTRUCTURE
  1 ****  13 GROUP 4 **** **** 0

# MOE 2024.06 (io_trps.svl 2023.06)
