@<TRIPOS>MOLECULE
NONAME
20 20 1 0 0 
SMALL
USER_CHARGES


@<TRIPOS>ATOM
  1 O       -0.5610     0.8500    -1.6810 O.co2 1 <1>  -0.9000 
  2 C       -0.3600     1.4840    -0.6310 C.2   1 <1>   0.9060 
  3 O        0.7540     1.8210    -0.2290 O.co2 1 <1>  -0.9000 
  4 C       -1.6200     1.7950     0.2030 C.3   1 <1>   0.3170 
  5 N       -2.7940     0.9710    -0.2720 N.4   1 <1>  -0.9590 
  6 C       -2.0930     3.2410     0.0660 C.3   1 <1>  -0.1600 
  7 C       -3.9970     1.8280    -0.3880 C.3   1 <1>   0.3430 
  8 C       -2.9470    -0.2880     0.4980 C.3   1 <1>   0.2630 
  9 C       -3.6070     3.1640     0.2320 C.3   1 <1>  -0.1600 
 10 H       -1.4090     1.5810     1.2340 H     1 <1>   0.0800 
 11 H       -2.4290     0.7170    -1.2240 H     1 <1>   0.4500 
 12 H       -1.8430     3.6030    -0.9170 H     1 <1>   0.0800 
 13 H       -1.6220     3.8750     0.7960 H     1 <1>   0.0800 
 14 H       -4.8430     1.3960     0.1190 H     1 <1>   0.0800 
 15 H       -4.2350     1.9670    -1.4300 H     1 <1>   0.0800 
 16 H       -3.2050    -0.0710     1.5210 H     1 <1>   0.0800 
 17 H       -2.0200    -0.8400     0.4800 H     1 <1>   0.0800 
 18 H       -3.7190    -0.8990     0.0600 H     1 <1>   0.0800 
 19 H       -4.1110     3.9860    -0.2450 H     1 <1>   0.0800 
 20 H       -3.8630     3.1550     1.2770 H     1 <1>   0.0800 
@<TRIPOS>BOND
  1   1   2  ar  
  2   2   3  ar  
  3   2   4  1   
  4   4   5  1   
  5   4   6  1   
  6   4  10  1   
  7   5   7  1   
  8   5   8  1   
  9   5  11  1   
 10   6   9  1   
 11   6  12  1   
 12   6  13  1   
 13   7   9  1   
 14   7  14  1   
 15   7  15  1   
 16   8  16  1   
 17   8  17  1   
 18   8  18  1   
 19   9  19  1   
 20   9  20  1   
@<TRIPOS>SUBSTRUCTURE
  1 ****   4 GROUP 4 **** **** 0

# MOE 2024.06 (io_trps.svl 2023.06)
