@<TRIPOS>MOLECULE
NONAME
56 57 1 0 0 
SMALL
USER_CHARGES


@<TRIPOS>ATOM
  1 N       -0.4410    -0.7490     0.5560 N.4   1 <1>  -0.9590 
  2 C        0.7130     0.1450     0.8370 C.3   1 <1>   0.4810 
  3 C       -1.7440     0.0030     0.6680 C.3   1 <1>   0.3430 
  4 C       -0.3180    -1.9480     1.4430 C.3   1 <1>   0.3430 
  5 C        1.9250    -0.3780     0.0900 C.2   1 <1>  -0.2540 
  6 C       -2.8350    -0.4480    -0.3470 C.3   1 <1>   0.3430 
  7 C       -1.2780    -3.0490     1.0110 C.3   1 <1>  -0.2400 
  8 C        1.9500    -1.4850    -0.8120 C.2   1 <1>  -0.2880 
  9 C        3.2960     0.5820     0.4910 C.3   1 <1>   0.1160 
 10 N       -4.1740     0.2380    -0.2020 N.4   1 <1>  -0.9590 
 11 C        3.5020    -1.7680    -1.4750 C.3   1 <1>  -0.0220 
 12 C        4.9540     0.6500     0.0410 C.3   1 <1>   0.0000 
 13 C        3.7750    -0.2850    -0.3430 C.3   1 <1>   0.0000 
 14 C       -5.1790    -0.4410    -1.0750 C.3   1 <1>   0.3430 
 15 C       -4.1390     1.7010    -0.5080 C.3   1 <1>   0.3430 
 16 C        4.7880    -0.6950    -1.0160 C.3   1 <1>   0.0000 
 17 C        5.9580     0.3960     1.1950 C.3   1 <1>  -0.2400 
 18 C        5.3400     1.9780    -0.6610 C.3   1 <1>  -0.2400 
 19 C       -6.5820    -0.1480    -0.5550 C.3   1 <1>  -0.2400 
 20 C       -4.0960     2.4790     0.8000 C.3   1 <1>  -0.2400 
 21 H       -0.2460    -1.0530    -0.4090 H     1 <1>   0.4500 
 22 H        0.9160     0.1810     1.8960 H     1 <1>   0.0800 
 23 H        0.5090     1.1470     0.4950 H     1 <1>   0.0800 
 24 H       -1.5540     1.0490     0.4950 H     1 <1>   0.0800 
 25 H       -2.1250    -0.1040     1.6710 H     1 <1>   0.0800 
 26 H       -0.5050    -1.6790     2.4710 H     1 <1>   0.0800 
 27 H        0.6910    -2.3320     1.3840 H     1 <1>   0.0800 
 28 H       -2.9850    -1.5080    -0.2310 H     1 <1>   0.0800 
 29 H       -2.4660    -0.2780    -1.3450 H     1 <1>   0.0800 
 30 H       -2.2950    -2.8010     1.2460 H     1 <1>   0.0800 
 31 H       -1.0380    -3.9450     1.5570 H     1 <1>   0.0800 
 32 H       -1.1720    -3.2710    -0.0360 H     1 <1>   0.0800 
 33 H        1.1780    -2.1600    -1.1400 H     1 <1>   0.1500 
 34 H        3.3770     0.4330     1.5570 H     1 <1>   0.0000 
 35 H       -4.5370     0.1320     0.7580 H     1 <1>   0.4500 
 36 H        3.4190    -1.7480    -2.5490 H     1 <1>   0.0800 
 37 H        3.8010    -2.7720    -1.2210 H     1 <1>   0.0800 
 38 H        3.3350     0.3080    -1.2510 H     1 <1>   0.0000 
 39 H        3.8650    -1.1170     0.4640 H     1 <1>   0.0000 
 40 H       -5.0240    -1.5090    -1.0570 H     1 <1>   0.0800 
 41 H       -5.0820    -0.1050    -2.0970 H     1 <1>   0.0800 
 42 H       -5.0280     1.9890    -1.0470 H     1 <1>   0.0800 
 43 H       -3.2880     1.9440    -1.1250 H     1 <1>   0.0800 
 44 H        5.0630    -0.2510    -1.9610 H     1 <1>   0.0000 
 45 H        5.7380    -0.5230     1.7100 H     1 <1>   0.0800 
 46 H        5.9220     1.2010     1.9070 H     1 <1>   0.0800 
 47 H        6.9580     0.3280     0.8050 H     1 <1>   0.0800 
 48 H        4.6700     2.2000    -1.4720 H     1 <1>   0.0800 
 49 H        6.3370     1.9090    -1.0590 H     1 <1>   0.0800 
 50 H        5.3070     2.7930     0.0390 H     1 <1>   0.0800 
 51 H       -6.6990    -0.4950     0.4560 H     1 <1>   0.0800 
 52 H       -7.2970    -0.6720    -1.1650 H     1 <1>   0.0800 
 53 H       -6.8190     0.8990    -0.6090 H     1 <1>   0.0800 
 54 H       -4.9680     2.2710     1.3950 H     1 <1>   0.0800 
 55 H       -4.1030     3.5330     0.5780 H     1 <1>   0.0800 
 56 H       -3.2100     2.2730     1.3700 H     1 <1>   0.0800 
@<TRIPOS>BOND
  1   1   2  1   
  2   1   3  1   
  3   1   4  1   
  4   1  21  1   
  5   2   5  1   
  6   2  22  1   
  7   2  23  1   
  8   3   6  1   
  9   3  24  1   
 10   3  25  1   
 11   4   7  1   
 12   4  26  1   
 13   4  27  1   
 14   5   8  2   
 15   5   9  1   
 16   6  10  1   
 17   6  28  1   
 18   6  29  1   
 19   7  30  1   
 20   7  31  1   
 21   7  32  1   
 22   8  11  1   
 23   8  33  1   
 24   9  12  1   
 25   9  13  1   
 26   9  34  1   
 27  10  14  1   
 28  10  15  1   
 29  10  35  1   
 30  11  16  1   
 31  11  36  1   
 32  11  37  1   
 33  12  16  1   
 34  12  17  1   
 35  12  18  1   
 36  13  16  1   
 37  13  38  1   
 38  13  39  1   
 39  14  19  1   
 40  14  40  1   
 41  14  41  1   
 42  15  20  1   
 43  15  42  1   
 44  15  43  1   
 45  16  44  1   
 46  17  45  1   
 47  17  46  1   
 48  17  47  1   
 49  18  48  1   
 50  18  49  1   
 51  18  50  1   
 52  19  51  1   
 53  19  52  1   
 54  19  53  1   
 55  20  54  1   
 56  20  55  1   
 57  20  56  1   
@<TRIPOS>SUBSTRUCTURE
  1 ****   2 GROUP 4 **** **** 0

# MOE 2024.06 (io_trps.svl 2023.06)
