@<TRIPOS>MOLECULE
NONAME
30 29 1 0 0 
SMALL
USER_CHARGES


@<TRIPOS>ATOM
  1 O        0.2880     0.1050     0.2260 O.2   1 <1>  -0.5700 
  2 C        1.2100     0.8250    -0.0900 C.2   1 <1>   0.5690 
  3 N        0.9740     2.0790    -0.6180 N.am  1 <1>  -0.6600 
  4 C        2.6540     0.3040     0.0850 C.3   1 <1>   0.2610 
  5 C        2.0310     3.0960    -0.8810 C.3   1 <1>   0.0600 
  6 C       -0.4100     2.5560    -0.9000 C.3   1 <1>   0.0600 
  7 O        3.2550     0.8580     1.2290 O.3   1 <1>  -0.6800 
  8 C        2.7230    -1.2410     0.1470 C.3   1 <1>   0.2610 
  9 O        2.6810    -1.7170     1.4800 O.3   1 <1>  -0.6800 
 10 C        3.9210    -1.7820    -0.6590 C.2   1 <1>   0.5690 
 11 O        3.6370    -2.3550    -1.6870 O.2   1 <1>  -0.5700 
 12 N        5.2430    -1.6340    -0.2830 N.am  1 <1>  -0.6600 
 13 C        6.3550    -2.1260    -1.1470 C.3   1 <1>   0.0600 
 14 C        5.7140    -0.9530     0.9560 C.3   1 <1>   0.0600 
 15 H        3.2170     0.6350    -0.7670 H     1 <1>   0.0800 
 16 H        2.2590     3.1180    -1.9330 H     1 <1>   0.0800 
 17 H        2.9280     2.8820    -0.3290 H     1 <1>   0.0800 
 18 H        1.6820     4.0690    -0.5790 H     1 <1>   0.0800 
 19 H       -0.4620     2.9570    -1.8960 H     1 <1>   0.0800 
 20 H       -0.6790     3.3200    -0.1930 H     1 <1>   0.0800 
 21 H       -1.1190     1.7500    -0.8200 H     1 <1>   0.0800 
 22 H        2.9410     0.3190     1.9900 H     1 <1>   0.4000 
 23 H        1.8490    -1.6360    -0.3400 H     1 <1>   0.0800 
 24 H        2.6110    -2.6920     1.4710 H     1 <1>   0.4000 
 25 H        6.9010    -2.8960    -0.6310 H     1 <1>   0.0800 
 26 H        7.0210    -1.3140    -1.3810 H     1 <1>   0.0800 
 27 H        5.9810    -2.5350    -2.0700 H     1 <1>   0.0800 
 28 H        6.6660    -1.3520     1.2590 H     1 <1>   0.0800 
 29 H        5.0240    -1.0990     1.7660 H     1 <1>   0.0800 
 30 H        5.8210     0.1010     0.7720 H     1 <1>   0.0800 
@<TRIPOS>BOND
  1   1   2  2   
  2   2   3  am  
  3   2   4  1   
  4   3   5  1   
  5   3   6  1   
  6   4   7  1   
  7   4   8  1   
  8   4  15  1   
  9   5  16  1   
 10   5  17  1   
 11   5  18  1   
 12   6  19  1   
 13   6  20  1   
 14   6  21  1   
 15   7  22  1   
 16   8   9  1   
 17   8  10  1   
 18   8  23  1   
 19   9  24  1   
 20  10  11  2   
 21  10  12  am  
 22  12  13  1   
 23  12  14  1   
 24  13  25  1   
 25  13  26  1   
 26  13  27  1   
 27  14  28  1   
 28  14  29  1   
 29  14  30  1   
@<TRIPOS>SUBSTRUCTURE
  1 ****   4 GROUP 4 **** **** 0

# MOE 2024.06 (io_trps.svl 2023.06)
