@<TRIPOS>MOLECULE
NONAME
46 49 1 0 0 
SMALL
USER_CHARGES


@<TRIPOS>ATOM
  1 BR      -0.0680     0.1360    -1.9390 Br    1 <1>  -0.1110 
  2 C       -0.7680    -1.3670    -0.9530 C.ar  1 <1>   0.1110 
  3 C        0.0510    -2.4460    -0.6480 C.ar  1 <1>   0.0830 
  4 C       -2.0970    -1.3300    -0.5780 C.ar  1 <1>  -0.1500 
  5 O        1.3430    -2.4930    -1.0340 O.3   1 <1>  -0.3630 
  6 C       -0.4890    -3.5150     0.0480 C.ar  1 <1>  -0.1500 
  7 C       -2.6330    -2.4070     0.1180 C.ar  1 <1>  -0.1430 
  8 C        2.2760    -1.8830    -0.1720 C.3   1 <1>   0.0400 
  9 C       -1.8220    -3.4930     0.4310 C.ar  1 <1>  -0.1500 
 10 C       -4.0910    -2.4040     0.5140 C.3   1 <1>   0.4870 
 11 N       -4.8310    -2.9990    -0.6180 N.4   1 <1>  -0.9060 
 12 C       -6.2910    -3.1070    -0.4850 C.3   1 <1>   0.5030 
 13 C       -6.9290    -1.7130    -0.3180 C.3   1 <1>  -0.1600 
 14 C       -6.6670    -3.9980     0.7160 C.3   1 <1>  -0.1600 
 15 C       -6.8200    -3.7520    -1.7790 C.3   1 <1>  -0.1600 
 16 C       -8.4620    -1.8480    -0.2390 C.3   1 <1>  -0.0800 
 17 C       -8.1990    -4.1400     0.7980 C.3   1 <1>  -0.0800 
 18 C       -8.3520    -3.8970    -1.7110 C.3   1 <1>  -0.0800 
 19 C       -8.8290    -2.7430     0.9610 C.3   1 <1>  -0.1600 
 20 C       -8.9820    -2.5030    -1.5320 C.3   1 <1>  -0.1600 
 21 C       -8.7220    -4.7770    -0.5030 C.3   1 <1>  -0.1600 
 22 H       -2.6830    -0.4640    -0.8350 H     1 <1>   0.1500 
 23 H        0.1390    -4.3570     0.2830 H     1 <1>   0.1500 
 24 H        3.2550    -1.9970    -0.6030 H     1 <1>   0.0800 
 25 H        2.2370    -2.3680     0.7870 H     1 <1>   0.0800 
 26 H        2.0380    -0.8380    -0.0760 H     1 <1>   0.0800 
 27 H       -2.2110    -4.3370     0.9770 H     1 <1>   0.1500 
 28 H       -4.4210    -1.3940     0.6980 H     1 <1>   0.0800 
 29 H       -4.2310    -2.9870     1.4100 H     1 <1>   0.0800 
 30 H       -4.4480    -3.9330    -0.7910 H     1 <1>   0.4500 
 31 H       -4.6190    -2.4530    -1.4570 H     1 <1>   0.4500 
 32 H       -6.6770    -1.0820    -1.1530 H     1 <1>   0.0800 
 33 H       -6.5880    -1.2380     0.5840 H     1 <1>   0.0800 
 34 H       -6.2320    -4.9760     0.6090 H     1 <1>   0.0800 
 35 H       -6.3210    -3.5680     1.6380 H     1 <1>   0.0800 
 36 H       -6.3880    -4.7280    -1.9160 H     1 <1>   0.0800 
 37 H       -6.5680    -3.1470    -2.6320 H     1 <1>   0.0800 
 38 H       -8.9130    -0.8760    -0.1180 H     1 <1>   0.0800 
 39 H       -8.4690    -4.7590     1.6390 H     1 <1>   0.0800 
 40 H       -8.7220    -4.3490    -2.6170 H     1 <1>   0.0800 
 41 H       -9.9010    -2.8360     1.0260 H     1 <1>   0.0800 
 42 H       -8.4940    -2.2890     1.8780 H     1 <1>   0.0800 
 43 H      -10.0540    -2.5940    -1.4850 H     1 <1>   0.0800 
 44 H       -8.7520    -1.8810    -2.3800 H     1 <1>   0.0800 
 45 H       -9.7920    -4.8850    -0.4480 H     1 <1>   0.0800 
 46 H       -8.3080    -5.7640    -0.6230 H     1 <1>   0.0800 
@<TRIPOS>BOND
  1   1   2  1   
  2   2   3  ar  
  3   2   4  ar  
  4   3   5  1   
  5   3   6  ar  
  6   4   7  ar  
  7   4  22  1   
  8   5   8  1   
  9   6   9  ar  
 10   6  23  1   
 11   7   9  ar  
 12   7  10  1   
 13   8  24  1   
 14   8  25  1   
 15   8  26  1   
 16   9  27  1   
 17  10  11  1   
 18  10  28  1   
 19  10  29  1   
 20  11  12  1   
 21  11  30  1   
 22  11  31  1   
 23  12  13  1   
 24  12  14  1   
 25  12  15  1   
 26  13  16  1   
 27  13  32  1   
 28  13  33  1   
 29  14  17  1   
 30  14  34  1   
 31  14  35  1   
 32  15  18  1   
 33  15  36  1   
 34  15  37  1   
 35  16  19  1   
 36  16  20  1   
 37  16  38  1   
 38  17  19  1   
 39  17  21  1   
 40  17  39  1   
 41  18  20  1   
 42  18  21  1   
 43  18  40  1   
 44  19  41  1   
 45  19  42  1   
 46  20  43  1   
 47  20  44  1   
 48  21  45  1   
 49  21  46  1   
@<TRIPOS>SUBSTRUCTURE
  1 ****  11 GROUP 4 **** **** 0

# MOE 2024.06 (io_trps.svl 2023.06)
