@<TRIPOS>MOLECULE
NONAME
31 32 1 0 0 
SMALL
USER_CHARGES


@<TRIPOS>ATOM
  1 BR      -0.6220    -0.0790    -2.1490 Br    1 <1>  -0.0580 
  2 C       -1.0760    -1.7470    -1.3060 C.2   1 <1>   0.1980 
  3 O       -2.3640    -2.0040    -1.1580 O.3   1 <1>  -0.2800 
  4 C       -0.2580    -2.7000    -0.8260 C.2   1 <1>  -0.1810 
  5 C       -2.4170    -3.1940    -0.5540 C.ar  1 <1>   0.1400 
  6 C       -1.1370    -3.6910    -0.3220 C.ar  1 <1>   0.0000 
  7 C        1.2670    -2.7060    -0.8160 C.3   1 <1>   0.0820 
  8 C       -3.5640    -3.8850    -0.1870 C.ar  1 <1>  -0.1500 
  9 C       -1.0090    -4.9410     0.2860 C.ar  1 <1>  -0.1500 
 10 C        1.8840    -4.0510    -1.1840 C.2   1 <1>   0.5690 
 11 C       -3.4340    -5.1180     0.4270 C.ar  1 <1>  -0.1440 
 12 C       -2.1480    -5.6260     0.6510 C.ar  1 <1>   0.1770 
 13 O        1.8480    -4.3650    -2.3510 O.2   1 <1>  -0.5700 
 14 N        2.4810    -4.8610    -0.2390 N.am  1 <1>  -0.6600 
 15 C       -4.6680    -5.9040     0.8440 C.3   1 <1>  -0.0970 
 16 CL      -1.9570    -7.1860     1.4220 Cl    1 <1>  -0.1770 
 17 C        3.1360    -6.1430    -0.6310 C.3   1 <1>   0.0600 
 18 C        2.5570    -4.5690     1.2210 C.3   1 <1>   0.0600 
 19 H        1.6160    -2.3730     0.1400 H     1 <1>   0.0800 
 20 H        1.6180    -1.9900    -1.5360 H     1 <1>   0.0800 
 21 H       -4.5240    -3.4470    -0.3900 H     1 <1>   0.1500 
 22 H       -0.0450    -5.3730     0.4610 H     1 <1>   0.1500 
 23 H       -5.5670    -5.3690     0.5980 H     1 <1>   0.0800 
 24 H       -4.6530    -6.0770     1.9050 H     1 <1>   0.0800 
 25 H       -4.6870    -6.8530     0.3380 H     1 <1>   0.0800 
 26 H        3.1290    -6.2720    -1.7000 H     1 <1>   0.0800 
 27 H        2.6110    -6.9700    -0.1850 H     1 <1>   0.0800 
 28 H        4.1580    -6.1480    -0.2950 H     1 <1>   0.0800 
 29 H        3.4270    -3.9700     1.4260 H     1 <1>   0.0800 
 30 H        2.6300    -5.4880     1.7780 H     1 <1>   0.0800 
 31 H        1.6770    -4.0490     1.5550 H     1 <1>   0.0800 
@<TRIPOS>BOND
  1   1   2  1   
  2   2   3  1   
  3   2   4  2   
  4   3   5  1   
  5   4   6  1   
  6   4   7  1   
  7   5   6  ar  
  8   5   8  ar  
  9   6   9  ar  
 10   7  10  1   
 11   7  19  1   
 12   7  20  1   
 13   8  11  ar  
 14   8  21  1   
 15   9  12  ar  
 16   9  22  1   
 17  10  13  2   
 18  10  14  am  
 19  11  12  ar  
 20  11  15  1   
 21  12  16  1   
 22  14  17  1   
 23  14  18  1   
 24  15  23  1   
 25  15  24  1   
 26  15  25  1   
 27  17  26  1   
 28  17  27  1   
 29  17  28  1   
 30  18  29  1   
 31  18  30  1   
 32  18  31  1   
@<TRIPOS>SUBSTRUCTURE
  1 ****   6 GROUP 4 **** **** 0

# MOE 2024.06 (io_trps.svl 2023.06)
