@<TRIPOS>MOLECULE
NONAME
38 39 1 0 0 
SMALL
USER_CHARGES


@<TRIPOS>ATOM
  1 O       -0.6270    -0.4540    -1.3890 O.2   1 <1>  -0.5700 
  2 C       -1.0780    -1.1730    -0.5350 C.2   1 <1>   0.4230 
  3 C       -2.4990    -1.2910    -0.2630 C.ar  1 <1>   0.0860 
  4 C       -0.0730    -1.9770     0.2690 C.3   1 <1>  -0.1790 
  5 C       -3.0220    -2.1270     0.7280 C.ar  1 <1>  -0.1500 
  6 C       -3.4210    -0.5510    -1.0040 C.ar  1 <1>  -0.1500 
  7 C       -4.3830    -2.2150     0.9620 C.ar  1 <1>  -0.1500 
  8 C       -4.7820    -0.6350    -0.7740 C.ar  1 <1>  -0.1500 
  9 C       -5.2810    -1.4700     0.2140 C.ar  1 <1>  -0.1430 
 10 C       -6.7810    -1.5800     0.4860 C.3   1 <1>   0.0630 
 11 C       -7.5340    -2.1150    -0.7420 C.3   1 <1>  -0.1600 
 12 C       -7.3630    -0.2330     0.9450 C.3   1 <1>  -0.1600 
 13 C       -9.0430    -2.2190    -0.4700 C.3   1 <1>  -0.1600 
 14 C       -8.8730    -0.3340     1.2120 C.3   1 <1>  -0.1600 
 15 C       -9.6350    -0.8680    -0.0170 C.3   1 <1>  -0.0190 
 16 C      -11.1340    -0.9660     0.2730 C.2   1 <1>   0.4480 
 17 O      -11.6470    -1.9600     0.6900 O.2   1 <1>  -0.5700 
 18 C      -11.9630     0.2740     0.0150 C.3   1 <1>  -0.1790 
 19 H       -0.1420    -1.7160     1.3080 H     1 <1>   0.0800 
 20 H        0.9230    -1.7600    -0.0730 H     1 <1>   0.0800 
 21 H       -0.2570    -3.0270     0.1420 H     1 <1>   0.0800 
 22 H       -2.3680    -2.7240     1.3350 H     1 <1>   0.1500 
 23 H       -3.0580     0.1050    -1.7770 H     1 <1>   0.1500 
 24 H       -4.7420    -2.8720     1.7350 H     1 <1>   0.1500 
 25 H       -5.4510    -0.0430    -1.3740 H     1 <1>   0.1500 
 26 H       -6.9300    -2.2850     1.2870 H     1 <1>   0.0800 
 27 H       -7.1490    -3.0860    -1.0000 H     1 <1>   0.0800 
 28 H       -7.3720    -1.4640    -1.5830 H     1 <1>   0.0800 
 29 H       -7.1880     0.5140     0.1910 H     1 <1>   0.0800 
 30 H       -6.8600     0.0830     1.8420 H     1 <1>   0.0800 
 31 H       -9.2140    -2.9580     0.2950 H     1 <1>   0.0800 
 32 H       -9.5470    -2.5520    -1.3610 H     1 <1>   0.0800 
 33 H       -9.2500     0.6380     1.4820 H     1 <1>   0.0800 
 34 H       -9.0450    -0.9940     2.0460 H     1 <1>   0.0800 
 35 H       -9.5030    -0.1700    -0.8250 H     1 <1>   0.0800 
 36 H      -11.5990     1.0910     0.6070 H     1 <1>   0.0800 
 37 H      -12.9880     0.0830     0.2790 H     1 <1>   0.0800 
 38 H      -11.9170     0.5350    -1.0260 H     1 <1>   0.0800 
@<TRIPOS>BOND
  1   1   2  2   
  2   2   3  1   
  3   2   4  1   
  4   3   5  ar  
  5   3   6  ar  
  6   4  19  1   
  7   4  20  1   
  8   4  21  1   
  9   5   7  ar  
 10   5  22  1   
 11   6   8  ar  
 12   6  23  1   
 13   7   9  ar  
 14   7  24  1   
 15   8   9  ar  
 16   8  25  1   
 17   9  10  1   
 18  10  11  1   
 19  10  12  1   
 20  10  26  1   
 21  11  13  1   
 22  11  27  1   
 23  11  28  1   
 24  12  14  1   
 25  12  29  1   
 26  12  30  1   
 27  13  15  1   
 28  13  31  1   
 29  13  32  1   
 30  14  15  1   
 31  14  33  1   
 32  14  34  1   
 33  15  16  1   
 34  15  35  1   
 35  16  17  2   
 36  16  18  1   
 37  18  36  1   
 38  18  37  1   
 39  18  38  1   
@<TRIPOS>SUBSTRUCTURE
  1 ****   9 GROUP 4 **** **** 0

# MOE 2024.06 (io_trps.svl 2023.06)
