@<TRIPOS>MOLECULE
NONAME
29 28 1 0 0 
SMALL
USER_CHARGES


@<TRIPOS>ATOM
  1 S       -0.1880    -2.3070    -1.6120 S.3   1 <1>  -0.4600 
  2 C       -0.9910    -1.8510    -0.0490 C.3   1 <1>   0.0700 
  3 C        1.4450    -1.5170    -1.5160 C.3   1 <1>   0.0700 
  4 C       -2.3840    -2.4790    -0.0400 C.3   1 <1>   0.1400 
  5 C        2.4080    -2.4780    -0.8190 C.3   1 <1>   0.1400 
  6 N       -3.0900    -2.1240     1.2160 N.am  1 <1>  -0.7300 
  7 N        3.7620    -1.8780    -0.7600 N.am  1 <1>  -0.7300 
  8 C       -4.1770    -1.3400     1.3900 C.2   1 <1>   0.5690 
  9 C        4.4750    -1.4690     0.3140 C.2   1 <1>   0.5690 
 10 O       -4.6280    -1.1810     2.4940 O.2   1 <1>  -0.5700 
 11 C       -4.8380    -0.6520     0.2210 C.3   1 <1>  -0.1790 
 12 O        5.5790    -1.0180     0.1630 O.2   1 <1>  -0.5700 
 13 C        3.9050    -1.5650     1.7070 C.3   1 <1>  -0.1790 
 14 H       -1.0470    -0.7770    -0.0170 H     1 <1>   0.0800 
 15 H       -0.3820    -2.2290     0.7520 H     1 <1>   0.0800 
 16 H        1.3340    -0.5950    -0.9730 H     1 <1>   0.0800 
 17 H        1.7560    -1.3230    -2.5270 H     1 <1>   0.0800 
 18 H       -2.2990    -3.5500    -0.1060 H     1 <1>   0.0800 
 19 H       -2.9380    -2.1320    -0.8940 H     1 <1>   0.0800 
 20 H        2.4570    -3.4010    -1.3720 H     1 <1>   0.0800 
 21 H        2.0500    -2.6950     0.1710 H     1 <1>   0.0800 
 22 H       -2.7420    -2.5620     2.0720 H     1 <1>   0.3700 
 23 H        4.2530    -1.7850    -1.6530 H     1 <1>   0.3700 
 24 H       -4.1280    -0.0270    -0.2850 H     1 <1>   0.0800 
 25 H       -5.6490    -0.0420     0.5730 H     1 <1>   0.0800 
 26 H       -5.2260    -1.3860    -0.4590 H     1 <1>   0.0800 
 27 H        3.7240    -2.5940     1.9560 H     1 <1>   0.0800 
 28 H        2.9890    -1.0090     1.7660 H     1 <1>   0.0800 
 29 H        4.6050    -1.1570     2.4110 H     1 <1>   0.0800 
@<TRIPOS>BOND
  1   1   2  1   
  2   1   3  1   
  3   2   4  1   
  4   2  14  1   
  5   2  15  1   
  6   3   5  1   
  7   3  16  1   
  8   3  17  1   
  9   4   6  1   
 10   4  18  1   
 11   4  19  1   
 12   5   7  1   
 13   5  20  1   
 14   5  21  1   
 15   6   8  am  
 16   6  22  1   
 17   7   9  am  
 18   7  23  1   
 19   8  10  2   
 20   8  11  1   
 21   9  12  2   
 22   9  13  1   
 23  11  24  1   
 24  11  25  1   
 25  11  26  1   
 26  13  27  1   
 27  13  28  1   
 28  13  29  1   
@<TRIPOS>SUBSTRUCTURE
  1 ****   2 GROUP 4 **** **** 0

# MOE 2024.06 (io_trps.svl 2023.06)
