@<TRIPOS>MOLECULE
NONAME
40 41 1 0 0 
SMALL
USER_CHARGES


@<TRIPOS>ATOM
  1 F       -2.6570     0.3510     2.2110 F     1 <1>  -0.3400 
  2 C       -3.3030     1.0190     1.2630 C.3   1 <1>   1.1640 
  3 F       -3.7640     0.0850     0.4360 F     1 <1>  -0.3400 
  4 F       -4.3660     1.5480     1.8670 F     1 <1>  -0.3400 
  5 C       -2.4150     2.0890     0.5790 C.ar  1 <1>  -0.1440 
  6 C       -2.6780     2.6250    -0.6920 C.ar  1 <1>  -0.1440 
  7 C       -1.2980     2.5570     1.2700 C.ar  1 <1>  -0.1500 
  8 C       -1.8250     3.5810    -1.2280 C.ar  1 <1>  -0.1500 
  9 C       -3.8820     2.2240    -1.5410 C.3   1 <1>   0.2540 
 10 C       -0.4590     3.5120     0.7280 C.ar  1 <1>  -0.1500 
 11 C       -0.7210     4.0240    -0.5260 C.ar  1 <1>  -0.1500 
 12 N       -5.1220     2.4620    -0.7880 N.3   1 <1>  -0.8100 
 13 C       -6.2960     1.7960    -1.3710 C.3   1 <1>   0.1100 
 14 C       -5.3770     3.8860    -0.4930 C.3   1 <1>   0.1100 
 15 C       -7.5070     1.9170    -0.4220 C.3   1 <1>   0.3430 
 16 C       -6.5750     4.0270     0.4660 C.3   1 <1>   0.3430 
 17 N       -7.8110     3.3520    -0.0690 N.4   1 <1>  -0.9590 
 18 C       -8.9180     3.4640     0.9350 C.3   1 <1>   0.3430 
 19 C      -10.2770     3.0070     0.3850 C.3   1 <1>   0.1200 
 20 O      -11.2190     3.2160     1.3750 O.3   1 <1>  -0.6800 
 21 H       -1.0600     2.1820     2.2520 H     1 <1>   0.1500 
 22 H       -2.0100     3.9950    -2.2040 H     1 <1>   0.1500 
 23 H       -3.7980     1.1810    -1.7960 H     1 <1>   0.0800 
 24 H       -3.9050     2.7830    -2.4620 H     1 <1>   0.0800 
 25 H        0.3990     3.8550     1.2810 H     1 <1>   0.1500 
 26 H       -0.0680     4.7650    -0.9530 H     1 <1>   0.1500 
 27 H       -6.0770     0.7510    -1.5150 H     1 <1>   0.0800 
 28 H       -6.5310     2.2250    -2.3310 H     1 <1>   0.0800 
 29 H       -5.5620     4.4280    -1.4040 H     1 <1>   0.0800 
 30 H       -4.5130     4.3200    -0.0180 H     1 <1>   0.0800 
 31 H       -7.2810     1.3650     0.4760 H     1 <1>   0.0800 
 32 H       -8.3640     1.4590    -0.8870 H     1 <1>   0.0800 
 33 H       -6.7690     5.0730     0.6370 H     1 <1>   0.0800 
 34 H       -6.2990     3.5830     1.4090 H     1 <1>   0.0800 
 35 H       -8.0780     3.8460    -0.9290 H     1 <1>   0.4500 
 36 H       -9.0150     4.4920     1.2440 H     1 <1>   0.0800 
 37 H       -8.6780     2.8740     1.8040 H     1 <1>   0.0800 
 38 H      -10.2740     1.9570     0.1490 H     1 <1>   0.0800 
 39 H      -10.5630     3.5880    -0.4740 H     1 <1>   0.0800 
 40 H      -12.1200     2.9510     1.0860 H     1 <1>   0.4000 
@<TRIPOS>BOND
  1   1   2  1   
  2   2   3  1   
  3   2   4  1   
  4   2   5  1   
  5   5   6  ar  
  6   5   7  ar  
  7   6   8  ar  
  8   6   9  1   
  9   7  10  ar  
 10   7  21  1   
 11   8  11  ar  
 12   8  22  1   
 13   9  12  1   
 14   9  23  1   
 15   9  24  1   
 16  10  11  ar  
 17  10  25  1   
 18  11  26  1   
 19  12  13  1   
 20  12  14  1   
 21  13  15  1   
 22  13  27  1   
 23  13  28  1   
 24  14  16  1   
 25  14  29  1   
 26  14  30  1   
 27  15  17  1   
 28  15  31  1   
 29  15  32  1   
 30  16  17  1   
 31  16  33  1   
 32  16  34  1   
 33  17  18  1   
 34  17  35  1   
 35  18  19  1   
 36  18  36  1   
 37  18  37  1   
 38  19  20  1   
 39  19  38  1   
 40  19  39  1   
 41  20  40  1   
@<TRIPOS>SUBSTRUCTURE
  1 ****  12 GROUP 4 **** **** 0

# MOE 2024.06 (io_trps.svl 2023.06)
