@<TRIPOS>MOLECULE
NONAME
38 39 1 0 0 
SMALL
USER_CHARGES


@<TRIPOS>ATOM
  1 S        0.5220    -0.0140     1.1770 S.3   1 <1>  -0.3320 
  2 C        0.3130    -1.6890     0.5470 C.ar  1 <1>   0.1020 
  3 C        0.5970     1.0320    -0.3680 C.3   1 <1>  -0.0360 
  4 C       -0.9730    -2.2660     0.6050 C.ar  1 <1>   0.0000 
  5 C        1.3710    -2.3940     0.0340 C.ar  1 <1>  -0.1440 
  6 C        1.7380     2.0340    -0.3570 C.2   1 <1>   0.9060 
  7 C       -1.1060    -3.5800     0.1080 C.ar  1 <1>   0.3100 
  8 C       -2.1200    -1.6210     1.1210 C.ar  1 <1>  -0.1500 
  9 C        1.1160    -3.6990    -0.4360 C.ar  1 <1>   0.1670 
 10 C        2.7850    -1.8020    -0.0160 C.3   1 <1>  -0.0170 
 11 O        2.8310     1.6970    -0.8300 O.co2 1 <1>  -0.9000 
 12 O        1.5240     3.1780     0.0590 O.co2 1 <1>  -0.9000 
 13 N       -0.0510    -4.2650    -0.4060 N.ar  1 <1>  -0.6200 
 14 C       -2.3760    -4.2030     0.1460 C.ar  1 <1>  -0.1440 
 15 C       -3.3360    -2.2440     1.1470 C.ar  1 <1>  -0.1500 
 16 C        2.2260    -4.5520    -1.0270 C.3   1 <1>  -0.0970 
 17 C        3.5430    -2.0810     1.2890 C.3   1 <1>  -0.1600 
 18 C       -3.4660    -3.5440     0.6560 C.ar  1 <1>  -0.1500 
 19 C       -2.5410    -5.6230    -0.3840 C.3   1 <1>  -0.0970 
 20 C        4.9540    -1.4850     1.2470 C.3   1 <1>  -0.2400 
 21 H       -0.3350     1.5550    -0.4420 H     1 <1>   0.0800 
 22 H        0.7170     0.3680    -1.2010 H     1 <1>   0.0800 
 23 H       -2.0330    -0.6200     1.5030 H     1 <1>   0.1500 
 24 H        2.7450    -0.7420    -0.1710 H     1 <1>   0.0800 
 25 H        3.3370    -2.1890    -0.8510 H     1 <1>   0.0800 
 26 H       -4.2020    -1.7430     1.5430 H     1 <1>   0.1500 
 27 H        2.5570    -4.1250    -1.9550 H     1 <1>   0.0800 
 28 H        1.8700    -5.5480    -1.2210 H     1 <1>   0.0800 
 29 H        3.0520    -4.6190    -0.3460 H     1 <1>   0.0800 
 30 H        3.6010    -3.1400     1.4620 H     1 <1>   0.0800 
 31 H        3.0000    -1.6390     2.1070 H     1 <1>   0.0800 
 32 H       -4.4340    -4.0120     0.6890 H     1 <1>   0.1500 
 33 H       -1.9040    -6.2920     0.1670 H     1 <1>   0.0800 
 34 H       -2.2600    -5.6590    -1.4210 H     1 <1>   0.0800 
 35 H       -3.5570    -5.9610    -0.2910 H     1 <1>   0.0800 
 36 H        5.5270    -1.9230     0.4500 H     1 <1>   0.0800 
 37 H        5.4600    -1.6640     2.1790 H     1 <1>   0.0800 
 38 H        4.8980    -0.4200     1.0860 H     1 <1>   0.0800 
@<TRIPOS>BOND
  1   1   2  1   
  2   1   3  1   
  3   2   4  ar  
  4   2   5  ar  
  5   3   6  1   
  6   3  21  1   
  7   3  22  1   
  8   4   7  ar  
  9   4   8  ar  
 10   5   9  ar  
 11   5  10  1   
 12   6  11  ar  
 13   6  12  ar  
 14   7  13  ar  
 15   7  14  ar  
 16   8  15  ar  
 17   8  23  1   
 18   9  13  ar  
 19   9  16  1   
 20  10  17  1   
 21  10  24  1   
 22  10  25  1   
 23  14  18  ar  
 24  14  19  1   
 25  15  18  ar  
 26  15  26  1   
 27  16  27  1   
 28  16  28  1   
 29  16  29  1   
 30  17  20  1   
 31  17  30  1   
 32  17  31  1   
 33  18  32  1   
 34  19  33  1   
 35  19  34  1   
 36  19  35  1   
 37  20  36  1   
 38  20  37  1   
 39  20  38  1   
@<TRIPOS>SUBSTRUCTURE
  1 ****   2 GROUP 4 **** **** 0

# MOE 2024.06 (io_trps.svl 2023.06)
