@<TRIPOS>MOLECULE
NONAME
50 53 1 0 0 
SMALL
USER_CHARGES


@<TRIPOS>ATOM
  1 BR       1.9080    -0.8850     1.8360 Br    1 <1>  -0.1110 
  2 C        1.1660    -2.1570     0.5890 C.ar  1 <1>   0.1110 
  3 C        1.8570    -2.4530    -0.5760 C.ar  1 <1>  -0.1440 
  4 C       -0.0430    -2.7420     0.9070 C.ar  1 <1>  -0.1500 
  5 C        1.3020    -3.3830    -1.4440 C.ar  1 <1>  -0.1500 
  6 C        3.1840    -1.7960    -0.8950 C.3   1 <1>   0.4870 
  7 C       -0.5910    -3.6610     0.0290 C.ar  1 <1>   0.0820 
  8 C        0.0980    -4.0030    -1.1440 C.ar  1 <1>   0.0820 
  9 N        4.2330    -2.3600    -0.0020 N.4   1 <1>  -0.9590 
 10 O       -1.7930    -4.1880     0.3530 O.3   1 <1>  -0.3620 
 11 O       -0.3350    -4.9270    -2.0410 O.3   1 <1>  -0.3620 
 12 C        5.5300    -1.6070    -0.1350 C.3   1 <1>   0.3430 
 13 C        4.3970    -3.8370    -0.1940 C.3   1 <1>   0.3430 
 14 C       -2.8980    -3.6780    -0.3620 C.3   1 <1>   0.0400 
 15 C       -0.7660    -6.1860    -1.5650 C.3   1 <1>   0.0400 
 16 C        6.7290    -2.3280     0.5160 C.3   1 <1>   0.0580 
 17 C        5.4620    -4.4300     0.7540 C.3   1 <1>  -0.0800 
 18 C        7.5450    -2.9870    -0.6010 C.2   1 <1>  -0.0290 
 19 C        6.2500    -3.3670     1.5390 C.3   1 <1>  -0.1600 
 20 C        6.4590    -5.2160    -0.1020 C.3   1 <1>   0.1400 
 21 N        7.2720    -4.3040    -0.9680 N.am  1 <1>  -0.4690 
 22 C        8.5100    -2.2800    -1.2530 C.2   1 <1>  -0.1500 
 23 C        7.9330    -4.8790    -2.0470 C.2   1 <1>   0.6160 
 24 C        9.2320    -2.8560    -2.3250 C.2   1 <1>  -0.1500 
 25 O        7.6420    -6.0090    -2.4160 O.2   1 <1>  -0.5700 
 26 C        8.9370    -4.1240    -2.7090 C.2   1 <1>  -0.1360 
 27 H       -0.5600    -2.4890     1.8150 H     1 <1>   0.1500 
 28 H        1.7890    -3.6500    -2.3660 H     1 <1>   0.1500 
 29 H        3.0990    -0.7320    -0.7420 H     1 <1>   0.0800 
 30 H        3.4420    -1.9720    -1.9270 H     1 <1>   0.0800 
 31 H        3.8910    -2.2290     0.9600 H     1 <1>   0.4500 
 32 H        5.4190    -0.6370     0.3220 H     1 <1>   0.0800 
 33 H        5.7560    -1.4540    -1.1780 H     1 <1>   0.0800 
 34 H        4.6910    -4.0270    -1.2140 H     1 <1>   0.0800 
 35 H        3.4570    -4.3400    -0.0250 H     1 <1>   0.0800 
 36 H       -2.9800    -2.6230    -0.1700 H     1 <1>   0.0800 
 37 H       -3.7830    -4.1850    -0.0220 H     1 <1>   0.0800 
 38 H       -2.7520    -3.8560    -1.4130 H     1 <1>   0.0800 
 39 H       -0.6950    -6.8920    -2.3730 H     1 <1>   0.0800 
 40 H       -1.7880    -6.1120    -1.2420 H     1 <1>   0.0800 
 41 H       -0.1360    -6.4940    -0.7500 H     1 <1>   0.0800 
 42 H        7.3460    -1.5950     1.0060 H     1 <1>   0.0800 
 43 H        4.9870    -5.1140     1.4360 H     1 <1>   0.0800 
 44 H        5.6340    -2.9050     2.2920 H     1 <1>   0.0800 
 45 H        7.0960    -3.8150     2.0340 H     1 <1>   0.0800 
 46 H        5.9300    -5.9300    -0.7120 H     1 <1>   0.0800 
 47 H        7.1320    -5.7670     0.5320 H     1 <1>   0.0800 
 48 H        8.7570    -1.2660    -0.9850 H     1 <1>   0.1500 
 49 H        9.9960    -2.2750    -2.8140 H     1 <1>   0.1500 
 50 H        9.4440    -4.6130    -3.5190 H     1 <1>   0.1500 
@<TRIPOS>BOND
  1   1   2  1   
  2   2   3  ar  
  3   2   4  ar  
  4   3   5  ar  
  5   3   6  1   
  6   4   7  ar  
  7   4  27  1   
  8   5   8  ar  
  9   5  28  1   
 10   6   9  1   
 11   6  29  1   
 12   6  30  1   
 13   7   8  ar  
 14   7  10  1   
 15   8  11  1   
 16   9  12  1   
 17   9  13  1   
 18   9  31  1   
 19  10  14  1   
 20  11  15  1   
 21  12  16  1   
 22  12  32  1   
 23  12  33  1   
 24  13  17  1   
 25  13  34  1   
 26  13  35  1   
 27  14  36  1   
 28  14  37  1   
 29  14  38  1   
 30  15  39  1   
 31  15  40  1   
 32  15  41  1   
 33  16  18  1   
 34  16  19  1   
 35  16  42  1   
 36  17  19  1   
 37  17  20  1   
 38  17  43  1   
 39  18  21  1   
 40  18  22  2   
 41  19  44  1   
 42  19  45  1   
 43  20  21  1   
 44  20  46  1   
 45  20  47  1   
 46  21  23  am  
 47  22  24  1   
 48  22  48  1   
 49  23  25  2   
 50  23  26  1   
 51  24  26  2   
 52  24  49  1   
 53  26  50  1   
@<TRIPOS>SUBSTRUCTURE
  1 ****  13 GROUP 4 **** **** 0

# MOE 2024.06 (io_trps.svl 2023.06)
