@<TRIPOS>MOLECULE
NONAME
33 34 1 0 0 
SMALL
USER_CHARGES


@<TRIPOS>ATOM
  1 CL      -0.1740    -1.2040    -1.0410 Cl    1 <1>  -0.1770 
  2 C        1.5360    -1.5020    -0.8640 C.ar  1 <1>   0.1770 
  3 C        2.1510    -1.2120     0.3410 C.ar  1 <1>  -0.1500 
  4 C        2.2460    -2.0240    -1.9310 C.ar  1 <1>  -0.1500 
  5 C        3.5090    -1.4470     0.4860 C.ar  1 <1>  -0.1500 
  6 C        3.6030    -2.2600    -1.7880 C.ar  1 <1>  -0.1500 
  7 C        4.2240    -1.9710    -0.5840 C.ar  1 <1>   0.1020 
  8 S        5.9910    -2.3080    -0.4820 S.3   1 <1>  -0.3320 
  9 C        6.5290    -1.8220     1.2350 C.3   1 <1>   0.1310 
 10 C        8.0160    -2.0570     1.4610 C.2   1 <1>   0.5690 
 11 O        8.4750    -1.7770     2.5420 O.2   1 <1>  -0.5700 
 12 N        8.7820    -2.5660     0.4640 N.am  1 <1>  -0.7300 
 13 C       10.2240    -2.8450     0.5330 C.3   1 <1>   0.2200 
 14 C       10.9220    -2.0950    -0.5940 C.3   1 <1>  -0.1600 
 15 C       10.4560    -4.3080     0.1760 C.3   1 <1>  -0.1600 
 16 C       10.7270    -2.9530    -1.8500 C.3   1 <1>  -0.1600 
 17 C       10.4280    -4.3740    -1.3550 C.3   1 <1>  -0.1600 
 18 H        1.5700    -0.8070     1.1500 H     1 <1>   0.1500 
 19 H        1.7410    -2.2400    -2.8560 H     1 <1>   0.1500 
 20 H        3.9800    -1.2200     1.4220 H     1 <1>   0.1500 
 21 H        4.1770    -2.6650    -2.6020 H     1 <1>   0.1500 
 22 H        5.9600    -2.4130     1.9280 H     1 <1>   0.0800 
 23 H        6.3040    -0.7800     1.3590 H     1 <1>   0.0800 
 24 H        8.3430    -2.7860    -0.4330 H     1 <1>   0.3700 
 25 H       10.6170    -2.5900     1.5040 H     1 <1>   0.0800 
 26 H       11.9720    -2.0430    -0.3670 H     1 <1>   0.0800 
 27 H       10.5460    -1.0940    -0.7100 H     1 <1>   0.0800 
 28 H        9.7320    -4.9580     0.6360 H     1 <1>   0.0800 
 29 H       11.4360    -4.5890     0.5200 H     1 <1>   0.0800 
 30 H       11.6060    -2.9280    -2.4720 H     1 <1>   0.0800 
 31 H        9.8900    -2.5840    -2.4190 H     1 <1>   0.0800 
 32 H        9.4500    -4.6750    -1.6900 H     1 <1>   0.0800 
 33 H       11.1530    -5.0800    -1.7220 H     1 <1>   0.0800 
@<TRIPOS>BOND
  1   1   2  1   
  2   2   3  ar  
  3   2   4  ar  
  4   3   5  ar  
  5   3  18  1   
  6   4   6  ar  
  7   4  19  1   
  8   5   7  ar  
  9   5  20  1   
 10   6   7  ar  
 11   6  21  1   
 12   7   8  1   
 13   8   9  1   
 14   9  10  1   
 15   9  22  1   
 16   9  23  1   
 17  10  11  2   
 18  10  12  am  
 19  12  13  1   
 20  12  24  1   
 21  13  14  1   
 22  13  15  1   
 23  13  25  1   
 24  14  16  1   
 25  14  26  1   
 26  14  27  1   
 27  15  17  1   
 28  15  28  1   
 29  15  29  1   
 30  16  17  1   
 31  16  30  1   
 32  16  31  1   
 33  17  32  1   
 34  17  33  1   
@<TRIPOS>SUBSTRUCTURE
  1 ****   8 GROUP 4 **** **** 0

# MOE 2024.06 (io_trps.svl 2023.06)
