@<TRIPOS>MOLECULE
NONAME
52 55 1 0 0 
SMALL
USER_CHARGES


@<TRIPOS>ATOM
  1 O        1.3460    -6.7660     0.8060 O.2   1 <1>  -0.5700 
  2 C        1.1840    -5.6060     0.5110 C.2   1 <1>   0.5690 
  3 N        2.2840    -4.7850     0.3330 N.am  1 <1>  -0.6600 
  4 C       -0.2710    -5.1330     0.3900 C.3   1 <1>   0.2610 
  5 C        2.2390    -3.2940     0.1720 C.3   1 <1>   0.1400 
  6 C        3.6460    -5.3870     0.1570 C.3   1 <1>   0.1400 
  7 O       -0.4200    -4.1540    -0.6350 O.3   1 <1>  -0.3630 
  8 C       -0.7720    -4.6050     1.7430 C.3   1 <1>   0.1200 
  9 C        3.3380    -2.5920     0.9970 C.3   1 <1>   0.3430 
 10 C        4.7000    -4.6670     1.0140 C.3   1 <1>   0.3430 
 11 C       -1.5320    -3.3790    -0.6060 C.ar  1 <1>   0.0820 
 12 O       -2.0690    -4.0530     1.6340 O.3   1 <1>  -0.3630 
 13 N        4.7000    -3.1830     0.7640 N.4   1 <1>  -0.9590 
 14 C       -2.3560    -3.3350     0.5200 C.ar  1 <1>   0.0820 
 15 C       -1.8450    -2.6220    -1.7220 C.ar  1 <1>  -0.1500 
 16 C        5.7400    -2.4810     1.5500 C.3   1 <1>   0.4810 
 17 C       -3.4900    -2.5420     0.5140 C.ar  1 <1>  -0.1500 
 18 C       -2.9790    -1.8260    -1.7210 C.ar  1 <1>  -0.1500 
 19 C        7.0680    -2.8350     0.9300 C.2   1 <1>  -0.2880 
 20 C       -3.8010    -1.7870    -0.6050 C.ar  1 <1>  -0.1500 
 21 C        7.7700    -2.0320     0.1120 C.2   1 <1>  -0.1780 
 22 C        9.0410    -2.3110    -0.5210 C.ar  1 <1>   0.0280 
 23 C        9.4590    -1.5460    -1.6070 C.ar  1 <1>  -0.1500 
 24 C        9.8860    -3.3300    -0.0850 C.ar  1 <1>  -0.1500 
 25 C       10.6630    -1.7920    -2.2410 C.ar  1 <1>  -0.1500 
 26 C       11.0920    -3.5820    -0.7150 C.ar  1 <1>  -0.1500 
 27 C       11.4820    -2.8130    -1.7960 C.ar  1 <1>  -0.1500 
 28 H       -0.8750    -5.9760     0.1050 H     1 <1>   0.0800 
 29 H        2.3520    -3.0490    -0.8710 H     1 <1>   0.0800 
 30 H        1.2910    -2.9050     0.4950 H     1 <1>   0.0800 
 31 H        3.6420    -6.4300     0.4280 H     1 <1>   0.0800 
 32 H        3.9240    -5.3300    -0.8810 H     1 <1>   0.0800 
 33 H       -0.1190    -3.8390     2.1180 H     1 <1>   0.0800 
 34 H       -0.8150    -5.4050     2.4610 H     1 <1>   0.0800 
 35 H        3.0830    -2.6790     2.0400 H     1 <1>   0.0800 
 36 H        3.3440    -1.5440     0.7470 H     1 <1>   0.0800 
 37 H        5.6700    -5.0800     0.7880 H     1 <1>   0.0800 
 38 H        4.4900    -4.8650     2.0520 H     1 <1>   0.0800 
 39 H        4.9530    -3.0400    -0.2230 H     1 <1>   0.4500 
 40 H       -1.2090    -2.6610    -2.5880 H     1 <1>   0.1500 
 41 H        5.5930    -1.4150     1.4800 H     1 <1>   0.0800 
 42 H        5.7080    -2.7680     2.5890 H     1 <1>   0.0800 
 43 H       -4.1230    -2.5180     1.3840 H     1 <1>   0.1500 
 44 H       -3.2240    -1.2380    -2.5890 H     1 <1>   0.1500 
 45 H        7.4140    -3.8140     1.2100 H     1 <1>   0.1500 
 46 H       -4.6830    -1.1700    -0.6080 H     1 <1>   0.1500 
 47 H        7.3860    -1.0570    -0.1420 H     1 <1>   0.1500 
 48 H        8.8380    -0.7470    -1.9690 H     1 <1>   0.1500 
 49 H        9.6140    -3.9350     0.7590 H     1 <1>   0.1500 
 50 H       10.9660    -1.1900    -3.0800 H     1 <1>   0.1500 
 51 H       11.7310    -4.3730    -0.3640 H     1 <1>   0.1500 
 52 H       12.4200    -3.0080    -2.2870 H     1 <1>   0.1500 
@<TRIPOS>BOND
  1   1   2  2   
  2   2   3  am  
  3   2   4  1   
  4   3   5  1   
  5   3   6  1   
  6   4   7  1   
  7   4   8  1   
  8   4  28  1   
  9   5   9  1   
 10   5  29  1   
 11   5  30  1   
 12   6  10  1   
 13   6  31  1   
 14   6  32  1   
 15   7  11  1   
 16   8  12  1   
 17   8  33  1   
 18   8  34  1   
 19   9  13  1   
 20   9  35  1   
 21   9  36  1   
 22  10  13  1   
 23  10  37  1   
 24  10  38  1   
 25  11  14  ar  
 26  11  15  ar  
 27  12  14  1   
 28  13  16  1   
 29  13  39  1   
 30  14  17  ar  
 31  15  18  ar  
 32  15  40  1   
 33  16  19  1   
 34  16  41  1   
 35  16  42  1   
 36  17  20  ar  
 37  17  43  1   
 38  18  20  ar  
 39  18  44  1   
 40  19  21  2   
 41  19  45  1   
 42  20  46  1   
 43  21  22  1   
 44  21  47  1   
 45  22  23  ar  
 46  22  24  ar  
 47  23  25  ar  
 48  23  48  1   
 49  24  26  ar  
 50  24  49  1   
 51  25  27  ar  
 52  25  50  1   
 53  26  27  ar  
 54  26  51  1   
 55  27  52  1   
@<TRIPOS>SUBSTRUCTURE
  1 ****   5 GROUP 4 **** **** 0

# MOE 2024.06 (io_trps.svl 2023.06)
