@<TRIPOS>MOLECULE
NONAME
50 51 1 0 0 
SMALL
USER_CHARGES


@<TRIPOS>ATOM
  1 O        0.5860     0.7540     0.4900 O.2   1 <1>  -0.5700 
  2 C        1.2700     0.0200    -0.1840 C.2   1 <1>   0.5440 
  3 N        2.2230     0.6050    -0.9400 N.am  1 <1>  -0.8000 
  4 C        1.0400    -1.4120    -0.1480 C.ar  1 <1>   0.0860 
  5 C        0.0800    -1.9150     0.7240 C.ar  1 <1>   0.2110 
  6 C        1.7220    -2.3320    -0.9480 C.ar  1 <1>  -0.1500 
  7 N       -0.2000    -3.2340     0.8100 N.ar  1 <1>  -0.2100 
  8 C        1.4260    -3.6820    -0.8560 C.ar  1 <1>  -0.1500 
  9 C        0.4580    -4.1190     0.0270 C.ar  1 <1>   0.2110 
 10 C       -1.2710    -3.7180     1.7340 C.3   1 <1>   0.3890 
 11 C       -2.4970    -4.1120     0.9370 C.2   1 <1>   0.6590 
 12 O       -2.6130    -5.2260     0.5000 O.2   1 <1>  -0.5700 
 13 O       -3.3640    -3.1410     0.7040 O.3   1 <1>  -0.4300 
 14 C       -4.5070    -3.3090    -0.1120 C.3   1 <1>   0.2000 
 15 C       -4.8190    -1.9920    -0.8730 C.3   1 <1>  -0.0800 
 16 C       -5.6540    -3.7910     0.7980 C.3   1 <1>  -0.1600 
 17 C       -3.5610    -1.2770    -1.4490 C.3   1 <1>  -0.0800 
 18 C       -5.7380    -1.0820    -0.0340 C.3   1 <1>  -0.1600 
 19 C       -7.0230    -3.3020     0.3050 C.3   1 <1>  -0.0800 
 20 C       -2.8900    -0.2850    -0.4800 C.3   1 <1>  -0.2400 
 21 C       -3.9080    -0.5250    -2.7420 C.3   1 <1>  -0.2400 
 22 C       -7.0830    -1.7600     0.2920 C.3   1 <1>  -0.1600 
 23 C       -8.1540    -3.8800     1.1630 C.3   1 <1>  -0.2400 
 24 H        2.3150     1.6240    -0.9020 H     1 <1>   0.3700 
 25 H        2.8920     0.1280    -1.5450 H     1 <1>   0.3700 
 26 H       -0.4650    -1.2260     1.3520 H     1 <1>   0.1500 
 27 H        2.4760    -1.9990    -1.6420 H     1 <1>   0.1500 
 28 H        1.9500    -4.3920    -1.4770 H     1 <1>   0.1500 
 29 H        0.2180    -5.1710     0.0890 H     1 <1>   0.1500 
 30 H       -1.5380    -2.9510     2.4380 H     1 <1>   0.0800 
 31 H       -0.9170    -4.5740     2.2800 H     1 <1>   0.0800 
 32 H       -4.2920    -4.0670    -0.8490 H     1 <1>   0.0800 
 33 H       -5.4070    -2.2970    -1.7220 H     1 <1>   0.0800 
 34 H       -5.5070    -3.4190     1.7980 H     1 <1>   0.0800 
 35 H       -5.6440    -4.8660     0.8320 H     1 <1>   0.0800 
 36 H       -2.8400    -2.0320    -1.7130 H     1 <1>   0.0800 
 37 H       -5.9280    -0.1580    -0.5500 H     1 <1>   0.0800 
 38 H       -5.2420    -0.8430     0.8910 H     1 <1>   0.0800 
 39 H       -7.1620    -3.6580    -0.7030 H     1 <1>   0.0800 
 40 H       -3.5180     0.5750    -0.3240 H     1 <1>   0.0800 
 41 H       -1.9580     0.0630    -0.8900 H     1 <1>   0.0800 
 42 H       -2.6990    -0.7310     0.4750 H     1 <1>   0.0800 
 43 H       -4.6390     0.2430    -2.5560 H     1 <1>   0.0800 
 44 H       -4.3050    -1.2010    -3.4790 H     1 <1>   0.0800 
 45 H       -3.0290    -0.0620    -3.1550 H     1 <1>   0.0800 
 46 H       -7.8170    -1.4590    -0.4360 H     1 <1>   0.0800 
 47 H       -7.4180    -1.3940     1.2480 H     1 <1>   0.0800 
 48 H       -8.0500    -3.5730     2.1890 H     1 <1>   0.0800 
 49 H       -8.1420    -4.9550     1.1240 H     1 <1>   0.0800 
 50 H       -9.1070    -3.5400     0.7980 H     1 <1>   0.0800 
@<TRIPOS>BOND
  1   1   2  2   
  2   2   3  am  
  3   2   4  1   
  4   3  24  1   
  5   3  25  1   
  6   4   5  ar  
  7   4   6  ar  
  8   5   7  ar  
  9   5  26  1   
 10   6   8  ar  
 11   6  27  1   
 12   7   9  ar  
 13   7  10  1   
 14   8   9  ar  
 15   8  28  1   
 16   9  29  1   
 17  10  11  1   
 18  10  30  1   
 19  10  31  1   
 20  11  12  2   
 21  11  13  1   
 22  13  14  1   
 23  14  15  1   
 24  14  16  1   
 25  14  32  1   
 26  15  17  1   
 27  15  18  1   
 28  15  33  1   
 29  16  19  1   
 30  16  34  1   
 31  16  35  1   
 32  17  20  1   
 33  17  21  1   
 34  17  36  1   
 35  18  22  1   
 36  18  37  1   
 37  18  38  1   
 38  19  22  1   
 39  19  23  1   
 40  19  39  1   
 41  20  40  1   
 42  20  41  1   
 43  20  42  1   
 44  21  43  1   
 45  21  44  1   
 46  21  45  1   
 47  22  46  1   
 48  22  47  1   
 49  23  48  1   
 50  23  49  1   
 51  23  50  1   
@<TRIPOS>SUBSTRUCTURE
  1 ****  13 GROUP 4 **** **** 0

# MOE 2024.06 (io_trps.svl 2023.06)
