@<TRIPOS>MOLECULE
NONAME
42 43 1 0 0 
SMALL
USER_CHARGES


@<TRIPOS>ATOM
  1 O        0.1600     0.4350     0.5440 O.2   1 <1>  -0.5700 
  2 C        0.2620     1.5700     0.1450 C.2   1 <1>   0.6590 
  3 O        1.4320     2.1630    -0.1270 O.3   1 <1>  -0.0870 
  4 C       -0.9570     2.4500    -0.0870 C.3   1 <1>  -0.0990 
  5 N        2.6280     1.5780     0.0530 N.2   1 <1>  -0.5130 
  6 C       -2.3050     1.7250     0.0980 C.3   1 <1>  -0.1600 
  7 C        3.6730     2.2250    -0.2950 C.2   1 <1>   0.4140 
  8 C       -3.5090     2.6300    -0.2100 C.3   1 <1>  -0.0800 
  9 N        3.5480     3.4700    -0.8810 N.pl3 1 <1>  -0.8500 
 10 C        5.0110     1.6820    -0.1290 C.ar  1 <1>   0.0860 
 11 C       -3.6570     3.8210     0.7370 C.3   1 <1>  -0.1600 
 12 C       -4.8400     1.8980    -0.0650 C.3   1 <1>  -0.1600 
 13 C        6.1230     2.5060     0.0560 C.ar  1 <1>  -0.1500 
 14 C        5.2400     0.3050    -0.1510 C.ar  1 <1>  -0.1500 
 15 C       -5.1320     4.2200     0.6550 C.3   1 <1>  -0.1600 
 16 C       -5.8810     3.0060     0.0940 C.3   1 <1>  -0.1600 
 17 C        7.3970     1.9840     0.1930 C.ar  1 <1>  -0.1500 
 18 C        6.5110    -0.2220    -0.0130 C.ar  1 <1>  -0.1500 
 19 C        7.6000     0.6150     0.1560 C.ar  1 <1>  -0.1430 
 20 C        8.9960     0.0390     0.3090 C.3   1 <1>  -0.0970 
 21 H       -0.8950     3.2760     0.5960 H     1 <1>   0.0800 
 22 H       -0.9000     2.8380    -1.0870 H     1 <1>   0.0800 
 23 H       -2.3740     1.3570     1.1080 H     1 <1>   0.0800 
 24 H       -2.3350     0.8720    -0.5590 H     1 <1>   0.0800 
 25 H       -3.4370     2.9990    -1.2200 H     1 <1>   0.0800 
 26 H        2.5900     3.6540    -1.1780 H     1 <1>   0.4000 
 27 H        4.2300     3.6600    -1.6160 H     1 <1>   0.4000 
 28 H       -3.4330     3.5130     1.7450 H     1 <1>   0.0800 
 29 H       -3.0100     4.6370     0.4660 H     1 <1>   0.0800 
 30 H       -5.0480     1.2680    -0.9120 H     1 <1>   0.0800 
 31 H       -4.8290     1.2950     0.8270 H     1 <1>   0.0800 
 32 H        5.9880     3.5710     0.1020 H     1 <1>   0.1500 
 33 H        4.4030    -0.3600    -0.2770 H     1 <1>   0.1500 
 34 H       -5.5060     4.4930     1.6270 H     1 <1>   0.0800 
 35 H       -5.2520     5.0570    -0.0110 H     1 <1>   0.0800 
 36 H       -6.2950     3.2540    -0.8690 H     1 <1>   0.0800 
 37 H       -6.6790     2.6960     0.7460 H     1 <1>   0.0800 
 38 H        8.2320     2.6490     0.3340 H     1 <1>   0.1500 
 39 H        6.6470    -1.2890    -0.0350 H     1 <1>   0.1500 
 40 H        9.7310     0.7280    -0.0670 H     1 <1>   0.0800 
 41 H        9.0840    -0.8820    -0.2390 H     1 <1>   0.0800 
 42 H        9.1970    -0.1540     1.3470 H     1 <1>   0.0800 
@<TRIPOS>BOND
  1   1   2  2   
  2   2   3  1   
  3   2   4  1   
  4   3   5  1   
  5   4   6  1   
  6   4  21  1   
  7   4  22  1   
  8   5   7  2   
  9   6   8  1   
 10   6  23  1   
 11   6  24  1   
 12   7   9  1   
 13   7  10  1   
 14   8  11  1   
 15   8  12  1   
 16   8  25  1   
 17   9  26  1   
 18   9  27  1   
 19  10  13  ar  
 20  10  14  ar  
 21  11  15  1   
 22  11  28  1   
 23  11  29  1   
 24  12  16  1   
 25  12  30  1   
 26  12  31  1   
 27  13  17  ar  
 28  13  32  1   
 29  14  18  ar  
 30  14  33  1   
 31  15  16  1   
 32  15  34  1   
 33  15  35  1   
 34  16  36  1   
 35  16  37  1   
 36  17  19  ar  
 37  17  38  1   
 38  18  19  ar  
 39  18  39  1   
 40  19  20  1   
 41  20  40  1   
 42  20  41  1   
 43  20  42  1   
@<TRIPOS>SUBSTRUCTURE
  1 ****   3 GROUP 4 **** **** 0

# MOE 2024.06 (io_trps.svl 2023.06)
