@<TRIPOS>MOLECULE
NONAME
39 41 1 0 0 
SMALL
USER_CHARGES


@<TRIPOS>ATOM
  1 O       -2.7010    -0.6130     1.3060 O.3   1 <1>  -0.5600 
  2 C       -4.0630    -0.8210     1.5650 C.3   1 <1>   0.1200 
  3 C       -2.3140     0.7350     1.3310 C.3   1 <1>   0.1200 
  4 C       -4.9390    -0.1100     0.5100 C.3   1 <1>   0.3430 
  5 C       -3.1630     1.5850     0.3570 C.3   1 <1>   0.3430 
  6 N       -4.1190     0.7350    -0.4300 N.4   1 <1>  -0.9590 
  7 C       -4.9130     1.5460    -1.4180 C.3   1 <1>   0.3430 
  8 C       -5.8610     0.7180    -2.3070 C.3   1 <1>   0.1200 
  9 O       -7.2160     0.9670    -1.9700 O.3   1 <1>  -0.3630 
 10 C       -7.6810     0.6100    -0.7550 C.ar  1 <1>   0.0820 
 11 C       -7.8630    -0.7580    -0.4230 C.ar  1 <1>   0.0000 
 12 C       -7.9460     1.6040     0.1500 C.ar  1 <1>  -0.1500 
 13 C       -8.1950    -1.0740     0.9150 C.ar  1 <1>   0.0000 
 14 C       -7.7230    -1.8210    -1.3410 C.ar  1 <1>  -0.1500 
 15 C       -8.3260     1.2830     1.4550 C.ar  1 <1>  -0.1500 
 16 C       -8.4330    -0.0280     1.8280 C.ar  1 <1>  -0.1500 
 17 C       -8.2870    -2.4280     1.2940 C.ar  1 <1>  -0.1500 
 18 C       -7.8260    -3.1260    -0.9480 C.ar  1 <1>  -0.1500 
 19 C       -8.1000    -3.4340     0.3880 C.ar  1 <1>  -0.1500 
 20 H       -4.2880    -0.4600     2.5540 H     1 <1>   0.0800 
 21 H       -4.2480    -1.8810     1.5440 H     1 <1>   0.0800 
 22 H       -1.2750     0.7800     1.0540 H     1 <1>   0.0800 
 23 H       -2.4080     1.1020     2.3390 H     1 <1>   0.0800 
 24 H       -5.6740     0.4950     1.0150 H     1 <1>   0.0800 
 25 H       -5.4700    -0.8630    -0.0470 H     1 <1>   0.0800 
 26 H       -2.5030     2.1170    -0.3090 H     1 <1>   0.0800 
 27 H       -3.7110     2.3200     0.9250 H     1 <1>   0.0800 
 28 H       -3.5200     0.0570    -0.9270 H     1 <1>   0.4500 
 29 H       -4.2230     2.0600    -2.0660 H     1 <1>   0.0800 
 30 H       -5.4920     2.2930    -0.9010 H     1 <1>   0.0800 
 31 H       -5.6590    -0.3340    -2.2410 H     1 <1>   0.0800 
 32 H       -5.7460     1.0260    -3.3310 H     1 <1>   0.0800 
 33 H       -7.8640     2.6390    -0.1340 H     1 <1>   0.1500 
 34 H       -7.5460    -1.5920    -2.3770 H     1 <1>   0.1500 
 35 H       -8.5360     2.0760     2.1540 H     1 <1>   0.1500 
 36 H       -8.7220    -0.2810     2.8340 H     1 <1>   0.1500 
 37 H       -8.5190    -2.6630     2.3180 H     1 <1>   0.1500 
 38 H       -7.7120    -3.9310    -1.6560 H     1 <1>   0.1500 
 39 H       -8.1760    -4.4670     0.6820 H     1 <1>   0.1500 
@<TRIPOS>BOND
  1   1   2  1   
  2   1   3  1   
  3   2   4  1   
  4   2  20  1   
  5   2  21  1   
  6   3   5  1   
  7   3  22  1   
  8   3  23  1   
  9   4   6  1   
 10   4  24  1   
 11   4  25  1   
 12   5   6  1   
 13   5  26  1   
 14   5  27  1   
 15   6   7  1   
 16   6  28  1   
 17   7   8  1   
 18   7  29  1   
 19   7  30  1   
 20   8   9  1   
 21   8  31  1   
 22   8  32  1   
 23   9  10  1   
 24  10  11  ar  
 25  10  12  ar  
 26  11  13  ar  
 27  11  14  ar  
 28  12  15  ar  
 29  12  33  1   
 30  13  16  ar  
 31  13  17  ar  
 32  14  18  ar  
 33  14  34  1   
 34  15  16  ar  
 35  15  35  1   
 36  16  36  1   
 37  17  19  ar  
 38  17  37  1   
 39  18  19  ar  
 40  18  38  1   
 41  19  39  1   
@<TRIPOS>SUBSTRUCTURE
  1 ****   4 GROUP 4 **** **** 0

# MOE 2024.06 (io_trps.svl 2023.06)
