@<TRIPOS>MOLECULE
NONAME
29 30 1 0 0 
SMALL
USER_CHARGES


@<TRIPOS>ATOM
  1 S       -0.1870    -0.6540    -1.8210 S.3   1 <1>  -0.0800 
  2 C       -1.2720    -1.2680    -0.5670 C.2   1 <1>  -0.0450 
  3 C        1.2290    -0.9010    -0.8230 C.2   1 <1>  -0.1100 
  4 C       -2.6890    -1.3130    -0.8430 C.2   1 <1>   0.7150 
  5 C       -0.5250    -1.6110     0.5160 C.2   1 <1>  -0.1500 
  6 C        0.8780    -1.4090     0.3720 C.2   1 <1>  -0.1500 
  7 O       -3.2000    -0.5150    -1.6070 O.2   1 <1>  -0.5700 
  8 N       -3.5020    -2.2560    -0.2610 N.am  1 <1>  -0.6600 
  9 C       -4.9880    -2.2100    -0.4200 C.3   1 <1>   0.2810 
 10 C       -3.0600    -3.5700     0.2500 C.3   1 <1>   0.1400 
 11 C       -5.6700    -1.0010     0.2470 C.2   1 <1>   0.6590 
 12 C       -5.4680    -3.5520     0.1450 C.3   1 <1>  -0.1600 
 13 C       -4.2610    -4.4820     0.0380 C.3   1 <1>  -0.1600 
 14 O       -5.4550    -0.6840     1.3930 O.2   1 <1>  -0.5700 
 15 O       -6.5420    -0.3380    -0.5070 O.3   1 <1>  -0.4300 
 16 C       -7.2090     0.8120    -0.0310 C.3   1 <1>   0.0400 
 17 H        2.1840    -0.6360    -1.2410 H     1 <1>   0.1500 
 18 H       -0.9280    -1.9980     1.4350 H     1 <1>   0.1500 
 19 H        1.5600    -1.6500     1.1690 H     1 <1>   0.1500 
 20 H       -5.2040    -2.1770    -1.4740 H     1 <1>   0.0800 
 21 H       -2.8420    -3.4820     1.3010 H     1 <1>   0.0800 
 22 H       -2.1910    -3.9270    -0.2780 H     1 <1>   0.0800 
 23 H       -6.3230    -3.9240    -0.3900 H     1 <1>   0.0800 
 24 H       -5.7340    -3.4280     1.1810 H     1 <1>   0.0800 
 25 H       -4.2910    -5.2790     0.7610 H     1 <1>   0.0800 
 26 H       -4.2100    -4.9070    -0.9500 H     1 <1>   0.0800 
 27 H       -7.8540     1.1790    -0.8090 H     1 <1>   0.0800 
 28 H       -6.4750     1.5570     0.2230 H     1 <1>   0.0800 
 29 H       -7.7860     0.5470     0.8380 H     1 <1>   0.0800 
@<TRIPOS>BOND
  1   1   2  1   
  2   1   3  1   
  3   2   4  1   
  4   2   5  2   
  5   3   6  2   
  6   3  17  1   
  7   4   7  2   
  8   4   8  am  
  9   5   6  1   
 10   5  18  1   
 11   6  19  1   
 12   8   9  1   
 13   8  10  1   
 14   9  11  1   
 15   9  12  1   
 16   9  20  1   
 17  10  13  1   
 18  10  21  1   
 19  10  22  1   
 20  11  14  2   
 21  11  15  1   
 22  12  13  1   
 23  12  23  1   
 24  12  24  1   
 25  13  25  1   
 26  13  26  1   
 27  15  16  1   
 28  16  27  1   
 29  16  28  1   
 30  16  29  1   
@<TRIPOS>SUBSTRUCTURE
  1 ****   8 GROUP 4 **** **** 0

# MOE 2024.06 (io_trps.svl 2023.06)
