@<TRIPOS>MOLECULE
NONAME
36 37 1 0 0 
SMALL
USER_CHARGES


@<TRIPOS>ATOM
  1 S       -0.2870     0.1350     1.6840 S.3   1 <1>  -0.0800 
  2 C       -0.3770    -1.1280     0.4690 C.2   1 <1>   0.1040 
  3 C       -1.8590     0.7820     1.2390 C.2   1 <1>  -0.1400 
  4 N        0.6990    -2.0020     0.3170 N.am  1 <1>  -0.4940 
  5 C       -1.5510    -1.0330    -0.2080 C.2   1 <1>   0.0190 
  6 C       -2.3840     0.0720     0.2150 C.2   1 <1>  -0.1810 
  7 C       -2.2960     1.9760     2.0740 C.3   1 <1>   0.0200 
  8 C        1.6660    -2.4250     1.1880 C.2   1 <1>   0.6160 
  9 C       -1.9650    -1.9510    -1.2280 C.1   1 <1>   0.5380 
 10 C       -3.7120     0.3140    -0.5120 C.3   1 <1>   0.0210 
 11 C       -1.9870     3.3060     1.3720 C.3   1 <1>  -0.1600 
 12 O        1.5330    -2.2360     2.3830 O.2   1 <1>  -0.5700 
 13 C        2.8430    -3.1200     0.7280 C.2   1 <1>  -0.1360 
 14 N       -2.4210    -2.6400    -2.0160 N.1   1 <1>  -0.5570 
 15 C       -4.3510     1.6990    -0.3410 C.3   1 <1>  -0.1600 
 16 C       -3.0860     3.8100     0.4190 C.3   1 <1>  -0.1600 
 17 C        3.2890    -3.5120    -0.4970 C.2   1 <1>  -0.4000 
 18 C       -3.4190     2.8600    -0.7430 C.3   1 <1>  -0.1600 
 19 C        2.7550    -3.3930    -1.8210 C.2   1 <1>   1.0500 
 20 O        1.6250    -2.9190    -2.0140 O.co2 1 <1>  -0.9000 
 21 O        3.4320    -3.7740    -2.7830 O.co2 1 <1>  -0.9000 
 22 H        0.8630    -2.3580    -0.6450 H     1 <1>   0.3700 
 23 H       -3.3360     1.9070     2.3280 H     1 <1>   0.0800 
 24 H       -1.7570     1.9470     3.0050 H     1 <1>   0.0800 
 25 H       -3.5530     0.1800    -1.5680 H     1 <1>   0.0800 
 26 H       -4.4160    -0.4370    -0.1990 H     1 <1>   0.0800 
 27 H       -1.8430     4.0560     2.1290 H     1 <1>   0.0800 
 28 H       -1.0570     3.2150     0.8370 H     1 <1>   0.0800 
 29 H        3.4750    -3.3560     1.5630 H     1 <1>   0.1500 
 30 H       -5.2200     1.7330    -0.9760 H     1 <1>   0.0800 
 31 H       -4.7160     1.8130     0.6620 H     1 <1>   0.0800 
 32 H       -3.9800     4.0310     0.9770 H     1 <1>   0.0800 
 33 H       -2.7440     4.7400    -0.0020 H     1 <1>   0.0800 
 34 H        4.2310    -4.0180    -0.5470 H     1 <1>   0.1500 
 35 H       -2.5070     2.4930    -1.1840 H     1 <1>   0.0800 
 36 H       -3.9190     3.4350    -1.5030 H     1 <1>   0.0800 
@<TRIPOS>BOND
  1   1   2  1   
  2   1   3  1   
  3   2   4  1   
  4   2   5  2   
  5   3   6  2   
  6   3   7  1   
  7   4   8  am  
  8   4  22  1   
  9   5   6  1   
 10   5   9  1   
 11   6  10  1   
 12   7  11  1   
 13   7  23  1   
 14   7  24  1   
 15   8  12  2   
 16   8  13  1   
 17   9  14  3   
 18  10  15  1   
 19  10  25  1   
 20  10  26  1   
 21  11  16  1   
 22  11  27  1   
 23  11  28  1   
 24  13  17  2   
 25  13  29  1   
 26  15  18  1   
 27  15  30  1   
 28  15  31  1   
 29  16  18  1   
 30  16  32  1   
 31  16  33  1   
 32  17  19  1   
 33  17  34  1   
 34  18  35  1   
 35  18  36  1   
 36  19  20  ar  
 37  19  21  ar  
@<TRIPOS>SUBSTRUCTURE
  1 ****   2 GROUP 4 **** **** 0

# MOE 2024.06 (io_trps.svl 2023.06)
