@<TRIPOS>MOLECULE
NONAME
47 50 1 0 0 
SMALL
USER_CHARGES


@<TRIPOS>ATOM
  1 F        0.5160     3.6710    -1.9370 F     1 <1>  -0.3400 
  2 C       -0.6750     3.7420    -1.3430 C.3   1 <1>   1.0810 
  3 F       -1.4330     2.8340    -1.9590 F     1 <1>  -0.3400 
  4 F       -1.1790     4.9240    -1.6960 F     1 <1>  -0.3400 
  5 C       -0.6300     3.5410     0.2080 C.2   1 <1>   0.6590 
  6 O        0.4040     3.3420     0.8020 O.2   1 <1>  -0.5700 
  7 O       -1.7570     3.5850     0.9360 O.3   1 <1>  -0.4300 
  8 C       -3.0660     3.8070     0.4500 C.3   1 <1>   0.1200 
  9 C       -4.0310     3.7830     1.6350 C.3   1 <1>   0.1400 
 10 N       -5.4290     4.0220     1.1600 N.am  1 <1>  -0.4200 
 11 C       -5.9000     5.3190     1.0640 C.2   1 <1>   0.5440 
 12 C       -6.2190     2.9470     0.8020 C.2   1 <1>   0.5440 
 13 O       -5.1230     6.2400     1.2480 O.2   1 <1>  -0.5700 
 14 C       -7.2810     5.5650     0.7350 C.ar  1 <1>   0.0860 
 15 O       -5.7210     1.8370     0.7690 O.2   1 <1>  -0.5700 
 16 C       -7.6080     3.1500     0.4530 C.ar  1 <1>   0.0860 
 17 C       -8.1280     4.4700     0.4370 C.ar  1 <1>   0.0000 
 18 C       -7.8110     6.8430     0.7000 C.ar  1 <1>  -0.1500 
 19 C       -8.4410     2.0960     0.1290 C.ar  1 <1>  -0.1500 
 20 C       -9.4870     4.6920     0.1110 C.ar  1 <1>   0.0000 
 21 C       -9.1440     7.0640     0.3980 C.ar  1 <1>  -0.1500 
 22 C       -9.7720     2.3060    -0.2140 C.ar  1 <1>  -0.1500 
 23 C       -9.9980     6.0200     0.1160 C.ar  1 <1>   0.1000 
 24 C      -10.2780     3.5760    -0.2260 C.ar  1 <1>  -0.1500 
 25 N      -11.3330     6.2750    -0.1380 N.pl3 1 <1>  -0.8380 
 26 C      -11.7750     7.2970    -1.1350 C.3   1 <1>   0.2090 
 27 C      -12.3700     5.9490     0.8850 C.3   1 <1>   0.2090 
 28 C      -12.4640     8.4910    -0.4470 C.3   1 <1>   0.1200 
 29 C      -13.0040     7.2310     1.4550 C.3   1 <1>   0.1200 
 30 O      -13.4710     8.0630     0.4290 O.3   1 <1>  -0.5600 
 31 H       -3.3190     3.0220    -0.2420 H     1 <1>   0.0800 
 32 H       -3.1000     4.7700    -0.0290 H     1 <1>   0.0800 
 33 H       -3.7530     4.5450     2.3440 H     1 <1>   0.0800 
 34 H       -3.9720     2.8300     2.1320 H     1 <1>   0.0800 
 35 H       -7.1790     7.6890     0.9180 H     1 <1>   0.1500 
 36 H       -8.0610     1.0870     0.1360 H     1 <1>   0.1500 
 37 H       -9.5180     8.0700     0.3980 H     1 <1>   0.1500 
 38 H      -10.3920     1.4640    -0.4710 H     1 <1>   0.1500 
 39 H      -11.3040     3.7370    -0.5060 H     1 <1>   0.1500 
 40 H      -12.4670     6.8400    -1.8200 H     1 <1>   0.0800 
 41 H      -10.9300     7.6430    -1.7040 H     1 <1>   0.0800 
 42 H      -11.9270     5.3810     1.6840 H     1 <1>   0.0800 
 43 H      -13.1380     5.3460     0.4320 H     1 <1>   0.0800 
 44 H      -12.9190     9.1280    -1.1830 H     1 <1>   0.0800 
 45 H      -11.7480     9.0680     0.1120 H     1 <1>   0.0800 
 46 H      -12.2830     7.7750     2.0400 H     1 <1>   0.0800 
 47 H      -13.8410     6.9820     2.0830 H     1 <1>   0.0800 
@<TRIPOS>BOND
  1   1   2  1   
  2   2   3  1   
  3   2   4  1   
  4   2   5  1   
  5   5   6  2   
  6   5   7  1   
  7   7   8  1   
  8   8   9  1   
  9   8  31  1   
 10   8  32  1   
 11   9  10  1   
 12   9  33  1   
 13   9  34  1   
 14  10  11  am  
 15  10  12  am  
 16  11  13  2   
 17  11  14  1   
 18  12  15  2   
 19  12  16  1   
 20  14  17  ar  
 21  14  18  ar  
 22  16  17  ar  
 23  16  19  ar  
 24  17  20  ar  
 25  18  21  ar  
 26  18  35  1   
 27  19  22  ar  
 28  19  36  1   
 29  20  23  ar  
 30  20  24  ar  
 31  21  23  ar  
 32  21  37  1   
 33  22  24  ar  
 34  22  38  1   
 35  23  25  1   
 36  24  39  1   
 37  25  26  1   
 38  25  27  1   
 39  26  28  1   
 40  26  40  1   
 41  26  41  1   
 42  27  29  1   
 43  27  42  1   
 44  27  43  1   
 45  28  30  1   
 46  28  44  1   
 47  28  45  1   
 48  29  30  1   
 49  29  46  1   
 50  29  47  1   
@<TRIPOS>SUBSTRUCTURE
  1 ****  14 GROUP 4 **** **** 0

# MOE 2024.06 (io_trps.svl 2023.06)
