@<TRIPOS>MOLECULE
NONAME
36 36 1 0 0 
SMALL
USER_CHARGES


@<TRIPOS>ATOM
  1 O        0.1570    -1.0290     1.8500 O.2   1 <1>  -0.5700 
  2 C       -0.3110    -0.8340     0.7610 C.2   1 <1>   0.6590 
  3 O        0.2370    -1.3280    -0.3420 O.3   1 <1>  -0.4300 
  4 C       -1.5520     0.0150     0.5650 C.3   1 <1>  -0.0990 
  5 C        1.4370    -2.0900    -0.3050 C.3   1 <1>   0.1810 
  6 C       -2.7560    -0.8110     0.0840 C.3   1 <1>  -0.1600 
  7 C        2.6680    -1.2550     0.0500 C.2   1 <1>   0.4230 
  8 C       -3.9980     0.0690    -0.0980 C.3   1 <1>  -0.1600 
  9 O        3.5780    -1.8340     0.5880 O.2   1 <1>  -0.5700 
 10 C        2.7230     0.1570    -0.2600 C.ar  1 <1>   0.0860 
 11 C       -5.1930    -0.7590    -0.5770 C.3   1 <1>  -0.2400 
 12 C        3.4230     1.0290     0.5770 C.ar  1 <1>  -0.1500 
 13 C        2.1060     0.7180    -1.3830 C.ar  1 <1>  -0.1500 
 14 C        3.4930     2.3860     0.3270 C.ar  1 <1>  -0.1500 
 15 C        2.1690     2.0740    -1.6400 C.ar  1 <1>  -0.1500 
 16 C        2.8580     2.9220    -0.7890 C.ar  1 <1>   0.0820 
 17 O        2.8690     4.2340    -1.1070 O.3   1 <1>  -0.3630 
 18 C        3.5500     5.1850    -0.3180 C.3   1 <1>   0.0400 
 19 H       -1.3240     0.7850    -0.1490 H     1 <1>   0.0800 
 20 H       -1.7890     0.4870     1.5010 H     1 <1>   0.0800 
 21 H        1.5750    -2.5340    -1.2740 H     1 <1>   0.0800 
 22 H        1.3140    -2.8750     0.4200 H     1 <1>   0.0800 
 23 H       -2.9650    -1.5840     0.8050 H     1 <1>   0.0800 
 24 H       -2.5130    -1.2860    -0.8520 H     1 <1>   0.0800 
 25 H       -3.7940     0.8430    -0.8190 H     1 <1>   0.0800 
 26 H       -4.2490     0.5420     0.8370 H     1 <1>   0.0800 
 27 H       -4.9760    -1.2250    -1.5220 H     1 <1>   0.0800 
 28 H       -6.0550    -0.1260    -0.6990 H     1 <1>   0.0800 
 29 H       -5.4320    -1.5250     0.1410 H     1 <1>   0.0800 
 30 H        3.9180     0.6230     1.4440 H     1 <1>   0.1500 
 31 H        1.5710     0.0870    -2.0710 H     1 <1>   0.1500 
 32 H        4.0410     3.0100     1.0070 H     1 <1>   0.1500 
 33 H        1.6870     2.4900    -2.5070 H     1 <1>   0.1500 
 34 H        3.4170     6.1510    -0.7710 H     1 <1>   0.0800 
 35 H        4.5950     4.9330    -0.2930 H     1 <1>   0.0800 
 36 H        3.1280     5.1840     0.6720 H     1 <1>   0.0800 
@<TRIPOS>BOND
  1   1   2  2   
  2   2   3  1   
  3   2   4  1   
  4   3   5  1   
  5   4   6  1   
  6   4  19  1   
  7   4  20  1   
  8   5   7  1   
  9   5  21  1   
 10   5  22  1   
 11   6   8  1   
 12   6  23  1   
 13   6  24  1   
 14   7   9  2   
 15   7  10  1   
 16   8  11  1   
 17   8  25  1   
 18   8  26  1   
 19  10  12  ar  
 20  10  13  ar  
 21  11  27  1   
 22  11  28  1   
 23  11  29  1   
 24  12  14  ar  
 25  12  30  1   
 26  13  15  ar  
 27  13  31  1   
 28  14  16  ar  
 29  14  32  1   
 30  15  16  ar  
 31  15  33  1   
 32  16  17  1   
 33  17  18  1   
 34  18  34  1   
 35  18  35  1   
 36  18  36  1   
@<TRIPOS>SUBSTRUCTURE
  1 ****  13 GROUP 4 **** **** 0

# MOE 2024.06 (io_trps.svl 2023.06)
