@<TRIPOS>MOLECULE
NONAME
34 35 1 0 0 
SMALL
USER_CHARGES


@<TRIPOS>ATOM
  1 O       -0.1270    -0.7200     1.3850 O.2   1 <1>  -0.5700 
  2 C       -0.1510    -1.4950     0.4470 C.2   1 <1>   0.6900 
  3 N       -1.3180    -2.1060     0.0440 N.am  1 <1>  -0.4770 
  4 N        0.9940    -1.7710    -0.2320 N.am  1 <1>  -0.7300 
  5 C       -2.5800    -1.4620    -0.0150 C.ar  1 <1>   0.1170 
  6 C       -1.2720    -3.5730    -0.1890 C.3   1 <1>   0.1400 
  7 C        2.3200    -1.1970     0.0710 C.3   1 <1>   0.1400 
  8 C       -3.7710    -2.1990    -0.0190 C.ar  1 <1>  -0.1440 
  9 C       -2.6740    -0.0730    -0.0900 C.ar  1 <1>  -0.1500 
 10 C       -2.4240    -4.2530     0.5490 C.3   1 <1>  -0.1600 
 11 C        3.3900    -2.2640    -0.1610 C.3   1 <1>  -0.1600 
 12 C       -4.9960    -1.5540    -0.0870 C.ar  1 <1>  -0.1500 
 13 C       -3.7630    -3.7200     0.0400 C.3   1 <1>  -0.0170 
 14 C       -3.8970     0.5670    -0.1570 C.ar  1 <1>  -0.1500 
 15 C        4.7910    -1.7210     0.1400 C.3   1 <1>  -0.2400 
 16 C       -5.0630    -0.1740    -0.1560 C.ar  1 <1>  -0.1500 
 17 H        0.8970    -2.2270    -1.1350 H     1 <1>   0.3700 
 18 H       -0.3400    -3.9750     0.1700 H     1 <1>   0.0800 
 19 H       -1.3460    -3.7610    -1.2460 H     1 <1>   0.0800 
 20 H        2.3470    -0.8650     1.0970 H     1 <1>   0.0800 
 21 H        2.4920    -0.3470    -0.5670 H     1 <1>   0.0800 
 22 H       -1.7790     0.5230    -0.0910 H     1 <1>   0.1500 
 23 H       -2.3290    -4.0540     1.6020 H     1 <1>   0.0800 
 24 H       -2.3750    -5.3170     0.4020 H     1 <1>   0.0800 
 25 H        3.3530    -2.5940    -1.1840 H     1 <1>   0.0800 
 26 H        3.1940    -3.1050     0.4820 H     1 <1>   0.0800 
 27 H       -5.9080    -2.1230    -0.0890 H     1 <1>   0.1500 
 28 H       -3.9480    -4.0990    -0.9490 H     1 <1>   0.0800 
 29 H       -4.5520    -4.0670     0.6850 H     1 <1>   0.0800 
 30 H       -3.9390     1.6410    -0.2090 H     1 <1>   0.1500 
 31 H        5.0180    -0.8860    -0.4990 H     1 <1>   0.0800 
 32 H        5.5270    -2.4890    -0.0250 H     1 <1>   0.0800 
 33 H        4.8570    -1.4000     1.1660 H     1 <1>   0.0800 
 34 H       -6.0170     0.3200    -0.2070 H     1 <1>   0.1500 
@<TRIPOS>BOND
  1   1   2  2   
  2   2   3  am  
  3   2   4  am  
  4   3   5  1   
  5   3   6  1   
  6   4   7  1   
  7   4  17  1   
  8   5   8  ar  
  9   5   9  ar  
 10   6  10  1   
 11   6  18  1   
 12   6  19  1   
 13   7  11  1   
 14   7  20  1   
 15   7  21  1   
 16   8  12  ar  
 17   8  13  1   
 18   9  14  ar  
 19   9  22  1   
 20  10  13  1   
 21  10  23  1   
 22  10  24  1   
 23  11  15  1   
 24  11  25  1   
 25  11  26  1   
 26  12  16  ar  
 27  12  27  1   
 28  13  28  1   
 29  13  29  1   
 30  14  16  ar  
 31  14  30  1   
 32  15  31  1   
 33  15  32  1   
 34  15  33  1   
 35  16  34  1   
@<TRIPOS>SUBSTRUCTURE
  1 ****   3 GROUP 4 **** **** 0

# MOE 2024.06 (io_trps.svl 2023.06)
