@<TRIPOS>MOLECULE
NONAME
53 55 1 0 0 
SMALL
USER_CHARGES


@<TRIPOS>ATOM
  1 O       -0.6250    -0.2190     0.8520 O.3   1 <1>  -0.3630 
  2 C       -1.6890     0.5500     0.5100 C.ar  1 <1>   0.0830 
  3 C        0.0940    -0.9490    -0.1170 C.3   1 <1>   0.0400 
  4 C       -2.1770     0.6680    -0.7880 C.ar  1 <1>  -0.1500 
  5 C       -2.3060     1.2520     1.5310 C.ar  1 <1>  -0.1500 
  6 C       -3.2700     1.4770    -1.0480 C.ar  1 <1>  -0.1500 
  7 C       -3.3970     2.0610     1.2700 C.ar  1 <1>  -0.1500 
  8 C       -3.8880     2.1770    -0.0220 C.ar  1 <1>  -0.1430 
  9 C       -5.0920     3.0550    -0.3100 C.3   1 <1>  -0.0170 
 10 C       -6.3750     2.2170    -0.2010 C.3   1 <1>  -0.1600 
 11 C       -7.6560     3.0450    -0.3650 C.3   1 <1>   0.4230 
 12 N       -8.8220     2.2150     0.0490 N.4   1 <1>  -0.9590 
 13 C       -7.8270     3.5770    -1.7930 C.3   1 <1>  -0.2400 
 14 C       -9.1390     1.0660    -0.8890 C.3   1 <1>   0.3430 
 15 C      -10.0590     3.0520     0.2920 C.3   1 <1>   0.3430 
 16 C      -10.3250     0.2090    -0.3990 C.3   1 <1>   0.2090 
 17 C      -11.2540     2.2150     0.7950 C.3   1 <1>   0.2090 
 18 N      -11.5120     1.0640    -0.1140 N.pl3 1 <1>  -0.8380 
 19 C      -12.7200     0.4000     0.0620 C.ar  1 <1>   0.1000 
 20 C      -13.7150     0.5210    -0.8980 C.ar  1 <1>  -0.1500 
 21 C      -12.9620    -0.3880     1.1830 C.ar  1 <1>  -0.1500 
 22 C      -14.9260    -0.1290    -0.7470 C.ar  1 <1>  -0.1500 
 23 C      -14.1720    -1.0400     1.3380 C.ar  1 <1>  -0.1500 
 24 C      -15.1560    -0.9110     0.3730 C.ar  1 <1>  -0.1500 
 25 H        0.8920    -1.4680     0.3810 H     1 <1>   0.0800 
 26 H        0.5000    -0.2630    -0.8400 H     1 <1>   0.0800 
 27 H       -0.5670    -1.6570    -0.5840 H     1 <1>   0.0800 
 28 H       -1.7200     0.1400    -1.6030 H     1 <1>   0.1500 
 29 H       -1.9210     1.1600     2.5310 H     1 <1>   0.1500 
 30 H       -3.6330     1.5590    -2.0570 H     1 <1>   0.1500 
 31 H       -3.8550     2.5980     2.0820 H     1 <1>   0.1500 
 32 H       -4.9890     3.4750    -1.2950 H     1 <1>   0.0800 
 33 H       -5.1140     3.8700     0.3950 H     1 <1>   0.0800 
 34 H       -6.3750     1.7550     0.7710 H     1 <1>   0.0800 
 35 H       -6.3320     1.4390    -0.9420 H     1 <1>   0.0800 
 36 H       -7.5890     3.8900     0.3040 H     1 <1>   0.0800 
 37 H       -8.5780     1.7910     0.9510 H     1 <1>   0.4500 
 38 H       -7.7530     2.7890    -2.5210 H     1 <1>   0.0800 
 39 H       -7.0530     4.2900    -2.0090 H     1 <1>   0.0800 
 40 H       -8.7650     4.0870    -1.9140 H     1 <1>   0.0800 
 41 H       -8.2760     0.4320    -1.0030 H     1 <1>   0.0800 
 42 H       -9.3940     1.4540    -1.8600 H     1 <1>   0.0800 
 43 H      -10.3580     3.5290    -0.6260 H     1 <1>   0.0800 
 44 H       -9.8450     3.8240     1.0110 H     1 <1>   0.0800 
 45 H      -10.0460    -0.3340     0.4880 H     1 <1>   0.0800 
 46 H      -10.5830    -0.5110    -1.1580 H     1 <1>   0.0800 
 47 H      -12.1340     2.8360     0.8350 H     1 <1>   0.0800 
 48 H      -11.0600     1.8550     1.7910 H     1 <1>   0.0800 
 49 H      -13.5330     1.1280    -1.7650 H     1 <1>   0.1500 
 50 H      -12.2040    -0.4920     1.9350 H     1 <1>   0.1500 
 51 H      -15.6900    -0.0280    -1.4980 H     1 <1>   0.1500 
 52 H      -14.3520    -1.6480     2.2080 H     1 <1>   0.1500 
 53 H      -16.0980    -1.4170     0.4920 H     1 <1>   0.1500 
@<TRIPOS>BOND
  1   1   2  1   
  2   1   3  1   
  3   2   4  ar  
  4   2   5  ar  
  5   3  25  1   
  6   3  26  1   
  7   3  27  1   
  8   4   6  ar  
  9   4  28  1   
 10   5   7  ar  
 11   5  29  1   
 12   6   8  ar  
 13   6  30  1   
 14   7   8  ar  
 15   7  31  1   
 16   8   9  1   
 17   9  10  1   
 18   9  32  1   
 19   9  33  1   
 20  10  11  1   
 21  10  34  1   
 22  10  35  1   
 23  11  12  1   
 24  11  13  1   
 25  11  36  1   
 26  12  14  1   
 27  12  15  1   
 28  12  37  1   
 29  13  38  1   
 30  13  39  1   
 31  13  40  1   
 32  14  16  1   
 33  14  41  1   
 34  14  42  1   
 35  15  17  1   
 36  15  43  1   
 37  15  44  1   
 38  16  18  1   
 39  16  45  1   
 40  16  46  1   
 41  17  18  1   
 42  17  47  1   
 43  17  48  1   
 44  18  19  1   
 45  19  20  ar  
 46  19  21  ar  
 47  20  22  ar  
 48  20  49  1   
 49  21  23  ar  
 50  21  50  1   
 51  22  24  ar  
 52  22  51  1   
 53  23  24  ar  
 54  23  52  1   
 55  24  53  1   
@<TRIPOS>SUBSTRUCTURE
  1 ****  12 GROUP 4 **** **** 0

# MOE 2024.06 (io_trps.svl 2023.06)
