@<TRIPOS>MOLECULE
NONAME
50 52 1 0 0 
SMALL
USER_CHARGES


@<TRIPOS>ATOM
  1 O       -0.6850     1.1880     1.0690 O.2   1 <1>  -0.5700 
  2 C       -0.5260     2.0430     0.2200 C.2   1 <1>   0.5440 
  3 N       -1.6010     2.4290    -0.5320 N.am  1 <1>  -0.7300 
  4 C        0.7780     2.6450     0.0070 C.ar  1 <1>   0.0860 
  5 C       -2.9570     1.8120    -0.4630 C.3   1 <1>   0.1400 
  6 C        0.9210     3.9840    -0.3620 C.ar  1 <1>  -0.1500 
  7 C        1.9440     1.8990     0.1680 C.ar  1 <1>  -0.1500 
  8 C       -4.0550     2.6420     0.2560 C.3   1 <1>   0.1430 
  9 C        2.1680     4.5430    -0.5770 C.ar  1 <1>  -0.1500 
 10 C        3.1930     2.4540    -0.0450 C.ar  1 <1>  -0.1500 
 11 C       -5.3190     1.7460     0.1910 C.ar  1 <1>  -0.1430 
 12 C       -3.7010     2.9240     1.7400 C.3   1 <1>  -0.1600 
 13 C       -4.3030     4.0050    -0.4420 C.3   1 <1>  -0.1600 
 14 C        3.3130     3.7800    -0.4240 C.ar  1 <1>  -0.1430 
 15 C       -6.3500     1.9590    -0.7240 C.ar  1 <1>  -0.1500 
 16 C       -5.4390     0.6540     1.0470 C.ar  1 <1>  -0.1500 
 17 C       -2.7570     4.1120     1.9650 C.3   1 <1>   0.1200 
 18 C       -3.2960     5.1010    -0.0800 C.3   1 <1>   0.1200 
 19 C        4.6820     4.3920    -0.6570 C.3   1 <1>  -0.0970 
 20 C       -7.4600     1.1330    -0.7680 C.ar  1 <1>  -0.1500 
 21 C       -6.5460    -0.1750     1.0080 C.ar  1 <1>  -0.1500 
 22 O       -3.2420     5.2340     1.3000 O.3   1 <1>  -0.5600 
 23 C       -7.5660     0.0570     0.1050 C.ar  1 <1>   0.0830 
 24 O       -8.6180    -0.7980     0.1310 O.3   1 <1>  -0.3620 
 25 C       -9.7170    -0.6340    -0.7370 C.3   1 <1>   0.0400 
 26 H       -1.4460     3.0660    -1.3130 H     1 <1>   0.3700 
 27 H       -2.8740     0.8590     0.0320 H     1 <1>   0.0800 
 28 H       -3.2840     1.6050    -1.4670 H     1 <1>   0.0800 
 29 H        0.0490     4.6010    -0.4720 H     1 <1>   0.1500 
 30 H        1.8630     0.8680     0.4660 H     1 <1>   0.1500 
 31 H        2.2460     5.5790    -0.8600 H     1 <1>   0.1500 
 32 H        4.0730     1.8480     0.0870 H     1 <1>   0.1500 
 33 H       -3.2480     2.0580     2.1860 H     1 <1>   0.0800 
 34 H       -4.6070     3.1320     2.2810 H     1 <1>   0.0800 
 35 H       -5.2680     4.3780    -0.1440 H     1 <1>   0.0800 
 36 H       -4.3140     3.8810    -1.5090 H     1 <1>   0.0800 
 37 H       -6.3170     2.7680    -1.4290 H     1 <1>   0.1500 
 38 H       -4.6680     0.4220     1.7590 H     1 <1>   0.1500 
 39 H       -1.7610     3.9100     1.6200 H     1 <1>   0.0800 
 40 H       -2.7090     4.3510     3.0130 H     1 <1>   0.0800 
 41 H       -3.6150     6.0460    -0.4830 H     1 <1>   0.0800 
 42 H       -2.3090     4.8880    -0.4460 H     1 <1>   0.0800 
 43 H        4.6260     5.1740    -1.3930 H     1 <1>   0.0800 
 44 H        5.3730     3.6460    -1.0080 H     1 <1>   0.0800 
 45 H        5.0560     4.8060     0.2620 H     1 <1>   0.0800 
 46 H       -8.2280     1.3420    -1.4860 H     1 <1>   0.1500 
 47 H       -6.6230    -1.0100     1.6790 H     1 <1>   0.1500 
 48 H      -10.4260    -1.4150    -0.5290 H     1 <1>   0.0800 
 49 H       -9.3730    -0.7120    -1.7530 H     1 <1>   0.0800 
 50 H      -10.1660     0.3260    -0.5530 H     1 <1>   0.0800 
@<TRIPOS>BOND
  1   1   2  2   
  2   2   3  am  
  3   2   4  1   
  4   3   5  1   
  5   3  26  1   
  6   4   6  ar  
  7   4   7  ar  
  8   5   8  1   
  9   5  27  1   
 10   5  28  1   
 11   6   9  ar  
 12   6  29  1   
 13   7  10  ar  
 14   7  30  1   
 15   8  11  1   
 16   8  12  1   
 17   8  13  1   
 18   9  14  ar  
 19   9  31  1   
 20  10  14  ar  
 21  10  32  1   
 22  11  15  ar  
 23  11  16  ar  
 24  12  17  1   
 25  12  33  1   
 26  12  34  1   
 27  13  18  1   
 28  13  35  1   
 29  13  36  1   
 30  14  19  1   
 31  15  20  ar  
 32  15  37  1   
 33  16  21  ar  
 34  16  38  1   
 35  17  22  1   
 36  17  39  1   
 37  17  40  1   
 38  18  22  1   
 39  18  41  1   
 40  18  42  1   
 41  19  43  1   
 42  19  44  1   
 43  19  45  1   
 44  20  23  ar  
 45  20  46  1   
 46  21  23  ar  
 47  21  47  1   
 48  23  24  1   
 49  24  25  1   
 50  25  48  1   
 51  25  49  1   
 52  25  50  1   
@<TRIPOS>SUBSTRUCTURE
  1 ****   5 GROUP 4 **** **** 0

# MOE 2024.06 (io_trps.svl 2023.06)
