@<TRIPOS>MOLECULE
NONAME
35 35 1 0 0 
SMALL
USER_CHARGES


@<TRIPOS>ATOM
  1 S        0.4320     0.1080     1.0190 S.o2  1 <1>   1.3330 
  2 O        1.6590     0.0270     1.7730 O.2   1 <1>  -0.6500 
  3 O        0.2380    -0.6800    -0.1730 O.2   1 <1>  -0.6500 
  4 N        0.2460     1.7710     0.5860 N.am  1 <1>  -0.6930 
  5 C       -0.9270    -0.1500     2.1390 C.3   1 <1>  -0.1350 
  6 C       -0.9660     2.2450     0.0990 C.ar  1 <1>   0.1990 
  7 C        1.4840     2.4220     0.0590 C.3   1 <1>   0.2570 
  8 C       -1.4740     1.8210    -1.1220 C.ar  1 <1>  -0.1500 
  9 C       -1.6940     3.1610     0.8470 C.ar  1 <1>  -0.1500 
 10 C        2.0220     1.8090    -1.2360 C.2   1 <1>   0.6590 
 11 C       -2.6880     2.2930    -1.5870 C.ar  1 <1>  -0.1440 
 12 C       -2.9100     3.6410     0.3950 C.ar  1 <1>  -0.1440 
 13 O        1.6880     2.2160    -2.3210 O.2   1 <1>  -0.5700 
 14 O        2.8870     0.8110    -1.0990 O.3   1 <1>  -0.4300 
 15 C       -3.4030     3.2020    -0.8240 C.ar  1 <1>  -0.1500 
 16 C       -3.2350     1.8260    -2.9240 C.3   1 <1>  -0.0970 
 17 C       -3.7060     4.6420     1.2120 C.3   1 <1>  -0.0970 
 18 C        3.3740     0.0870    -2.2080 C.3   1 <1>   0.0400 
 19 H       -0.9070    -1.1530     2.5150 H     1 <1>   0.0800 
 20 H       -1.8600     0.0090     1.6320 H     1 <1>   0.0800 
 21 H       -0.8600     0.5310     2.9640 H     1 <1>   0.0800 
 22 H        2.2550     2.3700     0.8070 H     1 <1>   0.0800 
 23 H        1.2780     3.4600    -0.1290 H     1 <1>   0.0800 
 24 H       -0.9070     1.1200    -1.7100 H     1 <1>   0.1500 
 25 H       -1.2940     3.4910     1.7880 H     1 <1>   0.1500 
 26 H       -4.3470     3.5740    -1.1830 H     1 <1>   0.1500 
 27 H       -2.7220     0.9410    -3.2570 H     1 <1>   0.0800 
 28 H       -3.1010     2.5990    -3.6600 H     1 <1>   0.0800 
 29 H       -4.2820     1.6010    -2.8390 H     1 <1>   0.0800 
 30 H       -3.2300     4.8370     2.1550 H     1 <1>   0.0800 
 31 H       -4.6930     4.2590     1.4000 H     1 <1>   0.0800 
 32 H       -3.7900     5.5680     0.6720 H     1 <1>   0.0800 
 33 H        4.0530    -0.6660    -1.8500 H     1 <1>   0.0800 
 34 H        3.8810     0.7640    -2.8730 H     1 <1>   0.0800 
 35 H        2.5400    -0.3750    -2.7090 H     1 <1>   0.0800 
@<TRIPOS>BOND
  1   1   2  2   
  2   1   3  2   
  3   1   4  am  
  4   1   5  1   
  5   4   6  1   
  6   4   7  1   
  7   5  19  1   
  8   5  20  1   
  9   5  21  1   
 10   6   8  ar  
 11   6   9  ar  
 12   7  10  1   
 13   7  22  1   
 14   7  23  1   
 15   8  11  ar  
 16   8  24  1   
 17   9  12  ar  
 18   9  25  1   
 19  10  13  2   
 20  10  14  1   
 21  11  15  ar  
 22  11  16  1   
 23  12  15  ar  
 24  12  17  1   
 25  14  18  1   
 26  15  26  1   
 27  16  27  1   
 28  16  28  1   
 29  16  29  1   
 30  17  30  1   
 31  17  31  1   
 32  17  32  1   
 33  18  33  1   
 34  18  34  1   
 35  18  35  1   
@<TRIPOS>SUBSTRUCTURE
  1 ****   6 GROUP 4 **** **** 0

# MOE 2024.06 (io_trps.svl 2023.06)
