@<TRIPOS>MOLECULE
NONAME
31 32 1 0 0 
SMALL
USER_CHARGES


@<TRIPOS>ATOM
  1 S        0.0920     0.1260    -0.8940 S.o2  1 <1>   1.4470 
  2 O        0.5660    -1.1230    -1.4440 O.2   1 <1>  -0.6500 
  3 O        0.4410     1.3800    -1.5230 O.2   1 <1>  -0.6500 
  4 N        0.7510     0.1520     0.6500 N.am  1 <1>  -0.9140 
  5 C       -1.6930     0.0580    -0.5810 C.ar  1 <1>  -0.0090 
  6 C        2.1260     0.6420     0.6840 C.3   1 <1>   0.1160 
  7 C       -2.3420     1.0950     0.0770 C.ar  1 <1>  -0.1500 
  8 C       -2.4610    -1.0300    -0.9800 C.ar  1 <1>  -0.1500 
  9 C       -3.7020     1.0500     0.3280 C.ar  1 <1>  -0.1500 
 10 C       -3.8210    -1.0780    -0.7320 C.ar  1 <1>  -0.1500 
 11 C       -4.4690    -0.0380    -0.0740 C.ar  1 <1>   0.1170 
 12 N       -5.8550    -0.0810     0.1700 N.am  1 <1>  -0.4770 
 13 C       -6.6250    -1.1710     0.4660 C.2   1 <1>   0.5690 
 14 C       -6.6860     1.1360     0.0740 C.3   1 <1>   0.1400 
 15 O       -6.2470    -2.3060     0.6240 O.2   1 <1>  -0.5700 
 16 C       -8.0780    -0.8000     0.5870 C.3   1 <1>  -0.0990 
 17 C       -8.1320     0.6290     0.0340 C.3   1 <1>  -0.1600 
 18 H        0.7680    -0.8330     0.9130 H     1 <1>   0.4200 
 19 H        2.1560     1.6770     0.3830 H     1 <1>   0.0800 
 20 H        2.7460     0.0670     0.0170 H     1 <1>   0.0800 
 21 H        2.5160     0.5640     1.6840 H     1 <1>   0.0800 
 22 H       -1.7680     1.9480     0.3990 H     1 <1>   0.1500 
 23 H       -1.9910    -1.8530    -1.4920 H     1 <1>   0.1500 
 24 H       -4.1640     1.8680     0.8490 H     1 <1>   0.1500 
 25 H       -4.3870    -1.9340    -1.0530 H     1 <1>   0.1500 
 26 H       -6.4400     1.6950    -0.8130 H     1 <1>   0.0800 
 27 H       -6.5250     1.7440     0.9480 H     1 <1>   0.0800 
 28 H       -8.3590    -0.8280     1.6240 H     1 <1>   0.0800 
 29 H       -8.6930    -1.4750     0.0210 H     1 <1>   0.0800 
 30 H       -8.4660     0.6090    -0.9890 H     1 <1>   0.0800 
 31 H       -8.7920     1.2610     0.6020 H     1 <1>   0.0800 
@<TRIPOS>BOND
  1   1   2  2   
  2   1   3  2   
  3   1   4  am  
  4   1   5  1   
  5   4   6  1   
  6   4  18  1   
  7   5   7  ar  
  8   5   8  ar  
  9   6  19  1   
 10   6  20  1   
 11   6  21  1   
 12   7   9  ar  
 13   7  22  1   
 14   8  10  ar  
 15   8  23  1   
 16   9  11  ar  
 17   9  24  1   
 18  10  11  ar  
 19  10  25  1   
 20  11  12  1   
 21  12  13  am  
 22  12  14  1   
 23  13  15  2   
 24  13  16  1   
 25  14  17  1   
 26  14  26  1   
 27  14  27  1   
 28  16  17  1   
 29  16  28  1   
 30  16  29  1   
 31  17  30  1   
 32  17  31  1   
@<TRIPOS>SUBSTRUCTURE
  1 ****  11 GROUP 4 **** **** 0

# MOE 2024.06 (io_trps.svl 2023.06)
