@<TRIPOS>MOLECULE
NONAME
49 51 1 0 0 
SMALL
USER_CHARGES


@<TRIPOS>ATOM
  1 O        0.2970     0.9540    -1.2950 O.2   1 <1>  -0.5700 
  2 C        0.1750     1.8730    -0.5070 C.2   1 <1>   0.5440 
  3 N        1.2630     2.2540     0.2560 N.am  1 <1>  -0.6600 
  4 C       -1.1090     2.5400    -0.4000 C.ar  1 <1>   0.0860 
  5 C        2.5260     1.4640     0.2590 C.3   1 <1>   0.1400 
  6 C        1.3330     3.5420     1.0030 C.3   1 <1>   0.1400 
  7 C       -1.6880     3.1580    -1.5070 C.ar  1 <1>  -0.1500 
  8 C       -1.8090     2.5830     0.8060 C.ar  1 <1>  -0.1500 
  9 C        3.6670     2.3110    -0.3080 C.3   1 <1>  -0.1600 
 10 C        2.4730     4.3980     0.4460 C.3   1 <1>  -0.1600 
 11 C       -2.9050     3.8080    -1.4130 C.ar  1 <1>  -0.1500 
 12 C       -3.0270     3.2310     0.9070 C.ar  1 <1>  -0.1500 
 13 C        3.8170     3.6420     0.4520 C.3   1 <1>  -0.0190 
 14 C       -3.5760     3.8470    -0.2030 C.ar  1 <1>  -0.1500 
 15 C        4.9670     4.4730    -0.1210 C.2   1 <1>   0.5690 
 16 O        4.7410     5.2730    -0.9950 O.2   1 <1>  -0.5700 
 17 N        6.2150     4.2430     0.3920 N.am  1 <1>  -0.5470 
 18 C        7.4600     4.8310     0.1140 C.ar  1 <1>   0.1170 
 19 C        7.6020     6.0700    -0.5020 C.ar  1 <1>  -0.1500 
 20 C        8.6110     4.1520     0.4880 C.ar  1 <1>  -0.1500 
 21 C        8.8510     6.6190    -0.7460 C.ar  1 <1>  -0.1430 
 22 C        9.8620     4.6900     0.2510 C.ar  1 <1>  -0.1500 
 23 C        9.9930     5.9240    -0.3660 C.ar  1 <1>  -0.1430 
 24 C        8.9360     7.9770    -1.4290 C.3   1 <1>  -0.0970 
 25 C       11.3860     6.4860    -0.6130 C.3   1 <1>  -0.0970 
 26 H        2.4180     0.5670    -0.3270 H     1 <1>   0.0800 
 27 H        2.7500     1.1710     1.2700 H     1 <1>   0.0800 
 28 H        1.5030     3.3330     2.0450 H     1 <1>   0.0800 
 29 H        0.4120     4.0910     0.9180 H     1 <1>   0.0800 
 30 H       -1.1690     3.1210    -2.4490 H     1 <1>   0.1500 
 31 H       -1.3880     2.0980     1.6680 H     1 <1>   0.1500 
 32 H        3.4670     2.5080    -1.3480 H     1 <1>   0.0800 
 33 H        4.5830     1.7500    -0.2550 H     1 <1>   0.0800 
 34 H        2.5610     5.2980     1.0280 H     1 <1>   0.0800 
 35 H        2.2220     4.6880    -0.5610 H     1 <1>   0.0800 
 36 H       -3.3320     4.2810    -2.2810 H     1 <1>   0.1500 
 37 H       -3.5510     3.2540     1.8470 H     1 <1>   0.1500 
 38 H        4.0550     3.4190     1.4760 H     1 <1>   0.0800 
 39 H       -4.5240     4.3520    -0.1280 H     1 <1>   0.1500 
 40 H        6.2640     3.4850     1.0670 H     1 <1>   0.3700 
 41 H        6.7240     6.6150    -0.7920 H     1 <1>   0.1500 
 42 H        8.5360     3.1930     0.9650 H     1 <1>   0.1500 
 43 H       10.7360     4.1410     0.5500 H     1 <1>   0.1500 
 44 H        7.9570     8.3560    -1.6590 H     1 <1>   0.0800 
 45 H        9.4880     7.8930    -2.3470 H     1 <1>   0.0800 
 46 H        9.4280     8.6830    -0.7850 H     1 <1>   0.0800 
 47 H       11.5430     6.6290    -1.6670 H     1 <1>   0.0800 
 48 H       12.1430     5.8160    -0.2470 H     1 <1>   0.0800 
 49 H       11.4970     7.4280    -0.1090 H     1 <1>   0.0800 
@<TRIPOS>BOND
  1   1   2  2   
  2   2   3  am  
  3   2   4  1   
  4   3   5  1   
  5   3   6  1   
  6   4   7  ar  
  7   4   8  ar  
  8   5   9  1   
  9   5  26  1   
 10   5  27  1   
 11   6  10  1   
 12   6  28  1   
 13   6  29  1   
 14   7  11  ar  
 15   7  30  1   
 16   8  12  ar  
 17   8  31  1   
 18   9  13  1   
 19   9  32  1   
 20   9  33  1   
 21  10  13  1   
 22  10  34  1   
 23  10  35  1   
 24  11  14  ar  
 25  11  36  1   
 26  12  14  ar  
 27  12  37  1   
 28  13  15  1   
 29  13  38  1   
 30  14  39  1   
 31  15  16  2   
 32  15  17  am  
 33  17  18  1   
 34  17  40  1   
 35  18  19  ar  
 36  18  20  ar  
 37  19  21  ar  
 38  19  41  1   
 39  20  22  ar  
 40  20  42  1   
 41  21  23  ar  
 42  21  24  1   
 43  22  23  ar  
 44  22  43  1   
 45  23  25  1   
 46  24  44  1   
 47  24  45  1   
 48  24  46  1   
 49  25  47  1   
 50  25  48  1   
 51  25  49  1   
@<TRIPOS>SUBSTRUCTURE
  1 ****  13 GROUP 4 **** **** 0

# MOE 2024.06 (io_trps.svl 2023.06)
