@<TRIPOS>MOLECULE
NONAME
52 53 1 0 0 
SMALL
USER_CHARGES


@<TRIPOS>ATOM
  1 O        1.6750    -5.9830     1.5640 O.3   1 <1>  -0.5600 
  2 C        2.0680    -5.0830     0.5470 C.3   1 <1>   0.6240 
  3 C        2.0940    -7.3160     1.5520 C.3   1 <1>   0.0400 
  4 C        1.3120    -5.5120    -0.6760 C.1   1 <1>  -0.2000 
  5 C        1.5170    -3.6960     0.9710 C.ar  1 <1>  -0.1440 
  6 C        3.6220    -5.0350     0.3640 C.3   1 <1>  -0.0800 
  7 C        0.4790    -5.7670    -1.4850 C.1   1 <1>  -0.2000 
  8 C        1.2100    -2.7120     0.0310 C.ar  1 <1>  -0.1500 
  9 C        1.3110    -3.3890     2.3140 C.ar  1 <1>  -0.1500 
 10 C        4.1340    -3.8420    -0.4600 C.3   1 <1>  -0.1600 
 11 C        4.3240    -6.2480    -0.2960 C.3   1 <1>  -0.1600 
 12 C       -0.8000    -5.9550    -2.2220 C.3   1 <1>   0.5430 
 13 C        0.7020    -1.4830     0.4130 C.ar  1 <1>  -0.1500 
 14 C        0.8020    -2.1620     2.7010 C.ar  1 <1>  -0.1500 
 15 C        5.5640    -4.2120    -0.8270 C.3   1 <1>  -0.1600 
 16 C        5.5020    -5.7070    -1.1150 C.3   1 <1>  -0.1600 
 17 N       -1.9360    -5.5680    -1.3200 N.4   1 <1>  -0.9590 
 18 C        0.4940    -1.2070     1.7510 C.ar  1 <1>  -0.1500 
 19 C       -1.8230    -4.1330    -0.9240 C.3   1 <1>   0.3430 
 20 C       -2.0070    -6.4310    -0.1020 C.3   1 <1>   0.3430 
 21 C       -3.1850    -3.6100    -0.4830 C.3   1 <1>  -0.2400 
 22 C       -2.4440    -7.8410    -0.4840 C.3   1 <1>  -0.2400 
 23 H        1.4640    -7.8670     2.2280 H     1 <1>   0.0800 
 24 H        3.1080    -7.3680     1.9080 H     1 <1>   0.0800 
 25 H        2.0090    -7.7310     0.5640 H     1 <1>   0.0800 
 26 H        4.0410    -4.9130     1.3480 H     1 <1>   0.0800 
 27 H        1.3730    -2.8870    -1.0180 H     1 <1>   0.1500 
 28 H        1.5470    -4.1070     3.0820 H     1 <1>   0.1500 
 29 H        4.0980    -2.9190     0.0940 H     1 <1>   0.0800 
 30 H        3.5620    -3.7400    -1.3650 H     1 <1>   0.0800 
 31 H        3.6630    -6.7850    -0.9530 H     1 <1>   0.0800 
 32 H        4.6920    -6.9250     0.4540 H     1 <1>   0.0800 
 33 H       -0.8950    -6.9830    -2.5280 H     1 <1>   0.0800 
 34 H       -0.8000    -5.3350    -3.1040 H     1 <1>   0.0800 
 35 H        0.4770    -0.7340    -0.3270 H     1 <1>   0.1500 
 36 H        0.6500    -1.9490     3.7450 H     1 <1>   0.1500 
 37 H        6.2090    -4.0330     0.0170 H     1 <1>   0.0800 
 38 H        5.9250    -3.6500    -1.6720 H     1 <1>   0.0800 
 39 H        5.3110    -5.8620    -2.1630 H     1 <1>   0.0800 
 40 H        6.4270    -6.1920    -0.8550 H     1 <1>   0.0800 
 41 H       -2.8100    -5.6810    -1.8420 H     1 <1>   0.4500 
 42 H        0.1020    -0.2520     2.0540 H     1 <1>   0.1500 
 43 H       -1.4800    -3.5480    -1.7620 H     1 <1>   0.0800 
 44 H       -1.1050    -4.0220    -0.1250 H     1 <1>   0.0800 
 45 H       -2.7260    -6.0260     0.5910 H     1 <1>   0.0800 
 46 H       -1.0500    -6.4600     0.3980 H     1 <1>   0.0800 
 47 H       -3.9110    -3.7130    -1.2700 H     1 <1>   0.0800 
 48 H       -3.0950    -2.5630    -0.2510 H     1 <1>   0.0800 
 49 H       -3.5320    -4.1080     0.4030 H     1 <1>   0.0800 
 50 H       -3.3840    -7.8240    -1.0070 H     1 <1>   0.0800 
 51 H       -2.5760    -8.4190     0.4130 H     1 <1>   0.0800 
 52 H       -1.7000    -8.3370    -1.0800 H     1 <1>   0.0800 
@<TRIPOS>BOND
  1   1   2  1   
  2   1   3  1   
  3   2   4  1   
  4   2   5  1   
  5   2   6  1   
  6   3  23  1   
  7   3  24  1   
  8   3  25  1   
  9   4   7  3   
 10   5   8  ar  
 11   5   9  ar  
 12   6  10  1   
 13   6  11  1   
 14   6  26  1   
 15   7  12  1   
 16   8  13  ar  
 17   8  27  1   
 18   9  14  ar  
 19   9  28  1   
 20  10  15  1   
 21  10  29  1   
 22  10  30  1   
 23  11  16  1   
 24  11  31  1   
 25  11  32  1   
 26  12  17  1   
 27  12  33  1   
 28  12  34  1   
 29  13  18  ar  
 30  13  35  1   
 31  14  18  ar  
 32  14  36  1   
 33  15  16  1   
 34  15  37  1   
 35  15  38  1   
 36  16  39  1   
 37  16  40  1   
 38  17  19  1   
 39  17  20  1   
 40  17  41  1   
 41  18  42  1   
 42  19  21  1   
 43  19  43  1   
 44  19  44  1   
 45  20  22  1   
 46  20  45  1   
 47  20  46  1   
 48  21  47  1   
 49  21  48  1   
 50  21  49  1   
 51  22  50  1   
 52  22  51  1   
 53  22  52  1   
@<TRIPOS>SUBSTRUCTURE
  1 ****   2 GROUP 4 **** **** 0

# MOE 2024.06 (io_trps.svl 2023.06)
