@<TRIPOS>MOLECULE
NONAME
41 43 1 0 0 
SMALL
USER_CHARGES


@<TRIPOS>ATOM
  1 CL      -0.4550    -2.4440     0.2390 Cl    1 <1>  -0.1770 
  2 C        1.2780    -2.4010     0.0530 C.ar  1 <1>   0.1770 
  3 C        2.0850    -2.6510     1.1440 C.ar  1 <1>  -0.1500 
  4 C        1.8220    -2.1160    -1.1850 C.ar  1 <1>  -0.1500 
  5 C        3.4610    -2.6130     0.9890 C.ar  1 <1>  -0.1500 
  6 C        3.1990    -2.0810    -1.3260 C.ar  1 <1>  -0.1500 
  7 C        4.0410    -2.3260    -0.2440 C.ar  1 <1>  -0.0090 
  8 S        5.8470    -2.2720    -0.4190 S.o2  1 <1>   1.4470 
  9 O        6.2130    -1.7250    -1.7090 O.2   1 <1>  -0.6500 
 10 O        6.3920    -3.5500    -0.0260 O.2   1 <1>  -0.6500 
 11 N        6.3040    -1.1150     0.7270 N.am  1 <1>  -0.8490 
 12 C        7.7650    -0.9440     0.8000 C.3   1 <1>   0.3370 
 13 C        5.7730     0.2150     0.4680 C.3   1 <1>   0.1960 
 14 C        8.5790    -2.1030     1.4390 C.2   1 <1>   0.5690 
 15 C        7.9350     0.3850     1.5440 C.3   1 <1>  -0.1600 
 16 C        6.6380     1.1540     1.2990 C.3   1 <1>  -0.1600 
 17 O        8.4730    -2.3040     2.6310 O.2   1 <1>  -0.5700 
 18 N        9.4370    -2.8630     0.6800 N.am  1 <1>  -0.6600 
 19 C       10.1090    -4.0570     1.2390 C.3   1 <1>   0.1400 
 20 C        9.5960    -2.8160    -0.7930 C.3   1 <1>   0.1400 
 21 C       10.4760    -4.9040     0.0270 C.3   1 <1>  -0.1600 
 22 C       10.6170    -3.9010    -1.1130 C.3   1 <1>  -0.1600 
 23 H        1.6420    -2.8740     2.0990 H     1 <1>   0.1500 
 24 H        1.1740    -1.9270    -2.0220 H     1 <1>   0.1500 
 25 H        4.1010    -2.8090     1.8350 H     1 <1>   0.1500 
 26 H        3.6270    -1.8610    -2.2910 H     1 <1>   0.1500 
 27 H        8.1270    -0.7870    -0.2000 H     1 <1>   0.0800 
 28 H        4.7350     0.2800     0.7480 H     1 <1>   0.0800 
 29 H        5.8790     0.4670    -0.5760 H     1 <1>   0.0800 
 30 H        8.7980     0.9140     1.1830 H     1 <1>   0.0800 
 31 H        8.0560     0.2090     2.5990 H     1 <1>   0.0800 
 32 H        6.1490     1.3630     2.2350 H     1 <1>   0.0800 
 33 H        6.8070     2.0800     0.7770 H     1 <1>   0.0800 
 34 H        9.4530    -4.5890     1.9090 H     1 <1>   0.0800 
 35 H       10.9920    -3.7450     1.7690 H     1 <1>   0.0800 
 36 H        9.9410    -1.8500    -1.1180 H     1 <1>   0.0800 
 37 H        8.6560    -3.0490    -1.2630 H     1 <1>   0.0800 
 38 H        9.6640    -5.5800    -0.1800 H     1 <1>   0.0800 
 39 H       11.3740    -5.4730     0.1930 H     1 <1>   0.0800 
 40 H       11.6030    -3.4700    -1.1020 H     1 <1>   0.0800 
 41 H       10.4380    -4.3470    -2.0750 H     1 <1>   0.0800 
@<TRIPOS>BOND
  1   1   2  1   
  2   2   3  ar  
  3   2   4  ar  
  4   3   5  ar  
  5   3  23  1   
  6   4   6  ar  
  7   4  24  1   
  8   5   7  ar  
  9   5  25  1   
 10   6   7  ar  
 11   6  26  1   
 12   7   8  1   
 13   8   9  2   
 14   8  10  2   
 15   8  11  am  
 16  11  12  1   
 17  11  13  1   
 18  12  14  1   
 19  12  15  1   
 20  12  27  1   
 21  13  16  1   
 22  13  28  1   
 23  13  29  1   
 24  14  17  2   
 25  14  18  am  
 26  15  16  1   
 27  15  30  1   
 28  15  31  1   
 29  16  32  1   
 30  16  33  1   
 31  18  19  1   
 32  18  20  1   
 33  19  21  1   
 34  19  34  1   
 35  19  35  1   
 36  20  22  1   
 37  20  36  1   
 38  20  37  1   
 39  21  22  1   
 40  21  38  1   
 41  21  39  1   
 42  22  40  1   
 43  22  41  1   
@<TRIPOS>SUBSTRUCTURE
  1 ****   8 GROUP 4 **** **** 0

# MOE 2024.06 (io_trps.svl 2023.06)
