@<TRIPOS>MOLECULE
NONAME
53 56 1 0 0 
SMALL
USER_CHARGES


@<TRIPOS>ATOM
  1 O        2.7230    -1.3290     1.8120 O.3   1 <1>  -0.6800 
  2 C        2.8090    -0.1460     1.1060 C.3   1 <1>   0.1200 
  3 C        4.1570    -0.1630     0.3680 C.3   1 <1>   0.3430 
  4 N        4.4390     1.1040    -0.4040 N.4   1 <1>  -0.9590 
  5 C        5.6150     0.8510    -1.3170 C.3   1 <1>   0.3430 
  6 C        4.6640     2.2700     0.5320 C.3   1 <1>   0.3430 
  7 C        6.0850     2.1350    -2.0300 C.3   1 <1>   0.1860 
  8 C        5.1730     3.5420    -0.1840 C.3   1 <1>   0.1860 
  9 N        6.3620     3.2250    -1.0340 N.pl3 1 <1>  -0.0920 
 10 C        7.6060     3.7180    -0.7670 C.cat 1 <1>   0.3950 
 11 N        8.6760     2.8250    -0.6830 N.pl3 1 <1>   0.5610 
 12 C        7.8920     5.0860    -0.5150 C.2   1 <1>  -0.1240 
 13 N        8.6380     1.4580    -0.7930 N.2   1 <1>  -0.7070 
 14 C        9.9240     3.2250    -0.3030 C.2   1 <1>  -0.0680 
 15 C        9.1610     5.4730    -0.1200 C.2   1 <1>  -0.0380 
 16 C        6.8290     6.1730    -0.7310 C.3   1 <1>  -0.1020 
 17 C        9.8530     1.0710    -0.5420 C.2   1 <1>   0.1390 
 18 N       10.1460     4.5620    -0.0210 N.pl3 1 <1>  -0.5840 
 19 C       10.7190     2.1230    -0.2330 C.2   1 <1>  -0.0540 
 20 C        9.5790     6.8970     0.2240 C.3   1 <1>  -0.1020 
 21 C       12.1200     2.0340     0.0910 C.ar  1 <1>   0.0540 
 22 C       12.5930     1.0920     1.0010 C.ar  1 <1>  -0.1500 
 23 C       13.0440     2.8920    -0.5010 C.ar  1 <1>  -0.1500 
 24 C       13.9380     1.0120     1.3120 C.ar  1 <1>  -0.1500 
 25 C       14.3900     2.8170    -0.1920 C.ar  1 <1>  -0.1500 
 26 C       14.8390     1.8760     0.7160 C.ar  1 <1>  -0.1500 
 27 H        1.8640    -1.4240     2.2800 H     1 <1>   0.4000 
 28 H        2.7460     0.6610     1.8150 H     1 <1>   0.0800 
 29 H        1.9840    -0.1110     0.4150 H     1 <1>   0.0800 
 30 H        4.1470    -1.0020    -0.3080 H     1 <1>   0.0800 
 31 H        4.9400    -0.3300     1.0910 H     1 <1>   0.0800 
 32 H        3.6010     1.2760    -0.9850 H     1 <1>   0.4500 
 33 H        5.3510     0.1120    -2.0570 H     1 <1>   0.0800 
 34 H        6.4390     0.4500    -0.7470 H     1 <1>   0.0800 
 35 H        5.3890     1.9880     1.2810 H     1 <1>   0.0800 
 36 H        3.7470     2.5030     1.0510 H     1 <1>   0.0800 
 37 H        5.3220     2.4650    -2.7140 H     1 <1>   0.0800 
 38 H        6.9620     1.9250    -2.6180 H     1 <1>   0.0800 
 39 H        5.4350     4.2690     0.5650 H     1 <1>   0.0800 
 40 H        4.3920     3.9600    -0.7950 H     1 <1>   0.0800 
 41 H        6.0640     5.8680    -1.4210 H     1 <1>   0.0800 
 42 H        7.2750     7.0540    -1.1580 H     1 <1>   0.0800 
 43 H        6.3770     6.4510     0.2060 H     1 <1>   0.0800 
 44 H       10.1740     0.0410    -0.5650 H     1 <1>   0.1500 
 45 H       11.0950     4.8370     0.2870 H     1 <1>   0.4000 
 46 H       10.3070     6.8900     1.0160 H     1 <1>   0.0800 
 47 H        8.7510     7.4930     0.5620 H     1 <1>   0.0800 
 48 H       10.0190     7.3680    -0.6370 H     1 <1>   0.0800 
 49 H       11.9040     0.4170     1.4760 H     1 <1>   0.1500 
 50 H       12.7060     3.6210    -1.2160 H     1 <1>   0.1500 
 51 H       14.2860     0.2780     2.0190 H     1 <1>   0.1500 
 52 H       15.0900     3.4880    -0.6600 H     1 <1>   0.1500 
 53 H       15.8870     1.8150     0.9580 H     1 <1>   0.1500 
@<TRIPOS>BOND
  1   1   2  1   
  2   1  27  1   
  3   2   3  1   
  4   2  28  1   
  5   2  29  1   
  6   3   4  1   
  7   3  30  1   
  8   3  31  1   
  9   4   5  1   
 10   4   6  1   
 11   4  32  1   
 12   5   7  1   
 13   5  33  1   
 14   5  34  1   
 15   6   8  1   
 16   6  35  1   
 17   6  36  1   
 18   7   9  1   
 19   7  37  1   
 20   7  38  1   
 21   8   9  1   
 22   8  39  1   
 23   8  40  1   
 24   9  10  ar  
 25  10  11  ar  
 26  10  12  1   
 27  11  13  1   
 28  11  14  1   
 29  12  15  2   
 30  12  16  1   
 31  13  17  2   
 32  14  18  1   
 33  14  19  2   
 34  15  18  1   
 35  15  20  1   
 36  16  41  1   
 37  16  42  1   
 38  16  43  1   
 39  17  19  1   
 40  17  44  1   
 41  18  45  1   
 42  19  21  1   
 43  20  46  1   
 44  20  47  1   
 45  20  48  1   
 46  21  22  ar  
 47  21  23  ar  
 48  22  24  ar  
 49  22  49  1   
 50  23  25  ar  
 51  23  50  1   
 52  24  26  ar  
 53  24  51  1   
 54  25  26  ar  
 55  25  52  1   
 56  26  53  1   
@<TRIPOS>SUBSTRUCTURE
  1 ****  11 GROUP 4 **** **** 0

# MOE 2024.06 (io_trps.svl 2023.06)
