@<TRIPOS>MOLECULE
NONAME
38 39 1 0 0 
SMALL
USER_CHARGES


@<TRIPOS>ATOM
  1 O        0.3200     0.2830     0.7780 O.3   1 <1>  -0.5600 
  2 C        0.2920    -0.9140     0.0770 C.3   1 <1>   0.5690 
  3 C        0.7440     1.3960     0.0160 C.3   1 <1>   0.2000 
  4 N       -0.4500    -1.8460     0.9330 N.pl3 1 <1>  -0.8690 
  5 C        1.7520    -1.3880    -0.1940 C.3   1 <1>   0.2000 
  6 C        2.0340     1.0590    -0.7860 C.3   1 <1>   0.2000 
  7 C        0.8880     2.5860     0.9810 C.3   1 <1>   0.1200 
  8 C       -1.7700    -2.0930     0.5890 C.ar  1 <1>   0.1000 
  9 O        2.2040    -2.3140     0.7620 O.3   1 <1>  -0.6800 
 10 C        2.7170    -0.1880    -0.2020 C.3   1 <1>   0.2000 
 11 O        2.9460     2.1090    -0.7990 O.3   1 <1>  -0.6800 
 12 O       -0.2390     2.6610     1.7870 O.3   1 <1>  -0.6800 
 13 C       -2.6960    -1.0600     0.5070 C.ar  1 <1>  -0.1500 
 14 C       -2.1910    -3.3880     0.3180 C.ar  1 <1>  -0.1500 
 15 O        3.8730    -0.4980    -0.9170 O.3   1 <1>  -0.6800 
 16 C       -4.0050    -1.3110     0.1410 C.ar  1 <1>  -0.1500 
 17 C       -3.5010    -3.6420    -0.0480 C.ar  1 <1>  -0.1500 
 18 C       -4.4160    -2.6040    -0.1430 C.ar  1 <1>  -0.1430 
 19 C       -5.8540    -2.8810    -0.5420 C.3   1 <1>  -0.0970 
 20 H       -0.2360    -0.7500    -0.8480 H     1 <1>   0.0800 
 21 H       -0.0430     1.6250    -0.6830 H     1 <1>   0.0800 
 22 H        0.1090    -2.7000     1.0270 H     1 <1>   0.4000 
 23 H        1.7720    -1.8770    -1.1520 H     1 <1>   0.0800 
 24 H        1.7660     0.8670    -1.8100 H     1 <1>   0.0800 
 25 H        0.9870     3.5130     0.4430 H     1 <1>   0.0800 
 26 H        1.7480     2.4550     1.6140 H     1 <1>   0.0800 
 27 H        1.9700    -1.9860     1.6590 H     1 <1>   0.4000 
 28 H        3.0030     0.0370     0.8120 H     1 <1>   0.0800 
 29 H        3.8050     1.7540    -1.1190 H     1 <1>   0.4000 
 30 H       -0.4670     1.7450     2.0650 H     1 <1>   0.4000 
 31 H       -2.3860    -0.0580     0.7410 H     1 <1>   0.1500 
 32 H       -1.4920    -4.1990     0.3920 H     1 <1>   0.1500 
 33 H        4.2650    -1.3180    -0.5460 H     1 <1>   0.4000 
 34 H       -4.7050    -0.4970     0.0840 H     1 <1>   0.1500 
 35 H       -3.8080    -4.6520    -0.2550 H     1 <1>   0.1500 
 36 H       -6.2540    -2.0530    -1.0990 H     1 <1>   0.0800 
 37 H       -6.4520    -3.0280     0.3400 H     1 <1>   0.0800 
 38 H       -5.9130    -3.7620    -1.1540 H     1 <1>   0.0800 
@<TRIPOS>BOND
  1   1   2  1   
  2   1   3  1   
  3   2   4  1   
  4   2   5  1   
  5   2  20  1   
  6   3   6  1   
  7   3   7  1   
  8   3  21  1   
  9   4   8  1   
 10   4  22  1   
 11   5   9  1   
 12   5  10  1   
 13   5  23  1   
 14   6  10  1   
 15   6  11  1   
 16   6  24  1   
 17   7  12  1   
 18   7  25  1   
 19   7  26  1   
 20   8  13  ar  
 21   8  14  ar  
 22   9  27  1   
 23  10  15  1   
 24  10  28  1   
 25  11  29  1   
 26  12  30  1   
 27  13  16  ar  
 28  13  31  1   
 29  14  17  ar  
 30  14  32  1   
 31  15  33  1   
 32  16  18  ar  
 33  16  34  1   
 34  17  18  ar  
 35  17  35  1   
 36  18  19  1   
 37  19  36  1   
 38  19  37  1   
 39  19  38  1   
@<TRIPOS>SUBSTRUCTURE
  1 ****   2 GROUP 4 **** **** 0

# MOE 2024.06 (io_trps.svl 2023.06)
