@<TRIPOS>MOLECULE
NONAME
48 51 1 0 0 
SMALL
USER_CHARGES


@<TRIPOS>ATOM
  1 S        0.1760     0.3250     0.7130 S.3   1 <1>  -0.0800 
  2 C        0.8250     1.8590     0.1700 C.2   1 <1>   0.1240 
  3 C       -1.4590     0.8960     0.3850 C.2   1 <1>  -0.1400 
  4 N        2.1390     2.1810     0.1400 N.pl3 1 <1>  -0.5340 
  5 C       -0.1380     2.7230    -0.2250 C.2   1 <1>  -0.0860 
  6 C       -1.4540     2.1470    -0.1040 C.2   1 <1>  -0.1810 
  7 C       -2.6530     0.0070     0.6550 C.3   1 <1>   0.0200 
  8 C        2.5290     3.4180    -0.3110 C.2   1 <1>   0.4140 
  9 C        0.3180     4.0030    -0.6650 C.2   1 <1>   0.8670 
 10 C       -2.7440     2.8610    -0.4800 C.3   1 <1>   0.0210 
 11 C       -3.9340     0.8600     0.6030 C.3   1 <1>  -0.1600 
 12 N        1.6580     4.3040    -0.6930 N.2   1 <1>  -0.6610 
 13 C        3.9480     3.7120    -0.3380 C.ar  1 <1>   0.0860 
 14 O       -0.4650     4.8720    -1.0240 O.2   1 <1>  -0.5700 
 15 C       -3.9180     1.8630    -0.5700 C.3   1 <1>  -0.1600 
 16 C        4.4250     4.9740     0.0160 C.ar  1 <1>  -0.1500 
 17 C        4.8900     2.7560    -0.7140 C.ar  1 <1>  -0.1500 
 18 C        5.7800     5.2860     0.0100 C.ar  1 <1>   0.0820 
 19 C        6.2410     3.0430    -0.7110 C.ar  1 <1>  -0.1500 
 20 O        6.1870     6.5410     0.3510 O.3   1 <1>  -0.3630 
 21 C        6.7110     4.2940    -0.3480 C.ar  1 <1>   0.0820 
 22 C        5.3210     7.6340     0.1630 C.3   1 <1>   0.1200 
 23 O        8.0700     4.4130    -0.3890 O.3   1 <1>  -0.3630 
 24 C        4.2940     8.7570     0.0090 C.3   1 <1>  -0.2400 
 25 C        8.8170     5.5490    -0.0060 C.3   1 <1>   0.1200 
 26 C        9.7230     6.7180     0.3850 C.3   1 <1>  -0.2400 
 27 H        2.8360     1.5200     0.4880 H     1 <1>   0.4000 
 28 H       -2.5600    -0.4560     1.6220 H     1 <1>   0.0800 
 29 H       -2.6890    -0.7630    -0.0940 H     1 <1>   0.0800 
 30 H       -2.6280     3.3560    -1.4280 H     1 <1>   0.0800 
 31 H       -2.9530     3.6090     0.2640 H     1 <1>   0.0800 
 32 H       -4.0210     1.4110     1.5240 H     1 <1>   0.0800 
 33 H       -4.7910     0.2150     0.5230 H     1 <1>   0.0800 
 34 H       -3.8340     1.3140    -1.4920 H     1 <1>   0.0800 
 35 H       -4.8440     2.4090    -0.5970 H     1 <1>   0.0800 
 36 H        3.6980     5.7090     0.3070 H     1 <1>   0.1500 
 37 H        4.5670     1.7770    -1.0210 H     1 <1>   0.1500 
 38 H        6.9530     2.2900    -0.9990 H     1 <1>   0.1500 
 39 H        5.5410     7.6800    -0.8910 H     1 <1>   0.0800 
 40 H        5.9900     8.3020     0.6770 H     1 <1>   0.0800 
 41 H        3.4670     8.4240    -0.5940 H     1 <1>   0.0800 
 42 H        4.7350     9.6190    -0.4620 H     1 <1>   0.0800 
 43 H        3.9140     9.0490     0.9720 H     1 <1>   0.0800 
 44 H        8.3420     5.5970     0.9590 H     1 <1>   0.0800 
 45 H        8.3150     6.1780    -0.7200 H     1 <1>   0.0800 
 46 H       10.3670     6.4340     1.1990 H     1 <1>   0.0800 
 47 H        9.1360     7.5660     0.6920 H     1 <1>   0.0800 
 48 H       10.3380     7.0080    -0.4480 H     1 <1>   0.0800 
@<TRIPOS>BOND
  1   1   2  1   
  2   1   3  1   
  3   2   4  1   
  4   2   5  2   
  5   3   6  2   
  6   3   7  1   
  7   4   8  1   
  8   4  27  1   
  9   5   6  1   
 10   5   9  1   
 11   6  10  1   
 12   7  11  1   
 13   7  28  1   
 14   7  29  1   
 15   8  12  2   
 16   8  13  1   
 17   9  12  1   
 18   9  14  2   
 19  10  15  1   
 20  10  30  1   
 21  10  31  1   
 22  11  15  1   
 23  11  32  1   
 24  11  33  1   
 25  13  16  ar  
 26  13  17  ar  
 27  15  34  1   
 28  15  35  1   
 29  16  18  ar  
 30  16  36  1   
 31  17  19  ar  
 32  17  37  1   
 33  18  20  1   
 34  18  21  ar  
 35  19  21  ar  
 36  19  38  1   
 37  20  22  1   
 38  21  23  1   
 39  22  24  1   
 40  22  39  1   
 41  22  40  1   
 42  23  25  1   
 43  24  41  1   
 44  24  42  1   
 45  24  43  1   
 46  25  26  1   
 47  25  44  1   
 48  25  45  1   
 49  26  46  1   
 50  26  47  1   
 51  26  48  1   
@<TRIPOS>SUBSTRUCTURE
  1 ****   8 GROUP 4 **** **** 0

# MOE 2024.06 (io_trps.svl 2023.06)
