@<TRIPOS>MOLECULE
NONAME
36 38 1 0 0 
SMALL
USER_CHARGES


@<TRIPOS>ATOM
  1 S        0.7970     1.4900     0.4300 S.3   1 <1>  -0.2860 
  2 C       -0.9400     1.8150     0.2110 C.2   1 <1>   0.5340 
  3 C        1.3070     0.8600    -1.2430 C.3   1 <1>   0.1310 
  4 O       -1.6020     2.2900     1.2480 O.3   1 <1>  -0.2800 
  5 N       -1.5910     1.6220    -0.8710 N.2   1 <1>  -0.5650 
  6 C        2.7720     0.4540    -1.2620 C.2   1 <1>   0.5690 
  7 C       -2.8340     2.4270     0.7970 C.ar  1 <1>   0.1400 
  8 C       -2.8450     2.0170    -0.5170 C.ar  1 <1>   0.2270 
  9 O        3.3510     0.4410    -2.3200 O.2   1 <1>  -0.5700 
 10 N        3.3980     0.1130    -0.1040 N.am  1 <1>  -0.7300 
 11 C       -3.9740     2.8860     1.4420 C.ar  1 <1>  -0.1500 
 12 C       -4.0300     2.0570    -1.2430 C.ar  1 <1>  -0.1500 
 13 C        4.8240    -0.3020     0.0030 C.3   1 <1>   0.1400 
 14 C       -5.1510     2.9240     0.7170 C.ar  1 <1>  -0.1500 
 15 C       -5.1780     2.5110    -0.6190 C.ar  1 <1>  -0.1500 
 16 C        5.7730     0.9030    -0.0710 C.3   1 <1>   0.2000 
 17 O        7.0630     0.4930     0.2440 O.3   1 <1>  -0.5600 
 18 C        5.4890     2.0140     0.9330 C.3   1 <1>  -0.1600 
 19 C        7.8340     1.5920     0.6070 C.3   1 <1>   0.1200 
 20 C        6.8600     2.6320     1.1590 C.3   1 <1>  -0.1600 
 21 H        1.1280     1.6500    -1.9480 H     1 <1>   0.0800 
 22 H        0.6830     0.0180    -1.4740 H     1 <1>   0.0800 
 23 H        2.8910     0.2250     0.7780 H     1 <1>   0.3700 
 24 H       -3.9250     3.1970     2.4700 H     1 <1>   0.1500 
 25 H       -4.0300     1.7350    -2.2680 H     1 <1>   0.1500 
 26 H        5.0570    -0.9750    -0.8040 H     1 <1>   0.0800 
 27 H        4.9710    -0.8170     0.9360 H     1 <1>   0.0800 
 28 H       -6.0580     3.2740     1.1800 H     1 <1>   0.1500 
 29 H       -6.1070     2.5500    -1.1630 H     1 <1>   0.1500 
 30 H        5.7930     1.2940    -1.0740 H     1 <1>   0.0800 
 31 H        5.1170     1.5910     1.8500 H     1 <1>   0.0800 
 32 H        4.7730     2.7190     0.5490 H     1 <1>   0.0800 
 33 H        8.3350     1.9550    -0.2740 H     1 <1>   0.0800 
 34 H        8.5550     1.2770     1.3410 H     1 <1>   0.0800 
 35 H        7.0420     2.8170     2.2030 H     1 <1>   0.0800 
 36 H        6.9670     3.5530     0.6140 H     1 <1>   0.0800 
@<TRIPOS>BOND
  1   1   2  1   
  2   1   3  1   
  3   2   4  1   
  4   2   5  2   
  5   3   6  1   
  6   3  21  1   
  7   3  22  1   
  8   4   7  1   
  9   5   8  1   
 10   6   9  2   
 11   6  10  am  
 12   7   8  ar  
 13   7  11  ar  
 14   8  12  ar  
 15  10  13  1   
 16  10  23  1   
 17  11  14  ar  
 18  11  24  1   
 19  12  15  ar  
 20  12  25  1   
 21  13  16  1   
 22  13  26  1   
 23  13  27  1   
 24  14  15  ar  
 25  14  28  1   
 26  15  29  1   
 27  16  17  1   
 28  16  18  1   
 29  16  30  1   
 30  17  19  1   
 31  18  20  1   
 32  18  31  1   
 33  18  32  1   
 34  19  20  1   
 35  19  33  1   
 36  19  34  1   
 37  20  35  1   
 38  20  36  1   
@<TRIPOS>SUBSTRUCTURE
  1 ****   1 GROUP 4 **** **** 0

# MOE 2024.06 (io_trps.svl 2023.06)
