@<TRIPOS>MOLECULE
NONAME
44 44 1 0 0 
SMALL
USER_CHARGES


@<TRIPOS>ATOM
  1 O       -0.8920    -3.7890     0.0650 O.3   1 <1>  -0.3620 
  2 C       -2.1340    -3.2430     0.0520 C.ar  1 <1>   0.0830 
  3 C        0.2490    -3.0200    -0.2500 C.3   1 <1>   0.1200 
  4 C       -3.1920    -4.0890     0.3300 C.ar  1 <1>  -0.1500 
  5 C       -2.3900    -1.9050    -0.2200 C.ar  1 <1>  -0.1500 
  6 C        1.4820    -3.9270    -0.1540 C.3   1 <1>   0.2000 
  7 C       -4.5010    -3.6290     0.3410 C.ar  1 <1>  -0.1440 
  8 C       -3.6920    -1.4410    -0.2100 C.ar  1 <1>  -0.1500 
  9 O        1.4750    -4.5730     1.0840 O.3   1 <1>  -0.6800 
 10 C        2.8070    -3.1490    -0.3040 C.3   1 <1>   0.3430 
 11 C       -4.7610    -2.2850     0.0670 C.ar  1 <1>  -0.1440 
 12 C       -5.6030    -4.6310     0.6570 C.3   1 <1>  -0.0970 
 13 N        3.9350    -3.9120     0.3210 N.4   1 <1>  -0.9590 
 14 C       -6.1810    -1.6990     0.0600 C.3   1 <1>   0.0630 
 15 C        5.0360    -3.0240     0.7980 C.3   1 <1>   0.2630 
 16 C        4.4400    -5.0140    -0.5520 C.3   1 <1>   0.2630 
 17 C       -6.5430    -1.1530    -1.3250 C.3   1 <1>  -0.2400 
 18 C       -6.3320    -0.6110     1.1290 C.3   1 <1>  -0.2400 
 19 H        0.3150    -2.2090     0.4540 H     1 <1>   0.0800 
 20 H        0.1330    -2.6350    -1.2480 H     1 <1>   0.0800 
 21 H       -2.9790    -5.1210     0.5380 H     1 <1>   0.1500 
 22 H       -1.6040    -1.2100    -0.4400 H     1 <1>   0.1500 
 23 H        1.4180    -4.6830    -0.9180 H     1 <1>   0.0800 
 24 H       -3.8690    -0.4030    -0.4240 H     1 <1>   0.1500 
 25 H        0.5490    -4.8530     1.2790 H     1 <1>   0.4000 
 26 H        2.6950    -2.2050     0.2050 H     1 <1>   0.0800 
 27 H        3.0090    -2.9440    -1.3420 H     1 <1>   0.0800 
 28 H       -5.1990    -5.6110     0.8370 H     1 <1>   0.0800 
 29 H       -6.2860    -4.6990    -0.1710 H     1 <1>   0.0800 
 30 H       -6.1380    -4.3240     1.5370 H     1 <1>   0.0800 
 31 H        3.4730    -4.3590     1.1430 H     1 <1>   0.4500 
 32 H       -6.8990    -2.4630     0.2910 H     1 <1>   0.0800 
 33 H        5.5020    -2.5230    -0.0350 H     1 <1>   0.0800 
 34 H        5.7840    -3.6020     1.3160 H     1 <1>   0.0800 
 35 H        4.6490    -2.2810     1.4770 H     1 <1>   0.0800 
 36 H        4.8730    -4.6120    -1.4530 H     1 <1>   0.0800 
 37 H        3.6330    -5.6770    -0.8180 H     1 <1>   0.0800 
 38 H        5.1920    -5.5850    -0.0320 H     1 <1>   0.0800 
 39 H       -5.9140    -0.3230    -1.5910 H     1 <1>   0.0800 
 40 H       -7.5670    -0.8260    -1.3400 H     1 <1>   0.0800 
 41 H       -6.4200    -1.9260    -2.0630 H     1 <1>   0.0800 
 42 H       -5.6980     0.2300     0.9180 H     1 <1>   0.0800 
 43 H       -6.0630    -1.0090     2.0920 H     1 <1>   0.0800 
 44 H       -7.3510    -0.2710     1.1720 H     1 <1>   0.0800 
@<TRIPOS>BOND
  1   1   2  1   
  2   1   3  1   
  3   2   4  ar  
  4   2   5  ar  
  5   3   6  1   
  6   3  19  1   
  7   3  20  1   
  8   4   7  ar  
  9   4  21  1   
 10   5   8  ar  
 11   5  22  1   
 12   6   9  1   
 13   6  10  1   
 14   6  23  1   
 15   7  11  ar  
 16   7  12  1   
 17   8  11  ar  
 18   8  24  1   
 19   9  25  1   
 20  10  13  1   
 21  10  26  1   
 22  10  27  1   
 23  11  14  1   
 24  12  28  1   
 25  12  29  1   
 26  12  30  1   
 27  13  15  1   
 28  13  16  1   
 29  13  31  1   
 30  14  17  1   
 31  14  18  1   
 32  14  32  1   
 33  15  33  1   
 34  15  34  1   
 35  15  35  1   
 36  16  36  1   
 37  16  37  1   
 38  16  38  1   
 39  17  39  1   
 40  17  40  1   
 41  17  41  1   
 42  18  42  1   
 43  18  43  1   
 44  18  44  1   
@<TRIPOS>SUBSTRUCTURE
  1 ****   2 GROUP 4 **** **** 0

# MOE 2024.06 (io_trps.svl 2023.06)
