@<TRIPOS>MOLECULE
NONAME
40 40 1 0 0 
SMALL
USER_CHARGES


@<TRIPOS>ATOM
  1 O        0.5570    -1.5990     2.3280 O.3   1 <1>  -0.3630 
  2 C       -0.1960    -1.6310     1.2090 C.ar  1 <1>   0.0830 
  3 C        1.9620    -1.6770     2.1820 C.3   1 <1>   0.1200 
  4 C       -0.3840    -2.8080     0.4860 C.ar  1 <1>  -0.1440 
  5 C       -0.7670    -0.4420     0.7810 C.ar  1 <1>  -0.1500 
  6 C        2.5100    -0.3630     1.5980 C.3   1 <1>   0.3430 
  7 C       -1.0870    -2.7480    -0.7060 C.ar  1 <1>  -0.1500 
  8 C        0.1190    -4.1610     0.9710 C.3   1 <1>  -0.0960 
  9 C       -1.4700    -0.3920    -0.4090 C.ar  1 <1>  -0.1440 
 10 N        3.2000    -0.5110     0.2650 N.4   1 <1>  -0.9590 
 11 C       -1.6170    -1.5500    -1.1550 C.ar  1 <1>  -0.1500 
 12 C       -2.0950     0.9040    -0.8940 C.3   1 <1>  -0.0970 
 13 C        3.9500     0.7380    -0.0420 C.3   1 <1>   0.3430 
 14 C        2.2530    -0.8600    -0.8350 C.3   1 <1>   0.3430 
 15 C        4.9710     0.4790    -1.1440 C.3   1 <1>  -0.2400 
 16 C        2.6750    -2.1930    -1.4350 C.3   1 <1>  -0.2400 
 17 H        2.2070    -2.5270     1.5740 H     1 <1>   0.0800 
 18 H        2.3630    -1.8280     3.1690 H     1 <1>   0.0800 
 19 H       -0.6590     0.4400     1.3860 H     1 <1>   0.1500 
 20 H        3.2180     0.0340     2.3070 H     1 <1>   0.0800 
 21 H        1.7020     0.3450     1.5140 H     1 <1>   0.0800 
 22 H       -1.2400    -3.6400    -1.2890 H     1 <1>   0.1500 
 23 H        0.2060    -4.1730     2.0430 H     1 <1>   0.0800 
 24 H        1.0730    -4.3890     0.5360 H     1 <1>   0.0800 
 25 H       -0.5760    -4.9340     0.6930 H     1 <1>   0.0800 
 26 H        3.8850    -1.2730     0.3310 H     1 <1>   0.4500 
 27 H       -2.1650    -1.5280    -2.0820 H     1 <1>   0.1500 
 28 H       -1.7280     1.7440    -0.3330 H     1 <1>   0.0800 
 29 H       -3.1630     0.8550    -0.7770 H     1 <1>   0.0800 
 30 H       -1.8700     1.0610    -1.9330 H     1 <1>   0.0800 
 31 H        4.4730     1.0720     0.8400 H     1 <1>   0.0800 
 32 H        3.2680     1.5180    -0.3430 H     1 <1>   0.0800 
 33 H        2.2680    -0.0990    -1.6000 H     1 <1>   0.0800 
 34 H        1.2460    -0.9330    -0.4690 H     1 <1>   0.0800 
 35 H        5.5550     1.3690    -1.2960 H     1 <1>   0.0800 
 36 H        5.6430    -0.3140    -0.8670 H     1 <1>   0.0800 
 37 H        4.4920     0.2420    -2.0770 H     1 <1>   0.0800 
 38 H        1.9820    -2.4580    -2.2140 H     1 <1>   0.0800 
 39 H        3.6560    -2.1300    -1.8710 H     1 <1>   0.0800 
 40 H        2.6530    -2.9730    -0.6970 H     1 <1>   0.0800 
@<TRIPOS>BOND
  1   1   2  1   
  2   1   3  1   
  3   2   4  ar  
  4   2   5  ar  
  5   3   6  1   
  6   3  17  1   
  7   3  18  1   
  8   4   7  ar  
  9   4   8  1   
 10   5   9  ar  
 11   5  19  1   
 12   6  10  1   
 13   6  20  1   
 14   6  21  1   
 15   7  11  ar  
 16   7  22  1   
 17   8  23  1   
 18   8  24  1   
 19   8  25  1   
 20   9  11  ar  
 21   9  12  1   
 22  10  13  1   
 23  10  14  1   
 24  10  26  1   
 25  11  27  1   
 26  12  28  1   
 27  12  29  1   
 28  12  30  1   
 29  13  15  1   
 30  13  31  1   
 31  13  32  1   
 32  14  16  1   
 33  14  33  1   
 34  14  34  1   
 35  15  35  1   
 36  15  36  1   
 37  15  37  1   
 38  16  38  1   
 39  16  39  1   
 40  16  40  1   
@<TRIPOS>SUBSTRUCTURE
  1 ****   2 GROUP 4 **** **** 0

# MOE 2024.06 (io_trps.svl 2023.06)
