@<TRIPOS>MOLECULE
NONAME
32 34 1 0 0 
SMALL
USER_CHARGES


@<TRIPOS>ATOM
  1 BR      -0.2010    -1.4360    -1.3820 Br    1 <1>  -0.1110 
  2 C        1.5770    -1.7480    -0.7260 C.ar  1 <1>   0.1110 
  3 C        2.6040    -0.9340    -1.1630 C.ar  1 <1>  -0.1500 
  4 C        1.7900    -2.7760     0.1700 C.ar  1 <1>  -0.1500 
  5 C        3.8830    -1.1650    -0.6880 C.ar  1 <1>  -0.1500 
  6 C        3.0750    -2.9940     0.6330 C.ar  1 <1>  -0.1500 
  7 C        4.1510    -2.2040     0.2120 C.ar  1 <1>   0.0860 
  8 C        5.4910    -2.4670     0.7010 C.2   1 <1>   0.5440 
  9 O        5.6610    -2.8940     1.8220 O.2   1 <1>  -0.5700 
 10 N        6.5640    -2.2620    -0.1320 N.am  1 <1>  -0.4940 
 11 C        7.9150    -2.3000     0.1410 C.2   1 <1>   0.4420 
 12 S        8.9760    -2.1210    -1.2160 S.3   1 <1>  -0.0800 
 13 N        8.5580    -2.4340     1.2440 N.2   1 <1>  -0.3380 
 14 C       10.3040    -2.2670    -0.1130 C.2   1 <1>   0.1980 
 15 N        9.9170    -2.4150     1.0920 N.2   1 <1>  -0.3380 
 16 C       11.7160    -2.1980    -0.6970 C.3   1 <1>   0.3800 
 17 O       11.8820    -3.2180    -1.6350 O.3   1 <1>  -0.5600 
 18 C       12.8290    -2.4600     0.3130 C.3   1 <1>  -0.1600 
 19 C       12.2740    -4.3960    -1.0000 C.3   1 <1>   0.1200 
 20 C       12.9800    -3.9740     0.2870 C.3   1 <1>  -0.1600 
 21 H        2.3990    -0.1360    -1.8550 H     1 <1>   0.1500 
 22 H        0.9680    -3.3890     0.4970 H     1 <1>   0.1500 
 23 H        4.6790    -0.5190    -1.0140 H     1 <1>   0.1500 
 24 H        3.2590    -3.7890     1.3380 H     1 <1>   0.1500 
 25 H        6.3340    -2.0990    -1.1060 H     1 <1>   0.3700 
 26 H       11.8560    -1.2550    -1.1940 H     1 <1>   0.0800 
 27 H       12.5970    -2.0800     1.2930 H     1 <1>   0.0800 
 28 H       13.7320    -1.9930    -0.0380 H     1 <1>   0.0800 
 29 H       12.9220    -4.9440    -1.6610 H     1 <1>   0.0800 
 30 H       11.3900    -4.9730    -0.7870 H     1 <1>   0.0800 
 31 H       12.4880    -4.4250     1.1320 H     1 <1>   0.0800 
 32 H       14.0140    -4.2720     0.2830 H     1 <1>   0.0800 
@<TRIPOS>BOND
  1   1   2  1   
  2   2   3  ar  
  3   2   4  ar  
  4   3   5  ar  
  5   3  21  1   
  6   4   6  ar  
  7   4  22  1   
  8   5   7  ar  
  9   5  23  1   
 10   6   7  ar  
 11   6  24  1   
 12   7   8  1   
 13   8   9  2   
 14   8  10  am  
 15  10  11  1   
 16  10  25  1   
 17  11  12  1   
 18  11  13  2   
 19  12  14  1   
 20  13  15  1   
 21  14  15  2   
 22  14  16  1   
 23  16  17  1   
 24  16  18  1   
 25  16  26  1   
 26  17  19  1   
 27  18  20  1   
 28  18  27  1   
 29  18  28  1   
 30  19  20  1   
 31  19  29  1   
 32  19  30  1   
 33  20  31  1   
 34  20  32  1   
@<TRIPOS>SUBSTRUCTURE
  1 ****  10 GROUP 4 **** **** 0

# MOE 2024.06 (io_trps.svl 2023.06)
