@<TRIPOS>MOLECULE
NONAME
42 43 1 0 0 
SMALL
USER_CHARGES


@<TRIPOS>ATOM
  1 CL       0.6400     0.4790     2.0470 Cl    1 <1>  -0.1770 
  2 C        1.9800     1.1970     1.1940 C.ar  1 <1>   0.1770 
  3 C        2.5280     2.3770     1.6600 C.ar  1 <1>  -0.1500 
  4 C        2.4760     0.5770     0.0640 C.ar  1 <1>  -0.1500 
  5 C        3.5940     2.9460     0.9840 C.ar  1 <1>  -0.1500 
  6 C        3.5430     1.1460    -0.6120 C.ar  1 <1>  -0.1500 
  7 C        4.1080     2.3300    -0.1520 C.ar  1 <1>  -0.1430 
  8 C        5.2820     2.9450    -0.8800 C.3   1 <1>   0.4870 
  9 N        6.5010     2.4280    -0.2200 N.4   1 <1>  -0.9060 
 10 C        7.7810     2.9040    -0.7810 C.3   1 <1>   0.4230 
 11 C        8.9050     2.0860    -0.1330 C.3   1 <1>  -0.1600 
 12 C        7.9290     4.4110    -0.5260 C.3   1 <1>  -0.1600 
 13 C       10.2880     2.6300    -0.5010 C.3   1 <1>   0.1400 
 14 C        9.3310     4.8990    -0.8900 C.3   1 <1>   0.1400 
 15 N       10.3140     4.0690    -0.1590 N.am  1 <1>  -0.6600 
 16 C       10.8400     4.5150     1.0300 C.2   1 <1>   0.7800 
 17 O       10.3330     5.4200     1.6570 O.2   1 <1>  -0.5700 
 18 O       11.8980     3.9020     1.5480 O.3   1 <1>  -0.4300 
 19 C       13.1120     3.8930     0.8360 C.3   1 <1>   0.1200 
 20 C       14.0950     3.0070     1.5940 C.3   1 <1>  -0.2400 
 21 H        2.1170     2.8390     2.5410 H     1 <1>   0.1500 
 22 H        2.0240    -0.3390    -0.2780 H     1 <1>   0.1500 
 23 H        4.0060     3.8700     1.3560 H     1 <1>   0.1500 
 24 H        3.9140     0.6540    -1.4960 H     1 <1>   0.1500 
 25 H        5.2350     4.0200    -0.8070 H     1 <1>   0.0800 
 26 H        5.2630     2.6620    -1.9200 H     1 <1>   0.0800 
 27 H        6.4600     1.4040    -0.2470 H     1 <1>   0.4500 
 28 H        6.4540     2.6800     0.7740 H     1 <1>   0.4500 
 29 H        7.8040     2.7280    -1.8460 H     1 <1>   0.0800 
 30 H        8.8470     1.0610    -0.4500 H     1 <1>   0.0800 
 31 H        8.8180     2.1160     0.9400 H     1 <1>   0.0800 
 32 H        7.7630     4.6360     0.5140 H     1 <1>   0.0800 
 33 H        7.2220     4.9680    -1.1130 H     1 <1>   0.0800 
 34 H       10.4840     2.5080    -1.5530 H     1 <1>   0.0800 
 35 H       11.0460     2.0950     0.0480 H     1 <1>   0.0800 
 36 H        9.4460     5.9370    -0.6160 H     1 <1>   0.0800 
 37 H        9.5080     4.8140    -1.9490 H     1 <1>   0.0800 
 38 H       13.4750     4.9060     0.7800 H     1 <1>   0.0800 
 39 H       12.9440     3.5150    -0.1570 H     1 <1>   0.0800 
 40 H       14.2510     3.3950     2.5850 H     1 <1>   0.0800 
 41 H       15.0400     2.9900     1.0820 H     1 <1>   0.0800 
 42 H       13.7200     2.0020     1.6570 H     1 <1>   0.0800 
@<TRIPOS>BOND
  1   1   2  1   
  2   2   3  ar  
  3   2   4  ar  
  4   3   5  ar  
  5   3  21  1   
  6   4   6  ar  
  7   4  22  1   
  8   5   7  ar  
  9   5  23  1   
 10   6   7  ar  
 11   6  24  1   
 12   7   8  1   
 13   8   9  1   
 14   8  25  1   
 15   8  26  1   
 16   9  10  1   
 17   9  27  1   
 18   9  28  1   
 19  10  11  1   
 20  10  12  1   
 21  10  29  1   
 22  11  13  1   
 23  11  30  1   
 24  11  31  1   
 25  12  14  1   
 26  12  32  1   
 27  12  33  1   
 28  13  15  1   
 29  13  34  1   
 30  13  35  1   
 31  14  15  1   
 32  14  36  1   
 33  14  37  1   
 34  15  16  am  
 35  16  17  2   
 36  16  18  1   
 37  18  19  1   
 38  19  20  1   
 39  19  38  1   
 40  19  39  1   
 41  20  40  1   
 42  20  41  1   
 43  20  42  1   
@<TRIPOS>SUBSTRUCTURE
  1 ****   9 GROUP 4 **** **** 0

# MOE 2024.06 (io_trps.svl 2023.06)
