@<TRIPOS>MOLECULE
NONAME
35 35 1 0 0 
SMALL
USER_CHARGES


@<TRIPOS>ATOM
  1 O        0.8330     3.0890     1.7250 O.2   1 <1>  -0.5700 
  2 C       -0.0520     2.6460     1.0320 C.2   1 <1>   0.5690 
  3 N        0.1790     1.6990     0.0840 N.am  1 <1>  -0.7300 
  4 C       -1.4670     3.1720     1.2390 C.3   1 <1>   0.1810 
  5 C        1.4720     1.0930    -0.2380 C.3   1 <1>   0.2200 
  6 O       -2.3930     2.5560     0.3510 O.3   1 <1>  -0.3630 
  7 C        1.7920     1.3990    -1.6960 C.3   1 <1>  -0.2400 
  8 C        1.3680    -0.4080     0.0060 C.3   1 <1>  -0.2400 
  9 C       -3.7090     2.8860     0.3730 C.ar  1 <1>   0.0820 
 10 C       -4.5330     2.2330    -0.5290 C.ar  1 <1>  -0.1500 
 11 C       -4.2580     3.8270     1.2370 C.ar  1 <1>  -0.1500 
 12 C       -5.8910     2.5020    -0.5830 C.ar  1 <1>  -0.1440 
 13 C       -5.6130     4.0980     1.1870 C.ar  1 <1>  -0.1500 
 14 C       -6.4370     3.4440     0.2830 C.ar  1 <1>  -0.1440 
 15 C       -6.7530     1.7570    -1.5930 C.3   1 <1>  -0.0970 
 16 C       -7.9230     3.7750     0.2630 C.3   1 <1>  -0.0970 
 17 H       -0.6210     1.3730    -0.4630 H     1 <1>   0.3700 
 18 H       -1.4780     4.2310     1.0580 H     1 <1>   0.0800 
 19 H       -1.7750     2.9660     2.2470 H     1 <1>   0.0800 
 20 H        2.2390     1.5100     0.3970 H     1 <1>   0.0800 
 21 H        1.0400     0.9920    -2.3470 H     1 <1>   0.0800 
 22 H        2.7430     0.9710    -1.9590 H     1 <1>   0.0800 
 23 H        1.8510     2.4630    -1.8400 H     1 <1>   0.0800 
 24 H        0.6090    -0.8460    -0.6170 H     1 <1>   0.0800 
 25 H        1.1330    -0.5950     1.0380 H     1 <1>   0.0800 
 26 H        2.3080    -0.8800    -0.2160 H     1 <1>   0.0800 
 27 H       -4.0940     1.5090    -1.1900 H     1 <1>   0.1500 
 28 H       -3.6570     4.3560     1.9510 H     1 <1>   0.1500 
 29 H       -6.0260     4.8280     1.8610 H     1 <1>   0.1500 
 30 H       -6.1610     1.0720    -2.1740 H     1 <1>   0.0800 
 31 H       -7.2190     2.4540    -2.2650 H     1 <1>   0.0800 
 32 H       -7.5150     1.1950    -1.0840 H     1 <1>   0.0800 
 33 H       -8.5000     2.8930     0.4780 H     1 <1>   0.0800 
 34 H       -8.2030     4.1510    -0.7040 H     1 <1>   0.0800 
 35 H       -8.1630     4.5210     0.9980 H     1 <1>   0.0800 
@<TRIPOS>BOND
  1   1   2  2   
  2   2   3  am  
  3   2   4  1   
  4   3   5  1   
  5   3  17  1   
  6   4   6  1   
  7   4  18  1   
  8   4  19  1   
  9   5   7  1   
 10   5   8  1   
 11   5  20  1   
 12   6   9  1   
 13   7  21  1   
 14   7  22  1   
 15   7  23  1   
 16   8  24  1   
 17   8  25  1   
 18   8  26  1   
 19   9  10  ar  
 20   9  11  ar  
 21  10  12  ar  
 22  10  27  1   
 23  11  13  ar  
 24  11  28  1   
 25  12  14  ar  
 26  12  15  1   
 27  13  14  ar  
 28  13  29  1   
 29  14  16  1   
 30  15  30  1   
 31  15  31  1   
 32  15  32  1   
 33  16  33  1   
 34  16  34  1   
 35  16  35  1   
@<TRIPOS>SUBSTRUCTURE
  1 ****   6 GROUP 4 **** **** 0

# MOE 2024.06 (io_trps.svl 2023.06)
