@<TRIPOS>MOLECULE
NONAME
35 37 1 0 0 
SMALL
USER_CHARGES


@<TRIPOS>ATOM
  1 O       -0.5400     0.0580     0.0180 O.2   1 <1>  -0.5700 
  2 C       -1.1080     1.1150    -0.1020 C.2   1 <1>   0.5690 
  3 N       -2.2380     1.3010    -0.8240 N.am  1 <1>  -0.5470 
  4 C       -0.6680     2.4310     0.5170 C.3   1 <1>   0.1860 
  5 C       -2.6400     2.6240    -0.7860 C.ar  1 <1>   0.1170 
  6 C       -1.7590     3.3550    -0.0150 C.ar  1 <1>  -0.1440 
  7 C        0.7020     2.8140     0.0160 C.2   1 <1>   0.3290 
  8 C       -3.7290     3.2330    -1.3880 C.ar  1 <1>  -0.1500 
  9 C       -1.9390     4.7130     0.1720 C.ar  1 <1>  -0.1500 
 10 N        1.6260     3.2470     0.7680 N.2   1 <1>  -0.5030 
 11 C       -3.9170     4.5930    -1.2030 C.ar  1 <1>  -0.1500 
 12 C       -3.0270     5.3290    -0.4290 C.ar  1 <1>  -0.1500 
 13 N        2.8440     3.5560     0.2290 N.pl3 1 <1>  -0.4870 
 14 C        3.6090     2.4640    -0.4370 C.3   1 <1>   0.1100 
 15 C        3.6870     4.4370     1.0720 C.3   1 <1>   0.1100 
 16 C        4.7210     3.0620    -1.3070 C.3   1 <1>  -0.1600 
 17 C        4.8000     5.0650     0.2240 C.3   1 <1>  -0.1600 
 18 C        5.6330     3.9930    -0.4940 C.3   1 <1>  -0.1600 
 19 H       -2.7030     0.5400    -1.3180 H     1 <1>   0.3700 
 20 H       -0.6930     2.3720     1.5890 H     1 <1>   0.0800 
 21 H        0.8230     2.6970    -1.0470 H     1 <1>   0.0600 
 22 H       -4.4120     2.6570    -1.9850 H     1 <1>   0.1500 
 23 H       -1.2460     5.2820     0.7700 H     1 <1>   0.1500 
 24 H       -4.7570     5.0860    -1.6620 H     1 <1>   0.1500 
 25 H       -3.1830     6.3860    -0.2940 H     1 <1>   0.1500 
 26 H        2.9540     1.8690    -1.0460 H     1 <1>   0.0800 
 27 H        4.0350     1.8290     0.3210 H     1 <1>   0.0800 
 28 H        4.1110     3.8550     1.8710 H     1 <1>   0.0800 
 29 H        3.0720     5.2090     1.5010 H     1 <1>   0.0800 
 30 H        4.2690     3.6110    -2.1140 H     1 <1>   0.0800 
 31 H        5.3050     2.2660    -1.7350 H     1 <1>   0.0800 
 32 H        5.4370     5.6570     0.8560 H     1 <1>   0.0800 
 33 H        4.3510     5.7220    -0.5000 H     1 <1>   0.0800 
 34 H        6.3500     4.4620    -1.1450 H     1 <1>   0.0800 
 35 H        6.1720     3.4140     0.2360 H     1 <1>   0.0800 
@<TRIPOS>BOND
  1   1   2  2   
  2   2   3  am  
  3   2   4  1   
  4   3   5  1   
  5   3  19  1   
  6   4   6  1   
  7   4   7  1   
  8   4  20  1   
  9   5   6  ar  
 10   5   8  ar  
 11   6   9  ar  
 12   7  10  2   
 13   7  21  1   
 14   8  11  ar  
 15   8  22  1   
 16   9  12  ar  
 17   9  23  1   
 18  10  13  1   
 19  11  12  ar  
 20  11  24  1   
 21  12  25  1   
 22  13  14  1   
 23  13  15  1   
 24  14  16  1   
 25  14  26  1   
 26  14  27  1   
 27  15  17  1   
 28  15  28  1   
 29  15  29  1   
 30  16  18  1   
 31  16  30  1   
 32  16  31  1   
 33  17  18  1   
 34  17  32  1   
 35  17  33  1   
 36  18  34  1   
 37  18  35  1   
@<TRIPOS>SUBSTRUCTURE
  1 ****   7 GROUP 4 **** **** 0

# MOE 2024.06 (io_trps.svl 2023.06)
