@<TRIPOS>MOLECULE
NONAME
36 37 1 0 0 
SMALL
USER_CHARGES


@<TRIPOS>ATOM
  1 S       -6.8000     0.3130    -0.2390 S.3   1 <1>  -0.0800 
  2 C       -5.3190     1.1680     0.1900 C.ar  1 <1>   0.2970 
  3 C       -7.5730     1.8060    -0.7880 C.2   1 <1>  -0.1400 
  4 N       -4.2540     0.5730     0.6820 N.ar  1 <1>  -0.5670 
  5 C       -5.4530     2.5080    -0.0680 C.ar  1 <1>   0.0000 
  6 C       -6.7340     2.8470    -0.6320 C.2   1 <1>  -0.1500 
  7 C       -8.9870     1.6680    -1.3240 C.3   1 <1>   0.0200 
  8 C       -3.2670     1.4160     0.9150 C.ar  1 <1>   0.4770 
  9 C       -4.3390     3.2840     0.2470 C.ar  1 <1>   0.4100 
 10 C       -9.5660     3.0130    -1.7730 C.3   1 <1>  -0.2400 
 11 N       -3.2390     2.7270     0.7270 N.ar  1 <1>  -0.6200 
 12 C       -1.9960     0.8190     1.4720 C.3   1 <1>  -0.0960 
 13 N       -4.3420     4.6530     0.0890 N.pl3 1 <1>  -0.8380 
 14 C       -5.2140     5.4810     0.9590 C.3   1 <1>   0.2090 
 15 C       -3.1870     5.3310    -0.5510 C.3   1 <1>   0.2090 
 16 C       -4.5660     5.6540     2.3300 C.3   1 <1>  -0.2400 
 17 C       -3.6570     5.9820    -1.8460 C.3   1 <1>  -0.2400 
 18 H       -6.9400     3.8680    -0.8950 H     1 <1>   0.1500 
 19 H       -9.6130     1.2480    -0.5560 H     1 <1>   0.0800 
 20 H       -8.9790     0.9870    -2.1570 H     1 <1>   0.0800 
 21 H       -9.5980     3.6990    -0.9460 H     1 <1>   0.0800 
 22 H      -10.5650     2.8760    -2.1470 H     1 <1>   0.0800 
 23 H       -8.9610     3.4350    -2.5560 H     1 <1>   0.0800 
 24 H       -2.1190    -0.2320     1.6570 H     1 <1>   0.0800 
 25 H       -1.7440     1.3100     2.3930 H     1 <1>   0.0800 
 26 H       -1.1990     0.9610     0.7670 H     1 <1>   0.0800 
 27 H       -6.1680     4.9970     1.0780 H     1 <1>   0.0800 
 28 H       -5.3800     6.4410     0.5020 H     1 <1>   0.0800 
 29 H       -2.4160     4.6140    -0.7750 H     1 <1>   0.0800 
 30 H       -2.7730     6.0690     0.1140 H     1 <1>   0.0800 
 31 H       -4.4000     4.6920     2.7820 H     1 <1>   0.0800 
 32 H       -5.2150     6.2250     2.9680 H     1 <1>   0.0800 
 33 H       -3.6290     6.1710     2.2450 H     1 <1>   0.0800 
 34 H       -4.0720     5.2350    -2.4990 H     1 <1>   0.0800 
 35 H       -2.8240     6.4460    -2.3400 H     1 <1>   0.0800 
 36 H       -4.3980     6.7330    -1.6450 H     1 <1>   0.0800 
@<TRIPOS>BOND
  1   1   2  1   
  2   1   3  1   
  3   2   4  ar  
  4   2   5  ar  
  5   3   6  2   
  6   3   7  1   
  7   4   8  ar  
  8   5   6  1   
  9   5   9  ar  
 10   6  18  1   
 11   7  10  1   
 12   7  19  1   
 13   7  20  1   
 14   8  11  ar  
 15   8  12  1   
 16   9  11  ar  
 17   9  13  1   
 18  10  21  1   
 19  10  22  1   
 20  10  23  1   
 21  12  24  1   
 22  12  25  1   
 23  12  26  1   
 24  13  14  1   
 25  13  15  1   
 26  14  16  1   
 27  14  27  1   
 28  14  28  1   
 29  15  17  1   
 30  15  29  1   
 31  15  30  1   
 32  16  31  1   
 33  16  32  1   
 34  16  33  1   
 35  17  34  1   
 36  17  35  1   
 37  17  36  1   
@<TRIPOS>SUBSTRUCTURE
  1 ****   5 GROUP 4 **** **** 0

# MOE 2024.06 (io_trps.svl 2023.06)
