@<TRIPOS>MOLECULE
NONAME
49 50 1 0 0 
SMALL
USER_CHARGES


@<TRIPOS>ATOM
  1 S       -0.8440     0.8630    -0.4640 S.o2  1 <1>   1.3330 
  2 O       -0.0570     2.0350    -0.1670 O.2   1 <1>  -0.6500 
  3 O       -0.2410    -0.4470    -0.4750 O.2   1 <1>  -0.6500 
  4 N       -2.1500     0.8470     0.6760 N.am  1 <1>  -0.6930 
  5 C       -1.6960     1.1470    -2.0000 C.3   1 <1>  -0.1350 
  6 C       -3.2230    -0.0340     0.5760 C.ar  1 <1>   0.1990 
  7 C       -1.8800     1.4760     1.9910 C.3   1 <1>   0.1160 
  8 C       -4.5150     0.4680     0.5320 C.ar  1 <1>  -0.1500 
  9 C       -3.0380    -1.4100     0.5240 C.ar  1 <1>  -0.1500 
 10 C       -5.6200    -0.3660     0.4290 C.ar  1 <1>   0.1170 
 11 C       -4.1240    -2.2590     0.4160 C.ar  1 <1>  -0.1500 
 12 N       -6.8960     0.2170     0.3770 N.am  1 <1>  -0.5470 
 13 C       -5.4050    -1.7390     0.3660 C.ar  1 <1>  -0.1500 
 14 C       -8.1420    -0.2710     0.7030 C.2   1 <1>   0.5440 
 15 O       -8.2750    -1.4180     1.0780 O.2   1 <1>  -0.5700 
 16 C       -9.2960     0.6000     0.5830 C.ar  1 <1>   0.0860 
 17 C       -9.2270     1.9640     0.8620 C.ar  1 <1>  -0.1500 
 18 C      -10.5310     0.1030     0.1760 C.ar  1 <1>  -0.1500 
 19 C      -10.3300     2.7860     0.7200 C.ar  1 <1>  -0.1500 
 20 C      -11.6350     0.9230     0.0350 C.ar  1 <1>  -0.1500 
 21 C      -11.5580     2.2870     0.3010 C.ar  1 <1>  -0.1430 
 22 C      -12.7610     3.2450     0.1560 C.3   1 <1>   0.1430 
 23 C      -13.0680     3.8920     1.5150 C.3   1 <1>  -0.2400 
 24 C      -14.0420     2.5400    -0.3220 C.3   1 <1>  -0.2400 
 25 C      -12.4260     4.3400    -0.8680 C.3   1 <1>  -0.2400 
 26 H       -0.9900     1.2090    -2.8040 H     1 <1>   0.0800 
 27 H       -2.2470     2.0650    -1.9520 H     1 <1>   0.0800 
 28 H       -2.3760     0.3420    -2.2000 H     1 <1>   0.0800 
 29 H       -0.9960     1.0390     2.4230 H     1 <1>   0.0800 
 30 H       -2.7090     1.3220     2.6600 H     1 <1>   0.0800 
 31 H       -1.7200     2.5320     1.8620 H     1 <1>   0.0800 
 32 H       -4.6520     1.5310     0.5810 H     1 <1>   0.1500 
 33 H       -2.0440    -1.8190     0.5740 H     1 <1>   0.1500 
 34 H       -3.9740    -3.3240     0.3730 H     1 <1>   0.1500 
 35 H       -6.9070     1.1810     0.0520 H     1 <1>   0.3700 
 36 H       -6.2370    -2.4130     0.2750 H     1 <1>   0.1500 
 37 H       -8.3040     2.3940     1.2070 H     1 <1>   0.1500 
 38 H      -10.6200    -0.9500    -0.0330 H     1 <1>   0.1500 
 39 H      -10.2220     3.8310     0.9470 H     1 <1>   0.1500 
 40 H      -12.5520     0.4650    -0.2860 H     1 <1>   0.1500 
 41 H      -13.2710     3.1310     2.2470 H     1 <1>   0.0800 
 42 H      -13.9260     4.5360     1.4430 H     1 <1>   0.0800 
 43 H      -12.2380     4.4800     1.8620 H     1 <1>   0.0800 
 44 H      -13.8870     2.0880    -1.2860 H     1 <1>   0.0800 
 45 H      -14.8500     3.2440    -0.4110 H     1 <1>   0.0800 
 46 H      -14.3390     1.7810     0.3780 H     1 <1>   0.0800 
 47 H      -11.5910     4.9330    -0.5430 H     1 <1>   0.0800 
 48 H      -13.2650     4.9970    -1.0100 H     1 <1>   0.0800 
 49 H      -12.1760     3.8940    -1.8140 H     1 <1>   0.0800 
@<TRIPOS>BOND
  1   1   2  2   
  2   1   3  2   
  3   1   4  am  
  4   1   5  1   
  5   4   6  1   
  6   4   7  1   
  7   5  26  1   
  8   5  27  1   
  9   5  28  1   
 10   6   8  ar  
 11   6   9  ar  
 12   7  29  1   
 13   7  30  1   
 14   7  31  1   
 15   8  10  ar  
 16   8  32  1   
 17   9  11  ar  
 18   9  33  1   
 19  10  12  1   
 20  10  13  ar  
 21  11  13  ar  
 22  11  34  1   
 23  12  14  am  
 24  12  35  1   
 25  13  36  1   
 26  14  15  2   
 27  14  16  1   
 28  16  17  ar  
 29  16  18  ar  
 30  17  19  ar  
 31  17  37  1   
 32  18  20  ar  
 33  18  38  1   
 34  19  21  ar  
 35  19  39  1   
 36  20  21  ar  
 37  20  40  1   
 38  21  22  1   
 39  22  23  1   
 40  22  24  1   
 41  22  25  1   
 42  23  41  1   
 43  23  42  1   
 44  23  43  1   
 45  24  44  1   
 46  24  45  1   
 47  24  46  1   
 48  25  47  1   
 49  25  48  1   
 50  25  49  1   
@<TRIPOS>SUBSTRUCTURE
  1 ****  12 GROUP 4 **** **** 0

# MOE 2024.06 (io_trps.svl 2023.06)
