@<TRIPOS>MOLECULE
NONAME
42 44 1 0 0 
SMALL
USER_CHARGES


@<TRIPOS>ATOM
  1 O       -0.6770    -0.2500     0.9520 O.2   1 <1>  -0.5700 
  2 C       -1.6550    -0.8660     0.6470 C.2   1 <1>   0.4480 
  3 C       -1.6210    -2.2740     0.0540 C.3   1 <1>   0.0610 
  4 C       -3.0520    -0.2840     0.8000 C.3   1 <1>   0.0610 
  5 C       -0.1630    -2.8450    -0.0650 C.3   1 <1>  -0.0800 
  6 C       -2.2570    -2.1790    -1.3450 C.3   1 <1>   0.3430 
  7 C       -2.4740    -3.1570     0.9920 C.3   1 <1>   0.1100 
  8 C       -3.6410    -0.1850    -0.6140 C.3   1 <1>   0.3430 
  9 C       -3.8580    -1.2250     1.7070 C.3   1 <1>   0.1100 
 10 C       -3.0440     1.1250     1.4340 C.3   1 <1>  -0.2400 
 11 C        0.7080    -2.0970    -1.1110 C.3   1 <1>  -0.1600 
 12 C       -0.1240    -4.3590    -0.3750 C.3   1 <1>  -0.2400 
 13 N       -3.5790    -1.4550    -1.4250 N.4   1 <1>  -0.9590 
 14 N       -3.8210    -2.6130     1.2300 N.3   1 <1>  -0.8100 
 15 C        2.2140    -2.2660    -0.8670 C.3   1 <1>  -0.2400 
 16 C       -4.7520    -2.3620    -1.1570 C.3   1 <1>   0.3430 
 17 C       -4.8530    -2.9920     0.2500 C.3   1 <1>   0.1100 
 18 H        0.3030    -2.7090     0.8980 H     1 <1>   0.0800 
 19 H       -1.5600    -1.6560    -1.9790 H     1 <1>   0.0800 
 20 H       -2.3640    -3.1730    -1.7460 H     1 <1>   0.0800 
 21 H       -1.9720    -3.2330     1.9430 H     1 <1>   0.0800 
 22 H       -2.5720    -4.1550     0.6020 H     1 <1>   0.0800 
 23 H       -3.0870     0.5780    -1.1360 H     1 <1>   0.0800 
 24 H       -4.6630     0.1510    -0.5450 H     1 <1>   0.0800 
 25 H       -4.8790    -0.8920     1.7940 H     1 <1>   0.0800 
 26 H       -3.4310    -1.2030     2.6970 H     1 <1>   0.0800 
 27 H       -2.5970     1.0910     2.4130 H     1 <1>   0.0800 
 28 H       -4.0430     1.5140     1.5320 H     1 <1>   0.0800 
 29 H       -2.4660     1.8100     0.8360 H     1 <1>   0.0800 
 30 H        0.5100    -1.0410    -1.0840 H     1 <1>   0.0800 
 31 H        0.4820    -2.4410    -2.1060 H     1 <1>   0.0800 
 32 H       -0.6430    -4.5910    -1.2870 H     1 <1>   0.0800 
 33 H       -0.5480    -4.9360     0.4270 H     1 <1>   0.0800 
 34 H        0.8900    -4.7000    -0.4790 H     1 <1>   0.0800 
 35 H       -3.6840    -1.1670    -2.4080 H     1 <1>   0.4500 
 36 H        2.4730    -1.9360     0.1240 H     1 <1>   0.0800 
 37 H        2.7660    -1.6670    -1.5710 H     1 <1>   0.0800 
 38 H        2.5270    -3.2870    -0.9860 H     1 <1>   0.0800 
 39 H       -4.7410    -3.1680    -1.8730 H     1 <1>   0.0800 
 40 H       -5.6630    -1.8150    -1.3340 H     1 <1>   0.0800 
 41 H       -5.8180    -2.7480     0.6600 H     1 <1>   0.0800 
 42 H       -4.8450    -4.0630     0.1420 H     1 <1>   0.0800 
@<TRIPOS>BOND
  1   1   2  2   
  2   2   3  1   
  3   2   4  1   
  4   3   5  1   
  5   3   6  1   
  6   3   7  1   
  7   4   8  1   
  8   4   9  1   
  9   4  10  1   
 10   5  11  1   
 11   5  12  1   
 12   5  18  1   
 13   6  13  1   
 14   6  19  1   
 15   6  20  1   
 16   7  14  1   
 17   7  21  1   
 18   7  22  1   
 19   8  13  1   
 20   8  23  1   
 21   8  24  1   
 22   9  14  1   
 23   9  25  1   
 24   9  26  1   
 25  10  27  1   
 26  10  28  1   
 27  10  29  1   
 28  11  15  1   
 29  11  30  1   
 30  11  31  1   
 31  12  32  1   
 32  12  33  1   
 33  12  34  1   
 34  13  16  1   
 35  13  35  1   
 36  14  17  1   
 37  15  36  1   
 38  15  37  1   
 39  15  38  1   
 40  16  17  1   
 41  16  39  1   
 42  16  40  1   
 43  17  41  1   
 44  17  42  1   
@<TRIPOS>SUBSTRUCTURE
  1 ****   3 GROUP 4 **** **** 0

# MOE 2024.06 (io_trps.svl 2023.06)
