@<TRIPOS>MOLECULE
NONAME
40 41 1 0 0 
SMALL
USER_CHARGES


@<TRIPOS>ATOM
  1 O        0.5790    -0.4810    -1.3920 O.3   1 <1>  -0.6800 
  2 C        1.8020    -1.1260    -1.2930 C.3   1 <1>   0.1200 
  3 C        2.6950    -0.3150    -0.3490 C.3   1 <1>   0.1100 
  4 N        4.0300    -0.9340    -0.1800 N.3   1 <1>  -0.8100 
  5 C        4.9900     0.0550     0.3660 C.3   1 <1>   0.1100 
  6 C        3.9830    -2.1330     0.6960 C.3   1 <1>   0.1100 
  7 C        6.4120    -0.5330     0.5420 C.3   1 <1>   0.3430 
  8 C        5.3870    -2.7270     0.9720 C.3   1 <1>   0.3430 
  9 N        6.4450    -1.9960     0.1990 N.4   1 <1>  -0.9590 
 10 C        7.7880    -2.6400     0.3150 C.3   1 <1>   0.3430 
 11 C        8.7800    -2.0890    -0.7110 C.3   1 <1>  -0.0170 
 12 C       10.0810    -2.8570    -0.5830 C.ar  1 <1>  -0.1440 
 13 C       11.0640    -2.4290     0.2970 C.ar  1 <1>  -0.1500 
 14 C       10.2950    -4.0000    -1.3390 C.ar  1 <1>  -0.1500 
 15 C       12.2440    -3.1400     0.4260 C.ar  1 <1>  -0.1500 
 16 C       11.4760    -4.7110    -1.2100 C.ar  1 <1>  -0.1500 
 17 C       12.4500    -4.2820    -0.3270 C.ar  1 <1>  -0.1500 
 18 H       -0.0080    -0.9370    -2.0280 H     1 <1>   0.4000 
 19 H        2.2390    -1.1750    -2.2750 H     1 <1>   0.0800 
 20 H        1.6230    -2.1150    -0.9130 H     1 <1>   0.0800 
 21 H        2.2100    -0.2100     0.6070 H     1 <1>   0.0800 
 22 H        2.8090     0.6660    -0.7800 H     1 <1>   0.0800 
 23 H        4.6390     0.4190     1.3180 H     1 <1>   0.0800 
 24 H        5.0490     0.9020    -0.2980 H     1 <1>   0.0800 
 25 H        3.3780    -2.8930     0.2310 H     1 <1>   0.0800 
 26 H        3.5180    -1.8850     1.6350 H     1 <1>   0.0800 
 27 H        6.7330    -0.3840     1.5600 H     1 <1>   0.0800 
 28 H        7.0880     0.0090    -0.0980 H     1 <1>   0.0800 
 29 H        5.3840    -3.7700     0.7000 H     1 <1>   0.0800 
 30 H        5.5950    -2.6650     2.0270 H     1 <1>   0.0800 
 31 H        6.1040    -2.0330    -0.7750 H     1 <1>   0.4500 
 32 H        7.6920    -3.7010     0.1530 H     1 <1>   0.0800 
 33 H        8.1830    -2.4930     1.3070 H     1 <1>   0.0800 
 34 H        8.9700    -1.0460    -0.5380 H     1 <1>   0.0800 
 35 H        8.3910    -2.2100    -1.7060 H     1 <1>   0.0800 
 36 H       10.9270    -1.5410     0.8890 H     1 <1>   0.1500 
 37 H        9.5540    -4.3500    -2.0360 H     1 <1>   0.1500 
 38 H       13.0060    -2.8060     1.1090 H     1 <1>   0.1500 
 39 H       11.6400    -5.5980    -1.7980 H     1 <1>   0.1500 
 40 H       13.3690    -4.8350    -0.2270 H     1 <1>   0.1500 
@<TRIPOS>BOND
  1   1   2  1   
  2   1  18  1   
  3   2   3  1   
  4   2  19  1   
  5   2  20  1   
  6   3   4  1   
  7   3  21  1   
  8   3  22  1   
  9   4   5  1   
 10   4   6  1   
 11   5   7  1   
 12   5  23  1   
 13   5  24  1   
 14   6   8  1   
 15   6  25  1   
 16   6  26  1   
 17   7   9  1   
 18   7  27  1   
 19   7  28  1   
 20   8   9  1   
 21   8  29  1   
 22   8  30  1   
 23   9  10  1   
 24   9  31  1   
 25  10  11  1   
 26  10  32  1   
 27  10  33  1   
 28  11  12  1   
 29  11  34  1   
 30  11  35  1   
 31  12  13  ar  
 32  12  14  ar  
 33  13  15  ar  
 34  13  36  1   
 35  14  16  ar  
 36  14  37  1   
 37  15  17  ar  
 38  15  38  1   
 39  16  17  ar  
 40  16  39  1   
 41  17  40  1   
@<TRIPOS>SUBSTRUCTURE
  1 ****   9 GROUP 4 **** **** 0

# MOE 2024.06 (io_trps.svl 2023.06)
