@<TRIPOS>MOLECULE
NONAME
33 35 1 0 0 
SMALL
USER_CHARGES


@<TRIPOS>ATOM
  1 BR       0.7960     1.1790     0.9320 Br    1 <1>  -0.1110 
  2 C        2.0690    -0.2500     0.6960 C.ar  1 <1>   0.1110 
  3 C        3.3850     0.0600     0.4600 C.ar  1 <1>  -0.1500 
  4 C        1.5980    -1.5630     0.7730 C.ar  1 <1>  -0.1500 
  5 C        4.2850    -0.9960     0.2930 C.ar  1 <1>   0.0000 
  6 C        2.4860    -2.6020     0.6100 C.ar  1 <1>  -0.1500 
  7 C        3.8370    -2.3150     0.3710 C.ar  1 <1>  -0.1520 
  8 C        5.6680    -1.0660     0.0330 C.2   1 <1>  -0.1810 
  9 N        4.9130    -3.1570     0.1730 N.pl3 1 <1>   0.0480 
 10 C        6.0220    -2.3690    -0.0150 C.2   1 <1>  -0.3320 
 11 C        6.6220     0.0920    -0.1850 C.3   1 <1>   0.0210 
 12 C        4.8250    -4.6330     0.0630 C.3   1 <1>   0.0960 
 13 C        7.4370    -2.8540    -0.2730 C.3   1 <1>   0.3800 
 14 C        7.8810    -0.4070    -0.9150 C.3   1 <1>  -0.1600 
 15 C        4.4750    -5.0430    -1.3700 C.3   1 <1>  -0.2400 
 16 O        7.7700    -3.6880     0.7640 O.3   1 <1>  -0.6800 
 17 C        8.4440    -1.6870    -0.2650 C.3   1 <1>  -0.1600 
 18 H        3.7230     1.0770     0.4040 H     1 <1>   0.1500 
 19 H        0.5540    -1.7400     0.9590 H     1 <1>   0.1500 
 20 H        2.1520    -3.6230     0.6630 H     1 <1>   0.1500 
 21 H        6.8860     0.5100     0.7700 H     1 <1>   0.0800 
 22 H        6.1410     0.8550    -0.7710 H     1 <1>   0.0800 
 23 H        4.0730    -4.9850     0.7440 H     1 <1>   0.0800 
 24 H        5.7620    -5.0710     0.3500 H     1 <1>   0.0800 
 25 H        7.4920    -3.4070    -1.1950 H     1 <1>   0.0800 
 26 H        8.6290     0.3670    -0.9100 H     1 <1>   0.0800 
 27 H        7.6270    -0.6180    -1.9400 H     1 <1>   0.0800 
 28 H        3.5290    -4.6190    -1.6590 H     1 <1>   0.0800 
 29 H        4.4080    -6.1130    -1.4380 H     1 <1>   0.0800 
 30 H        5.2370    -4.7040    -2.0490 H     1 <1>   0.0800 
 31 H        7.4440    -3.2600     1.5780 H     1 <1>   0.4000 
 32 H        9.3330    -1.9950    -0.7850 H     1 <1>   0.0800 
 33 H        8.7120    -1.4520     0.7500 H     1 <1>   0.0800 
@<TRIPOS>BOND
  1   1   2  1   
  2   2   3  ar  
  3   2   4  ar  
  4   3   5  ar  
  5   3  18  1   
  6   4   6  ar  
  7   4  19  1   
  8   5   7  ar  
  9   5   8  1   
 10   6   7  ar  
 11   6  20  1   
 12   7   9  1   
 13   8  10  2   
 14   8  11  1   
 15   9  10  1   
 16   9  12  1   
 17  10  13  1   
 18  11  14  1   
 19  11  21  1   
 20  11  22  1   
 21  12  15  1   
 22  12  23  1   
 23  12  24  1   
 24  13  16  1   
 25  13  17  1   
 26  13  25  1   
 27  14  17  1   
 28  14  26  1   
 29  14  27  1   
 30  15  28  1   
 31  15  29  1   
 32  15  30  1   
 33  16  31  1   
 34  17  32  1   
 35  17  33  1   
@<TRIPOS>SUBSTRUCTURE
  1 ****   5 GROUP 4 **** **** 0

# MOE 2024.06 (io_trps.svl 2023.06)
