@<TRIPOS>MOLECULE
NONAME
40 41 1 0 0 
SMALL
USER_CHARGES


@<TRIPOS>ATOM
  1 O        1.1800    -1.5090    -1.7060 O.3   1 <1>  -0.5600 
  2 C        1.8550    -0.2910    -1.5280 C.3   1 <1>   0.1200 
  3 C        0.3950    -1.8990    -0.6130 C.3   1 <1>   0.1200 
  4 C        2.6760    -0.2760    -0.2180 C.3   1 <1>   0.3430 
  5 C        1.2710    -2.1280     0.6410 C.3   1 <1>   0.3430 
  6 N        2.6710    -1.6270     0.4400 N.4   1 <1>  -0.9590 
  7 C        3.5130    -1.7030     1.6650 C.3   1 <1>   0.4860 
  8 C        4.9250    -1.2770     1.3130 C.ar  1 <1>  -0.1440 
  9 C        5.6950    -2.0530     0.4620 C.ar  1 <1>  -0.1500 
 10 C        5.4600    -0.1070     1.8260 C.ar  1 <1>  -0.1500 
 11 C        6.9770    -1.6750     0.1000 C.ar  1 <1>   0.0820 
 12 C        6.7390     0.2870     1.4770 C.ar  1 <1>  -0.1500 
 13 O        7.5890    -2.5480    -0.7480 O.3   1 <1>  -0.3630 
 14 C        7.5140    -0.4790     0.6070 C.ar  1 <1>   0.0820 
 15 C        8.9880    -2.6060    -0.9010 C.3   1 <1>   0.1200 
 16 O        8.7640    -0.0760     0.2360 O.3   1 <1>  -0.3630 
 17 C        9.3320    -3.9070    -1.6190 C.3   1 <1>  -0.2400 
 18 C        9.3720     1.0910     0.7460 C.3   1 <1>   0.0400 
 19 H        1.1340     0.5080    -1.5340 H     1 <1>   0.0800 
 20 H        2.5090    -0.1570    -2.3730 H     1 <1>   0.0800 
 21 H       -0.1180    -2.8070    -0.8810 H     1 <1>   0.0800 
 22 H       -0.3440    -1.1370    -0.4310 H     1 <1>   0.0800 
 23 H        2.2590     0.4600     0.4500 H     1 <1>   0.0800 
 24 H        3.6870     0.0270    -0.4430 H     1 <1>   0.0800 
 25 H        1.2900    -3.1830     0.8620 H     1 <1>   0.0800 
 26 H        0.8120    -1.6290     1.4780 H     1 <1>   0.0800 
 27 H        3.0920    -2.2460    -0.2680 H     1 <1>   0.4500 
 28 H        3.5290    -2.7120     2.0430 H     1 <1>   0.0800 
 29 H        3.1160    -1.0560     2.4300 H     1 <1>   0.0800 
 30 H        5.3190    -2.9760     0.0570 H     1 <1>   0.1500 
 31 H        4.8930     0.5120     2.5020 H     1 <1>   0.1500 
 32 H        7.1150     1.2020     1.8950 H     1 <1>   0.1500 
 33 H        9.4420    -2.5760     0.0750 H     1 <1>   0.0800 
 34 H        9.3020    -1.7570    -1.4830 H     1 <1>   0.0800 
 35 H        9.0010    -4.7490    -1.0380 H     1 <1>   0.0800 
 36 H       10.3960    -3.9780    -1.7510 H     1 <1>   0.0800 
 37 H        8.8640    -3.9290    -2.5870 H     1 <1>   0.0800 
 38 H       10.3550     1.1690     0.3160 H     1 <1>   0.0800 
 39 H        9.4500     1.0080     1.8160 H     1 <1>   0.0800 
 40 H        8.7840     1.9450     0.4630 H     1 <1>   0.0800 
@<TRIPOS>BOND
  1   1   2  1   
  2   1   3  1   
  3   2   4  1   
  4   2  19  1   
  5   2  20  1   
  6   3   5  1   
  7   3  21  1   
  8   3  22  1   
  9   4   6  1   
 10   4  23  1   
 11   4  24  1   
 12   5   6  1   
 13   5  25  1   
 14   5  26  1   
 15   6   7  1   
 16   6  27  1   
 17   7   8  1   
 18   7  28  1   
 19   7  29  1   
 20   8   9  ar  
 21   8  10  ar  
 22   9  11  ar  
 23   9  30  1   
 24  10  12  ar  
 25  10  31  1   
 26  11  13  1   
 27  11  14  ar  
 28  12  14  ar  
 29  12  32  1   
 30  13  15  1   
 31  14  16  1   
 32  15  17  1   
 33  15  33  1   
 34  15  34  1   
 35  16  18  1   
 36  17  35  1   
 37  17  36  1   
 38  17  37  1   
 39  18  38  1   
 40  18  39  1   
 41  18  40  1   
@<TRIPOS>SUBSTRUCTURE
  1 ****   9 GROUP 4 **** **** 0

# MOE 2024.06 (io_trps.svl 2023.06)
