@<TRIPOS>MOLECULE
NONAME
37 38 1 0 0 
SMALL
USER_CHARGES


@<TRIPOS>ATOM
  1 O       -0.3470    -0.4040     0.7780 O.2   1 <1>  -0.5700 
  2 C       -0.3470    -1.5180     0.3190 C.2   1 <1>   0.5690 
  3 N        0.7760    -2.1100    -0.1600 N.am  1 <1>  -0.7300 
  4 C       -1.6520    -2.2810     0.2650 C.3   1 <1>  -0.0990 
  5 C        2.1180    -1.4980    -0.1590 C.3   1 <1>   0.1400 
  6 C       -2.6930    -1.5290    -0.5750 C.3   1 <1>   0.0200 
  7 C        3.1120    -2.5060     0.4030 C.3   1 <1>  -0.2400 
  8 C       -3.9790    -2.3220    -0.6920 C.2   1 <1>   0.2980 
  9 O       -3.9780    -3.4170    -1.4060 O.3   1 <1>  -0.0190 
 10 N       -5.0860    -2.0260    -0.1520 N.2   1 <1>  -0.5650 
 11 N       -5.1920    -3.8580    -1.3090 N.2   1 <1>  -0.4100 
 12 C       -5.8530    -3.0390    -0.5690 C.2   1 <1>   0.4620 
 13 C       -7.2560    -3.1630    -0.2080 C.ar  1 <1>   0.0540 
 14 C       -7.8910    -2.2260     0.6100 C.ar  1 <1>  -0.1500 
 15 C       -8.0310    -4.2310    -0.6680 C.ar  1 <1>  -0.1500 
 16 C       -9.2250    -2.3490     0.9510 C.ar  1 <1>  -0.1500 
 17 C       -9.3670    -4.3610    -0.3320 C.ar  1 <1>  -0.1500 
 18 C       -9.9750    -3.4150     0.4850 C.ar  1 <1>   0.0820 
 19 O      -11.2750    -3.4640     0.8630 O.3   1 <1>  -0.3630 
 20 C      -12.1240    -4.5090     0.4430 C.3   1 <1>   0.0400 
 21 H        0.7320    -3.0570    -0.5390 H     1 <1>   0.3700 
 22 H       -2.0190    -2.3980     1.2680 H     1 <1>   0.0800 
 23 H       -1.4840    -3.2580    -0.1490 H     1 <1>   0.0800 
 24 H        2.1180    -0.6050     0.4450 H     1 <1>   0.0800 
 25 H        2.3890    -1.2270    -1.1660 H     1 <1>   0.0800 
 26 H       -2.3070    -1.3410    -1.5600 H     1 <1>   0.0800 
 27 H       -2.9080    -0.5800    -0.1150 H     1 <1>   0.0800 
 28 H        2.8420    -2.7710     1.4090 H     1 <1>   0.0800 
 29 H        4.0950    -2.0710     0.4200 H     1 <1>   0.0800 
 30 H        3.1430    -3.3900    -0.2090 H     1 <1>   0.0800 
 31 H       -7.3310    -1.3870     0.9870 H     1 <1>   0.1500 
 32 H       -7.5780    -4.9730    -1.3020 H     1 <1>   0.1500 
 33 H       -9.6960    -1.6170     1.5830 H     1 <1>   0.1500 
 34 H       -9.9150    -5.2020    -0.7140 H     1 <1>   0.1500 
 35 H      -13.0980    -4.3370     0.8650 H     1 <1>   0.0800 
 36 H      -11.7310    -5.4430     0.8010 H     1 <1>   0.0800 
 37 H      -12.1840    -4.4990    -0.6310 H     1 <1>   0.0800 
@<TRIPOS>BOND
  1   1   2  2   
  2   2   3  am  
  3   2   4  1   
  4   3   5  1   
  5   3  21  1   
  6   4   6  1   
  7   4  22  1   
  8   4  23  1   
  9   5   7  1   
 10   5  24  1   
 11   5  25  1   
 12   6   8  1   
 13   6  26  1   
 14   6  27  1   
 15   7  28  1   
 16   7  29  1   
 17   7  30  1   
 18   8   9  1   
 19   8  10  2   
 20   9  11  1   
 21  10  12  1   
 22  11  12  2   
 23  12  13  1   
 24  13  14  ar  
 25  13  15  ar  
 26  14  16  ar  
 27  14  31  1   
 28  15  17  ar  
 29  15  32  1   
 30  16  18  ar  
 31  16  33  1   
 32  17  18  ar  
 33  17  34  1   
 34  18  19  1   
 35  19  20  1   
 36  20  35  1   
 37  20  36  1   
 38  20  37  1   
@<TRIPOS>SUBSTRUCTURE
  1 ****  10 GROUP 4 **** **** 0

# MOE 2024.06 (io_trps.svl 2023.06)
