@<TRIPOS>MOLECULE
NONAME
43 45 1 0 0 
SMALL
USER_CHARGES


@<TRIPOS>ATOM
  1 CL       1.1350     1.8780     0.4090 Cl    1 <1>  -0.1770 
  2 C        2.6180     1.0590    -0.0210 C.ar  1 <1>   0.1770 
  3 C        2.6100     0.1370    -1.0520 C.ar  1 <1>  -0.1500 
  4 C        3.7780     1.3440     0.6770 C.ar  1 <1>  -0.1500 
  5 C        3.7870    -0.5080    -1.3870 C.ar  1 <1>  -0.1500 
  6 C        4.9500     0.6940     0.3340 C.ar  1 <1>  -0.1500 
  7 C        4.9660    -0.2380    -0.7010 C.ar  1 <1>   0.1000 
  8 N        6.1280    -0.9070    -1.0670 N.pl3 1 <1>  -0.8380 
  9 C        7.2000    -0.1330    -1.7610 C.3   1 <1>   0.2090 
 10 C        6.6550    -1.9610    -0.1500 C.3   1 <1>   0.2090 
 11 C        8.3180     0.3230    -0.8030 C.3   1 <1>   0.1960 
 12 C        7.7890    -1.4420     0.7560 C.3   1 <1>   0.1960 
 13 N        8.8760    -0.7800     0.0070 N.am  1 <1>  -0.8490 
 14 S       10.0870    -0.2490     1.0690 S.o2  1 <1>   1.4470 
 15 O       10.4270    -1.4000     1.8800 O.2   1 <1>  -0.6500 
 16 O        9.5620     0.9150     1.7500 O.2   1 <1>  -0.6500 
 17 C       11.5090     0.1120    -0.0040 C.ar  1 <1>  -0.0090 
 18 C       11.6980     1.3560    -0.6120 C.ar  1 <1>   0.0830 
 19 C       12.4470    -0.8850    -0.2520 C.ar  1 <1>  -0.1500 
 20 O       10.7730     2.3220    -0.3950 O.3   1 <1>  -0.3630 
 21 C       12.8010     1.5970    -1.4330 C.ar  1 <1>  -0.1500 
 22 C       13.5310    -0.6280    -1.0660 C.ar  1 <1>   0.1900 
 23 C       11.1170     3.6910    -0.4370 C.3   1 <1>   0.0400 
 24 C       13.7300     0.5990    -1.6630 C.ar  1 <1>  -0.1500 
 25 F       14.3990    -1.5800    -1.2800 F     1 <1>  -0.1900 
 26 H        1.6970    -0.0680    -1.5800 H     1 <1>   0.1500 
 27 H        3.7580     2.0650     1.4740 H     1 <1>   0.1500 
 28 H        3.8090    -1.2280    -2.1840 H     1 <1>   0.1500 
 29 H        5.8550     0.9080     0.8690 H     1 <1>   0.1500 
 30 H        6.7670     0.7290    -2.2380 H     1 <1>   0.0800 
 31 H        7.6300    -0.7510    -2.5300 H     1 <1>   0.0800 
 32 H        7.0270    -2.7800    -0.7400 H     1 <1>   0.0800 
 33 H        5.8540    -2.3350     0.4630 H     1 <1>   0.0800 
 34 H        7.9280     1.0950    -0.1610 H     1 <1>   0.0800 
 35 H        9.0980     0.7590    -1.3990 H     1 <1>   0.0800 
 36 H        8.1890    -2.2820     1.2990 H     1 <1>   0.0800 
 37 H        7.3750    -0.7590     1.4780 H     1 <1>   0.0800 
 38 H       12.3380    -1.8610     0.1880 H     1 <1>   0.1500 
 39 H       12.9450     2.5500    -1.9060 H     1 <1>   0.1500 
 40 H       10.3050     4.2510    -0.0090 H     1 <1>   0.0800 
 41 H       11.2640     3.9870    -1.4600 H     1 <1>   0.0800 
 42 H       12.0100     3.8460     0.1430 H     1 <1>   0.0800 
 43 H       14.5870     0.7610    -2.2920 H     1 <1>   0.1500 
@<TRIPOS>BOND
  1   1   2  1   
  2   2   3  ar  
  3   2   4  ar  
  4   3   5  ar  
  5   3  26  1   
  6   4   6  ar  
  7   4  27  1   
  8   5   7  ar  
  9   5  28  1   
 10   6   7  ar  
 11   6  29  1   
 12   7   8  1   
 13   8   9  1   
 14   8  10  1   
 15   9  11  1   
 16   9  30  1   
 17   9  31  1   
 18  10  12  1   
 19  10  32  1   
 20  10  33  1   
 21  11  13  1   
 22  11  34  1   
 23  11  35  1   
 24  12  13  1   
 25  12  36  1   
 26  12  37  1   
 27  13  14  am  
 28  14  15  2   
 29  14  16  2   
 30  14  17  1   
 31  17  18  ar  
 32  17  19  ar  
 33  18  20  1   
 34  18  21  ar  
 35  19  22  ar  
 36  19  38  1   
 37  20  23  1   
 38  21  24  ar  
 39  21  39  1   
 40  22  24  ar  
 41  22  25  1   
 42  23  40  1   
 43  23  41  1   
 44  23  42  1   
 45  24  43  1   
@<TRIPOS>SUBSTRUCTURE
  1 ****  11 GROUP 4 **** **** 0

# MOE 2024.06 (io_trps.svl 2023.06)
