@<TRIPOS>MOLECULE
NONAME
55 56 1 0 0 
SMALL
USER_CHARGES


@<TRIPOS>ATOM
  1 O        0.1900     1.3600     2.7920 O.2   1 <1>  -0.5700 
  2 C       -0.1560     1.9750     1.8100 C.2   1 <1>   0.5690 
  3 N        0.6740     2.0980     0.7370 N.am  1 <1>  -0.7300 
  4 C       -1.5510     2.6140     1.7680 C.3   1 <1>   0.2610 
  5 C        2.0250     1.5340     0.6670 C.3   1 <1>   0.2200 
  6 O       -1.9090     2.8900     0.4160 O.3   1 <1>  -0.3630 
  7 C       -1.6070     3.9290     2.5570 C.3   1 <1>  -0.2400 
  8 C        2.9160     2.4460    -0.1660 C.3   1 <1>  -0.1600 
  9 C        1.9500     0.1550     0.0220 C.3   1 <1>  -0.1600 
 10 C       -3.2110     3.1060     0.1100 C.ar  1 <1>   0.0820 
 11 C        4.3320     1.8760    -0.3190 C.3   1 <1>   0.5030 
 12 C        3.3350    -0.4860    -0.1200 C.3   1 <1>   0.5030 
 13 C       -4.2070     2.2000     0.4550 C.ar  1 <1>  -0.1500 
 14 C       -3.5350     4.2620    -0.5790 C.ar  1 <1>  -0.1500 
 15 N        4.3020     0.4560    -0.7110 N.4   1 <1>  -0.9060 
 16 C        5.1630     2.0500     0.9550 C.3   1 <1>  -0.2400 
 17 C        5.0520     2.5990    -1.4560 C.3   1 <1>  -0.2400 
 18 C        3.8650    -1.0150     1.2160 C.3   1 <1>  -0.2400 
 19 C        3.2560    -1.6590    -1.0960 C.3   1 <1>  -0.2400 
 20 C       -5.5260     2.4640     0.1260 C.ar  1 <1>  -0.1500 
 21 C       -4.8540     4.5240    -0.9070 C.ar  1 <1>  -0.1500 
 22 C       -5.8560     3.6330    -0.5560 C.ar  1 <1>   0.0820 
 23 O       -7.1220     3.9690    -0.9140 O.3   1 <1>  -0.3620 
 24 C       -8.2120     3.1210    -0.6250 C.3   1 <1>   0.0400 
 25 H        0.2900     2.5590    -0.0940 H     1 <1>   0.3700 
 26 H       -2.2490     1.9090     2.1790 H     1 <1>   0.0800 
 27 H        2.4120     1.4530     1.6700 H     1 <1>   0.0800 
 28 H       -0.9290     4.6470     2.1340 H     1 <1>   0.0800 
 29 H       -1.3210     3.7490     3.5780 H     1 <1>   0.0800 
 30 H       -2.6050     4.3290     2.5520 H     1 <1>   0.0800 
 31 H        2.9690     3.4140     0.3010 H     1 <1>   0.0800 
 32 H        2.4730     2.5780    -1.1380 H     1 <1>   0.0800 
 33 H        1.4880     0.2430    -0.9460 H     1 <1>   0.0800 
 34 H        1.3240    -0.4820     0.6230 H     1 <1>   0.0800 
 35 H       -3.9620     1.2880     0.9660 H     1 <1>   0.1500 
 36 H       -2.7590     4.9540    -0.8530 H     1 <1>   0.1500 
 37 H        5.2380     0.0710    -0.5730 H     1 <1>   0.4500 
 38 H        4.1340     0.4400    -1.7180 H     1 <1>   0.4500 
 39 H        4.6590     1.6870     1.8280 H     1 <1>   0.0800 
 40 H        5.3470     3.0970     1.1260 H     1 <1>   0.0800 
 41 H        6.1180     1.5630     0.8690 H     1 <1>   0.0800 
 42 H        4.5260     2.4890    -2.3880 H     1 <1>   0.0800 
 43 H        6.0580     2.2360    -1.5740 H     1 <1>   0.0800 
 44 H        5.1110     3.6520    -1.2410 H     1 <1>   0.0800 
 45 H        3.8160    -0.2830     1.9970 H     1 <1>   0.0800 
 46 H        4.8750    -1.3720     1.1240 H     1 <1>   0.0800 
 47 H        3.2560    -1.8410     1.5420 H     1 <1>   0.0800 
 48 H        2.9120    -1.3420    -2.0650 H     1 <1>   0.0800 
 49 H        2.5580    -2.3920    -0.7300 H     1 <1>   0.0800 
 50 H        4.2110    -2.1440    -1.2010 H     1 <1>   0.0800 
 51 H       -6.2780     1.7510     0.4050 H     1 <1>   0.1500 
 52 H       -5.1150     5.4210    -1.4380 H     1 <1>   0.1500 
 53 H       -9.1050     3.5850    -1.0030 H     1 <1>   0.0800 
 54 H       -8.2870     3.0000     0.4410 H     1 <1>   0.0800 
 55 H       -8.0570     2.1750    -1.1120 H     1 <1>   0.0800 
@<TRIPOS>BOND
  1   1   2  2   
  2   2   3  am  
  3   2   4  1   
  4   3   5  1   
  5   3  25  1   
  6   4   6  1   
  7   4   7  1   
  8   4  26  1   
  9   5   8  1   
 10   5   9  1   
 11   5  27  1   
 12   6  10  1   
 13   7  28  1   
 14   7  29  1   
 15   7  30  1   
 16   8  11  1   
 17   8  31  1   
 18   8  32  1   
 19   9  12  1   
 20   9  33  1   
 21   9  34  1   
 22  10  13  ar  
 23  10  14  ar  
 24  11  15  1   
 25  11  16  1   
 26  11  17  1   
 27  12  15  1   
 28  12  18  1   
 29  12  19  1   
 30  13  20  ar  
 31  13  35  1   
 32  14  21  ar  
 33  14  36  1   
 34  15  37  1   
 35  15  38  1   
 36  16  39  1   
 37  16  40  1   
 38  16  41  1   
 39  17  42  1   
 40  17  43  1   
 41  17  44  1   
 42  18  45  1   
 43  18  46  1   
 44  18  47  1   
 45  19  48  1   
 46  19  49  1   
 47  19  50  1   
 48  20  22  ar  
 49  20  51  1   
 50  21  22  ar  
 51  21  52  1   
 52  22  23  1   
 53  23  24  1   
 54  24  53  1   
 55  24  54  1   
 56  24  55  1   
@<TRIPOS>SUBSTRUCTURE
  1 ****   3 GROUP 4 **** **** 0

# MOE 2024.06 (io_trps.svl 2023.06)
