@<TRIPOS>MOLECULE
NONAME
34 34 1 0 0 
SMALL
USER_CHARGES


@<TRIPOS>ATOM
  1 CL       0.8170    -0.1360    -2.0610 Cl    1 <1>  -0.1770 
  2 C        1.7130    -0.8830    -0.7560 C.ar  1 <1>   0.1770 
  3 C        1.1820    -1.9830    -0.0940 C.ar  1 <1>   0.0830 
  4 C        2.9400    -0.3530    -0.3960 C.ar  1 <1>  -0.1500 
  5 O       -0.0080    -2.5110    -0.4690 O.3   1 <1>  -0.3630 
  6 C        1.9130    -2.5410     0.9470 C.ar  1 <1>   0.1770 
  7 C        3.6560    -0.9250     0.6450 C.ar  1 <1>  -0.1500 
  8 C       -1.1490    -1.9950     0.1670 C.3   1 <1>   0.1200 
  9 CL       1.2720    -3.9160     1.8210 Cl    1 <1>  -0.1770 
 10 C        3.1410    -2.0230     1.3190 C.ar  1 <1>  -0.1500 
 11 C       -2.3580    -2.7340    -0.4120 C.3   1 <1>   0.3430 
 12 N       -3.6390    -2.2630     0.1960 N.4   1 <1>  -0.9060 
 13 C       -4.8100    -2.9780    -0.3640 C.3   1 <1>   0.3430 
 14 C       -6.0780    -2.4480     0.3000 C.3   1 <1>  -0.1600 
 15 C       -7.3200    -3.1610    -0.2490 C.3   1 <1>  -0.1600 
 16 C       -8.5940    -2.6310     0.4150 C.3   1 <1>  -0.2400 
 17 H        3.3300     0.4990    -0.9260 H     1 <1>   0.1500 
 18 H        4.6130    -0.5180     0.9290 H     1 <1>   0.1500 
 19 H       -1.1990    -0.9400    -0.0400 H     1 <1>   0.0800 
 20 H       -1.0520    -2.1720     1.2240 H     1 <1>   0.0800 
 21 H        3.6880    -2.4750     2.1290 H     1 <1>   0.1500 
 22 H       -2.2360    -3.7890    -0.2280 H     1 <1>   0.0800 
 23 H       -2.3810    -2.5720    -1.4780 H     1 <1>   0.0800 
 24 H       -3.7580    -1.2550     0.0330 H     1 <1>   0.4500 
 25 H       -3.6200    -2.4060     1.2140 H     1 <1>   0.4500 
 26 H       -4.7220    -4.0380    -0.1800 H     1 <1>   0.0800 
 27 H       -4.8680    -2.8200    -1.4300 H     1 <1>   0.0800 
 28 H       -6.1750    -1.3920     0.1130 H     1 <1>   0.0800 
 29 H       -6.0290    -2.6110     1.3640 H     1 <1>   0.0800 
 30 H       -7.2500    -4.2210    -0.0690 H     1 <1>   0.0800 
 31 H       -7.3950    -3.0080    -1.3140 H     1 <1>   0.0800 
 32 H       -8.5670    -2.7950     1.4780 H     1 <1>   0.0800 
 33 H       -9.4550    -3.1410     0.0180 H     1 <1>   0.0800 
 34 H       -8.7130    -1.5780     0.2290 H     1 <1>   0.0800 
@<TRIPOS>BOND
  1   1   2  1   
  2   2   3  ar  
  3   2   4  ar  
  4   3   5  1   
  5   3   6  ar  
  6   4   7  ar  
  7   4  17  1   
  8   5   8  1   
  9   6   9  1   
 10   6  10  ar  
 11   7  10  ar  
 12   7  18  1   
 13   8  11  1   
 14   8  19  1   
 15   8  20  1   
 16  10  21  1   
 17  11  12  1   
 18  11  22  1   
 19  11  23  1   
 20  12  13  1   
 21  12  24  1   
 22  12  25  1   
 23  13  14  1   
 24  13  26  1   
 25  13  27  1   
 26  14  15  1   
 27  14  28  1   
 28  14  29  1   
 29  15  16  1   
 30  15  30  1   
 31  15  31  1   
 32  16  32  1   
 33  16  33  1   
 34  16  34  1   
@<TRIPOS>SUBSTRUCTURE
  1 ****   8 GROUP 4 **** **** 0

# MOE 2024.06 (io_trps.svl 2023.06)
