@<TRIPOS>MOLECULE
NONAME
32 34 1 0 0 
SMALL
USER_CHARGES


@<TRIPOS>ATOM
  1 O        0.7690    -0.7860     1.2930 O.3   1 <1>  -0.5600 
  2 C        0.3540    -1.6810     0.2980 C.3   1 <1>   0.1200 
  3 C        1.4160     0.3600     0.8050 C.3   1 <1>   0.1200 
  4 C        1.5620    -2.2100    -0.5100 C.3   1 <1>   0.3430 
  5 C        2.6140    -0.0070    -0.1010 C.3   1 <1>   0.3430 
  6 N        2.8290    -1.4950    -0.1420 N.4   1 <1>  -0.9590 
  7 C        4.0070    -1.9090    -0.9500 C.3   1 <1>   0.4860 
  8 C        5.2420    -1.2370    -0.3850 C.ar  1 <1>  -0.1440 
  9 C        5.8000    -0.1490    -1.0520 C.ar  1 <1>  -0.1500 
 10 C        5.8150    -1.6970     0.8030 C.ar  1 <1>  -0.1500 
 11 C        6.9090     0.4560    -0.4960 C.ar  1 <1>   0.0820 
 12 C        6.9340    -1.0750     1.3420 C.ar  1 <1>  -0.1500 
 13 O        7.5910     1.5080    -0.9550 O.3   1 <1>  -0.3630 
 14 C        7.4600     0.0080     0.6680 C.ar  1 <1>   0.0820 
 15 C        8.6580     1.7370    -0.0340 C.3   1 <1>   0.4000 
 16 O        8.5170     0.7570     0.9940 O.3   1 <1>  -0.3630 
 17 H       -0.3470    -1.1780    -0.3460 H     1 <1>   0.0800 
 18 H       -0.1580    -2.4960     0.7790 H     1 <1>   0.0800 
 19 H        1.7560     0.9290     1.6530 H     1 <1>   0.0800 
 20 H        0.7000     0.9580     0.2660 H     1 <1>   0.0800 
 21 H        1.3570    -2.0880    -1.5610 H     1 <1>   0.0800 
 22 H        1.6700    -3.2660    -0.3220 H     1 <1>   0.0800 
 23 H        3.4970     0.4870     0.2730 H     1 <1>   0.0800 
 24 H        2.4310     0.3670    -1.0950 H     1 <1>   0.0800 
 25 H        3.0160    -1.7440     0.8400 H     1 <1>   0.4500 
 26 H        3.8720    -1.6230    -1.9800 H     1 <1>   0.0800 
 27 H        4.1310    -2.9790    -0.9050 H     1 <1>   0.0800 
 28 H        5.4050     0.2360    -1.9760 H     1 <1>   0.1500 
 29 H        5.4020    -2.5450     1.3230 H     1 <1>   0.1500 
 30 H        7.3900    -1.4130     2.2560 H     1 <1>   0.1500 
 31 H        8.5680     2.7210     0.3900 H     1 <1>   0.0800 
 32 H        9.6010     1.6030    -0.5330 H     1 <1>   0.0800 
@<TRIPOS>BOND
  1   1   2  1   
  2   1   3  1   
  3   2   4  1   
  4   2  17  1   
  5   2  18  1   
  6   3   5  1   
  7   3  19  1   
  8   3  20  1   
  9   4   6  1   
 10   4  21  1   
 11   4  22  1   
 12   5   6  1   
 13   5  23  1   
 14   5  24  1   
 15   6   7  1   
 16   6  25  1   
 17   7   8  1   
 18   7  26  1   
 19   7  27  1   
 20   8   9  ar  
 21   8  10  ar  
 22   9  11  ar  
 23   9  28  1   
 24  10  12  ar  
 25  10  29  1   
 26  11  13  1   
 27  11  14  ar  
 28  12  14  ar  
 29  12  30  1   
 30  13  15  1   
 31  14  16  1   
 32  15  16  1   
 33  15  31  1   
 34  15  32  1   
@<TRIPOS>SUBSTRUCTURE
  1 ****   8 GROUP 4 **** **** 0

# MOE 2024.06 (io_trps.svl 2023.06)
