@<TRIPOS>MOLECULE
NONAME
55 56 1 0 0 
SMALL
USER_CHARGES


@<TRIPOS>ATOM
  1 O        2.6060    -2.3720     2.9600 O.2   1 <1>  -0.5700 
  2 C        2.9070    -2.0650     1.8350 C.2   1 <1>   0.5690 
  3 N        3.6590    -0.9580     1.6320 N.am  1 <1>  -0.7300 
  4 C        2.4190    -2.9580     0.6920 C.3   1 <1>  -0.0190 
  5 C        4.2440    -0.3830     0.3960 C.3   1 <1>   0.1400 
  6 C        0.8910    -3.1530     0.7630 C.3   1 <1>  -0.1600 
  7 C        3.1310    -4.3230     0.7390 C.3   1 <1>  -0.1600 
  8 C        3.4620     0.8610    -0.0570 C.3   1 <1>  -0.0800 
  9 C        0.3880    -4.1500    -0.2770 C.3   1 <1>   0.3430 
 10 C        2.5790    -5.3000    -0.2960 C.3   1 <1>   0.3430 
 11 C        1.9950     0.5490    -0.3920 C.3   1 <1>  -0.2400 
 12 C        4.1410     1.4890    -1.2810 C.3   1 <1>  -0.2400 
 13 N        1.1100    -5.4450    -0.1110 N.4   1 <1>  -0.9590 
 14 C        0.5500    -6.5080    -0.9900 C.3   1 <1>   0.4860 
 15 C       -0.8860    -6.7690    -0.5830 C.ar  1 <1>  -0.1440 
 16 C       -1.9260    -6.2470    -1.3400 C.ar  1 <1>  -0.1500 
 17 C       -1.1760    -7.5190     0.5490 C.ar  1 <1>  -0.1500 
 18 C       -3.2450    -6.4470    -0.9720 C.ar  1 <1>   0.0820 
 19 C       -2.4920    -7.7420     0.9150 C.ar  1 <1>  -0.1500 
 20 O       -4.1790    -5.8490    -1.7570 O.3   1 <1>  -0.3630 
 21 C       -3.5300    -7.2250     0.1580 C.ar  1 <1>   0.0820 
 22 C       -5.2790    -5.1990    -1.1540 C.3   1 <1>   0.0400 
 23 O       -4.7910    -7.5160     0.5500 O.3   1 <1>  -0.3630 
 24 C       -5.4230    -8.5530    -0.1680 C.3   1 <1>   0.0400 
 25 H        3.8680    -0.4330     2.4850 H     1 <1>   0.3700 
 26 H        2.6410    -2.4900    -0.2470 H     1 <1>   0.0800 
 27 H        4.2650    -1.1130    -0.3920 H     1 <1>   0.0800 
 28 H        5.2640    -0.1040     0.6030 H     1 <1>   0.0800 
 29 H        0.4040    -2.2070     0.6080 H     1 <1>   0.0800 
 30 H        0.6050    -3.4990     1.7420 H     1 <1>   0.0800 
 31 H        3.0290    -4.7540     1.7210 H     1 <1>   0.0800 
 32 H        4.1840    -4.1790     0.5640 H     1 <1>   0.0800 
 33 H        3.4860     1.5840     0.7420 H     1 <1>   0.0800 
 34 H        0.5530    -3.7590    -1.2680 H     1 <1>   0.0800 
 35 H       -0.6730    -4.2940    -0.1400 H     1 <1>   0.0800 
 36 H        3.0650    -6.2560    -0.1770 H     1 <1>   0.0800 
 37 H        2.7890    -4.9330    -1.2880 H     1 <1>   0.0800 
 38 H        1.9290    -0.1850    -1.1740 H     1 <1>   0.0800 
 39 H        1.4930     1.4430    -0.7200 H     1 <1>   0.0800 
 40 H        1.4780     0.1850     0.4780 H     1 <1>   0.0800 
 41 H        4.1400     0.8070    -2.1130 H     1 <1>   0.0800 
 42 H        5.1590     1.7510    -1.0520 H     1 <1>   0.0800 
 43 H        3.6240     2.3860    -1.5740 H     1 <1>   0.0800 
 44 H        0.9360    -5.7470     0.8580 H     1 <1>   0.4500 
 45 H        1.1180    -7.4180    -0.8810 H     1 <1>   0.0800 
 46 H        0.5910    -6.2010    -2.0220 H     1 <1>   0.0800 
 47 H       -1.7370    -5.6700    -2.2280 H     1 <1>   0.1500 
 48 H       -0.3930    -7.9420     1.1540 H     1 <1>   0.1500 
 49 H       -2.7260    -8.3270     1.7880 H     1 <1>   0.1500 
 50 H       -5.6620    -4.4720    -1.8470 H     1 <1>   0.0800 
 51 H       -6.0410    -5.9250    -0.9370 H     1 <1>   0.0800 
 52 H       -4.9540    -4.7130    -0.2510 H     1 <1>   0.0800 
 53 H       -4.8620    -9.4610    -0.0340 H     1 <1>   0.0800 
 54 H       -6.4180    -8.6740     0.2200 H     1 <1>   0.0800 
 55 H       -5.4620    -8.2880    -1.2100 H     1 <1>   0.0800 
@<TRIPOS>BOND
  1   1   2  2   
  2   2   3  am  
  3   2   4  1   
  4   3   5  1   
  5   3  25  1   
  6   4   6  1   
  7   4   7  1   
  8   4  26  1   
  9   5   8  1   
 10   5  27  1   
 11   5  28  1   
 12   6   9  1   
 13   6  29  1   
 14   6  30  1   
 15   7  10  1   
 16   7  31  1   
 17   7  32  1   
 18   8  11  1   
 19   8  12  1   
 20   8  33  1   
 21   9  13  1   
 22   9  34  1   
 23   9  35  1   
 24  10  13  1   
 25  10  36  1   
 26  10  37  1   
 27  11  38  1   
 28  11  39  1   
 29  11  40  1   
 30  12  41  1   
 31  12  42  1   
 32  12  43  1   
 33  13  14  1   
 34  13  44  1   
 35  14  15  1   
 36  14  45  1   
 37  14  46  1   
 38  15  16  ar  
 39  15  17  ar  
 40  16  18  ar  
 41  16  47  1   
 42  17  19  ar  
 43  17  48  1   
 44  18  20  1   
 45  18  21  ar  
 46  19  21  ar  
 47  19  49  1   
 48  20  22  1   
 49  21  23  1   
 50  22  50  1   
 51  22  51  1   
 52  22  52  1   
 53  23  24  1   
 54  24  53  1   
 55  24  54  1   
 56  24  55  1   
@<TRIPOS>SUBSTRUCTURE
  1 ****   9 GROUP 4 **** **** 0

# MOE 2024.06 (io_trps.svl 2023.06)
