@<TRIPOS>MOLECULE
NONAME
44 46 1 0 0 
SMALL
USER_CHARGES


@<TRIPOS>ATOM
  1 O        0.6810     0.3220     1.5170 O.2   1 <1>  -0.5700 
  2 C        1.6390     0.8850     1.0280 C.2   1 <1>   0.7060 
  3 O        2.8570     0.5810     1.4800 O.3   1 <1>  -0.2320 
  4 C        1.5290     1.8590    -0.0090 C.2   1 <1>  -0.1360 
  5 C        3.9820     1.1580     0.9930 C.ar  1 <1>   0.0830 
  6 C        2.6140     2.4700    -0.5360 C.2   1 <1>  -0.1670 
  7 C        3.9130     2.1200    -0.0260 C.ar  1 <1>   0.0280 
  8 C        5.2010     0.7700     1.5290 C.ar  1 <1>  -0.1500 
  9 C        2.4800     3.5070    -1.6430 C.3   1 <1>  -0.1020 
 10 C        5.1150     2.6700    -0.4770 C.ar  1 <1>  -0.1500 
 11 C        6.3760     1.3290     1.0670 C.ar  1 <1>  -0.1500 
 12 C        6.3320     2.2890     0.0550 C.ar  1 <1>   0.0830 
 13 O        7.4360     2.8920    -0.4560 O.3   1 <1>  -0.3630 
 14 C        8.7370     2.5790     0.0240 C.3   1 <1>   0.1810 
 15 C        9.8170     3.3920    -0.6890 C.2   1 <1>   0.5690 
 16 O       10.6360     2.7680    -1.3240 O.2   1 <1>  -0.5700 
 17 N        9.8790     4.7640    -0.5850 N.am  1 <1>  -0.6600 
 18 C        8.9010     5.6090     0.1580 C.3   1 <1>   0.1400 
 19 C       10.9500     5.5430    -1.2680 C.3   1 <1>   0.1400 
 20 C        9.6380     6.4620     1.1960 C.3   1 <1>  -0.1600 
 21 C       11.7030     6.3970    -0.2430 C.3   1 <1>  -0.1600 
 22 C       10.7500     7.3040     0.5500 C.3   1 <1>  -0.0800 
 23 C       11.5170     8.0940     1.6150 C.3   1 <1>  -0.2400 
 24 H        0.5280     2.0650    -0.3350 H     1 <1>   0.1500 
 25 H        5.2200     0.0280     2.3080 H     1 <1>   0.1500 
 26 H        3.0110     3.1820    -2.5200 H     1 <1>   0.0800 
 27 H        2.8820     4.4500    -1.3180 H     1 <1>   0.0800 
 28 H        1.4480     3.6540    -1.9090 H     1 <1>   0.0800 
 29 H        5.1160     3.4080    -1.2560 H     1 <1>   0.1500 
 30 H        7.3040     1.0070     1.4990 H     1 <1>   0.1500 
 31 H        8.9140     1.5330    -0.1480 H     1 <1>   0.0800 
 32 H        8.7740     2.7860     1.0770 H     1 <1>   0.0800 
 33 H        8.1600     5.0110     0.6540 H     1 <1>   0.0800 
 34 H        8.3940     6.2490    -0.5440 H     1 <1>   0.0800 
 35 H       10.4990     6.1760    -2.0130 H     1 <1>   0.0800 
 36 H       11.6430     4.8860    -1.7660 H     1 <1>   0.0800 
 37 H       10.0570     5.8110     1.9430 H     1 <1>   0.0800 
 38 H        8.9300     7.1090     1.6830 H     1 <1>   0.0800 
 39 H       12.4330     6.9970    -0.7570 H     1 <1>   0.0800 
 40 H       12.2320     5.7400     0.4260 H     1 <1>   0.0800 
 41 H       10.2970     8.0040    -0.1330 H     1 <1>   0.0800 
 42 H       11.9870     7.4280     2.3180 H     1 <1>   0.0800 
 43 H       10.8490     8.7440     2.1520 H     1 <1>   0.0800 
 44 H       12.2790     8.6990     1.1550 H     1 <1>   0.0800 
@<TRIPOS>BOND
  1   1   2  2   
  2   2   3  1   
  3   2   4  1   
  4   3   5  1   
  5   4   6  2   
  6   4  24  1   
  7   5   7  ar  
  8   5   8  ar  
  9   6   7  1   
 10   6   9  1   
 11   7  10  ar  
 12   8  11  ar  
 13   8  25  1   
 14   9  26  1   
 15   9  27  1   
 16   9  28  1   
 17  10  12  ar  
 18  10  29  1   
 19  11  12  ar  
 20  11  30  1   
 21  12  13  1   
 22  13  14  1   
 23  14  15  1   
 24  14  31  1   
 25  14  32  1   
 26  15  16  2   
 27  15  17  am  
 28  17  18  1   
 29  17  19  1   
 30  18  20  1   
 31  18  33  1   
 32  18  34  1   
 33  19  21  1   
 34  19  35  1   
 35  19  36  1   
 36  20  22  1   
 37  20  37  1   
 38  20  38  1   
 39  21  22  1   
 40  21  39  1   
 41  21  40  1   
 42  22  23  1   
 43  22  41  1   
 44  23  42  1   
 45  23  43  1   
 46  23  44  1   
@<TRIPOS>SUBSTRUCTURE
  1 ****  12 GROUP 4 **** **** 0

# MOE 2024.06 (io_trps.svl 2023.06)
