@<TRIPOS>MOLECULE
NONAME
34 35 1 0 0 
SMALL
USER_CHARGES


@<TRIPOS>ATOM
  1 O      -12.1140     1.6540     0.3460 O.3   1 <1>  -0.5600 
  2 C      -11.2100     2.6670     0.0110 C.3   1 <1>   0.1200 
  3 C      -11.8800     0.4240    -0.2740 C.3   1 <1>   0.1200 
  4 C       -9.7770     2.2500     0.3950 C.3   1 <1>   0.3430 
  5 C      -10.4800    -0.1020     0.0990 C.3   1 <1>   0.3430 
  6 N       -9.4080     0.9120    -0.2010 N.4   1 <1>  -0.9590 
  7 C       -8.0680     0.4140     0.2630 C.3   1 <1>   0.3430 
  8 C       -6.9380     1.3740    -0.1130 C.3   1 <1>   0.1200 
  9 O       -5.7040     0.7780     0.2140 O.3   1 <1>  -0.3630 
 10 C       -4.4720     1.3140    -0.0280 C.ar  1 <1>   0.0820 
 11 C       -4.1870     2.5960    -0.5410 C.ar  1 <1>   0.0730 
 12 C       -3.4240     0.4600     0.2830 C.ar  1 <1>  -0.1500 
 13 C       -5.1830     3.5670    -0.8880 C.1   1 <1>   0.4840 
 14 C       -2.8550     2.9560    -0.7220 C.ar  1 <1>  -0.1500 
 15 C       -2.1090     0.8380     0.0970 C.ar  1 <1>  -0.1500 
 16 N       -6.0520     4.2640    -1.1370 N.1   1 <1>  -0.5570 
 17 C       -1.8230     2.0910    -0.4090 C.ar  1 <1>  -0.1500 
 18 H      -11.4960     3.5520     0.5520 H     1 <1>   0.0800 
 19 H      -11.2890     2.8700    -1.0430 H     1 <1>   0.0800 
 20 H      -11.9820     0.5450    -1.3390 H     1 <1>   0.0800 
 21 H      -12.6370    -0.2620     0.0660 H     1 <1>   0.0800 
 22 H       -9.7180     2.2000     1.4700 H     1 <1>   0.0800 
 23 H       -9.0900     3.0100     0.0600 H     1 <1>   0.0800 
 24 H      -10.2880    -1.0150    -0.4410 H     1 <1>   0.0800 
 25 H      -10.4780    -0.3340     1.1520 H     1 <1>   0.0800 
 26 H       -9.3790     1.0300    -1.2230 H     1 <1>   0.4500 
 27 H       -7.8660    -0.5420    -0.1900 H     1 <1>   0.0800 
 28 H       -8.0780     0.2890     1.3340 H     1 <1>   0.0800 
 29 H       -7.0240     2.2840     0.4530 H     1 <1>   0.0800 
 30 H       -6.9450     1.5640    -1.1720 H     1 <1>   0.0800 
 31 H       -3.6400    -0.5180     0.6770 H     1 <1>   0.1500 
 32 H       -2.6120     3.9300    -1.1130 H     1 <1>   0.1500 
 33 H       -1.3090     0.1600     0.3440 H     1 <1>   0.1500 
 34 H       -0.7990     2.3910    -0.5570 H     1 <1>   0.1500 
@<TRIPOS>BOND
  1   1   2  1   
  2   1   3  1   
  3   2   4  1   
  4   2  18  1   
  5   2  19  1   
  6   3   5  1   
  7   3  20  1   
  8   3  21  1   
  9   4   6  1   
 10   4  22  1   
 11   4  23  1   
 12   5   6  1   
 13   5  24  1   
 14   5  25  1   
 15   6   7  1   
 16   6  26  1   
 17   7   8  1   
 18   7  27  1   
 19   7  28  1   
 20   8   9  1   
 21   8  29  1   
 22   8  30  1   
 23   9  10  1   
 24  10  11  ar  
 25  10  12  ar  
 26  11  13  1   
 27  11  14  ar  
 28  12  15  ar  
 29  12  31  1   
 30  13  16  3   
 31  14  17  ar  
 32  14  32  1   
 33  15  17  ar  
 34  15  33  1   
 35  17  34  1   
@<TRIPOS>SUBSTRUCTURE
  1 ****   8 GROUP 4 **** **** 0

# MOE 2024.06 (io_trps.svl 2023.06)
