@<TRIPOS>MOLECULE
NONAME
41 42 1 0 0 
SMALL
USER_CHARGES


@<TRIPOS>ATOM
  1 CL       1.4280    -0.0740    -2.7010 Cl    1 <1>  -0.1770 
  2 C        2.2020    -0.6540    -1.2400 C.ar  1 <1>   0.1770 
  3 C        2.2180     0.1650    -0.1120 C.ar  1 <1>   0.1170 
  4 C        2.7770    -1.9100    -1.2510 C.ar  1 <1>  -0.1500 
  5 N        1.6100     1.4350    -0.1760 N.am  1 <1>  -0.5470 
  6 C        2.8350    -0.3360     1.0330 C.ar  1 <1>  -0.1500 
  7 C        3.3910    -2.3820    -0.1040 C.ar  1 <1>  -0.1500 
  8 C        1.7660     2.5470     0.5980 C.2   1 <1>   0.5690 
  9 C        3.4160    -1.5940     1.0350 C.ar  1 <1>  -0.1500 
 10 O        2.4930     2.6050     1.5580 O.2   1 <1>  -0.5700 
 11 C        1.0140     3.7980     0.2010 C.3   1 <1>  -0.0990 
 12 C        1.6120     5.0680     0.8210 C.3   1 <1>   0.3430 
 13 N        2.7800     5.6200     0.0570 N.4   1 <1>  -0.9590 
 14 C        4.0070     4.7800     0.2430 C.3   1 <1>   0.3430 
 15 C        2.9930     7.0400     0.4630 C.3   1 <1>   0.3430 
 16 C        5.1710     5.2210    -0.6470 C.3   1 <1>  -0.1600 
 17 C        3.6210     7.8260    -0.6880 C.3   1 <1>  -0.1600 
 18 C        5.8300     6.5290    -0.1890 C.3   1 <1>  -0.1600 
 19 C        5.1580     7.7980    -0.7310 C.3   1 <1>  -0.1600 
 20 H        2.7450    -2.5090    -2.1440 H     1 <1>   0.1500 
 21 H        0.9870     1.5270    -0.9820 H     1 <1>   0.3700 
 22 H        2.8640     0.2460     1.9350 H     1 <1>   0.1500 
 23 H        3.8450    -3.3590    -0.0950 H     1 <1>   0.1500 
 24 H        3.8900    -1.9620     1.9290 H     1 <1>   0.1500 
 25 H        0.0130     3.6870     0.5750 H     1 <1>   0.0800 
 26 H        0.9600     3.8900    -0.8670 H     1 <1>   0.0800 
 27 H        1.9000     4.8710     1.8430 H     1 <1>   0.0800 
 28 H        0.8350     5.8140     0.8440 H     1 <1>   0.0800 
 29 H        2.5570     5.6250    -0.9450 H     1 <1>   0.4500 
 30 H        3.7820     3.7580    -0.0080 H     1 <1>   0.0800 
 31 H        4.3120     4.7970     1.2770 H     1 <1>   0.0800 
 32 H        3.6090     7.1000     1.3460 H     1 <1>   0.0800 
 33 H        2.0390     7.4890     0.6890 H     1 <1>   0.0800 
 34 H        4.8720     5.2740    -1.6790 H     1 <1>   0.0800 
 35 H        5.9170     4.4480    -0.5800 H     1 <1>   0.0800 
 36 H        3.3230     8.8560    -0.5880 H     1 <1>   0.0800 
 37 H        3.2210     7.4830    -1.6260 H     1 <1>   0.0800 
 38 H        6.8540     6.5350    -0.5270 H     1 <1>   0.0800 
 39 H        5.8640     6.5620     0.8880 H     1 <1>   0.0800 
 40 H        5.5380     8.6350    -0.1690 H     1 <1>   0.0800 
 41 H        5.4690     7.9500    -1.7520 H     1 <1>   0.0800 
@<TRIPOS>BOND
  1   1   2  1   
  2   2   3  ar  
  3   2   4  ar  
  4   3   5  1   
  5   3   6  ar  
  6   4   7  ar  
  7   4  20  1   
  8   5   8  am  
  9   5  21  1   
 10   6   9  ar  
 11   6  22  1   
 12   7   9  ar  
 13   7  23  1   
 14   8  10  2   
 15   8  11  1   
 16   9  24  1   
 17  11  12  1   
 18  11  25  1   
 19  11  26  1   
 20  12  13  1   
 21  12  27  1   
 22  12  28  1   
 23  13  14  1   
 24  13  15  1   
 25  13  29  1   
 26  14  16  1   
 27  14  30  1   
 28  14  31  1   
 29  15  17  1   
 30  15  32  1   
 31  15  33  1   
 32  16  18  1   
 33  16  34  1   
 34  16  35  1   
 35  17  19  1   
 36  17  36  1   
 37  17  37  1   
 38  18  19  1   
 39  18  38  1   
 40  18  39  1   
 41  19  40  1   
 42  19  41  1   
@<TRIPOS>SUBSTRUCTURE
  1 ****   8 GROUP 4 **** **** 0

# MOE 2024.06 (io_trps.svl 2023.06)
