@<TRIPOS>MOLECULE
NONAME
39 40 1 0 0 
SMALL
USER_CHARGES


@<TRIPOS>ATOM
  1 F       -0.6010    -1.0780    -0.3520 F     1 <1>  -0.3400 
  2 C        0.4780    -0.8770     0.4010 C.3   1 <1>   1.0200 
  3 F        0.0990    -1.2080     1.6360 F     1 <1>  -0.3400 
  4 F        0.6710     0.4420     0.4250 F     1 <1>  -0.3400 
  5 C        1.7340    -1.6960    -0.0670 C.3   1 <1>   0.6070 
  6 N        2.9580    -1.5020     0.7660 N.2   1 <1>  -0.6960 
  7 N        1.5470    -3.1880    -0.0460 N.am  1 <1>  -0.7300 
  8 C        2.1650    -1.0850    -1.3980 C.2   1 <1>   0.5690 
  9 C        3.8640    -0.9720     0.0390 C.2   1 <1>   0.4240 
 10 C        2.1980    -4.1030    -0.8070 C.2   1 <1>   0.5690 
 11 O        1.5210    -0.9400    -2.4110 O.2   1 <1>  -0.5700 
 12 N        3.4370    -0.6880    -1.2390 N.am  1 <1>  -0.4900 
 13 C        5.2240    -0.6770     0.4550 C.ar  1 <1>   0.0860 
 14 O        2.9840    -3.7660    -1.6600 O.2   1 <1>  -0.5700 
 15 C        1.9480    -5.6150    -0.5700 C.3   1 <1>   0.0610 
 16 C        5.9670     0.3580    -0.1180 C.ar  1 <1>  -0.1500 
 17 C        5.8390    -1.4290     1.4560 C.ar  1 <1>  -0.1500 
 18 C        3.2720    -6.3100    -0.2040 C.3   1 <1>  -0.2400 
 19 C        0.9410    -5.8880     0.5700 C.3   1 <1>  -0.2400 
 20 C        1.3930    -6.2570    -1.8540 C.3   1 <1>  -0.2400 
 21 C        7.2650     0.6200     0.2830 C.ar  1 <1>  -0.1500 
 22 C        7.1350    -1.1710     1.8620 C.ar  1 <1>  -0.1500 
 23 C        7.8520    -0.1460     1.2740 C.ar  1 <1>  -0.1500 
 24 H        1.0190    -3.5180     0.7590 H     1 <1>   0.3700 
 25 H        4.0290    -0.4470    -2.0300 H     1 <1>   0.3700 
 26 H        5.5290     0.9740    -0.8820 H     1 <1>   0.1500 
 27 H        5.2880    -2.2300     1.9200 H     1 <1>   0.1500 
 28 H        3.6860    -5.8790     0.6900 H     1 <1>   0.0800 
 29 H        3.9890    -6.1850    -0.9970 H     1 <1>   0.0800 
 30 H        3.1240    -7.3630    -0.0440 H     1 <1>   0.0800 
 31 H        1.3030    -5.4910     1.5020 H     1 <1>   0.0800 
 32 H        0.7950    -6.9470     0.6950 H     1 <1>   0.0800 
 33 H       -0.0150    -5.4470     0.3470 H     1 <1>   0.0800 
 34 H        2.0880    -6.1260    -2.6660 H     1 <1>   0.0800 
 35 H        0.4640    -5.7910    -2.1340 H     1 <1>   0.0800 
 36 H        1.2240    -7.3100    -1.7180 H     1 <1>   0.0800 
 37 H        7.8210     1.4220    -0.1720 H     1 <1>   0.1500 
 38 H        7.5870    -1.7690     2.6360 H     1 <1>   0.1500 
 39 H        8.8620     0.0570     1.5870 H     1 <1>   0.1500 
@<TRIPOS>BOND
  1   1   2  1   
  2   2   3  1   
  3   2   4  1   
  4   2   5  1   
  5   5   6  1   
  6   5   7  1   
  7   5   8  1   
  8   6   9  2   
  9   7  10  am  
 10   7  24  1   
 11   8  11  2   
 12   8  12  am  
 13   9  12  1   
 14   9  13  1   
 15  10  14  2   
 16  10  15  1   
 17  12  25  1   
 18  13  16  ar  
 19  13  17  ar  
 20  15  18  1   
 21  15  19  1   
 22  15  20  1   
 23  16  21  ar  
 24  16  26  1   
 25  17  22  ar  
 26  17  27  1   
 27  18  28  1   
 28  18  29  1   
 29  18  30  1   
 30  19  31  1   
 31  19  32  1   
 32  19  33  1   
 33  20  34  1   
 34  20  35  1   
 35  20  36  1   
 36  21  23  ar  
 37  21  37  1   
 38  22  23  ar  
 39  22  38  1   
 40  23  39  1   
@<TRIPOS>SUBSTRUCTURE
  1 ****   6 GROUP 4 **** **** 0

# MOE 2024.06 (io_trps.svl 2023.06)
