@<TRIPOS>MOLECULE
NONAME
39 41 1 0 0 
SMALL
USER_CHARGES


@<TRIPOS>ATOM
  1 S        0.6940    -0.3120    -1.2730 S.3   1 <1>  -0.0800 
  2 C        1.5830     1.0580    -0.5960 C.2   1 <1>  -0.0450 
  3 C       -0.6360    -0.1080    -0.1560 C.2   1 <1>  -0.1400 
  4 C        2.8590     1.3930    -1.1670 C.2   1 <1>   0.5940 
  5 C        0.8410     1.5860     0.4150 C.2   1 <1>  -0.1500 
  6 C       -0.4000     0.9330     0.6620 C.2   1 <1>  -0.1500 
  7 C       -1.7920    -1.0800    -0.2660 C.3   1 <1>  -0.0600 
  8 O        3.3260     0.8540    -2.1380 O.2   1 <1>  -0.5700 
  9 C        3.6730     2.5210    -0.5760 C.3   1 <1>  -0.0990 
 10 C        4.4940     2.0800     0.6370 C.3   1 <1>   0.4840 
 11 O        3.6510     1.9140     1.7340 O.3   1 <1>  -0.6800 
 12 C        5.3940     0.8450     0.4190 C.2   1 <1>   0.5690 
 13 C        5.5530     3.1190     0.9710 C.ar  1 <1>  -0.1440 
 14 O        4.9760    -0.2880     0.3280 O.2   1 <1>  -0.5700 
 15 N        6.7080     1.2170     0.4510 N.am  1 <1>  -0.4770 
 16 C        6.8090     2.5600     0.8130 C.ar  1 <1>   0.1170 
 17 C        5.4070     4.4370     1.3650 C.ar  1 <1>  -0.1500 
 18 C        7.8420     0.2830     0.2870 C.3   1 <1>   0.1400 
 19 C        7.9460     3.3250     1.0300 C.ar  1 <1>  -0.1500 
 20 C        6.5430     5.2010     1.5860 C.ar  1 <1>  -0.1500 
 21 C        8.4130     0.4210    -1.1230 C.3   1 <1>  -0.2400 
 22 C        7.8050     4.6480     1.4160 C.ar  1 <1>  -0.1500 
 23 H        1.1280     2.4330     1.0140 H     1 <1>   0.1500 
 24 H       -1.0610     1.2720     1.4410 H     1 <1>   0.1500 
 25 H       -1.4410    -2.0840    -0.1080 H     1 <1>   0.0800 
 26 H       -2.2330    -1.0140    -1.2440 H     1 <1>   0.0800 
 27 H       -2.5410    -0.8520     0.4700 H     1 <1>   0.0800 
 28 H        3.0370     3.3430    -0.3110 H     1 <1>   0.0800 
 29 H        4.3500     2.8700    -1.3340 H     1 <1>   0.0800 
 30 H        3.5190     0.9520     1.8710 H     1 <1>   0.4000 
 31 H        4.4270     4.8620     1.5010 H     1 <1>   0.1500 
 32 H        7.5000    -0.7270     0.4430 H     1 <1>   0.0800 
 33 H        8.5960     0.5010     1.0230 H     1 <1>   0.0800 
 34 H        8.9220     2.8960     0.9030 H     1 <1>   0.1500 
 35 H        6.4460     6.2290     1.8930 H     1 <1>   0.1500 
 36 H        7.6580     0.1800    -1.8500 H     1 <1>   0.0800 
 37 H        9.2360    -0.2580    -1.2490 H     1 <1>   0.0800 
 38 H        8.7650     1.4230    -1.2920 H     1 <1>   0.0800 
 39 H        8.6790     5.2520     1.5890 H     1 <1>   0.1500 
@<TRIPOS>BOND
  1   1   2  1   
  2   1   3  1   
  3   2   4  1   
  4   2   5  2   
  5   3   6  2   
  6   3   7  1   
  7   4   8  2   
  8   4   9  1   
  9   5   6  1   
 10   5  23  1   
 11   6  24  1   
 12   7  25  1   
 13   7  26  1   
 14   7  27  1   
 15   9  10  1   
 16   9  28  1   
 17   9  29  1   
 18  10  11  1   
 19  10  12  1   
 20  10  13  1   
 21  11  30  1   
 22  12  14  2   
 23  12  15  am  
 24  13  16  ar  
 25  13  17  ar  
 26  15  16  1   
 27  15  18  1   
 28  16  19  ar  
 29  17  20  ar  
 30  17  31  1   
 31  18  21  1   
 32  18  32  1   
 33  18  33  1   
 34  19  22  ar  
 35  19  34  1   
 36  20  22  ar  
 37  20  35  1   
 38  21  36  1   
 39  21  37  1   
 40  21  38  1   
 41  22  39  1   
@<TRIPOS>SUBSTRUCTURE
  1 ****  10 GROUP 4 **** **** 0

# MOE 2024.06 (io_trps.svl 2023.06)
