@<TRIPOS>MOLECULE
NONAME
29 29 1 0 0 
SMALL
USER_CHARGES


@<TRIPOS>ATOM
  1 BR      -0.9920    -0.9910    -2.1530 Br    1 <1>  -0.1110 
  2 C       -2.4190    -0.3990    -1.0020 C.ar  1 <1>   0.1110 
  3 C       -2.3910    -0.7580     0.3310 C.ar  1 <1>  -0.1500 
  4 C       -3.4360     0.3700    -1.5400 C.ar  1 <1>  -0.1500 
  5 C       -3.4320    -0.3150     1.1210 C.ar  1 <1>   0.1900 
  6 C       -4.4670     0.7980    -0.7170 C.ar  1 <1>  -0.1500 
  7 F       -3.4210    -0.6490     2.3900 F     1 <1>  -0.1900 
  8 C       -4.4900     0.4640     0.6380 C.ar  1 <1>   0.1990 
  9 N       -5.5170     0.8680     1.4980 N.am  1 <1>  -0.7570 
 10 S       -6.7150     2.0780     1.2910 S.o2  1 <1>   1.3330 
 11 O       -7.1580     2.3570     2.6330 O.2   1 <1>  -0.6500 
 12 O       -6.1550     3.1080     0.4530 O.2   1 <1>  -0.6500 
 13 C       -8.0050     1.1900     0.4150 C.3   1 <1>  -0.0550 
 14 C       -9.2440     2.0470     0.1070 C.3   1 <1>  -0.1600 
 15 C      -10.3070     1.2380    -0.6450 C.3   1 <1>  -0.1600 
 16 C      -11.5360     2.0990    -0.9470 C.3   1 <1>  -0.2400 
 17 H       -1.5940    -1.3550     0.7350 H     1 <1>   0.1500 
 18 H       -3.4180     0.6310    -2.5840 H     1 <1>   0.1500 
 19 H       -5.2480     1.4010    -1.1420 H     1 <1>   0.1500 
 20 H       -5.3890     0.6780     2.4910 H     1 <1>   0.4200 
 21 H       -8.3060     0.3450     1.0040 H     1 <1>   0.0800 
 22 H       -7.6060     0.8170    -0.5090 H     1 <1>   0.0800 
 23 H       -8.9480     2.8960    -0.4860 H     1 <1>   0.0800 
 24 H       -9.6560     2.4160     1.0320 H     1 <1>   0.0800 
 25 H      -10.6090     0.3910    -0.0510 H     1 <1>   0.0800 
 26 H       -9.8990     0.8690    -1.5710 H     1 <1>   0.0800 
 27 H      -11.9770     2.4610    -0.0350 H     1 <1>   0.0800 
 28 H      -12.2720     1.5180    -1.4740 H     1 <1>   0.0800 
 29 H      -11.2650     2.9410    -1.5590 H     1 <1>   0.0800 
@<TRIPOS>BOND
  1   1   2  1   
  2   2   3  ar  
  3   2   4  ar  
  4   3   5  ar  
  5   3  17  1   
  6   4   6  ar  
  7   4  18  1   
  8   5   7  1   
  9   5   8  ar  
 10   6   8  ar  
 11   6  19  1   
 12   8   9  1   
 13   9  10  am  
 14   9  20  1   
 15  10  11  2   
 16  10  12  2   
 17  10  13  1   
 18  13  14  1   
 19  13  21  1   
 20  13  22  1   
 21  14  15  1   
 22  14  23  1   
 23  14  24  1   
 24  15  16  1   
 25  15  25  1   
 26  15  26  1   
 27  16  27  1   
 28  16  28  1   
 29  16  29  1   
@<TRIPOS>SUBSTRUCTURE
  1 ****   8 GROUP 4 **** **** 0

# MOE 2024.06 (io_trps.svl 2023.06)
