@<TRIPOS>MOLECULE
NONAME
33 34 1 0 0 
SMALL
USER_CHARGES


@<TRIPOS>ATOM
  1 CL       0.0370     0.4710     0.0250 Cl    1 <1>  -0.1770 
  2 C       -1.6850     0.7130    -0.0840 C.ar  1 <1>   0.1770 
  3 C       -2.3600     1.2900     0.9750 C.ar  1 <1>  -0.1500 
  4 C       -2.3550     0.3280    -1.2290 C.ar  1 <1>  -0.1500 
  5 C       -3.7280     1.4780     0.8830 C.ar  1 <1>  -0.1500 
  6 C       -3.7230     0.5220    -1.3100 C.ar  1 <1>  -0.1500 
  7 C       -4.4410     1.0920    -0.2540 C.ar  1 <1>   0.0860 
  8 C       -5.8770     1.2960    -0.3310 C.2   1 <1>   0.5440 
  9 O       -6.3320     2.3840    -0.0350 O.2   1 <1>  -0.5700 
 10 N       -6.7430     0.2930    -0.7200 N.am  1 <1>  -0.6600 
 11 C       -6.4110    -1.1620    -0.6650 C.3   1 <1>   0.1400 
 12 C       -8.1570     0.5810    -1.0910 C.3   1 <1>   0.1400 
 13 C       -7.3380    -1.8780     0.3300 C.3   1 <1>  -0.0190 
 14 C       -9.1030    -0.1140    -0.1070 C.3   1 <1>  -0.1600 
 15 C       -7.0320    -3.3690     0.3720 C.2   1 <1>   0.5690 
 16 C       -8.8180    -1.6210    -0.0140 C.3   1 <1>  -0.1600 
 17 O       -6.6050    -3.9360    -0.6000 O.2   1 <1>  -0.5700 
 18 N       -7.2490    -4.0590     1.5070 N.am  1 <1>  -0.8000 
 19 H       -1.8180     1.5880     1.8550 H     1 <1>   0.1500 
 20 H       -1.8090    -0.1140    -2.0430 H     1 <1>   0.1500 
 21 H       -4.2640     1.9350     1.6980 H     1 <1>   0.1500 
 22 H       -4.2510     0.2340    -2.2030 H     1 <1>   0.1500 
 23 H       -5.3910    -1.3160    -0.3600 H     1 <1>   0.0800 
 24 H       -6.5320    -1.5850    -1.6480 H     1 <1>   0.0800 
 25 H       -8.3360     0.2180    -2.0880 H     1 <1>   0.0800 
 26 H       -8.3450     1.6410    -1.0880 H     1 <1>   0.0800 
 27 H       -7.1340    -1.4750     1.3060 H     1 <1>   0.0800 
 28 H      -10.1190     0.0440    -0.4220 H     1 <1>   0.0800 
 29 H       -8.9870     0.3430     0.8610 H     1 <1>   0.0800 
 30 H       -9.4510    -2.0640     0.7350 H     1 <1>   0.0800 
 31 H       -9.0480    -2.0860    -0.9580 H     1 <1>   0.0800 
 32 H       -7.0520    -5.0610     1.5230 H     1 <1>   0.3700 
 33 H       -7.6260    -3.6540     2.3630 H     1 <1>   0.3700 
@<TRIPOS>BOND
  1   1   2  1   
  2   2   3  ar  
  3   2   4  ar  
  4   3   5  ar  
  5   3  19  1   
  6   4   6  ar  
  7   4  20  1   
  8   5   7  ar  
  9   5  21  1   
 10   6   7  ar  
 11   6  22  1   
 12   7   8  1   
 13   8   9  2   
 14   8  10  am  
 15  10  11  1   
 16  10  12  1   
 17  11  13  1   
 18  11  23  1   
 19  11  24  1   
 20  12  14  1   
 21  12  25  1   
 22  12  26  1   
 23  13  15  1   
 24  13  16  1   
 25  13  27  1   
 26  14  16  1   
 27  14  28  1   
 28  14  29  1   
 29  15  17  2   
 30  15  18  am  
 31  16  30  1   
 32  16  31  1   
 33  18  32  1   
 34  18  33  1   
@<TRIPOS>SUBSTRUCTURE
  1 ****  11 GROUP 4 **** **** 0

# MOE 2024.06 (io_trps.svl 2023.06)
