@<TRIPOS>MOLECULE
NONAME
39 40 1 0 0 
SMALL
USER_CHARGES


@<TRIPOS>ATOM
  1 BR       1.8620    -2.8020     1.7120 Br    1 <1>  -0.1110 
  2 C        0.3700    -3.3550     0.6220 C.ar  1 <1>   0.1110 
  3 C        0.5580    -3.6790    -0.7100 C.ar  1 <1>   0.1900 
  4 C       -0.8860    -3.4210     1.1980 C.ar  1 <1>  -0.1500 
  5 F        1.7510    -3.6130    -1.2410 F     1 <1>  -0.1900 
  6 C       -0.5060    -4.0740    -1.4980 C.ar  1 <1>  -0.1500 
  7 C       -1.9640    -3.8170     0.4160 C.ar  1 <1>  -0.1440 
  8 C       -1.7680    -4.1400    -0.9240 C.ar  1 <1>  -0.1500 
  9 C       -3.3620    -3.9040     1.0170 C.3   1 <1>   0.2540 
 10 N       -4.3310    -3.1110     0.2330 N.3   1 <1>  -0.8100 
 11 C       -5.7410    -3.3660     0.6780 C.3   1 <1>   0.2510 
 12 C       -3.9990    -1.6750     0.2840 C.3   1 <1>   0.1100 
 13 C       -6.1480    -4.8540     0.7370 C.2   1 <1>   0.6590 
 14 C       -6.7140    -2.5840    -0.2250 C.3   1 <1>  -0.1600 
 15 C       -4.9300    -0.8770    -0.6310 C.3   1 <1>  -0.1600 
 16 O       -6.3640    -5.3970     1.7930 O.2   1 <1>  -0.5700 
 17 O       -6.2220    -5.5110    -0.4190 O.3   1 <1>  -0.4300 
 18 C       -6.3980    -1.0850    -0.2500 C.3   1 <1>  -0.1600 
 19 C       -6.5000    -6.8910    -0.5030 C.3   1 <1>   0.1200 
 20 C       -5.1920    -7.6630    -0.3370 C.3   1 <1>  -0.2400 
 21 H       -1.0100    -3.1650     2.2350 H     1 <1>   0.1500 
 22 H       -0.3520    -4.3220    -2.5330 H     1 <1>   0.1500 
 23 H       -2.6130    -4.4390    -1.5230 H     1 <1>   0.1500 
 24 H       -3.3550    -3.5650     2.0390 H     1 <1>   0.0800 
 25 H       -3.6440    -4.9430     1.0140 H     1 <1>   0.0800 
 26 H       -5.8450    -2.9850     1.6790 H     1 <1>   0.0800 
 27 H       -2.9860    -1.5200    -0.0480 H     1 <1>   0.0800 
 28 H       -4.0820    -1.3150     1.2960 H     1 <1>   0.0800 
 29 H       -7.7210    -2.7310     0.1240 H     1 <1>   0.0800 
 30 H       -6.6540    -2.9790    -1.2250 H     1 <1>   0.0800 
 31 H       -4.7670    -1.1910    -1.6470 H     1 <1>   0.0800 
 32 H       -4.6840     0.1680    -0.5660 H     1 <1>   0.0800 
 33 H       -6.5820    -0.6610     0.7220 H     1 <1>   0.0800 
 34 H       -7.0360    -0.5870    -0.9600 H     1 <1>   0.0800 
 35 H       -6.9270    -7.0790    -1.4730 H     1 <1>   0.0800 
 36 H       -7.2170    -7.1580     0.2560 H     1 <1>   0.0800 
 37 H       -4.4830    -7.3590    -1.0860 H     1 <1>   0.0800 
 38 H       -5.3780    -8.7160    -0.4460 H     1 <1>   0.0800 
 39 H       -4.7800    -7.4930     0.6420 H     1 <1>   0.0800 
@<TRIPOS>BOND
  1   1   2  1   
  2   2   3  ar  
  3   2   4  ar  
  4   3   5  1   
  5   3   6  ar  
  6   4   7  ar  
  7   4  21  1   
  8   6   8  ar  
  9   6  22  1   
 10   7   8  ar  
 11   7   9  1   
 12   8  23  1   
 13   9  10  1   
 14   9  24  1   
 15   9  25  1   
 16  10  11  1   
 17  10  12  1   
 18  11  13  1   
 19  11  14  1   
 20  11  26  1   
 21  12  15  1   
 22  12  27  1   
 23  12  28  1   
 24  13  16  2   
 25  13  17  1   
 26  14  18  1   
 27  14  29  1   
 28  14  30  1   
 29  15  18  1   
 30  15  31  1   
 31  15  32  1   
 32  17  19  1   
 33  18  33  1   
 34  18  34  1   
 35  19  20  1   
 36  19  35  1   
 37  19  36  1   
 38  20  37  1   
 39  20  38  1   
 40  20  39  1   
@<TRIPOS>SUBSTRUCTURE
  1 ****   9 GROUP 4 **** **** 0

# MOE 2024.06 (io_trps.svl 2023.06)
