@<TRIPOS>MOLECULE
NONAME
31 31 1 0 0 
SMALL
USER_CHARGES


@<TRIPOS>ATOM
  1 O       -0.3500    -2.6330    -1.0150 O.2   1 <1>  -0.5700 
  2 C       -0.3100    -2.0060     0.0100 C.2   1 <1>   0.5690 
  3 N        0.8060    -1.9850     0.7550 N.am  1 <1>  -0.8000 
  4 C       -1.5290    -1.2370     0.4600 C.3   1 <1>  -0.0990 
  5 C       -2.6650    -1.4690    -0.5380 C.3   1 <1>   0.3430 
  6 N       -3.9330    -0.8000    -0.1170 N.4   1 <1>  -0.9590 
  7 C       -5.0740    -1.3100    -0.9290 C.3   1 <1>   0.4860 
  8 C       -3.8550     0.6960    -0.1860 C.3   1 <1>   0.2630 
  9 C       -6.3660    -0.8390    -0.2910 C.ar  1 <1>  -0.1440 
 10 C       -6.8320    -1.4390     0.8710 C.ar  1 <1>  -0.1500 
 11 C       -7.0900     0.1980    -0.8620 C.ar  1 <1>  -0.1500 
 12 C       -8.0020    -0.9960     1.4620 C.ar  1 <1>  -0.1500 
 13 C       -8.2600     0.6400    -0.2690 C.ar  1 <1>  -0.1500 
 14 C       -8.7140     0.0450     0.8940 C.ar  1 <1>  -0.1500 
 15 H        1.6250    -2.5100     0.4360 H     1 <1>   0.3700 
 16 H        0.9250    -1.4820     1.6350 H     1 <1>   0.3700 
 17 H       -1.2690    -0.1960     0.5080 H     1 <1>   0.0800 
 18 H       -1.8130    -1.5880     1.4350 H     1 <1>   0.0800 
 19 H       -2.8260    -2.5330    -0.6200 H     1 <1>   0.0800 
 20 H       -2.3620    -1.1130    -1.5110 H     1 <1>   0.0800 
 21 H       -4.1520    -1.0610     0.8540 H     1 <1>   0.4500 
 22 H       -5.0650    -2.3880    -0.9490 H     1 <1>   0.0800 
 23 H       -5.0070    -0.9490    -1.9420 H     1 <1>   0.0800 
 24 H       -3.6590     1.0170    -1.1960 H     1 <1>   0.0800 
 25 H       -3.0690     1.0640     0.4530 H     1 <1>   0.0800 
 26 H       -4.7860     1.1340     0.1400 H     1 <1>   0.0800 
 27 H       -6.3020    -2.2570     1.3280 H     1 <1>   0.1500 
 28 H       -6.7600     0.6730    -1.7700 H     1 <1>   0.1500 
 29 H       -8.3660    -1.4600     2.3630 H     1 <1>   0.1500 
 30 H       -8.8230     1.4450    -0.7110 H     1 <1>   0.1500 
 31 H       -9.6260     0.3890     1.3540 H     1 <1>   0.1500 
@<TRIPOS>BOND
  1   1   2  2   
  2   2   3  am  
  3   2   4  1   
  4   3  15  1   
  5   3  16  1   
  6   4   5  1   
  7   4  17  1   
  8   4  18  1   
  9   5   6  1   
 10   5  19  1   
 11   5  20  1   
 12   6   7  1   
 13   6   8  1   
 14   6  21  1   
 15   7   9  1   
 16   7  22  1   
 17   7  23  1   
 18   8  24  1   
 19   8  25  1   
 20   8  26  1   
 21   9  10  ar  
 22   9  11  ar  
 23  10  12  ar  
 24  10  27  1   
 25  11  13  ar  
 26  11  28  1   
 27  12  14  ar  
 28  12  29  1   
 29  13  14  ar  
 30  13  30  1   
 31  14  31  1   
@<TRIPOS>SUBSTRUCTURE
  1 ****   6 GROUP 4 **** **** 0

# MOE 2024.06 (io_trps.svl 2023.06)
