@<TRIPOS>MOLECULE
NONAME
34 35 1 0 0 
SMALL
USER_CHARGES


@<TRIPOS>ATOM
  1 CL      -2.0320     0.5720     3.1950 Cl    1 <1>  -0.1770 
  2 C       -2.5150     1.1460     1.6180 C.ar  1 <1>   0.1770 
  3 C       -1.8150     2.1580     0.9830 C.ar  1 <1>   0.1770 
  4 C       -3.6180     0.5700     1.0140 C.ar  1 <1>  -0.1500 
  5 CL      -0.4230     2.8970     1.7360 Cl    1 <1>  -0.1770 
  6 C       -2.2140     2.6000    -0.2650 C.ar  1 <1>  -0.1500 
  7 C       -4.0320     1.0130    -0.2370 C.ar  1 <1>  -0.1440 
  8 C       -3.3210     2.0260    -0.8730 C.ar  1 <1>  -0.1500 
  9 C       -5.2490     0.3950    -0.9050 C.3   1 <1>   0.4870 
 10 N       -6.4790     0.8500    -0.1990 N.4   1 <1>  -0.9590 
 11 C       -7.6530     0.0350    -0.6200 C.3   1 <1>   0.3430 
 12 C       -6.6710     2.3220    -0.3570 C.3   1 <1>   0.3430 
 13 C       -8.6610    -0.0500     0.5260 C.3   1 <1>  -0.1600 
 14 C       -7.7780     2.8640     0.5500 C.3   1 <1>  -0.1600 
 15 C       -9.6700     1.1090     0.5990 C.3   1 <1>  -0.1600 
 16 C       -9.1880     2.4730     0.0860 C.3   1 <1>  -0.1600 
 17 H       -4.1310    -0.2210     1.5360 H     1 <1>   0.1500 
 18 H       -1.6580     3.3830    -0.7520 H     1 <1>   0.1500 
 19 H       -3.6130     2.3790    -1.8490 H     1 <1>   0.1500 
 20 H       -5.1700    -0.6790    -0.8520 H     1 <1>   0.0800 
 21 H       -5.2880     0.6800    -1.9430 H     1 <1>   0.0800 
 22 H       -6.3260     0.6800     0.8020 H     1 <1>   0.4500 
 23 H       -7.3270    -0.9670    -0.8490 H     1 <1>   0.0800 
 24 H       -8.1160     0.4480    -1.5020 H     1 <1>   0.0800 
 25 H       -6.9020     2.5560    -1.3830 H     1 <1>   0.0800 
 26 H       -5.7550     2.8290    -0.1010 H     1 <1>   0.0800 
 27 H       -8.1400    -0.1400     1.4640 H     1 <1>   0.0800 
 28 H       -9.2270    -0.9580     0.4050 H     1 <1>   0.0800 
 29 H       -7.7130     3.9380     0.5090 H     1 <1>   0.0800 
 30 H       -7.6120     2.5830     1.5760 H     1 <1>   0.0800 
 31 H       -9.9880     1.2140     1.6230 H     1 <1>   0.0800 
 32 H      -10.5480     0.8410     0.0350 H     1 <1>   0.0800 
 33 H       -9.2400     2.5000    -0.9900 H     1 <1>   0.0800 
 34 H       -9.8840     3.2160     0.4430 H     1 <1>   0.0800 
@<TRIPOS>BOND
  1   1   2  1   
  2   2   3  ar  
  3   2   4  ar  
  4   3   5  1   
  5   3   6  ar  
  6   4   7  ar  
  7   4  17  1   
  8   6   8  ar  
  9   6  18  1   
 10   7   8  ar  
 11   7   9  1   
 12   8  19  1   
 13   9  10  1   
 14   9  20  1   
 15   9  21  1   
 16  10  11  1   
 17  10  12  1   
 18  10  22  1   
 19  11  13  1   
 20  11  23  1   
 21  11  24  1   
 22  12  14  1   
 23  12  25  1   
 24  12  26  1   
 25  13  15  1   
 26  13  27  1   
 27  13  28  1   
 28  14  16  1   
 29  14  29  1   
 30  14  30  1   
 31  15  16  1   
 32  15  31  1   
 33  15  32  1   
 34  16  33  1   
 35  16  34  1   
@<TRIPOS>SUBSTRUCTURE
  1 ****   7 GROUP 4 **** **** 0

# MOE 2024.06 (io_trps.svl 2023.06)
