@<TRIPOS>MOLECULE
NONAME
25 26 1 0 0 
SMALL
USER_CHARGES


@<TRIPOS>ATOM
  1 S        0.1960     0.1490     0.1680 S.3   1 <1>  -0.9360 
  2 C       -1.3540     0.4680    -0.1530 C.cat 1 <1>   0.7360 
  3 N       -2.3610    -0.1670     0.3800 N.pl3 1 <1>  -0.7000 
  4 N       -1.8260     1.3810    -0.9730 N.pl3 1 <1>  -0.3930 
  5 C       -3.4830     0.4020    -0.1550 C.2   1 <1>   0.4850 
  6 N       -3.1950     1.3470    -0.9820 N.2   1 <1>  -0.2600 
  7 C       -4.8820    -0.0840     0.2310 C.3   1 <1>   0.0880 
  8 C       -5.1680    -1.4670    -0.3870 C.3   1 <1>  -0.1600 
  9 C       -5.9890     0.9170    -0.1580 C.3   1 <1>  -0.1600 
 10 C       -6.5630    -1.9840    -0.0030 C.3   1 <1>  -0.1600 
 11 C       -7.3810     0.4020     0.2330 C.3   1 <1>  -0.1600 
 12 C       -7.6540    -0.9750    -0.3850 C.3   1 <1>  -0.1600 
 13 H       -2.2040    -0.9180     1.0440 H     1 <1>   0.4500 
 14 H       -1.2070     1.9970    -1.5020 H     1 <1>   0.4500 
 15 H       -4.8970    -0.1860     1.3020 H     1 <1>   0.0800 
 16 H       -4.4280    -2.1760    -0.0590 H     1 <1>   0.0800 
 17 H       -5.1010    -1.3970    -1.4600 H     1 <1>   0.0800 
 18 H       -5.9660     1.0850    -1.2220 H     1 <1>   0.0800 
 19 H       -5.8110     1.8620     0.3280 H     1 <1>   0.0800 
 20 H       -6.6010    -2.1640     1.0580 H     1 <1>   0.0800 
 21 H       -6.7500    -2.9200    -0.5010 H     1 <1>   0.0800 
 22 H       -8.1310     1.0990    -0.1020 H     1 <1>   0.0800 
 23 H       -7.4540     0.3340     1.3050 H     1 <1>   0.0800 
 24 H       -8.6110    -1.3370    -0.0500 H     1 <1>   0.0800 
 25 H       -7.6960    -0.8840    -1.4570 H     1 <1>   0.0800 
@<TRIPOS>BOND
  1   1   2  1   
  2   2   3  ar  
  3   2   4  ar  
  4   3   5  1   
  5   3  13  1   
  6   4   6  1   
  7   4  14  1   
  8   5   6  2   
  9   5   7  1   
 10   7   8  1   
 11   7   9  1   
 12   7  15  1   
 13   8  10  1   
 14   8  16  1   
 15   8  17  1   
 16   9  11  1   
 17   9  18  1   
 18   9  19  1   
 19  10  12  1   
 20  10  20  1   
 21  10  21  1   
 22  11  12  1   
 23  11  22  1   
 24  11  23  1   
 25  12  24  1   
 26  12  25  1   
@<TRIPOS>SUBSTRUCTURE
  1 ****   5 GROUP 4 **** **** 0

# MOE 2024.06 (io_trps.svl 2023.06)
