@<TRIPOS>MOLECULE
NONAME
41 42 1 0 0 
SMALL
USER_CHARGES


@<TRIPOS>ATOM
  1 S       -0.4000     0.0900     0.2460 S.3   1 <1>  -0.2860 
  2 C        1.2330     0.6110     0.7810 C.2   1 <1>   0.2420 
  3 C       -1.4320     0.3710     1.7690 C.3   1 <1>   0.1310 
  4 N        1.4820     1.0680     1.9550 N.2   1 <1>  -0.3380 
  5 N        2.3020     0.5610    -0.0130 N.pl3 1 <1>   0.0480 
  6 C       -2.9000     0.0550     1.5240 C.2   1 <1>   0.5690 
  7 N        2.7880     1.3480     1.9630 N.2   1 <1>  -0.3380 
  8 C        3.2570     1.0480     0.7950 C.2   1 <1>   0.0060 
  9 C        2.3770     0.0900    -1.4110 C.3   1 <1>   0.0160 
 10 O       -3.6090    -0.1020     2.4870 O.2   1 <1>  -0.5700 
 11 N       -3.3490    -0.0290     0.2330 N.am  1 <1>  -0.5470 
 12 C        4.7170     1.2310     0.4050 C.3   1 <1>   0.0200 
 13 C       -4.6160    -0.2840    -0.3320 C.ar  1 <1>   0.1170 
 14 C        4.9330     2.3790    -0.6020 C.3   1 <1>  -0.0800 
 15 C       -4.7390    -0.4160    -1.7150 C.ar  1 <1>   0.1900 
 16 C       -5.7860    -0.4130     0.4130 C.ar  1 <1>  -0.1500 
 17 C        6.4090     2.4570    -1.0110 C.3   1 <1>  -0.2400 
 18 C        4.4850     3.7290    -0.0250 C.3   1 <1>  -0.2400 
 19 F       -3.6650    -0.2980    -2.4590 F     1 <1>  -0.1900 
 20 C       -5.9400    -0.6650    -2.3510 C.ar  1 <1>  -0.1500 
 21 C       -7.0030    -0.6630    -0.2040 C.ar  1 <1>  -0.1500 
 22 C       -7.0850    -0.7900    -1.5820 C.ar  1 <1>  -0.1500 
 23 H       -1.3140     1.4010     2.0500 H     1 <1>   0.0800 
 24 H       -1.0360    -0.2620     2.5420 H     1 <1>   0.0800 
 25 H        1.7500    -0.7750    -1.5320 H     1 <1>   0.0800 
 26 H        3.3890    -0.1730    -1.6560 H     1 <1>   0.0800 
 27 H        2.0380     0.8720    -2.0660 H     1 <1>   0.0800 
 28 H       -2.6110     0.0760    -0.4680 H     1 <1>   0.3700 
 29 H        5.0860     0.3080    -0.0050 H     1 <1>   0.0800 
 30 H        5.2860     1.4330     1.2960 H     1 <1>   0.0800 
 31 H        4.3530     2.1820    -1.4870 H     1 <1>   0.0800 
 32 H       -5.7620    -0.3190     1.4830 H     1 <1>   0.1500 
 33 H        7.0290     2.6650    -0.1560 H     1 <1>   0.0800 
 34 H        6.5550     3.2400    -1.7350 H     1 <1>   0.0800 
 35 H        6.7300     1.5290    -1.4500 H     1 <1>   0.0800 
 36 H        5.0310     3.9560     0.8740 H     1 <1>   0.0800 
 37 H        3.4360     3.7120     0.2130 H     1 <1>   0.0800 
 38 H        4.6540     4.5170    -0.7370 H     1 <1>   0.0800 
 39 H       -5.9780    -0.7580    -3.4210 H     1 <1>   0.1500 
 40 H       -7.8920    -0.7600     0.3950 H     1 <1>   0.1500 
 41 H       -8.0340    -0.9850    -2.0520 H     1 <1>   0.1500 
@<TRIPOS>BOND
  1   1   2  1   
  2   1   3  1   
  3   2   4  2   
  4   2   5  1   
  5   3   6  1   
  6   3  23  1   
  7   3  24  1   
  8   4   7  1   
  9   5   8  1   
 10   5   9  1   
 11   6  10  2   
 12   6  11  am  
 13   7   8  2   
 14   8  12  1   
 15   9  25  1   
 16   9  26  1   
 17   9  27  1   
 18  11  13  1   
 19  11  28  1   
 20  12  14  1   
 21  12  29  1   
 22  12  30  1   
 23  13  15  ar  
 24  13  16  ar  
 25  14  17  1   
 26  14  18  1   
 27  14  31  1   
 28  15  19  1   
 29  15  20  ar  
 30  16  21  ar  
 31  16  32  1   
 32  17  33  1   
 33  17  34  1   
 34  17  35  1   
 35  18  36  1   
 36  18  37  1   
 37  18  38  1   
 38  20  22  ar  
 39  20  39  1   
 40  21  22  ar  
 41  21  40  1   
 42  22  41  1   
@<TRIPOS>SUBSTRUCTURE
  1 ****   1 GROUP 4 **** **** 0

# MOE 2024.06 (io_trps.svl 2023.06)
