@<TRIPOS>MOLECULE
NONAME
31 31 1 0 0 
SMALL
USER_CHARGES


@<TRIPOS>ATOM
  1 F       -0.5420     0.9910    -1.1490 F     1 <1>  -0.3400 
  2 C        0.6210     0.8510    -0.5290 C.3   1 <1>   1.0200 
  3 F        1.3940     0.1790    -1.3720 F     1 <1>  -0.3400 
  4 F        0.4090     0.0210     0.4850 F     1 <1>  -0.3400 
  5 C        1.2790     2.1710    -0.1010 C.3   1 <1>   0.2200 
  6 N        2.6960     2.0000     0.4780 N.am  1 <1>  -0.7300 
  7 C        0.3130     2.9230     0.8290 C.3   1 <1>   1.0200 
  8 C        3.7690     2.6730     0.0030 C.2   1 <1>   0.6900 
  9 F        0.8070     4.0980     1.1970 F     1 <1>  -0.3400 
 10 F       -0.8700     3.1880     0.2930 F     1 <1>  -0.3400 
 11 F        0.0750     2.2750     1.9630 F     1 <1>  -0.3400 
 12 O        3.6180     3.4490    -0.9160 O.2   1 <1>  -0.5700 
 13 N        4.9800     2.4320     0.5760 N.am  1 <1>  -0.5470 
 14 C        6.2270     3.0390     0.3580 C.ar  1 <1>   0.1170 
 15 C        7.3810     2.3100     0.6220 C.ar  1 <1>  -0.1500 
 16 C        6.3620     4.3480    -0.0930 C.ar  1 <1>  -0.1500 
 17 C        8.6360     2.8650     0.4390 C.ar  1 <1>  -0.1500 
 18 C        7.6130     4.9080    -0.2780 C.ar  1 <1>  -0.1500 
 19 C        8.7580     4.1750    -0.0140 C.ar  1 <1>   0.0820 
 20 O        9.9480     4.7990    -0.2220 O.3   1 <1>  -0.3630 
 21 C       11.1680     4.1220    -0.0160 C.3   1 <1>   0.0400 
 22 H        1.3470     2.7630    -0.9940 H     1 <1>   0.0800 
 23 H        2.7820     1.4610     1.3420 H     1 <1>   0.3700 
 24 H        5.0060     1.6180     1.1790 H     1 <1>   0.3700 
 25 H        7.3020     1.2970     0.9700 H     1 <1>   0.1500 
 26 H        5.4880     4.9390    -0.3000 H     1 <1>   0.1500 
 27 H        9.5010     2.2670     0.6530 H     1 <1>   0.1500 
 28 H        7.7090     5.9200    -0.6280 H     1 <1>   0.1500 
 29 H       11.9690     4.7990    -0.2530 H     1 <1>   0.0800 
 30 H       11.2070     3.2680    -0.6680 H     1 <1>   0.0800 
 31 H       11.2330     3.8260     1.0160 H     1 <1>   0.0800 
@<TRIPOS>BOND
  1   1   2  1   
  2   2   3  1   
  3   2   4  1   
  4   2   5  1   
  5   5   6  1   
  6   5   7  1   
  7   5  22  1   
  8   6   8  am  
  9   6  23  1   
 10   7   9  1   
 11   7  10  1   
 12   7  11  1   
 13   8  12  2   
 14   8  13  am  
 15  13  14  1   
 16  13  24  1   
 17  14  15  ar  
 18  14  16  ar  
 19  15  17  ar  
 20  15  25  1   
 21  16  18  ar  
 22  16  26  1   
 23  17  19  ar  
 24  17  27  1   
 25  18  19  ar  
 26  18  28  1   
 27  19  20  1   
 28  20  21  1   
 29  21  29  1   
 30  21  30  1   
 31  21  31  1   
@<TRIPOS>SUBSTRUCTURE
  1 ****   8 GROUP 4 **** **** 0

# MOE 2024.06 (io_trps.svl 2023.06)
