@<TRIPOS>MOLECULE
NONAME
45 46 1 0 0 
SMALL
USER_CHARGES


@<TRIPOS>ATOM
  1 S       -0.8590     1.5000    -1.4300 S.3   1 <1>  -0.3610 
  2 C        0.2790     0.9300    -0.2190 C.cat 1 <1>   0.8400 
  3 C       -1.9330     2.8440    -0.7110 C.3   1 <1>   0.2110 
  4 N        1.2790     0.2670    -0.7490 N.pl3 1 <1>  -0.7940 
  5 N        0.0480     1.1910     1.0470 N.pl3 1 <1>  -0.7940 
  6 C       -2.9320     2.2750     0.2760 C.2   1 <1>   0.5690 
  7 C       -2.8130     3.4070    -1.8310 C.3   1 <1>  -0.0990 
  8 C        2.4000    -0.4770    -0.1500 C.3   1 <1>   0.3290 
  9 C        0.8470     0.9550     2.2590 C.3   1 <1>   0.3290 
 10 O       -2.5870     1.8900     1.3670 O.2   1 <1>  -0.5700 
 11 N       -4.2000     2.2950    -0.2330 N.am  1 <1>  -0.2370 
 12 C       -4.1950     2.9280    -1.4490 C.2   1 <1>   0.5690 
 13 C        2.8010    -1.5840    -1.1150 C.3   1 <1>  -0.2400 
 14 C        0.4600     2.0080     3.2890 C.3   1 <1>  -0.2400 
 15 C       -5.3330     1.7340     0.3990 C.ar  1 <1>   0.1170 
 16 O       -5.1420     3.1210    -2.1620 O.2   1 <1>  -0.5700 
 17 C       -5.2790     0.4570     0.9440 C.ar  1 <1>  -0.1500 
 18 C       -6.5260     2.4440     0.4950 C.ar  1 <1>  -0.1500 
 19 C       -6.3760    -0.1020     1.5740 C.ar  1 <1>   0.0820 
 20 C       -7.6290     1.8950     1.1230 C.ar  1 <1>  -0.1500 
 21 O       -6.2150    -1.3530     2.0740 O.3   1 <1>  -0.3620 
 22 C       -7.5590     0.6240     1.6650 C.ar  1 <1>  -0.1500 
 23 C       -7.2670    -2.0150     2.7410 C.3   1 <1>   0.0400 
 24 H       -1.2970     3.5890    -0.2680 H     1 <1>   0.0800 
 25 H        1.2740     0.2020    -1.7700 H     1 <1>   0.4500 
 26 H       -0.8790     1.5610     1.3050 H     1 <1>   0.4500 
 27 H       -2.5440     3.0390    -2.8050 H     1 <1>   0.0800 
 28 H       -2.8010     4.4810    -1.8300 H     1 <1>   0.0800 
 29 H        2.1050    -0.9130     0.7890 H     1 <1>   0.0800 
 30 H        3.2340     0.1870     0.0120 H     1 <1>   0.0800 
 31 H        0.6370    -0.0290     2.6480 H     1 <1>   0.0800 
 32 H        1.8980     1.0360     2.0410 H     1 <1>   0.0800 
 33 H        1.9770    -2.2550    -1.2880 H     1 <1>   0.0800 
 34 H        3.6100    -2.1530    -0.6910 H     1 <1>   0.0800 
 35 H        3.1380    -1.1750    -2.0510 H     1 <1>   0.0800 
 36 H        1.0330     1.8610     4.1870 H     1 <1>   0.0800 
 37 H       -0.5830     1.9260     3.5420 H     1 <1>   0.0800 
 38 H        0.6650     2.9960     2.9170 H     1 <1>   0.0800 
 39 H       -4.3770    -0.1230     0.8860 H     1 <1>   0.1500 
 40 H       -6.5970     3.4310     0.0720 H     1 <1>   0.1500 
 41 H       -8.5450     2.4570     1.1870 H     1 <1>   0.1500 
 42 H       -8.4290     0.2190     2.1470 H     1 <1>   0.1500 
 43 H       -6.9110    -2.9820     3.0480 H     1 <1>   0.0800 
 44 H       -8.0940    -2.1280     2.0620 H     1 <1>   0.0800 
 45 H       -7.5500    -1.4390     3.6040 H     1 <1>   0.0800 
@<TRIPOS>BOND
  1   1   2  1   
  2   1   3  1   
  3   2   4  ar  
  4   2   5  ar  
  5   3   6  1   
  6   3   7  1   
  7   3  24  1   
  8   4   8  1   
  9   4  25  1   
 10   5   9  1   
 11   5  26  1   
 12   6  10  2   
 13   6  11  am  
 14   7  12  1   
 15   7  27  1   
 16   7  28  1   
 17   8  13  1   
 18   8  29  1   
 19   8  30  1   
 20   9  14  1   
 21   9  31  1   
 22   9  32  1   
 23  11  12  am  
 24  11  15  1   
 25  12  16  2   
 26  13  33  1   
 27  13  34  1   
 28  13  35  1   
 29  14  36  1   
 30  14  37  1   
 31  14  38  1   
 32  15  17  ar  
 33  15  18  ar  
 34  17  19  ar  
 35  17  39  1   
 36  18  20  ar  
 37  18  40  1   
 38  19  21  1   
 39  19  22  ar  
 40  20  22  ar  
 41  20  41  1   
 42  21  23  1   
 43  22  42  1   
 44  23  43  1   
 45  23  44  1   
 46  23  45  1   
@<TRIPOS>SUBSTRUCTURE
  1 ****   6 GROUP 4 **** **** 0

# MOE 2024.06 (io_trps.svl 2023.06)
