@<TRIPOS>MOLECULE
NONAME
54 55 1 0 0 
SMALL
USER_CHARGES


@<TRIPOS>ATOM
  1 O       -5.0470    -9.2680     0.3840 O.3   1 <1>  -0.3630 
  2 C       -6.3810    -9.4740     0.2450 C.ar  1 <1>   0.0830 
  3 C       -4.2810    -8.6060    -0.6080 C.3   1 <1>   0.1200 
  4 C       -7.0430    -9.4560    -0.9780 C.ar  1 <1>  -0.1500 
  5 C       -7.1030    -9.7050     1.4030 C.ar  1 <1>  -0.1500 
  6 C       -4.7160    -7.1370    -0.7180 C.3   1 <1>   0.2000 
  7 C       -8.4130    -9.6490    -1.0270 C.ar  1 <1>  -0.1500 
  8 C       -8.4710    -9.8990     1.3490 C.ar  1 <1>  -0.1500 
  9 O       -3.8210    -6.4550    -1.5180 O.3   1 <1>  -0.6800 
 10 C       -4.7470    -6.4100     0.6410 C.3   1 <1>   0.1100 
 11 C       -9.1410    -9.8690     0.1340 C.ar  1 <1>  -0.1430 
 12 N       -4.7230    -4.9260     0.4950 N.3   1 <1>  -0.8100 
 13 C      -10.6520   -10.0800     0.0570 C.3   1 <1>   0.0630 
 14 C       -6.0140    -4.4100    -0.0320 C.3   1 <1>   0.1100 
 15 C       -4.4190    -4.2880     1.8000 C.3   1 <1>   0.1100 
 16 C      -11.3980    -8.9850     0.8270 C.3   1 <1>  -0.2400 
 17 C      -11.0380   -11.4690     0.5760 C.3   1 <1>  -0.2400 
 18 C       -6.0350    -2.8650    -0.1510 C.3   1 <1>   0.3430 
 19 C       -4.4610    -2.7400     1.7370 C.3   1 <1>   0.3430 
 20 N       -4.7550    -2.2550     0.3480 N.4   1 <1>  -0.9590 
 21 C       -4.6990    -0.7630     0.2470 C.3   1 <1>   0.3430 
 22 C       -4.6870    -0.2650    -1.2050 C.3   1 <1>   0.1200 
 23 O       -4.6340     1.1170    -1.1740 O.3   1 <1>  -0.6800 
 24 H       -4.3890    -9.1240    -1.5430 H     1 <1>   0.0800 
 25 H       -3.2540    -8.6590    -0.2970 H     1 <1>   0.0800 
 26 H       -6.5140    -9.3030    -1.8990 H     1 <1>   0.1500 
 27 H       -6.5880    -9.7340     2.3460 H     1 <1>   0.1500 
 28 H       -5.6790    -7.0770    -1.1900 H     1 <1>   0.0800 
 29 H       -8.9110    -9.6310    -1.9800 H     1 <1>   0.1500 
 30 H       -9.0130   -10.0760     2.2620 H     1 <1>   0.1500 
 31 H       -3.7420    -5.5630    -1.1110 H     1 <1>   0.4000 
 32 H       -3.8810    -6.7260     1.1990 H     1 <1>   0.0800 
 33 H       -5.6160    -6.7250     1.1960 H     1 <1>   0.0800 
 34 H      -10.9580   -10.0210    -0.9740 H     1 <1>   0.0800 
 35 H       -6.8220    -4.7220     0.6110 H     1 <1>   0.0800 
 36 H       -6.2030    -4.8290    -1.0060 H     1 <1>   0.0800 
 37 H       -3.4370    -4.5930     2.1220 H     1 <1>   0.0800 
 38 H       -5.1190    -4.6250     2.5450 H     1 <1>   0.0800 
 39 H      -11.1680    -9.0300     1.8760 H     1 <1>   0.0800 
 40 H      -12.4600    -9.1000     0.7020 H     1 <1>   0.0800 
 41 H      -11.1120    -8.0180     0.4540 H     1 <1>   0.0800 
 42 H      -10.8020   -11.5680     1.6200 H     1 <1>   0.0800 
 43 H      -10.5000   -12.2240     0.0310 H     1 <1>   0.0800 
 44 H      -12.0920   -11.6370     0.4450 H     1 <1>   0.0800 
 45 H       -6.8700    -2.4810     0.4110 H     1 <1>   0.0800 
 46 H       -6.1900    -2.6020    -1.1850 H     1 <1>   0.0800 
 47 H       -3.5120    -2.3520     2.0700 H     1 <1>   0.0800 
 48 H       -5.2160    -2.3810     2.4180 H     1 <1>   0.0800 
 49 H       -4.0130    -2.6860    -0.2260 H     1 <1>   0.4500 
 50 H       -3.8030    -0.4060     0.7270 H     1 <1>   0.0800 
 51 H       -5.5480    -0.3340     0.7550 H     1 <1>   0.0800 
 52 H       -5.5830    -0.5480    -1.7280 H     1 <1>   0.0800 
 53 H       -3.8150    -0.6200    -1.7280 H     1 <1>   0.0800 
 54 H       -4.5940     1.5020    -2.0760 H     1 <1>   0.4000 
@<TRIPOS>BOND
  1   1   2  1   
  2   1   3  1   
  3   2   4  ar  
  4   2   5  ar  
  5   3   6  1   
  6   3  24  1   
  7   3  25  1   
  8   4   7  ar  
  9   4  26  1   
 10   5   8  ar  
 11   5  27  1   
 12   6   9  1   
 13   6  10  1   
 14   6  28  1   
 15   7  11  ar  
 16   7  29  1   
 17   8  11  ar  
 18   8  30  1   
 19   9  31  1   
 20  10  12  1   
 21  10  32  1   
 22  10  33  1   
 23  11  13  1   
 24  12  14  1   
 25  12  15  1   
 26  13  16  1   
 27  13  17  1   
 28  13  34  1   
 29  14  18  1   
 30  14  35  1   
 31  14  36  1   
 32  15  19  1   
 33  15  37  1   
 34  15  38  1   
 35  16  39  1   
 36  16  40  1   
 37  16  41  1   
 38  17  42  1   
 39  17  43  1   
 40  17  44  1   
 41  18  20  1   
 42  18  45  1   
 43  18  46  1   
 44  19  20  1   
 45  19  47  1   
 46  19  48  1   
 47  20  21  1   
 48  20  49  1   
 49  21  22  1   
 50  21  50  1   
 51  21  51  1   
 52  22  23  1   
 53  22  52  1   
 54  22  53  1   
 55  23  54  1   
@<TRIPOS>SUBSTRUCTURE
  1 ****  10 GROUP 4 **** **** 0

# MOE 2024.06 (io_trps.svl 2023.06)
