@<TRIPOS>MOLECULE
NONAME
48 50 1 0 0 
SMALL
USER_CHARGES


@<TRIPOS>ATOM
  1 CL      -1.1870    -2.4070     2.0950 Cl    1 <1>  -0.1770 
  2 C        0.3230    -2.5590     1.2340 C.ar  1 <1>   0.1770 
  3 C        0.3610    -2.8820    -0.1150 C.ar  1 <1>  -0.0090 
  4 C        1.4800    -2.3440     1.9600 C.ar  1 <1>  -0.1500 
  5 S       -1.1520    -3.1670    -1.0610 S.o2  1 <1>   1.4470 
  6 C        1.6120    -2.9850    -0.7130 C.ar  1 <1>  -0.1500 
  7 C        2.7090    -2.4570     1.3390 C.ar  1 <1>  -0.1500 
  8 O       -2.0110    -2.0110    -0.9300 O.2   1 <1>  -0.6500 
  9 O       -0.8040    -3.6230    -2.3900 O.2   1 <1>  -0.6500 
 10 N       -1.8620    -4.4930    -0.2720 N.am  1 <1>  -0.8490 
 11 C        2.8010    -2.7890    -0.0120 C.ar  1 <1>   0.0860 
 12 C       -3.3150    -4.5560    -0.4740 C.3   1 <1>   0.1960 
 13 C       -1.1790    -5.7470    -0.6040 C.3   1 <1>   0.1960 
 14 C        4.0830    -2.9210    -0.6780 C.2   1 <1>   0.5440 
 15 C       -3.9850    -5.2280     0.7270 C.3   1 <1>  -0.1600 
 16 C       -1.5650    -6.9120     0.3150 C.3   1 <1>  -0.1600 
 17 O        4.2700    -2.3200    -1.7170 O.2   1 <1>  -0.5700 
 18 N        5.0870    -3.7200    -0.1750 N.am  1 <1>  -0.6600 
 19 C       -4.1170    -6.7570     0.6430 C.3   1 <1>  -0.1600 
 20 C       -2.9450    -7.5010    -0.0100 C.3   1 <1>  -0.1600 
 21 C        6.4650    -3.7180    -0.7550 C.3   1 <1>   0.1400 
 22 C        4.8700    -4.8350     0.7960 C.3   1 <1>   0.1400 
 23 C        6.8360    -5.1170    -1.2700 C.3   1 <1>   0.1200 
 24 C        5.3370    -6.1730     0.1950 C.3   1 <1>   0.1200 
 25 O        6.6540    -6.0760    -0.2640 O.3   1 <1>  -0.5600 
 26 H        1.4120    -2.0870     3.0030 H     1 <1>   0.1500 
 27 H        1.6780    -3.2210    -1.7640 H     1 <1>   0.1500 
 28 H        3.6130    -2.2820     1.8980 H     1 <1>   0.1500 
 29 H       -3.5590    -5.0530    -1.3980 H     1 <1>   0.0800 
 30 H       -3.7200    -3.5600    -0.5280 H     1 <1>   0.0800 
 31 H       -0.1170    -5.5970    -0.5040 H     1 <1>   0.0800 
 32 H       -1.3690    -6.0100    -1.6320 H     1 <1>   0.0800 
 33 H       -4.9760    -4.8220     0.8300 H     1 <1>   0.0800 
 34 H       -3.4470    -4.9540     1.6190 H     1 <1>   0.0800 
 35 H       -1.5000    -6.6140     1.3470 H     1 <1>   0.0800 
 36 H       -0.8380    -7.6890     0.1610 H     1 <1>   0.0800 
 37 H       -5.0120    -7.0020     0.0970 H     1 <1>   0.0800 
 38 H       -4.2500    -7.1310     1.6440 H     1 <1>   0.0800 
 39 H       -2.9760    -8.5240     0.3240 H     1 <1>   0.0800 
 40 H       -3.0830    -7.5180    -1.0780 H     1 <1>   0.0800 
 41 H        7.1690    -3.4230     0.0030 H     1 <1>   0.0800 
 42 H        6.5410    -3.0110    -1.5630 H     1 <1>   0.0800 
 43 H        3.8310    -4.9200     1.0590 H     1 <1>   0.0800 
 44 H        5.4290    -4.6380     1.6940 H     1 <1>   0.0800 
 45 H        7.8700    -5.1420    -1.5650 H     1 <1>   0.0800 
 46 H        6.2270    -5.3810    -2.1170 H     1 <1>   0.0800 
 47 H        4.7060    -6.4600    -0.6290 H     1 <1>   0.0800 
 48 H        5.3070    -6.9470     0.9410 H     1 <1>   0.0800 
@<TRIPOS>BOND
  1   1   2  1   
  2   2   3  ar  
  3   2   4  ar  
  4   3   5  1   
  5   3   6  ar  
  6   4   7  ar  
  7   4  26  1   
  8   5   8  2   
  9   5   9  2   
 10   5  10  am  
 11   6  11  ar  
 12   6  27  1   
 13   7  11  ar  
 14   7  28  1   
 15  10  12  1   
 16  10  13  1   
 17  11  14  1   
 18  12  15  1   
 19  12  29  1   
 20  12  30  1   
 21  13  16  1   
 22  13  31  1   
 23  13  32  1   
 24  14  17  2   
 25  14  18  am  
 26  15  19  1   
 27  15  33  1   
 28  15  34  1   
 29  16  20  1   
 30  16  35  1   
 31  16  36  1   
 32  18  21  1   
 33  18  22  1   
 34  19  20  1   
 35  19  37  1   
 36  19  38  1   
 37  20  39  1   
 38  20  40  1   
 39  21  23  1   
 40  21  41  1   
 41  21  42  1   
 42  22  24  1   
 43  22  43  1   
 44  22  44  1   
 45  23  25  1   
 46  23  45  1   
 47  23  46  1   
 48  24  25  1   
 49  24  47  1   
 50  24  48  1   
@<TRIPOS>SUBSTRUCTURE
  1 ****   6 GROUP 4 **** **** 0

# MOE 2024.06 (io_trps.svl 2023.06)
