@<TRIPOS>MOLECULE
NONAME
37 38 1 0 0 
SMALL
USER_CHARGES


@<TRIPOS>ATOM
  1 I        0.2090     0.4660    -0.0570 I     1 <1>  -0.0810 
  2 C       -1.8980     0.1900     0.0740 C.ar  1 <1>   0.0810 
  3 C       -2.6700     1.2090     0.6010 C.ar  1 <1>  -0.1500 
  4 C       -2.4400    -1.0030    -0.3700 C.ar  1 <1>  -0.1500 
  5 C       -4.0390     1.0190     0.6820 C.ar  1 <1>  -0.1500 
  6 C       -3.8110    -1.1800    -0.2830 C.ar  1 <1>  -0.1500 
  7 C       -4.6150    -0.1670     0.2440 C.ar  1 <1>   0.0830 
  8 O       -5.9630    -0.2620     0.3620 O.3   1 <1>  -0.3630 
  9 C       -6.6560    -1.4160    -0.0520 C.3   1 <1>   0.1200 
 10 C       -8.1440    -1.1930     0.2140 C.3   1 <1>  -0.1600 
 11 C       -8.9700    -2.3900    -0.2640 C.3   1 <1>   0.1100 
 12 N      -10.3710    -2.2650     0.1740 N.3   1 <1>  -0.8100 
 13 C      -11.1190    -1.2310    -0.5760 C.3   1 <1>   0.1100 
 14 C      -11.0590    -3.5710     0.1340 C.3   1 <1>   0.1100 
 15 C      -12.5600    -1.0910    -0.0460 C.3   1 <1>   0.3430 
 16 C      -12.4980    -3.4610     0.6770 C.3   1 <1>   0.3430 
 17 N      -13.2810    -2.4070    -0.0490 N.4   1 <1>  -0.9060 
 18 H       -2.2180     2.1250     0.9380 H     1 <1>   0.1500 
 19 H       -1.8080    -1.7740    -0.7740 H     1 <1>   0.1500 
 20 H       -4.6710     1.7890     1.0860 H     1 <1>   0.1500 
 21 H       -4.2300    -2.1060    -0.6280 H     1 <1>   0.1500 
 22 H       -6.2870    -2.2540     0.5130 H     1 <1>   0.0800 
 23 H       -6.4720    -1.5600    -1.1030 H     1 <1>   0.0800 
 24 H       -8.4460    -0.3010    -0.3030 H     1 <1>   0.0800 
 25 H       -8.2890    -1.0610     1.2720 H     1 <1>   0.0800 
 26 H       -8.5450    -3.2810     0.1690 H     1 <1>   0.0800 
 27 H       -8.9170    -2.4800    -1.3370 H     1 <1>   0.0800 
 28 H      -11.1350    -1.4730    -1.6250 H     1 <1>   0.0800 
 29 H      -10.6320    -0.2780    -0.4640 H     1 <1>   0.0800 
 30 H      -10.5170    -4.2740     0.7450 H     1 <1>   0.0800 
 31 H      -11.0740    -3.9510    -0.8730 H     1 <1>   0.0800 
 32 H      -13.0940    -0.3740    -0.6480 H     1 <1>   0.0800 
 33 H      -12.5110    -0.7080     0.9600 H     1 <1>   0.0800 
 34 H      -12.4440    -3.2150     1.7250 H     1 <1>   0.0800 
 35 H      -12.9890    -4.4170     0.5850 H     1 <1>   0.0800 
 36 H      -13.4190    -2.7070    -1.0210 H     1 <1>   0.4500 
 37 H      -14.2070    -2.3000     0.3810 H     1 <1>   0.4500 
@<TRIPOS>BOND
  1   1   2  1   
  2   2   3  ar  
  3   2   4  ar  
  4   3   5  ar  
  5   3  18  1   
  6   4   6  ar  
  7   4  19  1   
  8   5   7  ar  
  9   5  20  1   
 10   6   7  ar  
 11   6  21  1   
 12   7   8  1   
 13   8   9  1   
 14   9  10  1   
 15   9  22  1   
 16   9  23  1   
 17  10  11  1   
 18  10  24  1   
 19  10  25  1   
 20  11  12  1   
 21  11  26  1   
 22  11  27  1   
 23  12  13  1   
 24  12  14  1   
 25  13  15  1   
 26  13  28  1   
 27  13  29  1   
 28  14  16  1   
 29  14  30  1   
 30  14  31  1   
 31  15  17  1   
 32  15  32  1   
 33  15  33  1   
 34  16  17  1   
 35  16  34  1   
 36  16  35  1   
 37  17  36  1   
 38  17  37  1   
@<TRIPOS>SUBSTRUCTURE
  1 ****   9 GROUP 4 **** **** 0

# MOE 2024.06 (io_trps.svl 2023.06)
