@<TRIPOS>MOLECULE
NONAME
40 43 1 0 0 
SMALL
USER_CHARGES


@<TRIPOS>ATOM
  1 S       -0.0360    -0.3640    -0.4110 S.3   1 <1>  -0.3320 
  2 C       -1.8110    -0.5070    -0.2230 C.ar  1 <1>   0.7220 
  3 C        0.3370     1.3900     0.0190 C.3   1 <1>   0.0700 
  4 N       -2.4470     0.6290     0.1520 N.ar  1 <1>  -0.3100 
  5 N       -2.3210    -1.6850    -0.4680 N.ar  1 <1>  -0.5670 
  6 C        1.8390     1.5990    -0.1850 C.3   1 <1>   0.3430 
  7 N       -3.7390     0.6230     0.3110 N.ar  1 <1>  -0.2560 
  8 C       -3.6430    -1.6710    -0.2990 C.ar  1 <1>   0.1050 
  9 N        2.2730     2.9870     0.1720 N.4   1 <1>  -0.9590 
 10 C       -4.3510    -0.5460     0.0830 C.ar  1 <1>   0.2560 
 11 N       -4.5100    -2.7130    -0.4620 N.pl3 1 <1>   0.0330 
 12 C        1.6640     4.0700    -0.6800 C.3   1 <1>   0.3430 
 13 C        3.7700     3.1260     0.1880 C.3   1 <1>   0.3430 
 14 C       -5.7210    -0.9190     0.1570 C.ar  1 <1>   0.0000 
 15 C       -5.7870    -2.2680    -0.1870 C.ar  1 <1>  -0.1520 
 16 C        2.1970     5.4670    -0.2870 C.3   1 <1>   0.1200 
 17 C        4.2020     4.5650     0.5570 C.3   1 <1>   0.1200 
 18 C       -6.8910    -0.2320     0.4830 C.ar  1 <1>  -0.1500 
 19 C       -7.0070    -2.9430    -0.2100 C.ar  1 <1>  -0.1500 
 20 O        3.0890     5.3850     0.7930 O.3   1 <1>  -0.5600 
 21 C       -8.0970    -0.8990     0.4590 C.ar  1 <1>  -0.1500 
 22 C       -8.1540    -2.2520     0.1130 C.ar  1 <1>  -0.1500 
 23 H        0.0450     1.5320     1.0450 H     1 <1>   0.0800 
 24 H       -0.2520     2.0040    -0.6380 H     1 <1>   0.0800 
 25 H        2.0860     1.3930    -1.2140 H     1 <1>   0.0800 
 26 H        2.3660     0.8890     0.4330 H     1 <1>   0.0800 
 27 H        1.9830     3.2110     1.1380 H     1 <1>   0.4500 
 28 H       -4.2380    -3.6580    -0.7430 H     1 <1>   0.2700 
 29 H        0.5920     4.0670    -0.5740 H     1 <1>   0.0800 
 30 H        1.8870     3.8920    -1.7190 H     1 <1>   0.0800 
 31 H        4.1730     2.8790    -0.7810 H     1 <1>   0.0800 
 32 H        4.1970     2.4400     0.9010 H     1 <1>   0.0800 
 33 H        1.3820     6.1050     0.0090 H     1 <1>   0.0800 
 34 H        2.7020     5.9320    -1.1170 H     1 <1>   0.0800 
 35 H        4.7910     5.0020    -0.2310 H     1 <1>   0.0800 
 36 H        4.7970     4.5550     1.4540 H     1 <1>   0.0800 
 37 H       -6.8350     0.8090     0.7470 H     1 <1>   0.1500 
 38 H       -7.0480    -3.9850    -0.4770 H     1 <1>   0.1500 
 39 H       -9.0070    -0.3810     0.7080 H     1 <1>   0.1500 
 40 H       -9.1080    -2.7510     0.1030 H     1 <1>   0.1500 
@<TRIPOS>BOND
  1   1   2  1   
  2   1   3  1   
  3   2   4  ar  
  4   2   5  ar  
  5   3   6  1   
  6   3  23  1   
  7   3  24  1   
  8   4   7  ar  
  9   5   8  ar  
 10   6   9  1   
 11   6  25  1   
 12   6  26  1   
 13   7  10  ar  
 14   8  10  ar  
 15   8  11  1   
 16   9  12  1   
 17   9  13  1   
 18   9  27  1   
 19  10  14  1   
 20  11  15  1   
 21  11  28  1   
 22  12  16  1   
 23  12  29  1   
 24  12  30  1   
 25  13  17  1   
 26  13  31  1   
 27  13  32  1   
 28  14  15  ar  
 29  14  18  ar  
 30  15  19  ar  
 31  16  20  1   
 32  16  33  1   
 33  16  34  1   
 34  17  20  1   
 35  17  35  1   
 36  17  36  1   
 37  18  21  ar  
 38  18  37  1   
 39  19  22  ar  
 40  19  38  1   
 41  21  22  ar  
 42  21  39  1   
 43  22  40  1   
@<TRIPOS>SUBSTRUCTURE
  1 ****   4 GROUP 4 **** **** 0

# MOE 2024.06 (io_trps.svl 2023.06)
