@<TRIPOS>MOLECULE
NONAME
43 45 1 0 0 
SMALL
USER_CHARGES


@<TRIPOS>ATOM
  1 O        0.1630     0.0420    -0.1630 O.2   1 <1>  -0.5700 
  2 C        0.0200     1.1570    -0.6220 C.2   1 <1>   0.6900 
  3 N       -1.2040     1.7470    -0.7300 N.am  1 <1>  -0.5470 
  4 N        1.0970     1.8730    -1.0320 N.am  1 <1>  -0.7300 
  5 C       -2.4900     1.2490    -0.4630 C.ar  1 <1>   0.1170 
  6 C        2.5000     1.3930    -0.9740 C.3   1 <1>   0.1400 
  7 C       -3.4930     2.1470    -0.1260 C.ar  1 <1>  -0.1500 
  8 C       -2.7960    -0.1210    -0.5470 C.ar  1 <1>  -0.1500 
  9 C        3.2410     2.0880     0.1690 C.3   1 <1>  -0.0220 
 10 C       -4.7740     1.6770     0.1270 C.ar  1 <1>   0.2270 
 11 C       -4.0700    -0.5930    -0.2930 C.ar  1 <1>  -0.1500 
 12 C        4.7070     1.6750     0.2130 C.2   1 <1>  -0.2760 
 13 N       -5.9180     2.3310     0.4700 N.2   1 <1>  -0.5650 
 14 C       -5.0440     0.3350     0.0430 C.ar  1 <1>   0.1400 
 15 C        5.7050     2.5170    -0.0750 C.2   1 <1>  -0.2880 
 16 C        4.9480     0.2230     0.6190 C.3   1 <1>  -0.0220 
 17 C       -6.7770     1.3900     0.5710 C.2   1 <1>   0.2980 
 18 O       -6.3220     0.1720     0.3290 O.3   1 <1>  -0.2800 
 19 C        7.1780     2.1400    -0.0600 C.3   1 <1>  -0.0220 
 20 C        6.4130    -0.0230     1.0070 C.3   1 <1>  -0.1600 
 21 C       -8.2340     1.5450     0.9350 C.3   1 <1>  -0.0600 
 22 C        7.3690     0.6180    -0.0070 C.3   1 <1>  -0.1600 
 23 H       -1.1630     2.7370    -0.9400 H     1 <1>   0.3700 
 24 H        0.9630     2.7840    -1.4630 H     1 <1>   0.3700 
 25 H        2.9900     1.6060    -1.9080 H     1 <1>   0.0800 
 26 H        2.5150     0.3270    -0.8230 H     1 <1>   0.0800 
 27 H       -3.3090     3.2010    -0.0500 H     1 <1>   0.1500 
 28 H       -2.0220    -0.8180    -0.8150 H     1 <1>   0.1500 
 29 H        2.7700     1.8440     1.1050 H     1 <1>   0.0800 
 30 H        3.1790     3.1530     0.0290 H     1 <1>   0.0800 
 31 H       -4.3140    -1.6380    -0.3510 H     1 <1>   0.1500 
 32 H        5.5460     3.5480    -0.3420 H     1 <1>   0.1500 
 33 H        4.6860    -0.4210    -0.2030 H     1 <1>   0.0800 
 34 H        4.3220    -0.0350     1.4560 H     1 <1>   0.0800 
 35 H        7.6410     2.5940     0.7990 H     1 <1>   0.0800 
 36 H        7.6600     2.5240    -0.9420 H     1 <1>   0.0800 
 37 H        6.5960    -1.0810     1.0700 H     1 <1>   0.0800 
 38 H        6.5940     0.4050     1.9780 H     1 <1>   0.0800 
 39 H       -8.4610     2.5820     1.1030 H     1 <1>   0.0800 
 40 H       -8.4440     0.9890     1.8300 H     1 <1>   0.0800 
 41 H       -8.8470     1.1750     0.1350 H     1 <1>   0.0800 
 42 H        8.3890     0.3910     0.2510 H     1 <1>   0.0800 
 43 H        7.1720     0.2050    -0.9810 H     1 <1>   0.0800 
@<TRIPOS>BOND
  1   1   2  2   
  2   2   3  am  
  3   2   4  am  
  4   3   5  1   
  5   3  23  1   
  6   4   6  1   
  7   4  24  1   
  8   5   7  ar  
  9   5   8  ar  
 10   6   9  1   
 11   6  25  1   
 12   6  26  1   
 13   7  10  ar  
 14   7  27  1   
 15   8  11  ar  
 16   8  28  1   
 17   9  12  1   
 18   9  29  1   
 19   9  30  1   
 20  10  13  1   
 21  10  14  ar  
 22  11  14  ar  
 23  11  31  1   
 24  12  15  2   
 25  12  16  1   
 26  13  17  2   
 27  14  18  1   
 28  15  19  1   
 29  15  32  1   
 30  16  20  1   
 31  16  33  1   
 32  16  34  1   
 33  17  18  1   
 34  17  21  1   
 35  19  22  1   
 36  19  35  1   
 37  19  36  1   
 38  20  22  1   
 39  20  37  1   
 40  20  38  1   
 41  21  39  1   
 42  21  40  1   
 43  21  41  1   
 44  22  42  1   
 45  22  43  1   
@<TRIPOS>SUBSTRUCTURE
  1 ****   2 GROUP 4 **** **** 0

# MOE 2024.06 (io_trps.svl 2023.06)
