@<TRIPOS>MOLECULE
NONAME
43 44 1 0 0 
SMALL
USER_CHARGES


@<TRIPOS>ATOM
  1 O        0.1200    -0.0480     0.9140 O.2   1 <1>  -0.5700 
  2 C       -0.0650    -1.1310     0.4140 C.2   1 <1>   0.5690 
  3 N       -1.2450    -1.4530    -0.1690 N.am  1 <1>  -0.7300 
  4 C        1.0580    -2.1640     0.4430 C.3   1 <1>  -0.0190 
  5 C       -2.4400    -0.6080    -0.1610 C.3   1 <1>   0.3640 
  6 C        1.5190    -2.6420    -0.9360 C.3   1 <1>  -0.1600 
  7 C        0.7110    -3.4620     1.1780 C.3   1 <1>  -0.1600 
  8 C       -3.6620    -1.5180    -0.2050 C.ar  1 <1>  -0.1440 
  9 C       -2.3870     0.3410    -1.3560 C.3   1 <1>  -0.2400 
 10 C        2.2650    -3.9490    -0.6650 C.3   1 <1>  -0.1600 
 11 C        1.6930    -4.5090     0.6430 C.3   1 <1>  -0.1600 
 12 C       -4.5460    -1.5320     0.8630 C.ar  1 <1>  -0.1500 
 13 C       -3.9160    -2.3450    -1.2890 C.ar  1 <1>  -0.1500 
 14 C       -5.6690    -2.3430     0.8650 C.ar  1 <1>   0.0820 
 15 C       -5.0280    -3.1700    -1.3020 C.ar  1 <1>  -0.1500 
 16 O       -6.4490    -2.2330     1.9790 O.3   1 <1>  -0.3630 
 17 C       -5.9150    -3.1900    -0.2280 C.ar  1 <1>   0.0820 
 18 C       -7.8480    -2.4010     1.9120 C.3   1 <1>   0.0400 
 19 O       -6.9970    -4.0240    -0.2170 O.3   1 <1>  -0.3630 
 20 C       -7.1960    -5.0100    -1.2060 C.3   1 <1>   0.0400 
 21 H       -1.4060    -2.4000    -0.5050 H     1 <1>   0.3700 
 22 H        1.9050    -1.7200     0.9380 H     1 <1>   0.0800 
 23 H       -2.4520    -0.0250     0.7460 H     1 <1>   0.0800 
 24 H        2.1440    -1.9130    -1.4220 H     1 <1>   0.0800 
 25 H        0.6670    -2.8450    -1.5620 H     1 <1>   0.0800 
 26 H       -0.2930    -3.7680     0.9390 H     1 <1>   0.0800 
 27 H        0.7910    -3.3440     2.2450 H     1 <1>   0.0800 
 28 H       -2.2950    -0.2010    -2.2790 H     1 <1>   0.0800 
 29 H       -1.5500     1.0070    -1.2510 H     1 <1>   0.0800 
 30 H       -3.2860     0.9280    -1.3880 H     1 <1>   0.0800 
 31 H        3.3140    -3.7430    -0.5350 H     1 <1>   0.0800 
 32 H        2.1470    -4.6420    -1.4800 H     1 <1>   0.0800 
 33 H        1.1910    -5.4470     0.4770 H     1 <1>   0.0800 
 34 H        2.4910    -4.6650     1.3500 H     1 <1>   0.0800 
 35 H       -4.3720    -0.9040     1.7180 H     1 <1>   0.1500 
 36 H       -3.2490    -2.3530    -2.1330 H     1 <1>   0.1500 
 37 H       -5.1800    -3.7910    -2.1630 H     1 <1>   0.1500 
 38 H       -8.2830    -1.9280     2.7720 H     1 <1>   0.0800 
 39 H       -8.0720    -3.4520     1.9230 H     1 <1>   0.0800 
 40 H       -8.2150    -1.9420     1.0110 H     1 <1>   0.0800 
 41 H       -8.0680    -5.5800    -0.9380 H     1 <1>   0.0800 
 42 H       -6.3350    -5.6540    -1.2360 H     1 <1>   0.0800 
 43 H       -7.3550    -4.5280    -2.1540 H     1 <1>   0.0800 
@<TRIPOS>BOND
  1   1   2  2   
  2   2   3  am  
  3   2   4  1   
  4   3   5  1   
  5   3  21  1   
  6   4   6  1   
  7   4   7  1   
  8   4  22  1   
  9   5   8  1   
 10   5   9  1   
 11   5  23  1   
 12   6  10  1   
 13   6  24  1   
 14   6  25  1   
 15   7  11  1   
 16   7  26  1   
 17   7  27  1   
 18   8  12  ar  
 19   8  13  ar  
 20   9  28  1   
 21   9  29  1   
 22   9  30  1   
 23  10  11  1   
 24  10  31  1   
 25  10  32  1   
 26  11  33  1   
 27  11  34  1   
 28  12  14  ar  
 29  12  35  1   
 30  13  15  ar  
 31  13  36  1   
 32  14  16  1   
 33  14  17  ar  
 34  15  17  ar  
 35  15  37  1   
 36  16  18  1   
 37  17  19  1   
 38  18  38  1   
 39  18  39  1   
 40  18  40  1   
 41  19  20  1   
 42  20  41  1   
 43  20  42  1   
 44  20  43  1   
@<TRIPOS>SUBSTRUCTURE
  1 ****   8 GROUP 4 **** **** 0

# MOE 2024.06 (io_trps.svl 2023.06)
