@<TRIPOS>MOLECULE
NONAME
39 41 1 0 0 
SMALL
USER_CHARGES


@<TRIPOS>ATOM
  1 S        0.2700    -2.1090    -0.2740 S.3   1 <1>  -0.2860 
  2 C       -1.4270    -1.5450    -0.4450 C.2   1 <1>   0.2420 
  3 C        1.2450    -0.5720    -0.6650 C.3   1 <1>   0.1310 
  4 N       -1.7420    -0.3340    -0.7350 N.2   1 <1>  -0.3380 
  5 N       -2.4780    -2.3490    -0.2830 N.pl3 1 <1>   0.0480 
  6 C        2.7380    -0.7930    -0.4820 C.2   1 <1>   0.5690 
  7 N       -3.0780    -0.3100    -0.7740 N.2   1 <1>  -0.3380 
  8 C       -3.4950    -1.5050    -0.5060 C.2   1 <1>   0.1010 
  9 C       -2.5010    -3.7940     0.0360 C.3   1 <1>   0.0960 
 10 O        3.4910    -0.0570    -1.0720 O.2   1 <1>  -0.5700 
 11 N        3.1550    -1.8060     0.3410 N.am  1 <1>  -0.5470 
 12 C       -4.9580    -1.9170    -0.4550 C.3   1 <1>  -0.0150 
 13 C       -2.3640    -4.0230     1.5450 C.3   1 <1>  -0.2400 
 14 C        4.4340    -2.2300     0.7330 C.ar  1 <1>   0.1170 
 15 C       -6.0020    -0.9590     0.0300 C.3   1 <1>  -0.2000 
 16 C       -5.6310    -2.1440     0.8650 C.3   1 <1>  -0.2000 
 17 C        5.5700    -1.4320     0.6250 C.ar  1 <1>  -0.1500 
 18 C        4.5740    -3.5040     1.2720 C.ar  1 <1>  -0.1500 
 19 C        6.8060    -1.8970     1.0370 C.ar  1 <1>  -0.1500 
 20 C        5.8080    -3.9730     1.6860 C.ar  1 <1>  -0.1500 
 21 C        6.9280    -3.1680     1.5680 C.ar  1 <1>  -0.1500 
 22 H        0.9000     0.2040    -0.0080 H     1 <1>   0.0800 
 23 H        1.0270    -0.3070    -1.6830 H     1 <1>   0.0800 
 24 H       -1.6920    -4.2760    -0.4840 H     1 <1>   0.0800 
 25 H       -3.4250    -4.2160    -0.3160 H     1 <1>   0.0800 
 26 H        2.3930    -2.3890     0.6860 H     1 <1>   0.3700 
 27 H       -5.2350    -2.5450    -1.2840 H     1 <1>   0.1000 
 28 H       -1.4310    -3.6260     1.9040 H     1 <1>   0.0800 
 29 H       -2.3860    -5.0770     1.7550 H     1 <1>   0.0800 
 30 H       -3.1760    -3.5550     2.0740 H     1 <1>   0.0800 
 31 H       -6.9550    -0.9440    -0.4680 H     1 <1>   0.1000 
 32 H       -5.6870     0.0220     0.3440 H     1 <1>   0.1000 
 33 H       -5.0870    -1.9610     1.7750 H     1 <1>   0.1000 
 34 H       -6.3380    -2.9500     0.9580 H     1 <1>   0.1000 
 35 H        5.4960    -0.4400     0.2190 H     1 <1>   0.1500 
 36 H        3.7130    -4.1400     1.3660 H     1 <1>   0.1500 
 37 H        7.6730    -1.2670     0.9430 H     1 <1>   0.1500 
 38 H        5.9000    -4.9620     2.0990 H     1 <1>   0.1500 
 39 H        7.8900    -3.5290     1.8880 H     1 <1>   0.1500 
@<TRIPOS>BOND
  1   1   2  1   
  2   1   3  1   
  3   2   4  2   
  4   2   5  1   
  5   3   6  1   
  6   3  22  1   
  7   3  23  1   
  8   4   7  1   
  9   5   8  1   
 10   5   9  1   
 11   6  10  2   
 12   6  11  am  
 13   7   8  2   
 14   8  12  1   
 15   9  13  1   
 16   9  24  1   
 17   9  25  1   
 18  11  14  1   
 19  11  26  1   
 20  12  15  1   
 21  12  16  1   
 22  12  27  1   
 23  13  28  1   
 24  13  29  1   
 25  13  30  1   
 26  14  17  ar  
 27  14  18  ar  
 28  15  16  1   
 29  15  31  1   
 30  15  32  1   
 31  16  33  1   
 32  16  34  1   
 33  17  19  ar  
 34  17  35  1   
 35  18  20  ar  
 36  18  36  1   
 37  19  21  ar  
 38  19  37  1   
 39  20  21  ar  
 40  20  38  1   
 41  21  39  1   
@<TRIPOS>SUBSTRUCTURE
  1 ****   1 GROUP 4 **** **** 0

# MOE 2024.06 (io_trps.svl 2023.06)
