@<TRIPOS>MOLECULE
NONAME
37 38 1 0 0 
SMALL
USER_CHARGES


@<TRIPOS>ATOM
  1 O       -0.0520     0.4260     0.1310 O.2   1 <1>  -0.5700 
  2 C        0.6080     1.4050    -0.1590 C.2   1 <1>   0.5440 
  3 N       -0.0440     2.5280    -0.5940 N.am  1 <1>  -0.7300 
  4 C        2.0560     1.3810    -0.0590 C.ar  1 <1>   0.0860 
  5 C       -1.5140     2.6660    -0.7350 C.3   1 <1>   0.1400 
  6 C        2.7630     0.1880    -0.2250 C.ar  1 <1>  -0.1500 
  7 C        2.8000     2.5360     0.2050 C.ar  1 <1>  -0.1500 
  8 C       -2.0620     3.5660     0.3730 C.3   1 <1>  -0.0220 
  9 C        4.1430     0.1470    -0.1470 C.ar  1 <1>  -0.1500 
 10 C        4.1800     2.5060     0.2860 C.ar  1 <1>  -0.1500 
 11 C       -3.5590     3.7970     0.2140 C.2   1 <1>  -0.2760 
 12 C        4.8510     1.3070     0.1060 C.ar  1 <1>   0.0830 
 13 C       -4.0780     4.9880    -0.1040 C.2   1 <1>  -0.2880 
 14 C       -4.4240     2.5620     0.4540 C.3   1 <1>  -0.0220 
 15 O        6.1850     1.2580     0.1780 O.3   1 <1>  -0.5330 
 16 C       -5.5630     5.2560    -0.2890 C.3   1 <1>  -0.0220 
 17 C       -5.9010     2.9310     0.6510 C.3   1 <1>  -0.1600 
 18 C       -6.3620     3.9490    -0.4000 C.3   1 <1>  -0.1600 
 19 H        0.5040     3.3220    -0.9240 H     1 <1>   0.3700 
 20 H       -1.9800     1.6960    -0.6800 H     1 <1>   0.0800 
 21 H       -1.7430     3.0920    -1.6970 H     1 <1>   0.0800 
 22 H        2.2140    -0.7180    -0.4190 H     1 <1>   0.1500 
 23 H        2.2890     3.4690     0.3600 H     1 <1>   0.1500 
 24 H       -1.5520     4.5120     0.3360 H     1 <1>   0.0800 
 25 H       -1.8670     3.1160     1.3310 H     1 <1>   0.0800 
 26 H        4.6750    -0.7790    -0.2790 H     1 <1>   0.1500 
 27 H        4.7270     3.4080     0.4890 H     1 <1>   0.1500 
 28 H       -3.4780     5.8690    -0.2550 H     1 <1>   0.1500 
 29 H       -4.0810     2.0360     1.3280 H     1 <1>   0.0800 
 30 H       -4.3330     1.8990    -0.3890 H     1 <1>   0.0800 
 31 H        6.6050     2.1150     0.3700 H     1 <1>   0.4500 
 32 H       -5.7180     5.8390    -1.1800 H     1 <1>   0.0800 
 33 H       -5.9170     5.8280     0.5510 H     1 <1>   0.0800 
 34 H       -6.0280     3.3580     1.6320 H     1 <1>   0.0800 
 35 H       -6.5050     2.0430     0.5940 H     1 <1>   0.0800 
 36 H       -6.2150     3.5300    -1.3800 H     1 <1>   0.0800 
 37 H       -7.4110     4.1560    -0.2800 H     1 <1>   0.0800 
@<TRIPOS>BOND
  1   1   2  2   
  2   2   3  am  
  3   2   4  1   
  4   3   5  1   
  5   3  19  1   
  6   4   6  ar  
  7   4   7  ar  
  8   5   8  1   
  9   5  20  1   
 10   5  21  1   
 11   6   9  ar  
 12   6  22  1   
 13   7  10  ar  
 14   7  23  1   
 15   8  11  1   
 16   8  24  1   
 17   8  25  1   
 18   9  12  ar  
 19   9  26  1   
 20  10  12  ar  
 21  10  27  1   
 22  11  13  2   
 23  11  14  1   
 24  12  15  1   
 25  13  16  1   
 26  13  28  1   
 27  14  17  1   
 28  14  29  1   
 29  14  30  1   
 30  15  31  1   
 31  16  18  1   
 32  16  32  1   
 33  16  33  1   
 34  17  18  1   
 35  17  34  1   
 36  17  35  1   
 37  18  36  1   
 38  18  37  1   
@<TRIPOS>SUBSTRUCTURE
  1 ****   3 GROUP 4 **** **** 0

# MOE 2024.06 (io_trps.svl 2023.06)
