@<TRIPOS>MOLECULE
NONAME
43 43 1 0 0 
SMALL
USER_CHARGES


@<TRIPOS>ATOM
  1 O        0.6480    -1.4630     0.0780 O.3   1 <1>  -0.3630 
  2 C       -0.6680    -1.4700    -0.2720 C.ar  1 <1>   0.0830 
  3 C        1.5960    -0.6730    -0.5890 C.3   1 <1>   0.1200 
  4 C       -1.5330    -2.3120     0.4320 C.ar  1 <1>  -0.1440 
  5 C       -1.1620    -0.6740    -1.3030 C.ar  1 <1>  -0.1500 
  6 C        2.9470    -0.9470     0.0690 C.3   1 <1>  -0.1600 
  7 C       -2.8810    -2.3570     0.0830 C.ar  1 <1>  -0.1440 
  8 C       -1.0090    -3.1860     1.5730 C.3   1 <1>  -0.0960 
  9 C       -2.5010    -0.7190    -1.6350 C.ar  1 <1>  -0.1500 
 10 C        4.0500    -0.1310    -0.5920 C.3   1 <1>   0.3430 
 11 C       -3.3540    -1.5580    -0.9450 C.ar  1 <1>  -0.1500 
 12 C       -3.8700    -3.2680     0.7990 C.3   1 <1>  -0.0970 
 13 N        5.3360    -0.4340     0.0810 N.4   1 <1>  -0.9060 
 14 C        6.4760     0.3160    -0.4950 C.3   1 <1>   0.3430 
 15 C        7.7480    -0.0620     0.2600 C.3   1 <1>  -0.1600 
 16 C        8.9600     0.6910    -0.3020 C.3   1 <1>  -0.1600 
 17 C       10.2370     0.3140     0.4540 C.3   1 <1>  -0.2400 
 18 H        1.3070     0.3590    -0.4810 H     1 <1>   0.0800 
 19 H        1.5980    -0.9590    -1.6280 H     1 <1>   0.0800 
 20 H       -0.5300    -0.0130    -1.8610 H     1 <1>   0.1500 
 21 H        3.1620    -1.9970    -0.0260 H     1 <1>   0.0800 
 22 H        2.8740    -0.6870     1.1110 H     1 <1>   0.0800 
 23 H       -0.0590    -2.8460     1.9380 H     1 <1>   0.0800 
 24 H       -0.8990    -4.1980     1.2290 H     1 <1>   0.0800 
 25 H       -1.6890    -3.1710     2.4040 H     1 <1>   0.0800 
 26 H       -2.8820    -0.1030    -2.4310 H     1 <1>   0.1500 
 27 H        3.8260     0.9210    -0.5060 H     1 <1>   0.0800 
 28 H        4.1120    -0.3840    -1.6390 H     1 <1>   0.0800 
 29 H       -4.3940    -1.5830    -1.2180 H     1 <1>   0.1500 
 30 H       -3.4930    -4.2740     0.8310 H     1 <1>   0.0800 
 31 H       -4.8170    -3.2840     0.2920 H     1 <1>   0.0800 
 32 H       -4.0290    -2.9180     1.8030 H     1 <1>   0.0800 
 33 H        5.5270    -1.4430     0.0170 H     1 <1>   0.4500 
 34 H        5.2580    -0.2160     1.0820 H     1 <1>   0.4500 
 35 H        6.3060     1.3770    -0.4070 H     1 <1>   0.0800 
 36 H        6.5920     0.0730    -1.5400 H     1 <1>   0.0800 
 37 H        7.9260    -1.1200     0.1690 H     1 <1>   0.0800 
 38 H        7.6400     0.1850     1.3030 H     1 <1>   0.0800 
 39 H        8.8070     1.7550    -0.2170 H     1 <1>   0.0800 
 40 H        9.0920     0.4560    -1.3460 H     1 <1>   0.0800 
 41 H       10.1520     0.5640     1.4970 H     1 <1>   0.0800 
 42 H       11.0760     0.8510     0.0470 H     1 <1>   0.0800 
 43 H       10.4370    -0.7400     0.3650 H     1 <1>   0.0800 
@<TRIPOS>BOND
  1   1   2  1   
  2   1   3  1   
  3   2   4  ar  
  4   2   5  ar  
  5   3   6  1   
  6   3  18  1   
  7   3  19  1   
  8   4   7  ar  
  9   4   8  1   
 10   5   9  ar  
 11   5  20  1   
 12   6  10  1   
 13   6  21  1   
 14   6  22  1   
 15   7  11  ar  
 16   7  12  1   
 17   8  23  1   
 18   8  24  1   
 19   8  25  1   
 20   9  11  ar  
 21   9  26  1   
 22  10  13  1   
 23  10  27  1   
 24  10  28  1   
 25  11  29  1   
 26  12  30  1   
 27  12  31  1   
 28  12  32  1   
 29  13  14  1   
 30  13  33  1   
 31  13  34  1   
 32  14  15  1   
 33  14  35  1   
 34  14  36  1   
 35  15  16  1   
 36  15  37  1   
 37  15  38  1   
 38  16  17  1   
 39  16  39  1   
 40  16  40  1   
 41  17  41  1   
 42  17  42  1   
 43  17  43  1   
@<TRIPOS>SUBSTRUCTURE
  1 ****   3 GROUP 4 **** **** 0

# MOE 2024.06 (io_trps.svl 2023.06)
