@<TRIPOS>MOLECULE
NONAME
38 40 1 0 0 
SMALL
USER_CHARGES


@<TRIPOS>ATOM
  1 BR      -0.5810    -0.2030    -1.1070 Br    1 <1>  -0.1110 
  2 C        1.2120    -0.8590    -0.7690 C.ar  1 <1>   0.1110 
  3 C        2.3080    -0.0090    -0.7300 C.ar  1 <1>   0.4100 
  4 C        1.4010    -2.1980    -0.5840 C.ar  1 <1>   0.1600 
  5 N        3.5110    -0.5060    -0.5270 N.ar  1 <1>  -0.6200 
  6 N        2.2070     1.3640    -0.8910 N.pl3 1 <1>  -0.8380 
  7 N        2.5990    -2.6990    -0.3700 N.ar  1 <1>  -0.6200 
  8 C        3.6040    -1.8210    -0.3510 C.ar  1 <1>   0.7200 
  9 C        1.4960     2.1690     0.1360 C.3   1 <1>   0.2090 
 10 C        3.2300     2.1010    -1.6820 C.3   1 <1>   0.2090 
 11 N        4.8690    -2.3300    -0.1230 N.pl3 1 <1>  -0.8380 
 12 C        2.5060     2.8450     1.0690 C.3   1 <1>  -0.1600 
 13 C        4.2350     2.7910    -0.7530 C.3   1 <1>  -0.1600 
 14 C        5.1870    -3.7760    -0.3470 C.3   1 <1>   0.2090 
 15 C        6.0800    -1.4510    -0.1320 C.3   1 <1>   0.2090 
 16 C        3.5360     3.6730     0.2900 C.3   1 <1>  -0.1600 
 17 C        6.3800    -4.2260     0.5140 C.3   1 <1>   0.1200 
 18 C        7.2170    -2.0530     0.7120 C.3   1 <1>   0.1200 
 19 O        7.4800    -3.3770     0.3410 O.3   1 <1>  -0.5600 
 20 H        0.5620    -2.8700    -0.6130 H     1 <1>   0.1500 
 21 H        0.8450     1.5380     0.7160 H     1 <1>   0.0800 
 22 H        0.8940     2.9130    -0.3570 H     1 <1>   0.0800 
 23 H        2.7330     2.8340    -2.2930 H     1 <1>   0.0800 
 24 H        3.7470     1.4180    -2.3360 H     1 <1>   0.0800 
 25 H        3.0100     2.0820     1.6360 H     1 <1>   0.0800 
 26 H        1.9800     3.4780     1.7620 H     1 <1>   0.0800 
 27 H        4.9100     3.3870    -1.3410 H     1 <1>   0.0800 
 28 H        4.8140     2.0330    -0.2550 H     1 <1>   0.0800 
 29 H        5.4220    -3.9270    -1.3860 H     1 <1>   0.0800 
 30 H        4.3420    -4.3950    -0.1040 H     1 <1>   0.0800 
 31 H        5.8420    -0.4800     0.2660 H     1 <1>   0.0800 
 32 H        6.4160    -1.3230    -1.1450 H     1 <1>   0.0800 
 33 H        4.2650     4.0810     0.9690 H     1 <1>   0.0800 
 34 H        3.0410     4.4910    -0.2040 H     1 <1>   0.0800 
 35 H        6.6830    -5.2190     0.2330 H     1 <1>   0.0800 
 36 H        6.1060    -4.2290     1.5550 H     1 <1>   0.0800 
 37 H        6.9550    -2.0330     1.7560 H     1 <1>   0.0800 
 38 H        8.1200    -1.4860     0.5720 H     1 <1>   0.0800 
@<TRIPOS>BOND
  1   1   2  1   
  2   2   3  ar  
  3   2   4  ar  
  4   3   5  ar  
  5   3   6  1   
  6   4   7  ar  
  7   4  20  1   
  8   5   8  ar  
  9   6   9  1   
 10   6  10  1   
 11   7   8  ar  
 12   8  11  1   
 13   9  12  1   
 14   9  21  1   
 15   9  22  1   
 16  10  13  1   
 17  10  23  1   
 18  10  24  1   
 19  11  14  1   
 20  11  15  1   
 21  12  16  1   
 22  12  25  1   
 23  12  26  1   
 24  13  16  1   
 25  13  27  1   
 26  13  28  1   
 27  14  17  1   
 28  14  29  1   
 29  14  30  1   
 30  15  18  1   
 31  15  31  1   
 32  15  32  1   
 33  16  33  1   
 34  16  34  1   
 35  17  19  1   
 36  17  35  1   
 37  17  36  1   
 38  18  19  1   
 39  18  37  1   
 40  18  38  1   
@<TRIPOS>SUBSTRUCTURE
  1 ****   5 GROUP 4 **** **** 0

# MOE 2024.06 (io_trps.svl 2023.06)
