@<TRIPOS>MOLECULE
NONAME
36 36 1 0 0 
SMALL
USER_CHARGES


@<TRIPOS>ATOM
  1 O        1.3470     2.7110     1.2580 O.2   1 <1>  -0.5700 
  2 C        0.5760     2.2340     0.4420 C.2   1 <1>   0.5440 
  3 N        1.0940     1.3210    -0.4430 N.am  1 <1>  -0.7300 
  4 C       -0.8410     2.6030     0.3870 C.ar  1 <1>   0.3960 
  5 C        2.4430     0.7130    -0.3550 C.3   1 <1>   0.1400 
  6 N       -1.6150     2.0300    -0.5530 N.ar  1 <1>  -0.6200 
  7 C       -1.3630     3.5280     1.2950 C.ar  1 <1>  -0.1500 
  8 C        3.5330     1.7910    -0.5090 C.3   1 <1>   0.3430 
  9 C       -2.8870     2.3840    -0.5770 C.ar  1 <1>   0.1600 
 10 C       -2.6920     3.8870     1.2580 C.ar  1 <1>  -0.1500 
 11 N        4.9000     1.3110    -0.1150 N.4   1 <1>  -0.9590 
 12 C       -3.4680     3.2920     0.2900 C.ar  1 <1>  -0.1500 
 13 C        5.8080     2.4820     0.0100 C.3   1 <1>   0.3430 
 14 C        5.4350     0.2790    -1.0430 C.3   1 <1>   0.3430 
 15 C        7.0370     2.0930     0.8240 C.3   1 <1>  -0.2400 
 16 C        5.4420    -1.0620    -0.3230 C.3   1 <1>  -0.2400 
 17 H        0.4060     0.8820    -1.0690 H     1 <1>   0.3700 
 18 H        2.5430    -0.0320    -1.1240 H     1 <1>   0.0800 
 19 H        2.5330     0.2430     0.6090 H     1 <1>   0.0800 
 20 H       -0.7140     3.9640     2.0330 H     1 <1>   0.1500 
 21 H        3.2690     2.6230     0.1220 H     1 <1>   0.0800 
 22 H        3.5450     2.1390    -1.5280 H     1 <1>   0.0800 
 23 H       -3.5080     1.9260    -1.3300 H     1 <1>   0.1500 
 24 H       -3.1040     4.5990     1.9530 H     1 <1>   0.1500 
 25 H        4.8240     0.8960     0.8240 H     1 <1>   0.4500 
 26 H       -4.5150     3.5270     0.2050 H     1 <1>   0.1500 
 27 H        5.2960     3.2840     0.5190 H     1 <1>   0.0800 
 28 H        6.1020     2.8350    -0.9660 H     1 <1>   0.0800 
 29 H        6.4420     0.5280    -1.3390 H     1 <1>   0.0800 
 30 H        4.8300     0.2210    -1.9340 H     1 <1>   0.0800 
 31 H        6.7530     1.7420     1.8010 H     1 <1>   0.0800 
 32 H        7.6610     2.9600     0.9550 H     1 <1>   0.0800 
 33 H        7.6230     1.3420     0.3260 H     1 <1>   0.0800 
 34 H        6.0720    -1.0240     0.5470 H     1 <1>   0.0800 
 35 H        5.8360    -1.8150    -0.9830 H     1 <1>   0.0800 
 36 H        4.4490    -1.3600    -0.0390 H     1 <1>   0.0800 
@<TRIPOS>BOND
  1   1   2  2   
  2   2   3  am  
  3   2   4  1   
  4   3   5  1   
  5   3  17  1   
  6   4   6  ar  
  7   4   7  ar  
  8   5   8  1   
  9   5  18  1   
 10   5  19  1   
 11   6   9  ar  
 12   7  10  ar  
 13   7  20  1   
 14   8  11  1   
 15   8  21  1   
 16   8  22  1   
 17   9  12  ar  
 18   9  23  1   
 19  10  12  ar  
 20  10  24  1   
 21  11  13  1   
 22  11  14  1   
 23  11  25  1   
 24  12  26  1   
 25  13  15  1   
 26  13  27  1   
 27  13  28  1   
 28  14  16  1   
 29  14  29  1   
 30  14  30  1   
 31  15  31  1   
 32  15  32  1   
 33  15  33  1   
 34  16  34  1   
 35  16  35  1   
 36  16  36  1   
@<TRIPOS>SUBSTRUCTURE
  1 ****   3 GROUP 4 **** **** 0

# MOE 2024.06 (io_trps.svl 2023.06)
