@<TRIPOS>MOLECULE
NONAME
50 51 1 0 0 
SMALL
USER_CHARGES


@<TRIPOS>ATOM
  1 O       -0.4440    -0.2010    -2.6610 O.2   1 <1>  -0.5700 
  2 C       -0.0270    -0.6870    -1.6360 C.2   1 <1>   0.5690 
  3 N       -0.8280    -0.8840    -0.5550 N.am  1 <1>  -0.7300 
  4 C        1.4400    -1.0950    -1.5640 C.3   1 <1>   0.1810 
  5 C       -2.2650    -0.5390    -0.4650 C.3   1 <1>   0.1400 
  6 O        1.7360    -1.7430    -0.3320 O.3   1 <1>  -0.3620 
  7 C       -3.1110    -1.8020    -0.6140 C.3   1 <1>  -0.0160 
  8 C        2.9840    -2.2030    -0.0530 C.ar  1 <1>   0.0830 
  9 C       -4.5850    -1.4710    -0.4420 C.ar  1 <1>  -0.1430 
 10 C        3.1770    -2.8410     1.1690 C.ar  1 <1>  -0.1430 
 11 C        4.0570    -2.0620    -0.9310 C.ar  1 <1>  -0.1500 
 12 C       -5.1990    -1.6220     0.7920 C.ar  1 <1>  -0.1500 
 13 C       -5.3270    -1.0120    -1.5200 C.ar  1 <1>  -0.1500 
 14 C        4.4330    -3.3260     1.4980 C.ar  1 <1>  -0.1500 
 15 C        2.0250    -3.0120     2.1490 C.3   1 <1>  -0.0970 
 16 C        5.3050    -2.5520    -0.5900 C.ar  1 <1>  -0.1500 
 17 C       -6.5410    -1.3220     0.9550 C.ar  1 <1>   0.0830 
 18 C       -6.6660    -0.6950    -1.3640 C.ar  1 <1>  -0.1500 
 19 C        5.5000    -3.1840     0.6260 C.ar  1 <1>  -0.1430 
 20 O       -7.0810    -1.5290     2.1820 O.3   1 <1>  -0.3630 
 21 C       -7.2770    -0.8300    -0.1290 C.ar  1 <1>   0.0830 
 22 C        6.8690    -3.7240     1.0010 C.3   1 <1>  -0.0970 
 23 C       -8.0730    -2.5290     2.2670 C.3   1 <1>   0.0400 
 24 O       -8.5790    -0.4660    -0.0320 O.3   1 <1>  -0.3630 
 25 C       -8.8550     0.6550     0.7800 C.3   1 <1>   0.0400 
 26 H       -0.4010    -1.3200     0.2670 H     1 <1>   0.3700 
 27 H        2.0550    -0.2170    -1.6430 H     1 <1>   0.0800 
 28 H        1.6580    -1.7740    -2.3670 H     1 <1>   0.0800 
 29 H       -2.5220     0.1610    -1.2430 H     1 <1>   0.0800 
 30 H       -2.4610    -0.0720     0.4850 H     1 <1>   0.0800 
 31 H       -2.8160    -2.5260     0.1250 H     1 <1>   0.0800 
 32 H       -2.9490    -2.2270    -1.5890 H     1 <1>   0.0800 
 33 H        3.9480    -1.5780    -1.8810 H     1 <1>   0.1500 
 34 H       -4.6450    -1.9800     1.6410 H     1 <1>   0.1500 
 35 H       -4.8650    -0.8960    -2.4860 H     1 <1>   0.1500 
 36 H        4.5860    -3.8210     2.4410 H     1 <1>   0.1500 
 37 H        1.2340    -3.5730     1.6850 H     1 <1>   0.0800 
 38 H        1.6470    -2.0470     2.4360 H     1 <1>   0.0800 
 39 H        2.3420    -3.5330     3.0340 H     1 <1>   0.0800 
 40 H        6.1250    -2.4380    -1.2760 H     1 <1>   0.1500 
 41 H       -7.2410    -0.3350    -2.1970 H     1 <1>   0.1500 
 42 H        7.0360    -3.6160     2.0580 H     1 <1>   0.0800 
 43 H        7.6430    -3.1890     0.4810 H     1 <1>   0.0800 
 44 H        6.9320    -4.7660     0.7440 H     1 <1>   0.0800 
 45 H       -8.3230    -2.6670     3.3030 H     1 <1>   0.0800 
 46 H       -7.6820    -3.4420     1.8550 H     1 <1>   0.0800 
 47 H       -8.9440    -2.2160     1.7190 H     1 <1>   0.0800 
 48 H       -9.9000     0.8880     0.6870 H     1 <1>   0.0800 
 49 H       -8.2590     1.4830     0.4400 H     1 <1>   0.0800 
 50 H       -8.6200     0.4210     1.8020 H     1 <1>   0.0800 
@<TRIPOS>BOND
  1   1   2  2   
  2   2   3  am  
  3   2   4  1   
  4   3   5  1   
  5   3  26  1   
  6   4   6  1   
  7   4  27  1   
  8   4  28  1   
  9   5   7  1   
 10   5  29  1   
 11   5  30  1   
 12   6   8  1   
 13   7   9  1   
 14   7  31  1   
 15   7  32  1   
 16   8  10  ar  
 17   8  11  ar  
 18   9  12  ar  
 19   9  13  ar  
 20  10  14  ar  
 21  10  15  1   
 22  11  16  ar  
 23  11  33  1   
 24  12  17  ar  
 25  12  34  1   
 26  13  18  ar  
 27  13  35  1   
 28  14  19  ar  
 29  14  36  1   
 30  15  37  1   
 31  15  38  1   
 32  15  39  1   
 33  16  19  ar  
 34  16  40  1   
 35  17  20  1   
 36  17  21  ar  
 37  18  21  ar  
 38  18  41  1   
 39  19  22  1   
 40  20  23  1   
 41  21  24  1   
 42  22  42  1   
 43  22  43  1   
 44  22  44  1   
 45  23  45  1   
 46  23  46  1   
 47  23  47  1   
 48  24  25  1   
 49  25  48  1   
 50  25  49  1   
 51  25  50  1   
@<TRIPOS>SUBSTRUCTURE
  1 ****   3 GROUP 4 **** **** 0

# MOE 2024.06 (io_trps.svl 2023.06)
