@<TRIPOS>MOLECULE
NONAME
43 45 1 0 0 
SMALL
USER_CHARGES


@<TRIPOS>ATOM
  1 O        0.0830     0.3600     1.1570 O.2   1 <1>  -0.5700 
  2 C        0.1450     1.2350     0.3170 C.2   1 <1>   0.6900 
  3 N        1.3270     1.7480    -0.1230 N.am  1 <1>  -0.5470 
  4 N       -0.9990     1.7380    -0.2120 N.am  1 <1>  -0.7300 
  5 C        2.6500     1.3420     0.1080 C.ar  1 <1>   0.1170 
  6 C       -2.3340     1.3090     0.2250 C.3   1 <1>   0.2200 
  7 C        3.6980     2.3040     0.0250 C.ar  1 <1>   0.0000 
  8 C        2.9570     0.0270     0.3770 C.ar  1 <1>  -0.1500 
  9 C       -2.7640     0.0860    -0.5830 C.3   1 <1>  -0.1600 
 10 C       -3.3310     2.4510     0.0510 C.3   1 <1>  -0.1600 
 11 C        5.0350     1.8720     0.1880 C.ar  1 <1>   0.0000 
 12 C        3.4810     3.6840    -0.2030 C.ar  1 <1>  -0.1500 
 13 C        4.2750    -0.3900     0.5560 C.ar  1 <1>  -0.1500 
 14 C       -4.1670    -0.3480    -0.1730 C.3   1 <1>   0.3430 
 15 C       -4.7320     1.9880     0.4480 C.3   1 <1>   0.3430 
 16 C        5.2930     0.5160     0.4580 C.ar  1 <1>  -0.1500 
 17 C        6.0820     2.8100     0.0820 C.ar  1 <1>  -0.1500 
 18 C        4.5160     4.5740    -0.2970 C.ar  1 <1>  -0.1500 
 19 N       -5.1220     0.7880    -0.3530 N.4   1 <1>  -0.9590 
 20 C        5.8330     4.1320    -0.1570 C.ar  1 <1>  -0.1500 
 21 C       -6.5150     0.3600    -0.0190 C.3   1 <1>   0.2630 
 22 H        1.2410     2.6220    -0.6270 H     1 <1>   0.3700 
 23 H       -0.9410     2.3020    -1.0570 H     1 <1>   0.3700 
 24 H       -2.2870     1.0410     1.2700 H     1 <1>   0.0800 
 25 H        2.1810    -0.7140     0.4490 H     1 <1>   0.1500 
 26 H       -2.0820    -0.7230    -0.3850 H     1 <1>   0.0800 
 27 H       -2.7400     0.2960    -1.6370 H     1 <1>   0.0800 
 28 H       -3.3420     2.7960    -0.9670 H     1 <1>   0.0800 
 29 H       -3.0440     3.2710     0.6860 H     1 <1>   0.0800 
 30 H        2.4790     4.0540    -0.3000 H     1 <1>   0.1500 
 31 H        4.4740    -1.4260     0.7680 H     1 <1>   0.1500 
 32 H       -4.1580    -0.6590     0.8600 H     1 <1>   0.0800 
 33 H       -4.4730    -1.1890    -0.7760 H     1 <1>   0.0800 
 34 H       -5.4350     2.7890     0.2820 H     1 <1>   0.0800 
 35 H       -4.7430     1.7430     1.4990 H     1 <1>   0.0800 
 36 H        6.3130     0.2000     0.5900 H     1 <1>   0.1500 
 37 H        7.0940     2.4630     0.1960 H     1 <1>   0.1500 
 38 H        4.3330     5.6200    -0.4730 H     1 <1>   0.1500 
 39 H       -5.0980     1.0560    -1.3480 H     1 <1>   0.4500 
 40 H        6.6380     4.8430    -0.2360 H     1 <1>   0.1500 
 41 H       -6.5800     0.0690     1.0170 H     1 <1>   0.0800 
 42 H       -6.8060    -0.4780    -0.6320 H     1 <1>   0.0800 
 43 H       -7.2080     1.1680    -0.1940 H     1 <1>   0.0800 
@<TRIPOS>BOND
  1   1   2  2   
  2   2   3  am  
  3   2   4  am  
  4   3   5  1   
  5   3  22  1   
  6   4   6  1   
  7   4  23  1   
  8   5   7  ar  
  9   5   8  ar  
 10   6   9  1   
 11   6  10  1   
 12   6  24  1   
 13   7  11  ar  
 14   7  12  ar  
 15   8  13  ar  
 16   8  25  1   
 17   9  14  1   
 18   9  26  1   
 19   9  27  1   
 20  10  15  1   
 21  10  28  1   
 22  10  29  1   
 23  11  16  ar  
 24  11  17  ar  
 25  12  18  ar  
 26  12  30  1   
 27  13  16  ar  
 28  13  31  1   
 29  14  19  1   
 30  14  32  1   
 31  14  33  1   
 32  15  19  1   
 33  15  34  1   
 34  15  35  1   
 35  16  36  1   
 36  17  20  ar  
 37  17  37  1   
 38  18  20  ar  
 39  18  38  1   
 40  19  21  1   
 41  19  39  1   
 42  20  40  1   
 43  21  41  1   
 44  21  42  1   
 45  21  43  1   
@<TRIPOS>SUBSTRUCTURE
  1 ****   3 GROUP 4 **** **** 0

# MOE 2024.06 (io_trps.svl 2023.06)
