@<TRIPOS>MOLECULE
NONAME
36 38 1 0 0 
SMALL
USER_CHARGES


@<TRIPOS>ATOM
  1 O        5.7100     5.1750     0.9080 O.2   1 <1>  -0.5700 
  2 C        5.6590     3.9900     0.6530 C.2   1 <1>   0.7060 
  3 O        4.4600     3.4160     0.5050 O.3   1 <1>  -0.2320 
  4 C        6.8220     3.1740     0.5000 C.2   1 <1>  -0.1360 
  5 C        4.3070     2.1020     0.2160 C.ar  1 <1>   0.0830 
  6 C        6.7240     1.8590     0.2100 C.2   1 <1>  -0.1780 
  7 C        5.4290     1.2760     0.0550 C.ar  1 <1>   0.0280 
  8 C        3.0250     1.5930     0.0810 C.ar  1 <1>  -0.1500 
  9 C        5.2240    -0.0680    -0.2500 C.ar  1 <1>  -0.1500 
 10 C        2.8390     0.2500    -0.2150 C.ar  1 <1>   0.0830 
 11 C        3.9470    -0.5730    -0.3840 C.ar  1 <1>  -0.1500 
 12 O        1.6180    -0.3180    -0.3730 O.3   1 <1>  -0.2320 
 13 C        0.4680     0.0140     0.2170 C.2   1 <1>   0.6590 
 14 O        0.3830     0.8610     1.0700 O.2   1 <1>  -0.5700 
 15 C       -0.7480    -0.7790    -0.2640 C.3   1 <1>  -0.0190 
 16 C       -2.0730    -0.0050    -0.0880 C.3   1 <1>  -0.1600 
 17 C       -0.8270    -2.1470     0.4430 C.3   1 <1>  -0.1600 
 18 C       -3.2750    -0.8250    -0.5790 C.3   1 <1>  -0.1600 
 19 C       -2.0320    -2.9660    -0.0430 C.3   1 <1>  -0.1600 
 20 C       -3.3410    -2.1840     0.1280 C.3   1 <1>  -0.1600 
 21 H        7.7630     3.6740     0.6290 H     1 <1>   0.1500 
 22 H        7.5860     1.2250     0.0890 H     1 <1>   0.1500 
 23 H        2.1900     2.2580     0.2050 H     1 <1>   0.1500 
 24 H        6.0730    -0.7160    -0.3800 H     1 <1>   0.1500 
 25 H        3.7960    -1.6120    -0.6210 H     1 <1>   0.1500 
 26 H       -0.6130    -0.9540    -1.3170 H     1 <1>   0.0800 
 27 H       -2.0240     0.9220    -0.6320 H     1 <1>   0.0800 
 28 H       -2.2120     0.2340     0.9530 H     1 <1>   0.0800 
 29 H       -0.9100    -1.9920     1.5060 H     1 <1>   0.0800 
 30 H        0.0760    -2.7030     0.2610 H     1 <1>   0.0800 
 31 H       -3.1950    -0.9780    -1.6420 H     1 <1>   0.0800 
 32 H       -4.1830    -0.2780    -0.3920 H     1 <1>   0.0800 
 33 H       -2.0890    -3.8860     0.5120 H     1 <1>   0.0800 
 34 H       -1.9000    -3.2160    -1.0820 H     1 <1>   0.0800 
 35 H       -4.1590    -2.7590    -0.2720 H     1 <1>   0.0800 
 36 H       -3.5290    -2.0310     1.1770 H     1 <1>   0.0800 
@<TRIPOS>BOND
  1   1   2  2   
  2   2   3  1   
  3   2   4  1   
  4   3   5  1   
  5   4   6  2   
  6   4  21  1   
  7   5   7  ar  
  8   5   8  ar  
  9   6   7  1   
 10   6  22  1   
 11   7   9  ar  
 12   8  10  ar  
 13   8  23  1   
 14   9  11  ar  
 15   9  24  1   
 16  10  11  ar  
 17  10  12  1   
 18  11  25  1   
 19  12  13  1   
 20  13  14  2   
 21  13  15  1   
 22  15  16  1   
 23  15  17  1   
 24  15  26  1   
 25  16  18  1   
 26  16  27  1   
 27  16  28  1   
 28  17  19  1   
 29  17  29  1   
 30  17  30  1   
 31  18  20  1   
 32  18  31  1   
 33  18  32  1   
 34  19  20  1   
 35  19  33  1   
 36  19  34  1   
 37  20  35  1   
 38  20  36  1   
@<TRIPOS>SUBSTRUCTURE
  1 ****  10 GROUP 4 **** **** 0

# MOE 2024.06 (io_trps.svl 2023.06)
