@<TRIPOS>MOLECULE
NONAME
43 44 1 0 0 
SMALL
USER_CHARGES


@<TRIPOS>ATOM
  1 CL       2.6710    -0.0310    -3.2400 Cl    1 <1>  -0.1770 
  2 C        2.7060     0.3650    -1.5350 C.ar  1 <1>   0.1770 
  3 C        2.3170    -0.5740    -0.5860 C.ar  1 <1>   0.0830 
  4 C        3.1320     1.6260    -1.1690 C.ar  1 <1>  -0.1500 
  5 O        1.9090    -1.7980    -1.0130 O.3   1 <1>  -0.3630 
  6 C        2.3670    -0.2110     0.7560 C.ar  1 <1>  -0.1500 
  7 C        3.1870     1.9960     0.1690 C.ar  1 <1>  -0.0090 
  8 C        1.4970    -2.8020    -0.1120 C.3   1 <1>   0.0400 
  9 C        2.7960     1.0560     1.1190 C.ar  1 <1>  -0.1500 
 10 S        3.7600     3.6480     0.6500 S.o2  1 <1>   1.4470 
 11 O        3.9460     3.7160     2.0830 O.2   1 <1>  -0.6500 
 12 O        2.9380     4.6390    -0.0080 O.2   1 <1>  -0.6500 
 13 N        5.3040     3.7350    -0.0480 N.am  1 <1>  -0.8490 
 14 C        6.2600     2.8350     0.6160 C.3   1 <1>   0.1960 
 15 C        5.8010     5.1140    -0.0480 C.3   1 <1>   0.1960 
 16 C        7.5980     2.8160    -0.1380 C.3   1 <1>  -0.0190 
 17 C        7.1300     5.2000    -0.8080 C.3   1 <1>  -0.1600 
 18 C        8.5740     1.8520     0.5190 C.2   1 <1>   0.6590 
 19 C        8.1780     4.2400    -0.2300 C.3   1 <1>  -0.1600 
 20 O        8.3720     1.3680     1.6040 O.2   1 <1>  -0.5700 
 21 O        9.6640     1.5740    -0.1830 O.3   1 <1>  -0.4300 
 22 C       10.6490     0.6940     0.3060 C.3   1 <1>   0.1200 
 23 C       11.7560     0.5970    -0.7390 C.3   1 <1>  -0.2400 
 24 H        3.4250     2.3280    -1.9320 H     1 <1>   0.1500 
 25 H        2.0770    -0.8970     1.5310 H     1 <1>   0.1500 
 26 H        1.2220    -3.6700    -0.6850 H     1 <1>   0.0800 
 27 H        0.6470    -2.4470     0.4430 H     1 <1>   0.0800 
 28 H        2.3160    -3.0420     0.5430 H     1 <1>   0.0800 
 29 H        2.8290     1.3210     2.1630 H     1 <1>   0.1500 
 30 H        5.8630     1.8340     0.6400 H     1 <1>   0.0800 
 31 H        6.4200     3.1530     1.6350 H     1 <1>   0.0800 
 32 H        5.9300     5.4570     0.9660 H     1 <1>   0.0800 
 33 H        5.0870     5.7610    -0.5320 H     1 <1>   0.0800 
 34 H        7.4110     2.4490    -1.1300 H     1 <1>   0.0800 
 35 H        7.5000     6.2090    -0.7630 H     1 <1>   0.0800 
 36 H        6.9500     4.9640    -1.8430 H     1 <1>   0.0800 
 37 H        9.0570     4.2410    -0.8520 H     1 <1>   0.0800 
 38 H        8.4650     4.5740     0.7530 H     1 <1>   0.0800 
 39 H       10.1940    -0.2670     0.4770 H     1 <1>   0.0800 
 40 H       11.0270     1.0860     1.2350 H     1 <1>   0.0800 
 41 H       11.3630     0.2140    -1.6630 H     1 <1>   0.0800 
 42 H       12.5240    -0.0700    -0.3910 H     1 <1>   0.0800 
 43 H       12.1940     1.5650    -0.9070 H     1 <1>   0.0800 
@<TRIPOS>BOND
  1   1   2  1   
  2   2   3  ar  
  3   2   4  ar  
  4   3   5  1   
  5   3   6  ar  
  6   4   7  ar  
  7   4  24  1   
  8   5   8  1   
  9   6   9  ar  
 10   6  25  1   
 11   7   9  ar  
 12   7  10  1   
 13   8  26  1   
 14   8  27  1   
 15   8  28  1   
 16   9  29  1   
 17  10  11  2   
 18  10  12  2   
 19  10  13  am  
 20  13  14  1   
 21  13  15  1   
 22  14  16  1   
 23  14  30  1   
 24  14  31  1   
 25  15  17  1   
 26  15  32  1   
 27  15  33  1   
 28  16  18  1   
 29  16  19  1   
 30  16  34  1   
 31  17  19  1   
 32  17  35  1   
 33  17  36  1   
 34  18  20  2   
 35  18  21  1   
 36  19  37  1   
 37  19  38  1   
 38  21  22  1   
 39  22  23  1   
 40  22  39  1   
 41  22  40  1   
 42  23  41  1   
 43  23  42  1   
 44  23  43  1   
@<TRIPOS>SUBSTRUCTURE
  1 ****  14 GROUP 4 **** **** 0

# MOE 2024.06 (io_trps.svl 2023.06)
