@<TRIPOS>MOLECULE
NONAME
51 52 1 0 0 
SMALL
USER_CHARGES


@<TRIPOS>ATOM
  1 S        0.7480    -1.3970    -1.5300 S.o2  1 <1>   1.3330 
  2 O        1.9320    -2.1730    -1.8350 O.2   1 <1>  -0.6500 
  3 O       -0.2870    -1.2930    -2.5310 O.2   1 <1>  -0.6500 
  4 N        0.0960    -2.0080    -0.0840 N.am  1 <1>  -0.8490 
  5 C        1.2150     0.2640    -1.0860 C.3   1 <1>  -0.1350 
  6 C       -1.2340    -2.6320    -0.2640 C.3   1 <1>   0.2760 
  7 C        1.0890    -2.7270     0.7750 C.3   1 <1>   0.2570 
  8 C       -2.2980    -1.5290    -0.1300 C.3   1 <1>  -0.1600 
  9 C       -1.5660    -3.7720     0.7220 C.3   1 <1>  -0.1600 
 10 C        2.3220    -1.9240     1.2220 C.2   1 <1>   0.5690 
 11 C       -3.7170    -2.0690    -0.3640 C.3   1 <1>  -0.1600 
 12 C       -2.9740    -4.3340     0.4800 C.3   1 <1>  -0.1600 
 13 O        2.2590    -1.3040     2.2570 O.2   1 <1>  -0.5700 
 14 N        3.4390    -1.9380     0.4310 N.am  1 <1>  -0.5470 
 15 C       -4.0330    -3.2310     0.5850 C.3   1 <1>  -0.1600 
 16 C        4.6830    -1.3040     0.5770 C.ar  1 <1>   0.1170 
 17 C        5.4210    -1.0270    -0.5670 C.ar  1 <1>  -0.1500 
 18 C        5.2140    -0.9560     1.8150 C.ar  1 <1>  -0.1500 
 19 C        6.6570    -0.4120    -0.4860 C.ar  1 <1>   0.0820 
 20 C        6.4430    -0.3270     1.9070 C.ar  1 <1>  -0.1500 
 21 O        7.3270    -0.2000    -1.6460 O.3   1 <1>  -0.3620 
 22 C        7.1650    -0.0360     0.7620 C.ar  1 <1>   0.0820 
 23 C        8.5370    -0.9080    -1.8100 C.3   1 <1>   0.0400 
 24 O        8.3490     0.6110     0.9120 O.3   1 <1>  -0.3630 
 25 C        8.3900     1.9360     0.4300 C.3   1 <1>   0.0400 
 26 H        1.9360     0.2660    -0.2930 H     1 <1>   0.0800 
 27 H        0.3520     0.8120    -0.7620 H     1 <1>   0.0800 
 28 H        1.6390     0.7640    -1.9340 H     1 <1>   0.0800 
 29 H       -1.2960    -3.0580    -1.2530 H     1 <1>   0.0800 
 30 H        1.4180    -3.6180     0.2700 H     1 <1>   0.0800 
 31 H        0.6170    -3.0280     1.6910 H     1 <1>   0.0800 
 32 H       -2.1160    -0.7450    -0.8410 H     1 <1>   0.0800 
 33 H       -2.2410    -1.1030     0.8570 H     1 <1>   0.0800 
 34 H       -1.5230    -3.4040     1.7330 H     1 <1>   0.0800 
 35 H       -0.8640    -4.5770     0.6050 H     1 <1>   0.0800 
 36 H       -3.8040    -2.4060    -1.3830 H     1 <1>   0.0800 
 37 H       -4.4320    -1.2790    -0.2170 H     1 <1>   0.0800 
 38 H       -3.1860    -5.1040     1.2010 H     1 <1>   0.0800 
 39 H       -3.0200    -4.7790    -0.5000 H     1 <1>   0.0800 
 40 H        3.2750    -2.3320    -0.5070 H     1 <1>   0.3700 
 41 H       -5.0030    -3.6350     0.3500 H     1 <1>   0.0800 
 42 H       -4.0670    -2.8640     1.5980 H     1 <1>   0.0800 
 43 H        5.0370    -1.2930    -1.5340 H     1 <1>   0.1500 
 44 H        4.6680    -1.1740     2.7150 H     1 <1>   0.1500 
 45 H        6.8440    -0.0550     2.8670 H     1 <1>   0.1500 
 46 H        8.8900    -0.7430    -2.8110 H     1 <1>   0.0800 
 47 H        8.3500    -1.9560    -1.6520 H     1 <1>   0.0800 
 48 H        9.2610    -0.5470    -1.1030 H     1 <1>   0.0800 
 49 H        9.3450     2.3560     0.6830 H     1 <1>   0.0800 
 50 H        7.6020     2.5000     0.8970 H     1 <1>   0.0800 
 51 H        8.2630     1.9300    -0.6380 H     1 <1>   0.0800 
@<TRIPOS>BOND
  1   1   2  2   
  2   1   3  2   
  3   1   4  am  
  4   1   5  1   
  5   4   6  1   
  6   4   7  1   
  7   5  26  1   
  8   5  27  1   
  9   5  28  1   
 10   6   8  1   
 11   6   9  1   
 12   6  29  1   
 13   7  10  1   
 14   7  30  1   
 15   7  31  1   
 16   8  11  1   
 17   8  32  1   
 18   8  33  1   
 19   9  12  1   
 20   9  34  1   
 21   9  35  1   
 22  10  13  2   
 23  10  14  am  
 24  11  15  1   
 25  11  36  1   
 26  11  37  1   
 27  12  15  1   
 28  12  38  1   
 29  12  39  1   
 30  14  16  1   
 31  14  40  1   
 32  15  41  1   
 33  15  42  1   
 34  16  17  ar  
 35  16  18  ar  
 36  17  19  ar  
 37  17  43  1   
 38  18  20  ar  
 39  18  44  1   
 40  19  21  1   
 41  19  22  ar  
 42  20  22  ar  
 43  20  45  1   
 44  21  23  1   
 45  22  24  1   
 46  23  46  1   
 47  23  47  1   
 48  23  48  1   
 49  24  25  1   
 50  25  49  1   
 51  25  50  1   
 52  25  51  1   
@<TRIPOS>SUBSTRUCTURE
  1 ****  14 GROUP 4 **** **** 0

# MOE 2024.06 (io_trps.svl 2023.06)
