@<TRIPOS>MOLECULE
NONAME
47 49 1 0 0 
SMALL
USER_CHARGES


@<TRIPOS>ATOM
  1 CL       2.8640     0.3410     3.7050 Cl    1 <1>  -0.1770 
  2 C        3.3790    -0.5780     2.3160 C.ar  1 <1>   0.1770 
  3 C        3.4810     0.0450     1.0880 C.ar  1 <1>  -0.1500 
  4 C        3.6770    -1.9180     2.4590 C.ar  1 <1>  -0.1500 
  5 C        3.8950    -0.6900    -0.0100 C.ar  1 <1>  -0.1500 
  6 C        4.0890    -2.6420     1.3520 C.ar  1 <1>  -0.1500 
  7 C        4.2140    -2.0410     0.1010 C.ar  1 <1>  -0.0090 
  8 S        4.7640    -2.9880    -1.3460 S.o2  1 <1>   1.3180 
  9 O        5.2290    -2.0660    -2.3610 O.2   1 <1>  -0.6500 
 10 O        3.7030    -3.9130    -1.6880 O.2   1 <1>  -0.6500 
 11 C        6.1810    -3.9260    -0.6800 C.ar  1 <1>  -0.0090 
 12 C        7.3980    -3.3530    -0.2790 C.ar  1 <1>  -0.1430 
 13 C        6.0340    -5.3010    -0.5450 C.ar  1 <1>  -0.1500 
 14 C        8.4430    -4.1460     0.2160 C.ar  1 <1>  -0.0090 
 15 C        7.6260    -1.8390    -0.3780 C.3   1 <1>  -0.0970 
 16 C        7.0330    -6.0970    -0.0290 C.ar  1 <1>  -0.1430 
 17 S       10.0650    -3.4680     0.7270 S.o2  1 <1>   1.4470 
 18 C        8.2220    -5.5120     0.3480 C.ar  1 <1>  -0.1500 
 19 C        6.8300    -7.5960     0.1150 C.3   1 <1>  -0.0960 
 20 O        9.9830    -3.0700     2.1150 O.2   1 <1>  -0.6500 
 21 O       10.5600    -2.5120    -0.2400 O.2   1 <1>  -0.6500 
 22 N       11.1290    -4.7850     0.6520 N.am  1 <1>  -0.8490 
 23 C       11.5810    -5.1030    -0.7070 C.3   1 <1>   0.1960 
 24 C       12.2800    -4.6310     1.5620 C.3   1 <1>   0.1960 
 25 C       12.4290    -6.3960    -0.7320 C.3   1 <1>   0.1200 
 26 C       13.4910    -5.5170     1.1880 C.3   1 <1>   0.1200 
 27 O       13.0930    -6.6550     0.4790 O.3   1 <1>  -0.5600 
 28 H        3.2390     1.0900     0.9970 H     1 <1>   0.1500 
 29 H        3.5870    -2.3850     3.4240 H     1 <1>   0.1500 
 30 H        3.9740    -0.2040    -0.9700 H     1 <1>   0.1500 
 31 H        4.3130    -3.6900     1.4690 H     1 <1>   0.1500 
 32 H        5.1120    -5.7690    -0.8500 H     1 <1>   0.1500 
 33 H        8.2200    -1.6170    -1.2480 H     1 <1>   0.0800 
 34 H        8.1400    -1.4680     0.4910 H     1 <1>   0.0800 
 35 H        6.7220    -1.2710    -0.4470 H     1 <1>   0.0800 
 36 H        8.9970    -6.1380     0.7570 H     1 <1>   0.1500 
 37 H        5.7990    -7.8190     0.3220 H     1 <1>   0.0800 
 38 H        7.4270    -7.9830     0.9220 H     1 <1>   0.0800 
 39 H        7.1160    -8.0920    -0.7950 H     1 <1>   0.0800 
 40 H       12.1730    -4.2890    -1.0920 H     1 <1>   0.0800 
 41 H       10.7350    -5.2240    -1.3620 H     1 <1>   0.0800 
 42 H       11.9610    -4.8770     2.5610 H     1 <1>   0.0800 
 43 H       12.6060    -3.6040     1.5760 H     1 <1>   0.0800 
 44 H       13.1650    -6.3410    -1.5140 H     1 <1>   0.0800 
 45 H       11.7930    -7.2410    -0.9270 H     1 <1>   0.0800 
 46 H       14.0050    -5.8380     2.0760 H     1 <1>   0.0800 
 47 H       14.1820    -4.9660     0.5750 H     1 <1>   0.0800 
@<TRIPOS>BOND
  1   1   2  1   
  2   2   3  ar  
  3   2   4  ar  
  4   3   5  ar  
  5   3  28  1   
  6   4   6  ar  
  7   4  29  1   
  8   5   7  ar  
  9   5  30  1   
 10   6   7  ar  
 11   6  31  1   
 12   7   8  1   
 13   8   9  2   
 14   8  10  2   
 15   8  11  1   
 16  11  12  ar  
 17  11  13  ar  
 18  12  14  ar  
 19  12  15  1   
 20  13  16  ar  
 21  13  32  1   
 22  14  17  1   
 23  14  18  ar  
 24  15  33  1   
 25  15  34  1   
 26  15  35  1   
 27  16  18  ar  
 28  16  19  1   
 29  17  20  2   
 30  17  21  2   
 31  17  22  am  
 32  18  36  1   
 33  19  37  1   
 34  19  38  1   
 35  19  39  1   
 36  22  23  1   
 37  22  24  1   
 38  23  25  1   
 39  23  40  1   
 40  23  41  1   
 41  24  26  1   
 42  24  42  1   
 43  24  43  1   
 44  25  27  1   
 45  25  44  1   
 46  25  45  1   
 47  26  27  1   
 48  26  46  1   
 49  26  47  1   
@<TRIPOS>SUBSTRUCTURE
  1 ****  12 GROUP 4 **** **** 0

# MOE 2024.06 (io_trps.svl 2023.06)
