@<TRIPOS>MOLECULE
NONAME
43 46 1 0 0 
SMALL
USER_CHARGES


@<TRIPOS>ATOM
  1 N       -1.0940     0.1870    -1.1160 N.2   1 <1>  -0.5030 
  2 N       -1.3900     1.5090    -0.9040 N.pl3 1 <1>  -0.5690 
  3 C       -1.8700    -0.7630    -0.7810 C.2   1 <1>   0.3280 
  4 C       -1.5490    -2.2400    -1.0170 C.3   1 <1>   0.0610 
  5 C       -3.2020    -0.5940    -0.0680 C.3   1 <1>  -0.0190 
  6 C       -1.4640    -2.9100     0.3740 C.3   1 <1>   0.3430 
  7 C       -2.6990    -2.8220    -1.8600 C.3   1 <1>   0.1100 
  8 C       -0.2200    -2.4830    -1.7970 C.3   1 <1>  -0.0170 
  9 C       -3.0410    -1.1920     1.3280 C.3   1 <1>   0.3430 
 10 C       -4.3250    -1.2360    -0.8900 C.3   1 <1>   0.1100 
 11 N       -2.6060    -2.6300     1.3210 N.4   1 <1>  -0.9590 
 12 N       -4.0170    -2.6290    -1.2380 N.3   1 <1>  -0.8100 
 13 C        1.0020    -2.6390    -0.8970 C.ar  1 <1>  -0.1440 
 14 C       -3.7680    -3.5690     1.1500 C.3   1 <1>   0.3430 
 15 C       -4.4090    -3.6540    -0.2530 C.3   1 <1>   0.1100 
 16 C        1.4670    -3.9060    -0.5710 C.ar  1 <1>  -0.1500 
 17 C        1.6530    -1.5280    -0.3830 C.ar  1 <1>  -0.1500 
 18 C        2.5530    -4.0580     0.2730 C.ar  1 <1>  -0.1500 
 19 C        2.7380    -1.6790     0.4620 C.ar  1 <1>  -0.1500 
 20 C        3.1870    -2.9450     0.7940 C.ar  1 <1>  -0.1500 
 21 H       -2.3380     1.8420    -1.1170 H     1 <1>   0.3110 
 22 H       -0.6830     2.1900    -1.2200 H     1 <1>   0.3110 
 23 H       -3.4460     0.4430     0.0560 H     1 <1>   0.0800 
 24 H       -0.5630    -2.5510     0.8440 H     1 <1>   0.0800 
 25 H       -1.3500    -3.9730     0.2440 H     1 <1>   0.0800 
 26 H       -2.5410    -3.8710    -2.0470 H     1 <1>   0.0800 
 27 H       -2.7080    -2.3270    -2.8190 H     1 <1>   0.0800 
 28 H       -0.3040    -3.3860    -2.3770 H     1 <1>   0.0800 
 29 H       -0.0450    -1.6960    -2.5110 H     1 <1>   0.0800 
 30 H       -2.2970    -0.6080     1.8460 H     1 <1>   0.0800 
 31 H       -3.9680    -1.0920     1.8690 H     1 <1>   0.0800 
 32 H       -4.4400    -0.6810    -1.8060 H     1 <1>   0.0800 
 33 H       -5.2640    -1.1850    -0.3640 H     1 <1>   0.0800 
 34 H       -2.2350    -2.8160     2.2640 H     1 <1>   0.4500 
 35 H       -3.4590    -4.5650     1.4250 H     1 <1>   0.0800 
 36 H       -4.5420    -3.2910     1.8460 H     1 <1>   0.0800 
 37 H       -5.4780    -3.6160    -0.1340 H     1 <1>   0.0800 
 38 H       -4.1950    -4.6250    -0.6670 H     1 <1>   0.0800 
 39 H        0.9960    -4.7860    -0.9730 H     1 <1>   0.1500 
 40 H        1.3270    -0.5340    -0.6380 H     1 <1>   0.1500 
 41 H        2.9120    -5.0430     0.5220 H     1 <1>   0.1500 
 42 H        3.2370    -0.8110     0.8560 H     1 <1>   0.1500 
 43 H        4.0330    -3.0610     1.4490 H     1 <1>   0.1500 
@<TRIPOS>BOND
  1   1   2  1   
  2   1   3  2   
  3   2  21  1   
  4   2  22  1   
  5   3   4  1   
  6   3   5  1   
  7   4   6  1   
  8   4   7  1   
  9   4   8  1   
 10   5   9  1   
 11   5  10  1   
 12   5  23  1   
 13   6  11  1   
 14   6  24  1   
 15   6  25  1   
 16   7  12  1   
 17   7  26  1   
 18   7  27  1   
 19   8  13  1   
 20   8  28  1   
 21   8  29  1   
 22   9  11  1   
 23   9  30  1   
 24   9  31  1   
 25  10  12  1   
 26  10  32  1   
 27  10  33  1   
 28  11  14  1   
 29  11  34  1   
 30  12  15  1   
 31  13  16  ar  
 32  13  17  ar  
 33  14  15  1   
 34  14  35  1   
 35  14  36  1   
 36  15  37  1   
 37  15  38  1   
 38  16  18  ar  
 39  16  39  1   
 40  17  19  ar  
 41  17  40  1   
 42  18  20  ar  
 43  18  41  1   
 44  19  20  ar  
 45  19  42  1   
 46  20  43  1   
@<TRIPOS>SUBSTRUCTURE
  1 ****   4 GROUP 4 **** **** 0

# MOE 2024.06 (io_trps.svl 2023.06)
