@<TRIPOS>MOLECULE
NONAME
33 33 1 0 0 
SMALL
USER_CHARGES


@<TRIPOS>ATOM
  1 S        0.5000     0.7400    -0.1670 S.3   1 <1>  -0.4600 
  2 C        1.4660     1.3800    -1.5840 C.3   1 <1>   0.2110 
  3 C       -1.1620     0.4970    -0.8540 C.3   1 <1>   0.2140 
  4 C        2.9610     1.0680    -1.4180 C.2   1 <1>   0.5690 
  5 C        1.1800     2.8830    -1.6770 C.3   1 <1>  -0.2400 
  6 C       -2.0480    -0.0860     0.2330 C.ar  1 <1>  -0.1440 
  7 O        3.6680     1.0780    -2.3980 O.2   1 <1>  -0.5700 
  8 N        3.4600     0.7960    -0.1850 N.am  1 <1>  -0.7300 
  9 C       -1.9520    -1.4290     0.5640 C.ar  1 <1>  -0.1500 
 10 C       -2.9640     0.7140     0.8990 C.ar  1 <1>  -0.1500 
 11 C        4.8510     0.4470     0.1180 C.3   1 <1>   0.2780 
 12 C       -2.7660    -1.9680     1.5460 C.ar  1 <1>  -0.1500 
 13 C       -3.7790     0.1760     1.8810 C.ar  1 <1>  -0.1500 
 14 C        4.8240    -0.6500     1.1600 C.2   1 <1>  -0.2880 
 15 C       -3.6810    -1.1660     2.2040 C.ar  1 <1>  -0.1500 
 16 C        5.3140    -0.5550     2.4010 C.2   1 <1>  -0.3000 
 17 H        1.1080     0.8710    -2.4600 H     1 <1>   0.0800 
 18 H       -1.0740    -0.1760    -1.6880 H     1 <1>   0.0800 
 19 H       -1.5220     1.4540    -1.1860 H     1 <1>   0.0800 
 20 H        1.4950     3.3750    -0.7740 H     1 <1>   0.0800 
 21 H        0.1330     3.0640    -1.8320 H     1 <1>   0.0800 
 22 H        1.7270     3.3030    -2.5030 H     1 <1>   0.0800 
 23 H        2.8080     0.7320     0.6030 H     1 <1>   0.3700 
 24 H       -1.2380    -2.0590     0.0620 H     1 <1>   0.1500 
 25 H       -3.0460     1.7600     0.6610 H     1 <1>   0.1500 
 26 H        5.3610     1.3160     0.4970 H     1 <1>   0.0800 
 27 H        5.3560     0.1080    -0.7720 H     1 <1>   0.0800 
 28 H       -2.6850    -3.0110     1.7980 H     1 <1>   0.1500 
 29 H       -4.4880     0.8020     2.3950 H     1 <1>   0.1500 
 30 H        4.3540    -1.5450     0.7890 H     1 <1>   0.1500 
 31 H       -4.3140    -1.5840     2.9670 H     1 <1>   0.1500 
 32 H        5.2790    -1.3550     3.1210 H     1 <1>   0.1500 
 33 H        5.7880     0.3240     2.8020 H     1 <1>   0.1500 
@<TRIPOS>BOND
  1   1   2  1   
  2   1   3  1   
  3   2   4  1   
  4   2   5  1   
  5   2  17  1   
  6   3   6  1   
  7   3  18  1   
  8   3  19  1   
  9   4   7  2   
 10   4   8  am  
 11   5  20  1   
 12   5  21  1   
 13   5  22  1   
 14   6   9  ar  
 15   6  10  ar  
 16   8  11  1   
 17   8  23  1   
 18   9  12  ar  
 19   9  24  1   
 20  10  13  ar  
 21  10  25  1   
 22  11  14  1   
 23  11  26  1   
 24  11  27  1   
 25  12  15  ar  
 26  12  28  1   
 27  13  15  ar  
 28  13  29  1   
 29  14  16  2   
 30  14  30  1   
 31  15  31  1   
 32  16  32  1   
 33  16  33  1   
@<TRIPOS>SUBSTRUCTURE
  1 ****   1 GROUP 4 **** **** 0

# MOE 2024.06 (io_trps.svl 2023.06)
