@<TRIPOS>MOLECULE
NONAME
37 39 1 0 0 
SMALL
USER_CHARGES


@<TRIPOS>ATOM
  1 O       -0.4050    -0.0280     0.0310 O.3   1 <1>  -0.3630 
  2 C       -1.6100    -0.6680    -0.0490 C.ar  1 <1>   0.0830 
  3 C       -0.3050     1.3780    -0.0100 C.3   1 <1>   0.0400 
  4 C       -1.6620    -2.0380    -0.3520 C.ar  1 <1>   0.0830 
  5 C       -2.8040     0.0230     0.1490 C.ar  1 <1>  -0.1500 
  6 O       -0.5890    -2.8570    -0.5510 O.3   1 <1>  -0.3630 
  7 C       -2.8950    -2.6570    -0.4740 C.ar  1 <1>  -0.1500 
  8 C       -4.0340    -0.6080     0.0350 C.ar  1 <1>  -0.1430 
  9 C        0.6440    -2.6270     0.0930 C.3   1 <1>   0.0400 
 10 C       -4.0750    -1.9590    -0.2820 C.ar  1 <1>  -0.1430 
 11 C       -5.3060     0.2160     0.2620 C.3   1 <1>   0.3530 
 12 C       -5.4120    -2.6660    -0.4170 C.3   1 <1>  -0.0160 
 13 N       -6.5680    -0.5750     0.1710 N.pl3 1 <1>  -0.8380 
 14 C       -6.4520    -2.0230     0.4970 C.3   1 <1>   0.2090 
 15 C       -7.7770     0.0580    -0.0190 C.ar  1 <1>   0.7200 
 16 N       -8.8440    -0.7090    -0.2420 N.ar  1 <1>  -0.6200 
 17 N       -7.7770     1.3910     0.0410 N.ar  1 <1>  -0.6200 
 18 C       -9.9840    -0.0890    -0.4210 C.ar  1 <1>   0.1600 
 19 C       -8.9320     1.9840    -0.1420 C.ar  1 <1>   0.1600 
 20 C      -10.0850     1.2790    -0.3810 C.ar  1 <1>  -0.1500 
 21 H        0.7360     1.6360    -0.0830 H     1 <1>   0.0800 
 22 H       -0.7180     1.7860     0.8950 H     1 <1>   0.0800 
 23 H       -0.8320     1.7400    -0.8750 H     1 <1>   0.0800 
 24 H       -2.7960     1.0660     0.3960 H     1 <1>   0.1500 
 25 H       -2.9180    -3.7020    -0.7220 H     1 <1>   0.1500 
 26 H        1.2080    -3.5410     0.0730 H     1 <1>   0.0800 
 27 H        0.4590    -2.3290     1.1100 H     1 <1>   0.0800 
 28 H        1.1760    -1.8600    -0.4400 H     1 <1>   0.0800 
 29 H       -5.3290     1.0020    -0.4740 H     1 <1>   0.0800 
 30 H       -5.2600     0.6730     1.2350 H     1 <1>   0.0800 
 31 H       -5.3100    -3.7030    -0.1550 H     1 <1>   0.0800 
 32 H       -5.7520    -2.6070    -1.4360 H     1 <1>   0.0800 
 33 H       -6.1420    -2.1260     1.5220 H     1 <1>   0.0800 
 34 H       -7.3900    -2.5350     0.3800 H     1 <1>   0.0800 
 35 H      -10.8600    -0.6880    -0.6050 H     1 <1>   0.1500 
 36 H       -8.9590     3.0600    -0.1000 H     1 <1>   0.1500 
 37 H      -11.0250     1.7760    -0.5290 H     1 <1>   0.1500 
@<TRIPOS>BOND
  1   1   2  1   
  2   1   3  1   
  3   2   4  ar  
  4   2   5  ar  
  5   3  21  1   
  6   3  22  1   
  7   3  23  1   
  8   4   6  1   
  9   4   7  ar  
 10   5   8  ar  
 11   5  24  1   
 12   6   9  1   
 13   7  10  ar  
 14   7  25  1   
 15   8  10  ar  
 16   8  11  1   
 17   9  26  1   
 18   9  27  1   
 19   9  28  1   
 20  10  12  1   
 21  11  13  1   
 22  11  29  1   
 23  11  30  1   
 24  12  14  1   
 25  12  31  1   
 26  12  32  1   
 27  13  14  1   
 28  13  15  1   
 29  14  33  1   
 30  14  34  1   
 31  15  16  ar  
 32  15  17  ar  
 33  16  18  ar  
 34  17  19  ar  
 35  18  20  ar  
 36  18  35  1   
 37  19  20  ar  
 38  19  36  1   
 39  20  37  1   
@<TRIPOS>SUBSTRUCTURE
  1 ****   8 GROUP 4 **** **** 0

# MOE 2024.06 (io_trps.svl 2023.06)
