@<TRIPOS>MOLECULE
NONAME
46 48 1 0 0 
SMALL
USER_CHARGES


@<TRIPOS>ATOM
  1 O        1.5590    -1.9370    -2.3890 O.2   1 <1>  -0.5700 
  2 C        2.1500    -2.0420    -1.3410 C.2   1 <1>   0.5690 
  3 N        1.5740    -2.5740    -0.2090 N.am  1 <1>  -0.4770 
  4 C        3.6030    -1.5750    -1.3040 C.3   1 <1>   0.2010 
  5 C        0.2460    -3.0260    -0.1460 C.ar  1 <1>   0.1170 
  6 C        2.3600    -2.6790     1.0580 C.3   1 <1>   0.2010 
  7 N        4.0780    -1.1540     0.0480 N.am  1 <1>  -0.4770 
  8 C       -0.1350    -4.2690    -0.6530 C.ar  1 <1>  -0.1440 
  9 C       -0.7110    -2.2180     0.4570 C.ar  1 <1>  -0.1500 
 10 C        3.4880    -1.6580     1.1840 C.2   1 <1>   0.5690 
 11 C        5.1130    -0.2070     0.0630 C.ar  1 <1>   0.1170 
 12 C       -1.4540    -4.6780    -0.5370 C.ar  1 <1>  -0.1500 
 13 C        0.8680    -5.1860    -1.3400 C.3   1 <1>  -0.0970 
 14 C       -2.0260    -2.6290     0.5740 C.ar  1 <1>  -0.1440 
 15 O        3.8280    -1.3370     2.2970 O.2   1 <1>  -0.5700 
 16 C        4.8530     1.1600     0.1690 C.ar  1 <1>  -0.1430 
 17 C        6.4280    -0.6410    -0.0560 C.ar  1 <1>  -0.1500 
 18 C       -2.3930    -3.8650     0.0740 C.ar  1 <1>  -0.1500 
 19 C       -3.0650    -1.7390     1.2340 C.3   1 <1>  -0.0970 
 20 C        5.9060     2.0590     0.1440 C.ar  1 <1>  -0.1500 
 21 C        3.4290     1.6800     0.3200 C.3   1 <1>  -0.0970 
 22 C        7.4790     0.2590    -0.0820 C.ar  1 <1>  -0.1430 
 23 C        7.2110     1.6130     0.0170 C.ar  1 <1>  -0.1500 
 24 C        8.9140    -0.2190    -0.2100 C.3   1 <1>  -0.0970 
 25 H        3.7030    -0.7460    -1.9810 H     1 <1>   0.0800 
 26 H        4.2280    -2.3710    -1.6610 H     1 <1>   0.0800 
 27 H        2.7810    -3.6650     1.1250 H     1 <1>   0.0800 
 28 H        1.6980    -2.5470     1.8950 H     1 <1>   0.0800 
 29 H       -0.4140    -1.2560     0.8320 H     1 <1>   0.1500 
 30 H       -1.7630    -5.6320    -0.9250 H     1 <1>   0.1500 
 31 H        1.1980    -4.7340    -2.2590 H     1 <1>   0.0800 
 32 H        0.4270    -6.1380    -1.5700 H     1 <1>   0.0800 
 33 H        1.7190    -5.3500    -0.7050 H     1 <1>   0.0800 
 34 H        6.6210    -1.6950    -0.1240 H     1 <1>   0.1500 
 35 H       -3.4130    -4.1990     0.1530 H     1 <1>   0.1500 
 36 H       -2.5950    -0.9330     1.7690 H     1 <1>   0.0800 
 37 H       -3.6530    -2.3120     1.9290 H     1 <1>   0.0800 
 38 H       -3.7150    -1.3250     0.4850 H     1 <1>   0.0800 
 39 H        5.7210     3.1150     0.2260 H     1 <1>   0.1500 
 40 H        3.0050     1.3110     1.2370 H     1 <1>   0.0800 
 41 H        2.8230     1.3510    -0.5030 H     1 <1>   0.0800 
 42 H        3.4110     2.7550     0.3480 H     1 <1>   0.0800 
 43 H        8.0160     2.3260     0.0010 H     1 <1>   0.1500 
 44 H        8.9530    -1.2800    -0.3800 H     1 <1>   0.0800 
 45 H        9.4530     0.0040     0.6930 H     1 <1>   0.0800 
 46 H        9.3940     0.2780    -1.0340 H     1 <1>   0.0800 
@<TRIPOS>BOND
  1   1   2  2   
  2   2   3  am  
  3   2   4  1   
  4   3   5  1   
  5   3   6  1   
  6   4   7  1   
  7   4  25  1   
  8   4  26  1   
  9   5   8  ar  
 10   5   9  ar  
 11   6  10  1   
 12   6  27  1   
 13   6  28  1   
 14   7  10  am  
 15   7  11  1   
 16   8  12  ar  
 17   8  13  1   
 18   9  14  ar  
 19   9  29  1   
 20  10  15  2   
 21  11  16  ar  
 22  11  17  ar  
 23  12  18  ar  
 24  12  30  1   
 25  13  31  1   
 26  13  32  1   
 27  13  33  1   
 28  14  18  ar  
 29  14  19  1   
 30  16  20  ar  
 31  16  21  1   
 32  17  22  ar  
 33  17  34  1   
 34  18  35  1   
 35  19  36  1   
 36  19  37  1   
 37  19  38  1   
 38  20  23  ar  
 39  20  39  1   
 40  21  40  1   
 41  21  41  1   
 42  21  42  1   
 43  22  23  ar  
 44  22  24  1   
 45  23  43  1   
 46  24  44  1   
 47  24  45  1   
 48  24  46  1   
@<TRIPOS>SUBSTRUCTURE
  1 ****  10 GROUP 4 **** **** 0

# MOE 2024.06 (io_trps.svl 2023.06)
