@<TRIPOS>MOLECULE
NONAME
50 53 1 0 0 
SMALL
USER_CHARGES


@<TRIPOS>ATOM
  1 S        0.5930    -1.1390     1.4930 S.o2  1 <1>   1.4470 
  2 O        1.5540    -2.1790     1.7960 O.2   1 <1>  -0.6500 
  3 O        0.7310     0.1550     2.1230 O.2   1 <1>  -0.6500 
  4 N        0.6310    -0.9050    -0.1860 N.am  1 <1>  -0.8490 
  5 C       -1.0910    -1.7580     1.7800 C.ar  1 <1>  -0.0090 
  6 C        1.7080     0.0080    -0.5790 C.3   1 <1>   0.1960 
  7 C        0.7210    -2.1720    -0.9190 C.3   1 <1>   0.1960 
  8 C       -2.1840    -1.1760     1.1530 C.ar  1 <1>  -0.1500 
  9 C       -1.3280    -2.8200     2.6440 C.ar  1 <1>  -0.1500 
 10 C        1.6100     0.3300    -2.0750 C.3   1 <1>  -0.1600 
 11 C        0.5700    -1.9240    -2.4220 C.3   1 <1>  -0.1600 
 12 C       -3.4920    -1.6220     1.3430 C.ar  1 <1>   0.0860 
 13 C       -2.6120    -3.2820     2.8680 C.ar  1 <1>  -0.1500 
 14 C        1.6310    -0.9420    -2.9310 C.3   1 <1>  -0.1600 
 15 C       -4.6000    -0.9960     0.6440 C.2   1 <1>   0.5440 
 16 C       -3.6810    -2.6870     2.2260 C.ar  1 <1>  -0.1500 
 17 O       -4.5470     0.1790     0.3450 O.2   1 <1>  -0.5700 
 18 N       -5.6930    -1.7520     0.2890 N.am  1 <1>  -0.5470 
 19 C       -6.9230    -1.3760    -0.2770 C.ar  1 <1>   0.1170 
 20 C       -7.4830    -0.1160    -0.0910 C.ar  1 <1>  -0.1500 
 21 C       -7.6220    -2.3120    -1.0340 C.ar  1 <1>  -0.1500 
 22 C       -8.7080     0.2010    -0.6480 C.ar  1 <1>   0.0820 
 23 C       -8.8470    -2.0010    -1.6010 C.ar  1 <1>  -0.1500 
 24 O       -9.2320     1.4350    -0.4290 O.3   1 <1>  -0.3620 
 25 C       -9.3910    -0.7440    -1.4170 C.ar  1 <1>   0.0820 
 26 C      -10.5980     1.6190    -0.7460 C.3   1 <1>   0.1200 
 27 O      -10.5870    -0.4540    -1.9960 O.3   1 <1>  -0.3630 
 28 C      -10.9370     0.9160    -2.0670 C.3   1 <1>   0.1200 
 29 H        2.6640    -0.4360    -0.3550 H     1 <1>   0.0800 
 30 H        1.6270     0.9300    -0.0270 H     1 <1>   0.0800 
 31 H       -0.0610    -2.8380    -0.5940 H     1 <1>   0.0800 
 32 H        1.6700    -2.6460    -0.7210 H     1 <1>   0.0800 
 33 H       -2.0170    -0.3430     0.4880 H     1 <1>   0.1500 
 34 H       -0.4970    -3.2870     3.1480 H     1 <1>   0.1500 
 35 H        2.4270     0.9700    -2.3560 H     1 <1>   0.0800 
 36 H        0.6960     0.8700    -2.2500 H     1 <1>   0.0800 
 37 H       -0.4130    -1.5280    -2.6120 H     1 <1>   0.0800 
 38 H        0.6580    -2.8570    -2.9500 H     1 <1>   0.0800 
 39 H       -2.7750    -4.1020     3.5470 H     1 <1>   0.1500 
 40 H        2.6040    -1.4000    -2.8660 H     1 <1>   0.0800 
 41 H        1.4440    -0.6960    -3.9620 H     1 <1>   0.0800 
 42 H       -4.6740    -3.0480     2.4260 H     1 <1>   0.1500 
 43 H       -5.5610    -2.7560     0.3790 H     1 <1>   0.3700 
 44 H       -6.9720     0.6270     0.4920 H     1 <1>   0.1500 
 45 H       -7.2090    -3.2910    -1.1890 H     1 <1>   0.1500 
 46 H       -9.3820    -2.7250    -2.1900 H     1 <1>   0.1500 
 47 H      -10.7820     2.6760    -0.8170 H     1 <1>   0.0800 
 48 H      -11.1850     1.2100     0.0570 H     1 <1>   0.0800 
 49 H      -10.3870     1.3600    -2.8780 H     1 <1>   0.0800 
 50 H      -11.9890     0.9780    -2.2760 H     1 <1>   0.0800 
@<TRIPOS>BOND
  1   1   2  2   
  2   1   3  2   
  3   1   4  am  
  4   1   5  1   
  5   4   6  1   
  6   4   7  1   
  7   5   8  ar  
  8   5   9  ar  
  9   6  10  1   
 10   6  29  1   
 11   6  30  1   
 12   7  11  1   
 13   7  31  1   
 14   7  32  1   
 15   8  12  ar  
 16   8  33  1   
 17   9  13  ar  
 18   9  34  1   
 19  10  14  1   
 20  10  35  1   
 21  10  36  1   
 22  11  14  1   
 23  11  37  1   
 24  11  38  1   
 25  12  15  1   
 26  12  16  ar  
 27  13  16  ar  
 28  13  39  1   
 29  14  40  1   
 30  14  41  1   
 31  15  17  2   
 32  15  18  am  
 33  16  42  1   
 34  18  19  1   
 35  18  43  1   
 36  19  20  ar  
 37  19  21  ar  
 38  20  22  ar  
 39  20  44  1   
 40  21  23  ar  
 41  21  45  1   
 42  22  24  1   
 43  22  25  ar  
 44  23  25  ar  
 45  23  46  1   
 46  24  26  1   
 47  25  27  1   
 48  26  28  1   
 49  26  47  1   
 50  26  48  1   
 51  27  28  1   
 52  28  49  1   
 53  28  50  1   
@<TRIPOS>SUBSTRUCTURE
  1 ****  15 GROUP 4 **** **** 0

# MOE 2024.06 (io_trps.svl 2023.06)
