@<TRIPOS>MOLECULE
NONAME
52 53 1 0 0 
SMALL
USER_CHARGES


@<TRIPOS>ATOM
  1 O       -0.8720    -7.0790     0.6360 O.3   1 <1>  -0.3630 
  2 C       -2.1080    -6.5640     0.3940 C.ar  1 <1>   0.0830 
  3 C        0.2940    -6.4750     0.1290 C.3   1 <1>   0.1200 
  4 C       -3.2030    -7.2390     0.9260 C.ar  1 <1>  -0.1440 
  5 C       -2.3130    -5.4070    -0.3530 C.ar  1 <1>  -0.1500 
  6 C        1.4930    -7.3100     0.5820 C.3   1 <1>  -0.1600 
  7 C       -4.4820    -6.7520     0.7060 C.ar  1 <1>  -0.1500 
  8 C       -3.0080    -8.5050     1.7480 C.3   1 <1>  -0.0970 
  9 C       -3.5950    -4.9320    -0.5660 C.ar  1 <1>  -0.1500 
 10 C        2.8140    -6.7340     0.0530 C.3   1 <1>  -0.1600 
 11 C       -4.6860    -5.6020    -0.0390 C.ar  1 <1>  -0.1430 
 12 C        4.0030    -7.5750     0.5290 C.3   1 <1>   0.1100 
 13 C       -6.0930    -5.0820    -0.2700 C.3   1 <1>  -0.0970 
 14 N        5.2770    -6.9480     0.1400 N.3   1 <1>  -0.8100 
 15 C        6.3950    -7.4800     0.9560 C.3   1 <1>   0.1100 
 16 C        5.5770    -7.1160    -1.3060 C.3   1 <1>   0.1100 
 17 C        7.7520    -6.8210     0.6060 C.3   1 <1>   0.3430 
 18 C        6.9570    -6.5310    -1.7030 C.3   1 <1>   0.3430 
 19 N        7.6150    -5.8560    -0.5340 N.4   1 <1>  -0.9590 
 20 C        8.8790    -5.1480    -0.8480 C.3   1 <1>   0.3430 
 21 C        8.5860    -3.9340    -1.7210 C.3   1 <1>  -0.2400 
 22 H        0.3550    -5.4740     0.5210 H     1 <1>   0.0800 
 23 H        0.2240    -6.4550    -0.9450 H     1 <1>   0.0800 
 24 H       -1.4930    -4.8610    -0.7760 H     1 <1>   0.1500 
 25 H        1.3690    -8.3170     0.2210 H     1 <1>   0.0800 
 26 H        1.5120    -7.3290     1.6580 H     1 <1>   0.0800 
 27 H       -5.3290    -7.2710     1.1170 H     1 <1>   0.1500 
 28 H       -2.5140    -9.2510     1.1520 H     1 <1>   0.0800 
 29 H       -3.9480    -8.9000     2.0860 H     1 <1>   0.0800 
 30 H       -2.3960    -8.2890     2.6060 H     1 <1>   0.0800 
 31 H       -3.7400    -4.0360    -1.1430 H     1 <1>   0.1500 
 32 H        2.9310    -5.7260     0.4140 H     1 <1>   0.0800 
 33 H        2.7790    -6.7160    -1.0210 H     1 <1>   0.0800 
 34 H        3.9370    -8.5760     0.1340 H     1 <1>   0.0800 
 35 H        3.9530    -7.6390     1.6040 H     1 <1>   0.0800 
 36 H       -6.3890    -4.4580     0.5540 H     1 <1>   0.0800 
 37 H       -6.7850    -5.9010    -0.3540 H     1 <1>   0.0800 
 38 H       -6.1390    -4.5060    -1.1770 H     1 <1>   0.0800 
 39 H        6.4740    -8.5450     0.8160 H     1 <1>   0.0800 
 40 H        6.1900    -7.3070     2.0000 H     1 <1>   0.0800 
 41 H        4.8230    -6.6190    -1.8900 H     1 <1>   0.0800 
 42 H        5.5510    -8.1600    -1.5690 H     1 <1>   0.0800 
 43 H        8.4640    -7.5900     0.3570 H     1 <1>   0.0800 
 44 H        8.1200    -6.3040     1.4770 H     1 <1>   0.0800 
 45 H        6.8140    -5.8280    -2.5060 H     1 <1>   0.0800 
 46 H        7.5850    -7.3250    -2.0700 H     1 <1>   0.0800 
 47 H        6.9030    -5.1860    -0.2030 H     1 <1>   0.4500 
 48 H        9.5640    -5.8120    -1.3510 H     1 <1>   0.0800 
 49 H        9.3420    -4.8140     0.0670 H     1 <1>   0.0800 
 50 H        8.2180    -4.2230    -2.6880 H     1 <1>   0.0800 
 51 H        9.4970    -3.3820    -1.8710 H     1 <1>   0.0800 
 52 H        7.8780    -3.2810    -1.2420 H     1 <1>   0.0800 
@<TRIPOS>BOND
  1   1   2  1   
  2   1   3  1   
  3   2   4  ar  
  4   2   5  ar  
  5   3   6  1   
  6   3  22  1   
  7   3  23  1   
  8   4   7  ar  
  9   4   8  1   
 10   5   9  ar  
 11   5  24  1   
 12   6  10  1   
 13   6  25  1   
 14   6  26  1   
 15   7  11  ar  
 16   7  27  1   
 17   8  28  1   
 18   8  29  1   
 19   8  30  1   
 20   9  11  ar  
 21   9  31  1   
 22  10  12  1   
 23  10  32  1   
 24  10  33  1   
 25  11  13  1   
 26  12  14  1   
 27  12  34  1   
 28  12  35  1   
 29  13  36  1   
 30  13  37  1   
 31  13  38  1   
 32  14  15  1   
 33  14  16  1   
 34  15  17  1   
 35  15  39  1   
 36  15  40  1   
 37  16  18  1   
 38  16  41  1   
 39  16  42  1   
 40  17  19  1   
 41  17  43  1   
 42  17  44  1   
 43  18  19  1   
 44  18  45  1   
 45  18  46  1   
 46  19  20  1   
 47  19  47  1   
 48  20  21  1   
 49  20  48  1   
 50  20  49  1   
 51  21  50  1   
 52  21  51  1   
 53  21  52  1   
@<TRIPOS>SUBSTRUCTURE
  1 ****   6 GROUP 4 **** **** 0

# MOE 2024.06 (io_trps.svl 2023.06)
