@<TRIPOS>MOLECULE
NONAME
34 36 1 0 0 
SMALL
USER_CHARGES


@<TRIPOS>ATOM
  1 S        0.0660    -0.0250     0.0100 S.o2  1 <1>   1.4470 
  2 O        0.5750    -0.6890     1.1880 O.2   1 <1>  -0.6500 
  3 O        0.0250    -0.7200    -1.2570 O.2   1 <1>  -0.6500 
  4 N        1.0590     1.3120    -0.1780 N.am  1 <1>  -0.9140 
  5 C       -1.5540     0.7150     0.3600 C.ar  1 <1>  -0.0090 
  6 C        2.2070     1.0800    -1.0300 C.3   1 <1>   0.2760 
  7 C       -2.1120     1.6490    -0.5040 C.ar  1 <1>  -0.1500 
  8 C       -2.2790     0.3640     1.4940 C.ar  1 <1>  -0.1500 
  9 C        3.2720     0.1420    -0.4160 C.3   1 <1>  -0.0800 
 10 C        2.9880     2.3870    -1.2360 C.3   1 <1>  -0.1600 
 11 C       -3.3480     2.2180    -0.2480 C.ar  1 <1>  -0.1500 
 12 C       -3.5150     0.9280     1.7590 C.ar  1 <1>  -0.1500 
 13 C        4.5090     0.5740    -1.1880 C.3   1 <1>  -0.1600 
 14 C        3.6660     0.5880     1.0080 C.3   1 <1>  -0.1600 
 15 C        4.4110     2.0320    -0.7700 C.3   1 <1>  -0.0800 
 16 C       -4.0510     1.8570     0.8860 C.ar  1 <1>  -0.1500 
 17 C        4.4050     1.9140     0.7620 C.3   1 <1>  -0.1600 
 18 H        1.4370     1.4700     0.7520 H     1 <1>   0.4200 
 19 H        1.8910     0.7070    -1.9920 H     1 <1>   0.0800 
 20 H       -1.5690     1.9340    -1.3900 H     1 <1>   0.1500 
 21 H       -1.8710    -0.3600     2.1800 H     1 <1>   0.1500 
 22 H        3.0360    -0.9050    -0.5090 H     1 <1>   0.0800 
 23 H        2.5770     3.2140    -0.6840 H     1 <1>   0.0800 
 24 H        2.9990     2.6350    -2.2820 H     1 <1>   0.0800 
 25 H       -3.7610     2.9400    -0.9310 H     1 <1>   0.1500 
 26 H       -4.0600     0.6430     2.6430 H     1 <1>   0.1500 
 27 H        4.4110     0.4350    -2.2520 H     1 <1>   0.0800 
 28 H        5.4110     0.0990    -0.8370 H     1 <1>   0.0800 
 29 H        4.3420    -0.1330     1.4360 H     1 <1>   0.0800 
 30 H        2.8310     0.6980     1.6750 H     1 <1>   0.0800 
 31 H        5.1780     2.6800    -1.1610 H     1 <1>   0.0800 
 32 H       -5.0130     2.2970     1.0880 H     1 <1>   0.1500 
 33 H        5.4130     1.8520     1.1380 H     1 <1>   0.0800 
 34 H        3.9080     2.7480     1.2270 H     1 <1>   0.0800 
@<TRIPOS>BOND
  1   1   2  2   
  2   1   3  2   
  3   1   4  am  
  4   1   5  1   
  5   4   6  1   
  6   4  18  1   
  7   5   7  ar  
  8   5   8  ar  
  9   6   9  1   
 10   6  10  1   
 11   6  19  1   
 12   7  11  ar  
 13   7  20  1   
 14   8  12  ar  
 15   8  21  1   
 16   9  13  1   
 17   9  14  1   
 18   9  22  1   
 19  10  15  1   
 20  10  23  1   
 21  10  24  1   
 22  11  16  ar  
 23  11  25  1   
 24  12  16  ar  
 25  12  26  1   
 26  13  15  1   
 27  13  27  1   
 28  13  28  1   
 29  14  17  1   
 30  14  29  1   
 31  14  30  1   
 32  15  17  1   
 33  15  31  1   
 34  16  32  1   
 35  17  33  1   
 36  17  34  1   
@<TRIPOS>SUBSTRUCTURE
  1 ****   4 GROUP 4 **** **** 0

# MOE 2024.06 (io_trps.svl 2023.06)
