@<TRIPOS>MOLECULE
NONAME
47 49 1 0 0 
SMALL
USER_CHARGES


@<TRIPOS>ATOM
  1 O       -0.3340     0.2810     0.2780 O.2   1 <1>  -0.5700 
  2 C       -0.4240     1.4930     0.2670 C.2   1 <1>   0.5440 
  3 N        0.6600     2.2440     0.6300 N.am  1 <1>  -0.7300 
  4 C       -1.6680     2.1250    -0.1350 C.ar  1 <1>   0.0860 
  5 C        1.9710     1.7000     1.0740 C.3   1 <1>   0.0600 
  6 C       -2.4840     1.5380    -1.1010 C.ar  1 <1>  -0.1500 
  7 C       -2.1070     3.3260     0.4250 C.ar  1 <1>  -0.1500 
  8 C       -3.6810     2.1100    -1.4870 C.ar  1 <1>  -0.1500 
  9 C       -3.3040     3.9060     0.0460 C.ar  1 <1>  -0.1500 
 10 C       -4.1070     3.2950    -0.9060 C.ar  1 <1>  -0.1430 
 11 C       -5.4430     3.8980    -1.2990 C.3   1 <1>   0.4860 
 12 N       -6.4210     3.6310    -0.2090 N.4   1 <1>  -0.9590 
 13 C       -6.6090     2.1490     0.0320 C.3   1 <1>   0.3430 
 14 C       -7.7470     4.3030    -0.4660 C.3   1 <1>   0.3430 
 15 C       -7.6100     1.8490     1.1670 C.3   1 <1>   0.2090 
 16 C       -8.7640     4.0620     0.6690 C.3   1 <1>   0.2090 
 17 N       -8.8840     2.6080     0.9870 N.pl3 1 <1>  -0.8380 
 18 C      -10.0510     1.9500     0.6000 C.ar  1 <1>   0.1000 
 19 C      -10.0600     0.9940    -0.4120 C.ar  1 <1>  -0.1500 
 20 C      -11.2510     2.2590     1.2290 C.ar  1 <1>  -0.1500 
 21 C      -11.2360     0.3700    -0.7850 C.ar  1 <1>  -0.1500 
 22 C      -12.4290     1.6380     0.8590 C.ar  1 <1>  -0.1500 
 23 C      -12.4240     0.6920    -0.1510 C.ar  1 <1>  -0.1500 
 24 H        0.6310     3.2550     0.4930 H     1 <1>   0.3700 
 25 H        1.9090     0.6340     1.2170 H     1 <1>   0.0800 
 26 H        2.2580     2.1560     2.0060 H     1 <1>   0.0800 
 27 H        2.7210     1.9050     0.3310 H     1 <1>   0.0800 
 28 H       -2.1610     0.6120    -1.5500 H     1 <1>   0.1500 
 29 H       -1.5020     3.8040     1.1760 H     1 <1>   0.1500 
 30 H       -4.2700     1.6160    -2.2420 H     1 <1>   0.1500 
 31 H       -3.5980     4.8350     0.5060 H     1 <1>   0.1500 
 32 H       -5.7850     3.4610    -2.2230 H     1 <1>   0.0800 
 33 H       -5.3270     4.9600    -1.4450 H     1 <1>   0.0800 
 34 H       -6.0270     4.0170     0.6560 H     1 <1>   0.4500 
 35 H       -5.6630     1.6930     0.2780 H     1 <1>   0.0800 
 36 H       -6.9730     1.6830    -0.8680 H     1 <1>   0.0800 
 37 H       -8.1750     3.9210    -1.3780 H     1 <1>   0.0800 
 38 H       -7.6070     5.3650    -0.5860 H     1 <1>   0.0800 
 39 H       -7.1750     2.1170     2.1140 H     1 <1>   0.0800 
 40 H       -7.8170     0.7930     1.1970 H     1 <1>   0.0800 
 41 H       -9.7250     4.4470     0.3700 H     1 <1>   0.0800 
 42 H       -8.4620     4.5930     1.5550 H     1 <1>   0.0800 
 43 H       -9.1510     0.7350    -0.9170 H     1 <1>   0.1500 
 44 H      -11.2550     2.9860     2.0200 H     1 <1>   0.1500 
 45 H      -11.2340    -0.3680    -1.5690 H     1 <1>   0.1500 
 46 H      -13.3500     1.8870     1.3560 H     1 <1>   0.1500 
 47 H      -13.3400     0.2070    -0.4400 H     1 <1>   0.1500 
@<TRIPOS>BOND
  1   1   2  2   
  2   2   3  am  
  3   2   4  1   
  4   3   5  1   
  5   3  24  1   
  6   4   6  ar  
  7   4   7  ar  
  8   5  25  1   
  9   5  26  1   
 10   5  27  1   
 11   6   8  ar  
 12   6  28  1   
 13   7   9  ar  
 14   7  29  1   
 15   8  10  ar  
 16   8  30  1   
 17   9  10  ar  
 18   9  31  1   
 19  10  11  1   
 20  11  12  1   
 21  11  32  1   
 22  11  33  1   
 23  12  13  1   
 24  12  14  1   
 25  12  34  1   
 26  13  15  1   
 27  13  35  1   
 28  13  36  1   
 29  14  16  1   
 30  14  37  1   
 31  14  38  1   
 32  15  17  1   
 33  15  39  1   
 34  15  40  1   
 35  16  17  1   
 36  16  41  1   
 37  16  42  1   
 38  17  18  1   
 39  18  19  ar  
 40  18  20  ar  
 41  19  21  ar  
 42  19  43  1   
 43  20  22  ar  
 44  20  44  1   
 45  21  23  ar  
 46  21  45  1   
 47  22  23  ar  
 48  22  46  1   
 49  23  47  1   
@<TRIPOS>SUBSTRUCTURE
  1 ****  13 GROUP 4 **** **** 0

# MOE 2024.06 (io_trps.svl 2023.06)
