@<TRIPOS>MOLECULE
NONAME
49 51 1 0 0 
SMALL
USER_CHARGES


@<TRIPOS>ATOM
  1 O       -0.7820    -1.3180     2.3460 O.2   1 <1>  -0.5700 
  2 C       -1.1380    -1.7240     1.2680 C.2   1 <1>   0.5690 
  3 N       -0.2640    -2.1480     0.3210 N.am  1 <1>  -0.7300 
  4 C       -2.6140    -1.7480     0.9440 C.3   1 <1>  -0.0990 
  5 C        1.2010    -2.1700     0.4650 C.3   1 <1>   0.2200 
  6 C       -3.0970    -0.3570     0.4980 C.3   1 <1>  -0.0160 
  7 C        1.7940    -1.2470    -0.6080 C.3   1 <1>  -0.1600 
  8 C        1.6530    -3.6320     0.3820 C.3   1 <1>  -0.1600 
  9 C       -4.5730    -0.2850     0.1000 C.ar  1 <1>   0.1670 
 10 C        3.2760    -0.9330    -0.3560 C.3   1 <1>  -0.1600 
 11 C        3.1750    -3.8480     0.4270 C.3   1 <1>  -0.1600 
 12 N       -5.2500    -1.3910     0.0150 N.ar  1 <1>  -0.6200 
 13 C       -5.1350     0.9990    -0.1680 C.ar  1 <1>   0.3930 
 14 C        4.2650    -1.9470    -0.9530 C.3   1 <1>  -0.1600 
 15 C        3.8650    -3.4280    -0.8790 C.3   1 <1>  -0.1600 
 16 C       -6.5510    -1.2300    -0.3420 C.ar  1 <1>   0.3100 
 17 O       -4.3220     2.0740    -0.0590 O.3   1 <1>  -0.3630 
 18 N       -6.3770     1.1880    -0.5150 N.ar  1 <1>  -0.6200 
 19 C       -7.1060     0.0470    -0.6030 C.ar  1 <1>   0.3100 
 20 C       -7.3750    -2.3610    -0.4560 C.ar  1 <1>  -0.1500 
 21 C       -4.7950     3.3860    -0.2940 C.3   1 <1>   0.0400 
 22 C       -8.4590     0.1300    -0.9670 C.ar  1 <1>  -0.1500 
 23 C       -8.6940    -2.2500    -0.8140 C.ar  1 <1>  -0.1500 
 24 C       -9.2410    -0.9910    -1.0720 C.ar  1 <1>  -0.1500 
 25 H       -0.6140    -2.4840    -0.5750 H     1 <1>   0.3700 
 26 H       -3.1550    -2.0530     1.8210 H     1 <1>   0.0800 
 27 H       -2.7990    -2.4700     0.1700 H     1 <1>   0.0800 
 28 H        1.4620    -1.7830     1.4370 H     1 <1>   0.0800 
 29 H       -2.5060    -0.0330    -0.3400 H     1 <1>   0.0800 
 30 H       -2.9230     0.3340     1.3060 H     1 <1>   0.0800 
 31 H        1.2590    -0.3140    -0.5640 H     1 <1>   0.0800 
 32 H        1.6570    -1.6620    -1.5910 H     1 <1>   0.0800 
 33 H        1.2610    -4.0810    -0.5130 H     1 <1>   0.0800 
 34 H        1.2220    -4.1510     1.2210 H     1 <1>   0.0800 
 35 H        3.4470    -0.8480     0.7040 H     1 <1>   0.0800 
 36 H        3.5010     0.0310    -0.7800 H     1 <1>   0.0800 
 37 H        3.3480    -4.9010     0.5670 H     1 <1>   0.0800 
 38 H        3.6090    -3.3390     1.2700 H     1 <1>   0.0800 
 39 H        5.2090    -1.8190    -0.4510 H     1 <1>   0.0800 
 40 H        4.4280    -1.7010    -1.9890 H     1 <1>   0.0800 
 41 H        3.2300    -3.6700    -1.7140 H     1 <1>   0.0800 
 42 H        4.7610    -4.0140    -0.9970 H     1 <1>   0.0800 
 43 H       -6.9350    -3.3200    -0.2530 H     1 <1>   0.1500 
 44 H       -3.9810     4.0720    -0.1450 H     1 <1>   0.0800 
 45 H       -5.5900     3.5980     0.4000 H     1 <1>   0.0800 
 46 H       -5.1540     3.4510    -1.3060 H     1 <1>   0.0800 
 47 H       -8.8640     1.1070    -1.1620 H     1 <1>   0.1500 
 48 H       -9.3180    -3.1240    -0.8990 H     1 <1>   0.1500 
 49 H      -10.2790    -0.9140    -1.3530 H     1 <1>   0.1500 
@<TRIPOS>BOND
  1   1   2  2   
  2   2   3  am  
  3   2   4  1   
  4   3   5  1   
  5   3  25  1   
  6   4   6  1   
  7   4  26  1   
  8   4  27  1   
  9   5   7  1   
 10   5   8  1   
 11   5  28  1   
 12   6   9  1   
 13   6  29  1   
 14   6  30  1   
 15   7  10  1   
 16   7  31  1   
 17   7  32  1   
 18   8  11  1   
 19   8  33  1   
 20   8  34  1   
 21   9  12  ar  
 22   9  13  ar  
 23  10  14  1   
 24  10  35  1   
 25  10  36  1   
 26  11  15  1   
 27  11  37  1   
 28  11  38  1   
 29  12  16  ar  
 30  13  17  1   
 31  13  18  ar  
 32  14  15  1   
 33  14  39  1   
 34  14  40  1   
 35  15  41  1   
 36  15  42  1   
 37  16  19  ar  
 38  16  20  ar  
 39  17  21  1   
 40  18  19  ar  
 41  19  22  ar  
 42  20  23  ar  
 43  20  43  1   
 44  21  44  1   
 45  21  45  1   
 46  21  46  1   
 47  22  24  ar  
 48  22  47  1   
 49  23  24  ar  
 50  23  48  1   
 51  24  49  1   
@<TRIPOS>SUBSTRUCTURE
  1 ****   6 GROUP 4 **** **** 0

# MOE 2024.06 (io_trps.svl 2023.06)
