@<TRIPOS>MOLECULE
NONAME
33 34 1 0 0 
SMALL
USER_CHARGES


@<TRIPOS>ATOM
  1 O       -0.7320    -0.0020     1.2310 O.2   1 <1>  -0.5700 
  2 C       -1.6370     0.7470     0.9170 C.2   1 <1>   0.7060 
  3 O       -2.8570     0.2180     0.8380 O.3   1 <1>  -0.2330 
  4 C       -1.4680     2.1490     0.6280 C.2   1 <1>  -0.1240 
  5 C       -3.9490     0.9360     0.5110 C.ar  1 <1>   0.0820 
  6 C       -2.5370     2.9120     0.2660 C.2   1 <1>  -0.1670 
  7 C       -0.0380     2.6890     0.7540 C.3   1 <1>  -0.0220 
  8 C       -3.8420     2.3030     0.2180 C.ar  1 <1>   0.0280 
  9 C       -5.1690     0.2800     0.4790 C.ar  1 <1>  -0.1500 
 10 C       -2.4430     4.3930    -0.1110 C.3   1 <1>  -0.1020 
 11 C        0.7120     2.5620    -0.5740 C.3   1 <1>  -0.2400 
 12 C       -5.0290     2.9760    -0.0970 C.ar  1 <1>  -0.1500 
 13 C       -6.3250     0.9640     0.1600 C.ar  1 <1>   0.0830 
 14 C       -6.2470     2.3260    -0.1290 C.ar  1 <1>  -0.1500 
 15 O       -7.4770     0.2560     0.1490 O.3   1 <1>  -0.3630 
 16 C       -8.7140     0.8530    -0.1620 C.3   1 <1>   0.1200 
 17 C       -9.7910    -0.2250    -0.0820 C.3   1 <1>  -0.2400 
 18 H        0.4970     2.1470     1.5150 H     1 <1>   0.0800 
 19 H       -0.0410     3.7140     1.0750 H     1 <1>   0.0800 
 20 H       -5.2200    -0.7690     0.7060 H     1 <1>   0.1500 
 21 H       -2.9580     4.9900     0.6210 H     1 <1>   0.0800 
 22 H       -2.8960     4.5530    -1.0730 H     1 <1>   0.0800 
 23 H       -1.4340     4.7480    -0.1840 H     1 <1>   0.0800 
 24 H        0.7750     1.5270    -0.8650 H     1 <1>   0.0800 
 25 H        1.7100     2.9500    -0.4740 H     1 <1>   0.0800 
 26 H        0.2040     3.1070    -1.3490 H     1 <1>   0.0800 
 27 H       -5.0120     4.0260    -0.3210 H     1 <1>   0.1500 
 28 H       -7.1270     2.8880    -0.3780 H     1 <1>   0.1500 
 29 H       -8.6550     1.2590    -1.1580 H     1 <1>   0.0800 
 30 H       -8.9040     1.6350     0.5520 H     1 <1>   0.0800 
 31 H       -9.5820    -1.0090    -0.7870 H     1 <1>   0.0800 
 32 H      -10.7500     0.2000    -0.3150 H     1 <1>   0.0800 
 33 H       -9.8290    -0.6350     0.9120 H     1 <1>   0.0800 
@<TRIPOS>BOND
  1   1   2  2   
  2   2   3  1   
  3   2   4  1   
  4   3   5  1   
  5   4   6  2   
  6   4   7  1   
  7   5   8  ar  
  8   5   9  ar  
  9   6   8  1   
 10   6  10  1   
 11   7  11  1   
 12   7  18  1   
 13   7  19  1   
 14   8  12  ar  
 15   9  13  ar  
 16   9  20  1   
 17  10  21  1   
 18  10  22  1   
 19  10  23  1   
 20  11  24  1   
 21  11  25  1   
 22  11  26  1   
 23  12  14  ar  
 24  12  27  1   
 25  13  14  ar  
 26  13  15  1   
 27  14  28  1   
 28  15  16  1   
 29  16  17  1   
 30  16  29  1   
 31  16  30  1   
 32  17  31  1   
 33  17  32  1   
 34  17  33  1   
@<TRIPOS>SUBSTRUCTURE
  1 ****   5 GROUP 4 **** **** 0

# MOE 2024.06 (io_trps.svl 2023.06)
