@<TRIPOS>MOLECULE
NONAME
44 45 1 0 0 
SMALL
USER_CHARGES


@<TRIPOS>ATOM
  1 I        0.9900     0.4440    -1.4750 I     1 <1>  -0.0810 
  2 C        0.4200     2.0840    -0.2320 C.ar  1 <1>   0.0810 
  3 C        1.2520     2.5220     0.8020 C.ar  1 <1>   0.0860 
  4 C       -0.8090     2.6560    -0.5080 C.ar  1 <1>  -0.1500 
  5 C        2.5510     1.9590     1.0940 C.2   1 <1>   0.5440 
  6 C        0.7660     3.5740     1.5790 C.ar  1 <1>  -0.1500 
  7 C       -1.2500     3.7060     0.2770 C.ar  1 <1>  -0.1500 
  8 O        2.7530     1.3680     2.1360 O.2   1 <1>  -0.5700 
  9 N        3.5930     2.1010     0.2200 N.am  1 <1>  -0.7300 
 10 C       -0.4620     4.1610     1.3210 C.ar  1 <1>  -0.1500 
 11 C        4.9220     1.5190     0.4410 C.3   1 <1>   0.2200 
 12 C        5.9670     2.3090    -0.3370 C.3   1 <1>  -0.1600 
 13 C        4.9130     0.0710    -0.0380 C.3   1 <1>  -0.1600 
 14 C        7.3710     1.7070    -0.1770 C.3   1 <1>   0.5030 
 15 C        6.2790    -0.5990     0.1390 C.3   1 <1>   0.5030 
 16 N        7.3620     0.2490    -0.3910 N.4   1 <1>  -0.9060 
 17 C        7.9850     2.0320     1.1880 C.3   1 <1>  -0.2400 
 18 C        8.2930     2.2720    -1.2560 C.3   1 <1>  -0.2400 
 19 C        6.5590    -0.9610     1.6000 C.3   1 <1>  -0.2400 
 20 C        6.3250    -1.8850    -0.6850 C.3   1 <1>  -0.2400 
 21 H       -1.4180     2.2900    -1.3160 H     1 <1>   0.1500 
 22 H        1.3640     3.9330     2.3990 H     1 <1>   0.1500 
 23 H       -2.2040     4.1660     0.0800 H     1 <1>   0.1500 
 24 H        3.4190     2.5570    -0.6780 H     1 <1>   0.3700 
 25 H       -0.8090     4.9730     1.9380 H     1 <1>   0.1500 
 26 H        5.1380     1.5600     1.4960 H     1 <1>   0.0800 
 27 H        5.9750     3.3280     0.0110 H     1 <1>   0.0800 
 28 H        5.6970     2.3210    -1.3780 H     1 <1>   0.0800 
 29 H        4.6240     0.0440    -1.0740 H     1 <1>   0.0800 
 30 H        4.1750    -0.4800     0.5180 H     1 <1>   0.0800 
 31 H        8.2480    -0.1260    -0.0490 H     1 <1>   0.4500 
 32 H        7.3630     0.1070    -1.4020 H     1 <1>   0.4500 
 33 H        7.3320     1.7860     2.0010 H     1 <1>   0.0800 
 34 H        8.1700     3.0890     1.2580 H     1 <1>   0.0800 
 35 H        8.9250     1.5280     1.3240 H     1 <1>   0.0800 
 36 H        7.9260     2.0510    -2.2430 H     1 <1>   0.0800 
 37 H        9.2920     1.8860    -1.1570 H     1 <1>   0.0800 
 38 H        8.3490     3.3440    -1.1650 H     1 <1>   0.0800 
 39 H        6.4060    -0.1360     2.2660 H     1 <1>   0.0800 
 40 H        7.5570    -1.3420     1.7260 H     1 <1>   0.0800 
 41 H        5.8750    -1.7300     1.9160 H     1 <1>   0.0800 
 42 H        6.1590    -1.6890    -1.7300 H     1 <1>   0.0800 
 43 H        5.5500    -2.5570    -0.3560 H     1 <1>   0.0800 
 44 H        7.2670    -2.3920    -0.5660 H     1 <1>   0.0800 
@<TRIPOS>BOND
  1   1   2  1   
  2   2   3  ar  
  3   2   4  ar  
  4   3   5  1   
  5   3   6  ar  
  6   4   7  ar  
  7   4  21  1   
  8   5   8  2   
  9   5   9  am  
 10   6  10  ar  
 11   6  22  1   
 12   7  10  ar  
 13   7  23  1   
 14   9  11  1   
 15   9  24  1   
 16  10  25  1   
 17  11  12  1   
 18  11  13  1   
 19  11  26  1   
 20  12  14  1   
 21  12  27  1   
 22  12  28  1   
 23  13  15  1   
 24  13  29  1   
 25  13  30  1   
 26  14  16  1   
 27  14  17  1   
 28  14  18  1   
 29  15  16  1   
 30  15  19  1   
 31  15  20  1   
 32  16  31  1   
 33  16  32  1   
 34  17  33  1   
 35  17  34  1   
 36  17  35  1   
 37  18  36  1   
 38  18  37  1   
 39  18  38  1   
 40  19  39  1   
 41  19  40  1   
 42  19  41  1   
 43  20  42  1   
 44  20  43  1   
 45  20  44  1   
@<TRIPOS>SUBSTRUCTURE
  1 ****   9 GROUP 4 **** **** 0

# MOE 2024.06 (io_trps.svl 2023.06)
