@<TRIPOS>MOLECULE
NONAME
38 39 1 0 0 
SMALL
USER_CHARGES


@<TRIPOS>ATOM
  1 CL       0.3060     0.1690    -1.0470 Cl    1 <1>  -0.1770 
  2 C        1.7000    -0.7710    -0.5830 C.ar  1 <1>   0.1770 
  3 C        1.5660    -2.0770    -0.1390 C.ar  1 <1>  -0.0090 
  4 C        2.9340    -0.1560    -0.6690 C.ar  1 <1>  -0.1500 
  5 S       -0.0740    -2.8360    -0.0400 S.o2  1 <1>   1.4470 
  6 C        2.7300    -2.7430     0.2340 C.ar  1 <1>  -0.1500 
  7 C        4.0720    -0.8480    -0.3050 C.ar  1 <1>  -0.1500 
  8 O       -0.7680    -2.2940     1.1070 O.2   1 <1>  -0.6500 
  9 O       -0.7170    -2.8170    -1.3360 O.2   1 <1>  -0.6500 
 10 N        0.2370    -4.4660     0.3130 N.am  1 <1>  -0.8490 
 11 C        3.9990    -2.1660     0.1500 C.ar  1 <1>   0.0860 
 12 C       -0.8680    -5.1320     0.9800 C.3   1 <1>   0.1960 
 13 C        0.5580    -5.3050    -0.8310 C.3   1 <1>   0.1960 
 14 C        5.1840    -2.9210     0.5280 C.2   1 <1>   0.5440 
 15 C       -0.5500    -6.6190     0.8640 C.3   1 <1>  -0.1600 
 16 C        0.4520    -6.7230    -0.2860 C.3   1 <1>  -0.1600 
 17 O        5.0960    -3.8900     1.2560 O.2   1 <1>  -0.5700 
 18 N        6.4180    -2.5790     0.0590 N.am  1 <1>  -0.7300 
 19 C        7.6640    -3.2760     0.4000 C.3   1 <1>   0.2780 
 20 C        8.7890    -2.2770     0.2350 C.2   1 <1>  -0.2880 
 21 C        9.7610    -2.3490    -0.6790 C.2   1 <1>  -0.3000 
 22 H        2.9950     0.8610    -1.0160 H     1 <1>   0.1500 
 23 H        2.6640    -3.7510     0.6100 H     1 <1>   0.1500 
 24 H        5.0260    -0.3530    -0.3670 H     1 <1>   0.1500 
 25 H       -1.7900    -4.9110     0.4660 H     1 <1>   0.0800 
 26 H       -0.9470    -4.8140     2.0070 H     1 <1>   0.0800 
 27 H        1.5420    -5.0930    -1.2150 H     1 <1>   0.0800 
 28 H       -0.1720    -5.1720    -1.6140 H     1 <1>   0.0800 
 29 H       -1.4470    -7.1800     0.6680 H     1 <1>   0.0800 
 30 H       -0.1080    -6.9710     1.7800 H     1 <1>   0.0800 
 31 H        1.4130    -7.0340     0.0860 H     1 <1>   0.0800 
 32 H        0.1300    -7.4090    -1.0490 H     1 <1>   0.0800 
 33 H        6.5290    -1.8570    -0.6520 H     1 <1>   0.3700 
 34 H        7.7970    -4.1120    -0.2650 H     1 <1>   0.0800 
 35 H        7.6260    -3.6390     1.4130 H     1 <1>   0.0800 
 36 H        8.7260    -1.4770     0.9540 H     1 <1>   0.1500 
 37 H       10.5520    -1.6230    -0.7720 H     1 <1>   0.1500 
 38 H        9.8530    -3.1350    -1.4100 H     1 <1>   0.1500 
@<TRIPOS>BOND
  1   1   2  1   
  2   2   3  ar  
  3   2   4  ar  
  4   3   5  1   
  5   3   6  ar  
  6   4   7  ar  
  7   4  22  1   
  8   5   8  2   
  9   5   9  2   
 10   5  10  am  
 11   6  11  ar  
 12   6  23  1   
 13   7  11  ar  
 14   7  24  1   
 15  10  12  1   
 16  10  13  1   
 17  11  14  1   
 18  12  15  1   
 19  12  25  1   
 20  12  26  1   
 21  13  16  1   
 22  13  27  1   
 23  13  28  1   
 24  14  17  2   
 25  14  18  am  
 26  15  16  1   
 27  15  29  1   
 28  15  30  1   
 29  16  31  1   
 30  16  32  1   
 31  18  19  1   
 32  18  33  1   
 33  19  20  1   
 34  19  34  1   
 35  19  35  1   
 36  20  21  2   
 37  20  36  1   
 38  21  37  1   
 39  21  38  1   
@<TRIPOS>SUBSTRUCTURE
  1 ****   6 GROUP 4 **** **** 0

# MOE 2024.06 (io_trps.svl 2023.06)
