@<TRIPOS>MOLECULE
Structure1890
45 46 1 0 0 
SMALL
USER_CHARGES


@<TRIPOS>ATOM
  1 O       -1.0660     1.4690     1.0440 O.2   1 <1>  -0.5700 
  2 C       -0.7930     1.4690    -0.1400 C.2   1 <1>   0.7800 
  3 O        0.4390     1.7240    -0.5780 O.3   1 <1>  -0.4300 
  4 N       -1.7060     1.2270    -1.0980 N.am  1 <1>  -0.7300 
  5 C        1.5800     1.9990     0.2040 C.3   1 <1>   0.2800 
  6 C       -3.0690     0.6200    -0.9130 C.3   1 <1>   0.1140 
  7 C        1.3780     3.2920     1.0030 C.3   1 <1>  -0.2400 
  8 C        2.7140     2.2010    -0.8030 C.3   1 <1>  -0.2400 
  9 C        1.9100     0.8000     1.1020 C.3   1 <1>  -0.2400 
 10 C       -3.3320    -0.4540    -1.9880 C.2   1 <1>   0.9060 
 11 C       -4.1020     1.7580    -0.9640 C.3   1 <1>   0.0210 
 12 O       -2.9870    -0.2030    -3.1540 O.co2 1 <1>  -0.9000 
 13 O       -3.7990    -1.5570    -1.6710 O.co2 1 <1>  -0.9000 
 14 C       -5.4670     1.4210    -0.3760 C.2   1 <1>  -0.1810 
 15 C       -6.4470     2.3950    -0.0730 C.ar  1 <1>   0.0000 
 16 C       -5.9860     0.2130    -0.0490 C.2   1 <1>  -0.3020 
 17 C       -7.5440     1.7100     0.4390 C.ar  1 <1>  -0.1520 
 18 C       -6.5000     3.7890    -0.1830 C.ar  1 <1>  -0.1500 
 19 N       -7.2460     0.3700     0.4440 N.pl3 1 <1>   0.0330 
 20 C       -8.6940     2.3920     0.8430 C.ar  1 <1>  -0.1500 
 21 C       -7.6280     4.4700     0.2140 C.ar  1 <1>   0.0820 
 22 C       -8.7320     3.7630     0.7300 C.ar  1 <1>  -0.1500 
 23 O       -7.6090     5.8270     0.0810 O.3   1 <1>  -0.3620 
 24 C       -8.6980     6.6140     0.5100 C.3   1 <1>   0.0400 
 25 H       -1.3780     1.0920    -2.0610 H     1 <1>   0.3700 
 26 H       -3.1120     0.1450     0.0490 H     1 <1>   0.0800 
 27 H        2.2960     3.5720     1.4870 H     1 <1>   0.0800 
 28 H        0.6340     3.1620     1.7670 H     1 <1>   0.0800 
 29 H        1.0760     4.0900     0.3500 H     1 <1>   0.0800 
 30 H        2.4860     3.0220    -1.4580 H     1 <1>   0.0800 
 31 H        2.8490     1.3110    -1.3910 H     1 <1>   0.0800 
 32 H        3.6350     2.4160    -0.2930 H     1 <1>   0.0800 
 33 H        1.9680    -0.0990     0.5150 H     1 <1>   0.0800 
 34 H        1.1660     0.6730     1.8660 H     1 <1>   0.0800 
 35 H        2.8550     0.9530     1.5890 H     1 <1>   0.0800 
 36 H       -4.2300     2.0720    -1.9840 H     1 <1>   0.0800 
 37 H       -3.7120     2.5870    -0.4020 H     1 <1>   0.0800 
 38 H       -5.5350    -0.7610    -0.1470 H     1 <1>   0.1500 
 39 H       -5.6540     4.3170    -0.5790 H     1 <1>   0.1500 
 40 H       -7.8670    -0.3840     0.7480 H     1 <1>   0.2700 
 41 H       -9.5310     1.8420     1.2340 H     1 <1>   0.1500 
 42 H       -9.6170     4.2820     1.0410 H     1 <1>   0.1500 
 43 H       -8.4550     7.6450     0.3290 H     1 <1>   0.0800 
 44 H       -8.8500     6.4540     1.5630 H     1 <1>   0.0800 
 45 H       -9.5710     6.3400    -0.0550 H     1 <1>   0.0800 
@<TRIPOS>BOND
  1   1   2  2   
  2   2   3  1   
  3   2   4  am  
  4   3   5  1   
  5   4   6  1   
  6   4  25  1   
  7   5   7  1   
  8   5   8  1   
  9   5   9  1   
 10   6  10  1   
 11   6  11  1   
 12   6  26  1   
 13   7  27  1   
 14   7  28  1   
 15   7  29  1   
 16   8  30  1   
 17   8  31  1   
 18   8  32  1   
 19   9  33  1   
 20   9  34  1   
 21   9  35  1   
 22  10  12  ar  
 23  10  13  ar  
 24  11  14  1   
 25  11  36  1   
 26  11  37  1   
 27  14  15  1   
 28  14  16  2   
 29  15  17  ar  
 30  15  18  ar  
 31  16  19  1   
 32  16  38  1   
 33  17  19  1   
 34  17  20  ar  
 35  18  21  ar  
 36  18  39  1   
 37  19  40  1   
 38  20  22  ar  
 39  20  41  1   
 40  21  22  ar  
 41  21  23  1   
 42  22  42  1   
 43  23  24  1   
 44  24  43  1   
 45  24  44  1   
 46  24  45  1   
@<TRIPOS>SUBSTRUCTURE
  1 ****  11 GROUP 4 **** **** 0

# MOE 2024.06 (io_trps.svl 2023.06)
