@<TRIPOS>MOLECULE
NONAME
37 38 1 0 0 
SMALL
USER_CHARGES


@<TRIPOS>ATOM
  1 CL      -0.3750    -1.0950    -0.6600 Cl    1 <1>  -0.1770 
  2 C        1.3320    -1.2720    -0.3460 C.ar  1 <1>   0.1770 
  3 C        1.8220    -0.9820     0.9150 C.ar  1 <1>  -0.1500 
  4 C        2.1660    -1.7000    -1.3640 C.ar  1 <1>  -0.1500 
  5 C        3.1780    -1.1240     1.1600 C.ar  1 <1>  -0.1500 
  6 C        3.5220    -1.8420    -1.1200 C.ar  1 <1>  -0.1500 
  7 C        4.0190    -1.5510     0.1450 C.ar  1 <1>   0.1020 
  8 S        5.7650    -1.7040     0.5680 S.3   1 <1>  -0.3320 
  9 C        6.6910    -2.2040    -0.9710 C.3   1 <1>   0.2110 
 10 C        8.0300    -2.8520    -0.6040 C.2   1 <1>   0.5690 
 11 C        6.8670    -0.9400    -1.8240 C.3   1 <1>  -0.2400 
 12 O        8.5740    -3.5560    -1.4220 O.2   1 <1>  -0.5700 
 13 N        8.5910    -2.6130     0.6120 N.am  1 <1>  -0.7300 
 14 C        9.8860    -3.1720     1.0880 C.3   1 <1>   0.1400 
 15 C       11.0810    -2.5770     0.3290 C.3   1 <1>   0.2000 
 16 O       12.2600    -2.9500     0.9630 O.3   1 <1>  -0.5600 
 17 C       11.1430    -1.0540     0.3110 C.3   1 <1>  -0.1600 
 18 C       13.2910    -2.1010     0.5770 C.3   1 <1>   0.1200 
 19 C       12.6340    -0.7680     0.2220 C.3   1 <1>  -0.1600 
 20 H        1.1520    -0.6520     1.6880 H     1 <1>   0.1500 
 21 H        1.7530    -1.9180    -2.3330 H     1 <1>   0.1500 
 22 H        3.5830    -0.9050     2.1320 H     1 <1>   0.1500 
 23 H        4.1580    -2.1750    -1.9150 H     1 <1>   0.1500 
 24 H        6.0960    -2.9390    -1.4770 H     1 <1>   0.0800 
 25 H        7.4630    -0.2180    -1.2950 H     1 <1>   0.0800 
 26 H        5.9160    -0.5000    -2.0590 H     1 <1>   0.0800 
 27 H        7.3690    -1.1900    -2.7420 H     1 <1>   0.0800 
 28 H        8.0630    -2.0510     1.2860 H     1 <1>   0.3700 
 29 H        9.8810    -4.2390     0.9460 H     1 <1>   0.0800 
 30 H        9.9930    -2.9620     2.1380 H     1 <1>   0.0800 
 31 H       11.1140    -2.9690    -0.6740 H     1 <1>   0.0800 
 32 H       10.7440    -0.6620     1.2300 H     1 <1>   0.0800 
 33 H       10.5910    -0.6490    -0.5190 H     1 <1>   0.0800 
 34 H       13.7790    -2.5360    -0.2790 H     1 <1>   0.0800 
 35 H       13.9860    -2.0100     1.3930 H     1 <1>   0.0800 
 36 H       12.9290     0.0030     0.9110 H     1 <1>   0.0800 
 37 H       12.9180    -0.4770    -0.7740 H     1 <1>   0.0800 
@<TRIPOS>BOND
  1   1   2  1   
  2   2   3  ar  
  3   2   4  ar  
  4   3   5  ar  
  5   3  20  1   
  6   4   6  ar  
  7   4  21  1   
  8   5   7  ar  
  9   5  22  1   
 10   6   7  ar  
 11   6  23  1   
 12   7   8  1   
 13   8   9  1   
 14   9  10  1   
 15   9  11  1   
 16   9  24  1   
 17  10  12  2   
 18  10  13  am  
 19  11  25  1   
 20  11  26  1   
 21  11  27  1   
 22  13  14  1   
 23  13  28  1   
 24  14  15  1   
 25  14  29  1   
 26  14  30  1   
 27  15  16  1   
 28  15  17  1   
 29  15  31  1   
 30  16  18  1   
 31  17  19  1   
 32  17  32  1   
 33  17  33  1   
 34  18  19  1   
 35  18  34  1   
 36  18  35  1   
 37  19  36  1   
 38  19  37  1   
@<TRIPOS>SUBSTRUCTURE
  1 ****   9 GROUP 4 **** **** 0

# MOE 2024.06 (io_trps.svl 2023.06)
