@<TRIPOS>MOLECULE
NONAME
39 40 1 0 0 
SMALL
USER_CHARGES


@<TRIPOS>ATOM
  1 S       -1.4660     1.2720     1.7090 S.3   1 <1>  -0.0800 
  2 C       -1.9280     0.9060     0.0520 C.2   1 <1>  -0.1400 
  3 C        0.0140     2.0410     1.1740 C.2   1 <1>  -0.1100 
  4 C       -0.9910     1.3470    -0.8110 C.2   1 <1>  -0.1810 
  5 C       -3.2370     0.1740    -0.1400 C.3   1 <1>   0.5230 
  6 C        0.1110     1.9970    -0.1660 C.2   1 <1>  -0.1500 
  7 C       -0.9870     1.2180    -2.3250 C.3   1 <1>  -0.0590 
  8 N       -4.3140     1.1760    -0.3670 N.4   1 <1>  -0.9590 
  9 C       -4.6150     1.9610     0.8880 C.3   1 <1>   0.3430 
 10 C       -5.5510     0.5350    -0.9400 C.3   1 <1>   0.3430 
 11 C       -5.7470     2.9820     0.6800 C.3   1 <1>   0.1400 
 12 C       -6.6870     1.5510    -1.1640 C.3   1 <1>   0.1400 
 13 N       -6.9460     2.3190     0.0880 N.am  1 <1>  -0.6600 
 14 C       -8.1550     2.3210     0.7340 C.2   1 <1>   0.7800 
 15 O       -8.3090     2.8540     1.8140 O.2   1 <1>  -0.5700 
 16 O       -9.1700     1.6880     0.1490 O.3   1 <1>  -0.4300 
 17 C      -10.4460     1.6590     0.7490 C.3   1 <1>   0.1200 
 18 C      -11.3780     0.8620    -0.1570 C.3   1 <1>  -0.2400 
 19 H        0.6660     2.4490     1.9280 H     1 <1>   0.1500 
 20 H       -3.4530    -0.4380     0.7210 H     1 <1>   0.0800 
 21 H       -3.1490    -0.4670    -1.0020 H     1 <1>   0.0800 
 22 H        0.9320     2.4000    -0.7360 H     1 <1>   0.1500 
 23 H       -1.8580     0.6960    -2.6780 H     1 <1>   0.0800 
 24 H       -0.1140     0.6740    -2.6400 H     1 <1>   0.0800 
 25 H       -0.9600     2.1940    -2.7770 H     1 <1>   0.0800 
 26 H       -3.9350     1.8440    -1.0500 H     1 <1>   0.4500 
 27 H       -3.7330     2.4880     1.2140 H     1 <1>   0.0800 
 28 H       -4.9060     1.2880     1.6780 H     1 <1>   0.0800 
 29 H       -5.9100    -0.2250    -0.2650 H     1 <1>   0.0800 
 30 H       -5.3180     0.0590    -1.8780 H     1 <1>   0.0800 
 31 H       -5.4150     3.7680     0.0240 H     1 <1>   0.0800 
 32 H       -5.9900     3.4350     1.6270 H     1 <1>   0.0800 
 33 H       -7.5710     1.0250    -1.4810 H     1 <1>   0.0800 
 34 H       -6.4190     2.2350    -1.9500 H     1 <1>   0.0800 
 35 H      -10.7930     2.6730     0.8640 H     1 <1>   0.0800 
 36 H      -10.3600     1.1960     1.7180 H     1 <1>   0.0800 
 37 H      -11.4500     1.3320    -1.1220 H     1 <1>   0.0800 
 38 H      -12.3610     0.8260     0.2770 H     1 <1>   0.0800 
 39 H      -11.0180    -0.1450    -0.2700 H     1 <1>   0.0800 
@<TRIPOS>BOND
  1   1   2  1   
  2   1   3  1   
  3   2   4  2   
  4   2   5  1   
  5   3   6  2   
  6   3  19  1   
  7   4   6  1   
  8   4   7  1   
  9   5   8  1   
 10   5  20  1   
 11   5  21  1   
 12   6  22  1   
 13   7  23  1   
 14   7  24  1   
 15   7  25  1   
 16   8   9  1   
 17   8  10  1   
 18   8  26  1   
 19   9  11  1   
 20   9  27  1   
 21   9  28  1   
 22  10  12  1   
 23  10  29  1   
 24  10  30  1   
 25  11  13  1   
 26  11  31  1   
 27  11  32  1   
 28  12  13  1   
 29  12  33  1   
 30  12  34  1   
 31  13  14  am  
 32  14  15  2   
 33  14  16  1   
 34  16  17  1   
 35  17  18  1   
 36  17  35  1   
 37  17  36  1   
 38  18  37  1   
 39  18  38  1   
 40  18  39  1   
@<TRIPOS>SUBSTRUCTURE
  1 ****   8 GROUP 4 **** **** 0

# MOE 2024.06 (io_trps.svl 2023.06)
