@<TRIPOS>MOLECULE
NONAME
31 32 1 0 0 
SMALL
USER_CHARGES


@<TRIPOS>ATOM
  1 S       -0.1350     0.5660     0.0820 S.3   1 <1>  -0.9360 
  2 C       -1.7250     0.3290     0.1360 C.cat 1 <1>   0.7360 
  3 N       -2.5780     1.2990    -0.1470 N.pl3 1 <1>  -0.7000 
  4 N       -2.3560    -0.8000     0.4490 N.pl3 1 <1>  -0.7640 
  5 C       -3.8280     0.7840    -0.0130 C.2   1 <1>   0.4260 
  6 C       -3.7290    -0.5150     0.3570 C.2   1 <1>   0.2770 
  7 C       -1.7080    -2.0760     0.8080 C.3   1 <1>   0.3540 
  8 N       -5.0320     1.4360    -0.2070 N.am  1 <1>  -0.4360 
  9 C       -4.9270    -1.2650     0.5660 C.2   1 <1>   0.7030 
 10 C       -1.6860    -2.9960    -0.4160 C.3   1 <1>  -0.1600 
 11 C       -6.2000     0.7210     0.0030 C.2   1 <1>   0.6900 
 12 C       -5.0480     2.8730    -0.6050 C.3   1 <1>   0.0600 
 13 O       -4.9080    -2.4350     0.9220 O.2   1 <1>  -0.5700 
 14 N       -6.1450    -0.6240     0.3580 N.am  1 <1>  -0.4200 
 15 C       -1.0280    -4.3460    -0.1020 C.3   1 <1>  -0.2400 
 16 O       -7.2770     1.2720    -0.1170 O.2   1 <1>  -0.5700 
 17 C       -7.4220    -1.3770     0.5620 C.3   1 <1>   0.0600 
 18 H       -2.2080     2.2100    -0.3990 H     1 <1>   0.4500 
 19 H       -2.2510    -2.5400     1.6130 H     1 <1>   0.0800 
 20 H       -0.7010    -1.8900     1.1420 H     1 <1>   0.0800 
 21 H       -1.1350    -2.5100    -1.2030 H     1 <1>   0.0800 
 22 H       -2.6930    -3.1670    -0.7540 H     1 <1>   0.0800 
 23 H       -4.3920     3.0270    -1.4440 H     1 <1>   0.0800 
 24 H       -4.7200     3.4800     0.2200 H     1 <1>   0.0800 
 25 H       -6.0390     3.1840    -0.8900 H     1 <1>   0.0800 
 26 H       -0.0100    -4.2020     0.2190 H     1 <1>   0.0800 
 27 H       -1.0220    -4.9640    -0.9830 H     1 <1>   0.0800 
 28 H       -1.5700    -4.8610     0.6720 H     1 <1>   0.0800 
 29 H       -7.2830    -2.4260     0.3670 H     1 <1>   0.0800 
 30 H       -8.1850    -1.0110    -0.1040 H     1 <1>   0.0800 
 31 H       -7.7550    -1.2500     1.5770 H     1 <1>   0.0800 
@<TRIPOS>BOND
  1   1   2  1   
  2   2   3  ar  
  3   2   4  ar  
  4   3   5  1   
  5   3  18  1   
  6   4   6  1   
  7   4   7  1   
  8   5   6  2   
  9   5   8  1   
 10   6   9  1   
 11   7  10  1   
 12   7  19  1   
 13   7  20  1   
 14   8  11  am  
 15   8  12  1   
 16   9  13  2   
 17   9  14  am  
 18  10  15  1   
 19  10  21  1   
 20  10  22  1   
 21  11  14  am  
 22  11  16  2   
 23  12  23  1   
 24  12  24  1   
 25  12  25  1   
 26  14  17  1   
 27  15  26  1   
 28  15  27  1   
 29  15  28  1   
 30  17  29  1   
 31  17  30  1   
 32  17  31  1   
@<TRIPOS>SUBSTRUCTURE
  1 ****   6 GROUP 4 **** **** 0

# MOE 2024.06 (io_trps.svl 2023.06)
