@<TRIPOS>MOLECULE
NONAME
38 40 1 0 0 
SMALL
USER_CHARGES


@<TRIPOS>ATOM
  1 BR       1.0760     0.8440    -2.6660 Br    1 <1>  -0.1110 
  2 C        2.7940     0.6800    -1.8180 C.ar  1 <1>   0.1110 
  3 C        3.8510     1.4280    -2.2970 C.ar  1 <1>  -0.1500 
  4 C        2.9330    -0.1830    -0.7490 C.ar  1 <1>  -0.1500 
  5 C        5.0830     1.3030    -1.6820 C.ar  1 <1>  -0.1500 
  6 C        4.1720    -0.2950    -0.1460 C.ar  1 <1>  -0.1500 
  7 C        5.2750     0.4420    -0.5940 C.ar  1 <1>   0.0530 
  8 C        6.5640     0.3120     0.0500 C.2   1 <1>   0.4250 
  9 O        7.5930     0.9970    -0.3660 O.3   1 <1>  -0.2800 
 10 N        6.8860    -0.4390     1.0580 N.2   1 <1>  -0.3380 
 11 C        8.5330     0.6280     0.4270 C.2   1 <1>   0.5340 
 12 N        8.1790    -0.2290     1.3020 N.2   1 <1>  -0.3380 
 13 S       10.1620     1.3270     0.2230 S.3   1 <1>  -0.2860 
 14 C       11.1380     0.4980     1.5720 C.3   1 <1>   0.1310 
 15 C       12.5900     0.9520     1.5890 C.2   1 <1>   0.5690 
 16 O       13.3220     0.4840     2.4260 O.2   1 <1>  -0.5700 
 17 N       13.0290     1.8580     0.6780 N.am  1 <1>  -0.7300 
 18 C       14.3970     2.3890     0.5720 C.3   1 <1>   0.2200 
 19 C       14.3370     3.9080     0.6530 C.3   1 <1>  -0.1600 
 20 C       14.9090     2.1340    -0.8400 C.3   1 <1>  -0.1600 
 21 C       13.9390     4.3850    -0.7490 C.3   1 <1>  -0.1600 
 22 C       14.3070     3.2450    -1.7090 C.3   1 <1>  -0.1600 
 23 H        3.7080     2.0900    -3.1330 H     1 <1>   0.1500 
 24 H        2.0890    -0.7520    -0.4000 H     1 <1>   0.1500 
 25 H        5.9100     1.8850    -2.0530 H     1 <1>   0.1500 
 26 H        4.2890    -0.9650     0.6890 H     1 <1>   0.1500 
 27 H       11.0840    -0.5610     1.4020 H     1 <1>   0.0800 
 28 H       10.6650     0.7400     2.5060 H     1 <1>   0.0800 
 29 H       12.3770     2.2310    -0.0140 H     1 <1>   0.3700 
 30 H       15.0360     1.9590     1.3270 H     1 <1>   0.0800 
 31 H       15.3230     4.2750     0.8790 H     1 <1>   0.0800 
 32 H       13.6610     4.2490     1.4180 H     1 <1>   0.0800 
 33 H       14.6600     1.1480    -1.1920 H     1 <1>   0.0800 
 34 H       15.9800     2.2360    -0.8360 H     1 <1>   0.0800 
 35 H       14.4530     5.2960    -1.0040 H     1 <1>   0.0800 
 36 H       12.8780     4.5640    -0.7880 H     1 <1>   0.0800 
 37 H       13.4190     2.8850    -2.2010 H     1 <1>   0.0800 
 38 H       15.0090     3.5710    -2.4560 H     1 <1>   0.0800 
@<TRIPOS>BOND
  1   1   2  1   
  2   2   3  ar  
  3   2   4  ar  
  4   3   5  ar  
  5   3  23  1   
  6   4   6  ar  
  7   4  24  1   
  8   5   7  ar  
  9   5  25  1   
 10   6   7  ar  
 11   6  26  1   
 12   7   8  1   
 13   8   9  1   
 14   8  10  2   
 15   9  11  1   
 16  10  12  1   
 17  11  12  2   
 18  11  13  1   
 19  13  14  1   
 20  14  15  1   
 21  14  27  1   
 22  14  28  1   
 23  15  16  2   
 24  15  17  am  
 25  17  18  1   
 26  17  29  1   
 27  18  19  1   
 28  18  20  1   
 29  18  30  1   
 30  19  21  1   
 31  19  31  1   
 32  19  32  1   
 33  20  22  1   
 34  20  33  1   
 35  20  34  1   
 36  21  22  1   
 37  21  35  1   
 38  21  36  1   
 39  22  37  1   
 40  22  38  1   
@<TRIPOS>SUBSTRUCTURE
  1 ****  11 GROUP 4 **** **** 0

# MOE 2024.06 (io_trps.svl 2023.06)
