@<TRIPOS>MOLECULE
NONAME
43 46 1 0 0 
SMALL
USER_CHARGES


@<TRIPOS>ATOM
  1 O        0.4810    -0.6850    -1.4840 O.2   1 <1>  -0.5700 
  2 C        1.4220    -0.3080    -0.8220 C.2   1 <1>   0.5690 
  3 N        1.5480     0.9990    -0.4560 N.am  1 <1>  -0.5790 
  4 C        2.4930    -1.3340    -0.3890 C.3   1 <1>   0.0610 
  5 C        0.6150     2.0820    -0.7910 C.3   1 <1>   0.0490 
  6 C        1.8390    -2.4320     0.4850 C.3   1 <1>  -0.1600 
  7 C        3.6490    -0.6950     0.4300 C.3   1 <1>  -0.1600 
  8 C        3.1090    -2.0080    -1.6390 C.3   1 <1>  -0.1600 
  9 C        1.1790     3.4410    -1.0380 C.3   1 <1>  -0.2000 
 10 C        0.4060     3.1620     0.2160 C.3   1 <1>  -0.2000 
 11 C        2.8650    -3.5060     0.9010 C.3   1 <1>   0.0000 
 12 C        4.6950    -1.7480     0.8440 C.3   1 <1>   0.0000 
 13 C        4.1460    -3.0720    -1.2380 C.3   1 <1>  -0.0800 
 14 C        4.0000    -2.8290     1.6960 C.3   1 <1>  -0.1600 
 15 C        3.4600    -4.1430    -0.3710 C.3   1 <1>  -0.1600 
 16 C        2.1860    -4.5790     1.7610 C.3   1 <1>  -0.2400 
 17 C        5.2700    -2.4060    -0.4260 C.3   1 <1>  -0.1600 
 18 C        5.8210    -1.0860     1.6490 C.3   1 <1>  -0.2400 
 19 H        2.3530     1.2780     0.1010 H     1 <1>   0.3700 
 20 H       -0.2270     1.7540    -1.3820 H     1 <1>   0.1000 
 21 H        1.0390    -2.8960    -0.0660 H     1 <1>   0.0800 
 22 H        1.4060    -1.9820     1.3610 H     1 <1>   0.0800 
 23 H        3.2510    -0.2310     1.3160 H     1 <1>   0.0800 
 24 H        4.1310     0.0650    -0.1600 H     1 <1>   0.0800 
 25 H        3.5740    -1.2640    -2.2610 H     1 <1>   0.0800 
 26 H        2.3300    -2.4720    -2.2210 H     1 <1>   0.0800 
 27 H        0.7200     4.0570    -1.7920 H     1 <1>   0.1000 
 28 H        2.2440     3.5810    -0.9800 H     1 <1>   0.1000 
 29 H        0.9290     3.1070     1.1550 H     1 <1>   0.1000 
 30 H       -0.5760     3.5890     0.3150 H     1 <1>   0.1000 
 31 H        4.5570    -3.5300    -2.1210 H     1 <1>   0.0800 
 32 H        3.6000    -2.3850     2.5910 H     1 <1>   0.0800 
 33 H        4.7210    -3.5700     1.9960 H     1 <1>   0.0800 
 34 H        2.6810    -4.6210    -0.9400 H     1 <1>   0.0800 
 35 H        4.1770    -4.9000    -0.1010 H     1 <1>   0.0800 
 36 H        1.7680    -4.1410     2.6500 H     1 <1>   0.0800 
 37 H        2.8960    -5.3330     2.0530 H     1 <1>   0.0800 
 38 H        1.3930    -5.0540     1.2100 H     1 <1>   0.0800 
 39 H        6.0030    -3.1460    -0.1560 H     1 <1>   0.0800 
 40 H        5.7620    -1.6670    -1.0340 H     1 <1>   0.0800 
 41 H        5.4290    -0.6260     2.5390 H     1 <1>   0.0800 
 42 H        6.3120    -0.3310     1.0610 H     1 <1>   0.0800 
 43 H        6.5530    -1.8180     1.9410 H     1 <1>   0.0800 
@<TRIPOS>BOND
  1   1   2  2   
  2   2   3  am  
  3   2   4  1   
  4   3   5  1   
  5   3  19  1   
  6   4   6  1   
  7   4   7  1   
  8   4   8  1   
  9   5   9  1   
 10   5  10  1   
 11   5  20  1   
 12   6  11  1   
 13   6  21  1   
 14   6  22  1   
 15   7  12  1   
 16   7  23  1   
 17   7  24  1   
 18   8  13  1   
 19   8  25  1   
 20   8  26  1   
 21   9  10  1   
 22   9  27  1   
 23   9  28  1   
 24  10  29  1   
 25  10  30  1   
 26  11  14  1   
 27  11  15  1   
 28  11  16  1   
 29  12  14  1   
 30  12  17  1   
 31  12  18  1   
 32  13  15  1   
 33  13  17  1   
 34  13  31  1   
 35  14  32  1   
 36  14  33  1   
 37  15  34  1   
 38  15  35  1   
 39  16  36  1   
 40  16  37  1   
 41  16  38  1   
 42  17  39  1   
 43  17  40  1   
 44  18  41  1   
 45  18  42  1   
 46  18  43  1   
@<TRIPOS>SUBSTRUCTURE
  1 ****   4 GROUP 4 **** **** 0

# MOE 2024.06 (io_trps.svl 2023.06)
