@<TRIPOS>MOLECULE
NONAME
25 25 1 0 0 
SMALL
USER_CHARGES


@<TRIPOS>ATOM
  1 O       -0.7600     0.1670    -0.6230 O.2   1 <1>  -0.5700 
  2 C       -1.8260    -0.3110    -0.9190 C.2   1 <1>   0.5700 
  3 N       -2.5060    -1.0970    -0.0580 N.am  1 <1>  -0.7300 
  4 C       -3.8020    -1.7450    -0.3070 C.3   1 <1>   0.2200 
  5 C       -4.8550    -1.1480     0.6390 C.3   1 <1>  -0.0160 
  6 C       -3.6140    -3.2490    -0.1120 C.3   1 <1>  -0.2400 
  7 C       -6.2470    -1.6950     0.3540 C.ar  1 <1>  -0.1440 
  8 C       -6.9800    -1.2090    -0.7180 C.ar  1 <1>  -0.1500 
  9 C       -6.7970    -2.6810     1.1600 C.ar  1 <1>  -0.1500 
 10 C       -8.2440    -1.7050    -0.9850 C.ar  1 <1>  -0.1500 
 11 C       -8.0610    -3.1780     0.8940 C.ar  1 <1>  -0.1500 
 12 C       -8.7850    -2.6900    -0.1790 C.ar  1 <1>  -0.1500 
 13 H       -2.2450    -0.1060    -1.8890 H     1 <1>   0.0600 
 14 H       -2.0600    -1.2830     0.8420 H     1 <1>   0.3700 
 15 H       -4.1010    -1.5580    -1.3250 H     1 <1>   0.0800 
 16 H       -4.8750    -0.0800     0.5140 H     1 <1>   0.0800 
 17 H       -4.5850    -1.3550     1.6590 H     1 <1>   0.0800 
 18 H       -3.3510    -3.4730     0.9060 H     1 <1>   0.0800 
 19 H       -2.8440    -3.6140    -0.7680 H     1 <1>   0.0800 
 20 H       -4.5260    -3.7680    -0.3500 H     1 <1>   0.0800 
 21 H       -6.5710    -0.4400    -1.3510 H     1 <1>   0.1500 
 22 H       -6.2440    -3.0680     1.9970 H     1 <1>   0.1500 
 23 H       -8.8070    -1.3230    -1.8190 H     1 <1>   0.1500 
 24 H       -8.4810    -3.9430     1.5230 H     1 <1>   0.1500 
 25 H       -9.7690    -3.0760    -0.3850 H     1 <1>   0.1500 
@<TRIPOS>BOND
  1   1   2  2   
  2   2   3  am  
  3   2  13  1   
  4   3   4  1   
  5   3  14  1   
  6   4   5  1   
  7   4   6  1   
  8   4  15  1   
  9   5   7  1   
 10   5  16  1   
 11   5  17  1   
 12   6  18  1   
 13   6  19  1   
 14   6  20  1   
 15   7   8  ar  
 16   7   9  ar  
 17   8  10  ar  
 18   8  21  1   
 19   9  11  ar  
 20   9  22  1   
 21  10  12  ar  
 22  10  23  1   
 23  11  12  ar  
 24  11  24  1   
 25  12  25  1   
@<TRIPOS>SUBSTRUCTURE
  1 ****   5 GROUP 4 **** **** 0

# MOE 2024.06 (io_trps.svl 2023.06)
