@<TRIPOS>MOLECULE
NONAME
41 42 1 0 0 
SMALL
USER_CHARGES


@<TRIPOS>ATOM
  1 S       -0.3880    -0.0150     0.5060 S.3   1 <1>  -0.3320 
  2 C       -1.8760    -0.8410    -0.0800 C.ar  1 <1>   0.1020 
  3 C       -0.1040    -0.5820     2.2410 C.3   1 <1>  -0.0100 
  4 C       -2.6190    -1.6880     0.7260 C.ar  1 <1>  -0.1500 
  5 C       -2.2550    -0.5940    -1.3860 C.ar  1 <1>  -0.1500 
  6 C       -3.7580    -2.2860     0.2130 C.ar  1 <1>  -0.1500 
  7 C       -3.3930    -1.1940    -1.8950 C.ar  1 <1>  -0.1500 
  8 C       -4.1540    -2.0370    -1.0960 C.ar  1 <1>  -0.1430 
  9 C       -5.4170    -2.6730    -1.6440 C.3   1 <1>   0.4860 
 10 N       -6.5810    -1.9820    -1.0320 N.4   1 <1>  -0.9590 
 11 C       -7.8510    -2.7220    -1.1800 C.3   1 <1>   0.3430 
 12 C       -6.7070    -0.5650    -1.4340 C.3   1 <1>   0.3430 
 13 C       -8.1540    -3.4070     0.1490 C.3   1 <1>  -0.1600 
 14 C       -6.7840     0.2890    -0.1690 C.3   1 <1>  -0.1600 
 15 C       -8.6970    -2.4690     1.2460 C.3   1 <1>  -0.1600 
 16 C       -7.9660    -0.0210     0.7710 C.3   1 <1>  -0.1600 
 17 C       -7.8110    -1.2760     1.6590 C.3   1 <1>  -0.1600 
 18 H        0.7960    -0.1090     2.5920 H     1 <1>   0.0800 
 19 H        0.0090    -1.6510     2.2270 H     1 <1>   0.0800 
 20 H       -0.9480    -0.2800     2.8340 H     1 <1>   0.0800 
 21 H       -2.3250    -1.8870     1.7380 H     1 <1>   0.1500 
 22 H       -1.6570     0.0630    -1.9930 H     1 <1>   0.1500 
 23 H       -4.3230    -2.9480     0.8470 H     1 <1>   0.1500 
 24 H       -3.6690    -0.9940    -2.9170 H     1 <1>   0.1500 
 25 H       -5.4270    -3.7190    -1.3840 H     1 <1>   0.0800 
 26 H       -5.4470    -2.5840    -2.7170 H     1 <1>   0.0800 
 27 H       -6.3970    -1.9400    -0.0210 H     1 <1>   0.4500 
 28 H       -7.7660    -3.4550    -1.9660 H     1 <1>   0.0800 
 29 H       -8.6580    -2.0500    -1.4240 H     1 <1>   0.0800 
 30 H       -7.5900    -0.4190    -2.0350 H     1 <1>   0.0800 
 31 H       -5.8490    -0.2600    -2.0110 H     1 <1>   0.0800 
 32 H       -7.2860    -3.9340     0.5050 H     1 <1>   0.0800 
 33 H       -8.9100    -4.1510    -0.0360 H     1 <1>   0.0800 
 34 H       -6.8800     1.3120    -0.4890 H     1 <1>   0.0800 
 35 H       -5.8530     0.2280     0.3690 H     1 <1>   0.0800 
 36 H       -8.8520    -3.0740     2.1250 H     1 <1>   0.0800 
 37 H       -9.6710    -2.1080     0.9600 H     1 <1>   0.0800 
 38 H       -8.8870    -0.0530     0.2140 H     1 <1>   0.0800 
 39 H       -8.0540     0.8220     1.4380 H     1 <1>   0.0800 
 40 H       -6.7810    -1.5680     1.7720 H     1 <1>   0.0800 
 41 H       -8.1390    -0.9910     2.6460 H     1 <1>   0.0800 
@<TRIPOS>BOND
  1   1   2  1   
  2   1   3  1   
  3   2   4  ar  
  4   2   5  ar  
  5   3  18  1   
  6   3  19  1   
  7   3  20  1   
  8   4   6  ar  
  9   4  21  1   
 10   5   7  ar  
 11   5  22  1   
 12   6   8  ar  
 13   6  23  1   
 14   7   8  ar  
 15   7  24  1   
 16   8   9  1   
 17   9  10  1   
 18   9  25  1   
 19   9  26  1   
 20  10  11  1   
 21  10  12  1   
 22  10  27  1   
 23  11  13  1   
 24  11  28  1   
 25  11  29  1   
 26  12  14  1   
 27  12  30  1   
 28  12  31  1   
 29  13  15  1   
 30  13  32  1   
 31  13  33  1   
 32  14  16  1   
 33  14  34  1   
 34  14  35  1   
 35  15  17  1   
 36  15  36  1   
 37  15  37  1   
 38  16  17  1   
 39  16  38  1   
 40  16  39  1   
 41  17  40  1   
 42  17  41  1   
@<TRIPOS>SUBSTRUCTURE
  1 ****   8 GROUP 4 **** **** 0

# MOE 2024.06 (io_trps.svl 2023.06)
