@<TRIPOS>MOLECULE
NONAME
33 34 1 0 0 
SMALL
USER_CHARGES


@<TRIPOS>ATOM
  1 O        0.1480     0.2710    -0.9180 O.2   1 <1>  -0.5700 
  2 C        0.1060     1.3080    -0.2790 C.2   1 <1>   0.7150 
  3 N       -1.1290     1.7680     0.1140 N.am  1 <1>  -0.7300 
  4 C        1.3160     2.0450     0.0640 C.2   1 <1>   0.3930 
  5 C       -2.4200     1.1280    -0.1620 C.3   1 <1>   0.2200 
  6 O        1.2160     3.1490     0.7480 O.3   1 <1>  -0.0190 
  7 N        2.5580     1.8060    -0.1940 N.2   1 <1>  -0.5650 
  8 C       -3.2700     2.1030    -0.9690 C.3   1 <1>  -0.2400 
  9 C       -3.0780     0.7920     1.1710 C.3   1 <1>  -0.2400 
 10 N        2.3650     3.6620     0.9590 N.2   1 <1>  -0.4100 
 11 C        3.1870     2.8460     0.3860 C.2   1 <1>   0.4620 
 12 C        4.6330     3.0040     0.3520 C.ar  1 <1>   0.0540 
 13 C        5.4570     2.0750    -0.2870 C.ar  1 <1>  -0.1500 
 14 C        5.2580     4.0940     0.9610 C.ar  1 <1>  -0.1500 
 15 C        6.8340     2.2200    -0.3240 C.ar  1 <1>  -0.1430 
 16 C        6.6310     4.2480     0.9330 C.ar  1 <1>  -0.1500 
 17 C        7.4200     3.3120     0.2910 C.ar  1 <1>  -0.1500 
 18 C        7.7040     1.1930    -1.0270 C.3   1 <1>  -0.0970 
 19 H       -1.1860     2.6340     0.6500 H     1 <1>   0.3700 
 20 H       -2.2750     0.2220    -0.7300 H     1 <1>   0.0800 
 21 H       -3.4370     3.0130    -0.4230 H     1 <1>   0.0800 
 22 H       -4.2230     1.6570    -1.1910 H     1 <1>   0.0800 
 23 H       -2.7830     2.3290    -1.9010 H     1 <1>   0.0800 
 24 H       -3.2420     1.6800     1.7550 H     1 <1>   0.0800 
 25 H       -2.4570     0.1090     1.7240 H     1 <1>   0.0800 
 26 H       -4.0260     0.3160     0.9990 H     1 <1>   0.0800 
 27 H        5.0060     1.2230    -0.7650 H     1 <1>   0.1500 
 28 H        4.6600     4.8330     1.4650 H     1 <1>   0.1500 
 29 H        7.0880     5.0980     1.4100 H     1 <1>   0.1500 
 30 H        8.4890     3.4360     0.2720 H     1 <1>   0.1500 
 31 H        7.1040     0.5200    -1.6140 H     1 <1>   0.0800 
 32 H        8.2520     0.6210    -0.3000 H     1 <1>   0.0800 
 33 H        8.4010     1.6850    -1.6800 H     1 <1>   0.0800 
@<TRIPOS>BOND
  1   1   2  2   
  2   2   3  am  
  3   2   4  1   
  4   3   5  1   
  5   3  19  1   
  6   4   6  1   
  7   4   7  2   
  8   5   8  1   
  9   5   9  1   
 10   5  20  1   
 11   6  10  1   
 12   7  11  1   
 13   8  21  1   
 14   8  22  1   
 15   8  23  1   
 16   9  24  1   
 17   9  25  1   
 18   9  26  1   
 19  10  11  2   
 20  11  12  1   
 21  12  13  ar  
 22  12  14  ar  
 23  13  15  ar  
 24  13  27  1   
 25  14  16  ar  
 26  14  28  1   
 27  15  17  ar  
 28  15  18  1   
 29  16  17  ar  
 30  16  29  1   
 31  17  30  1   
 32  18  31  1   
 33  18  32  1   
 34  18  33  1   
@<TRIPOS>SUBSTRUCTURE
  1 ****   7 GROUP 4 **** **** 0

# MOE 2024.06 (io_trps.svl 2023.06)
