@<TRIPOS>MOLECULE
NONAME
45 46 1 0 0 
SMALL
USER_CHARGES


@<TRIPOS>ATOM
  1 O       -0.3760    -0.2040     0.2670 O.3   1 <1>  -0.3630 
  2 C       -1.5490    -0.8000    -0.0740 C.ar  1 <1>   0.0830 
  3 C        0.5180    -0.7810     1.1920 C.3   1 <1>   0.0400 
  4 C       -2.3220    -0.1850    -1.0510 C.ar  1 <1>  -0.1440 
  5 C       -1.9940    -1.9830     0.5080 C.ar  1 <1>  -0.1500 
  6 C       -3.5260    -0.7530    -1.4240 C.ar  1 <1>  -0.1500 
  7 C       -1.8480     1.1020    -1.7130 C.3   1 <1>  -0.0960 
  8 C       -3.2000    -2.5550     0.1340 C.ar  1 <1>  -0.1430 
  9 C       -3.9790    -1.9240    -0.8330 C.ar  1 <1>  -0.1430 
 10 C       -3.6130    -3.8620     0.8010 C.3   1 <1>  -0.0970 
 11 C       -5.3270    -2.4710    -1.2620 C.3   1 <1>   0.4860 
 12 N       -6.3210    -2.1880    -0.1870 N.4   1 <1>  -0.9590 
 13 C       -7.6360    -2.8970    -0.3690 C.3   1 <1>   0.4230 
 14 C       -6.4910    -0.7090    -0.0320 C.3   1 <1>   0.3430 
 15 C       -8.5420    -2.5900     0.8390 C.3   1 <1>  -0.1600 
 16 C       -7.4750    -4.4290    -0.5480 C.3   1 <1>   0.1200 
 17 C       -7.3610    -0.4010     1.1840 C.3   1 <1>  -0.1600 
 18 C       -8.7250    -1.0880     1.0790 C.3   1 <1>  -0.1600 
 19 O       -8.7110    -5.0000    -0.8140 O.3   1 <1>  -0.6800 
 20 H        1.3770    -0.1390     1.2700 H     1 <1>   0.0800 
 21 H        0.8180    -1.7490     0.8320 H     1 <1>   0.0800 
 22 H        0.0320    -0.8560     2.1490 H     1 <1>   0.0800 
 23 H       -1.3990    -2.4680     1.2580 H     1 <1>   0.1500 
 24 H       -4.1110    -0.2680    -2.1870 H     1 <1>   0.1500 
 25 H       -0.9000     0.9350    -2.1940 H     1 <1>   0.0800 
 26 H       -1.7210     1.8690    -0.9690 H     1 <1>   0.0800 
 27 H       -2.5480     1.4500    -2.4500 H     1 <1>   0.0800 
 28 H       -2.7640    -4.3290     1.2700 H     1 <1>   0.0800 
 29 H       -4.0000    -4.5590     0.0800 H     1 <1>   0.0800 
 30 H       -4.3500    -3.6810     1.5620 H     1 <1>   0.0800 
 31 H       -5.2290    -3.5300    -1.4250 H     1 <1>   0.0800 
 32 H       -5.6350    -2.0120    -2.1870 H     1 <1>   0.0800 
 33 H       -5.8990    -2.5120     0.6890 H     1 <1>   0.4500 
 34 H       -8.1100    -2.5130    -1.2580 H     1 <1>   0.0800 
 35 H       -6.9520    -0.3000    -0.9160 H     1 <1>   0.0800 
 36 H       -5.5310    -0.2350     0.1000 H     1 <1>   0.0800 
 37 H       -8.1350    -3.0510     1.7220 H     1 <1>   0.0800 
 38 H       -9.5130    -3.0260     0.6740 H     1 <1>   0.0800 
 39 H       -7.0880    -4.8800     0.3500 H     1 <1>   0.0800 
 40 H       -6.8400    -4.6660    -1.3820 H     1 <1>   0.0800 
 41 H       -7.5030     0.6640     1.2530 H     1 <1>   0.0800 
 42 H       -6.8530    -0.7160     2.0790 H     1 <1>   0.0800 
 43 H       -9.2870    -0.9270     1.9840 H     1 <1>   0.0800 
 44 H       -9.2850    -0.6590     0.2640 H     1 <1>   0.0800 
 45 H       -8.6570    -5.9770    -0.8940 H     1 <1>   0.4000 
@<TRIPOS>BOND
  1   1   2  1   
  2   1   3  1   
  3   2   4  ar  
  4   2   5  ar  
  5   3  20  1   
  6   3  21  1   
  7   3  22  1   
  8   4   6  ar  
  9   4   7  1   
 10   5   8  ar  
 11   5  23  1   
 12   6   9  ar  
 13   6  24  1   
 14   7  25  1   
 15   7  26  1   
 16   7  27  1   
 17   8   9  ar  
 18   8  10  1   
 19   9  11  1   
 20  10  28  1   
 21  10  29  1   
 22  10  30  1   
 23  11  12  1   
 24  11  31  1   
 25  11  32  1   
 26  12  13  1   
 27  12  14  1   
 28  12  33  1   
 29  13  15  1   
 30  13  16  1   
 31  13  34  1   
 32  14  17  1   
 33  14  35  1   
 34  14  36  1   
 35  15  18  1   
 36  15  37  1   
 37  15  38  1   
 38  16  19  1   
 39  16  39  1   
 40  16  40  1   
 41  17  18  1   
 42  17  41  1   
 43  17  42  1   
 44  18  43  1   
 45  18  44  1   
 46  19  45  1   
@<TRIPOS>SUBSTRUCTURE
  1 ****   9 GROUP 4 **** **** 0

# MOE 2024.06 (io_trps.svl 2023.06)
