@<TRIPOS>MOLECULE
NONAME
56 58 1 0 0 
SMALL
USER_CHARGES


@<TRIPOS>ATOM
  1 S        0.1640    -0.0280    -2.6320 S.o2  1 <1>   1.4470 
  2 O        0.0730    -1.1510    -3.5370 O.2   1 <1>  -0.6500 
  3 O        0.2300     1.3240    -3.1420 O.2   1 <1>  -0.6500 
  4 N        1.6190    -0.1940    -1.6950 N.am  1 <1>  -0.5780 
  5 C       -1.1120    -0.1260    -1.3480 C.ar  1 <1>  -0.0090 
  6 N        2.1480    -1.3260    -1.0930 N.2   1 <1>  -0.4300 
  7 C       -1.9950     0.9250    -1.1250 C.ar  1 <1>  -0.1500 
  8 C       -1.2330    -1.2530    -0.5450 C.ar  1 <1>  -0.1500 
  9 C        3.1250    -1.3360    -0.2740 C.2   1 <1>   0.3280 
 10 C       -2.9560     0.8570    -0.1310 C.ar  1 <1>  -0.1500 
 11 C       -2.1930    -1.3280     0.4500 C.ar  1 <1>  -0.1500 
 12 C        3.9910    -0.1710     0.3080 C.3   1 <1>   0.0610 
 13 C        3.6050    -2.7010     0.2130 C.3   1 <1>  -0.0990 
 14 C       -3.0580    -0.2700     0.6640 C.ar  1 <1>  -0.1430 
 15 C        5.4150    -0.3810    -0.2710 C.3   1 <1>  -0.1600 
 16 C        4.0840    -0.3720     1.8480 C.3   1 <1>  -0.1600 
 17 C        3.5540     1.2890     0.0110 C.3   1 <1>  -0.1600 
 18 C        4.9460    -2.5460     0.9360 C.3   1 <1>   0.2800 
 19 C       -4.1130    -0.3470     1.7530 C.3   1 <1>  -0.0970 
 20 C        5.9380    -1.8090     0.0240 C.3   1 <1>  -0.1600 
 21 C        4.7320    -1.7270     2.2130 C.3   1 <1>  -0.1600 
 22 C        2.2290     1.7130     0.6780 C.3   1 <1>  -0.1600 
 23 O        5.4420    -3.7840     1.2610 O.3   1 <1>  -0.6800 
 24 C        1.6200     2.9420    -0.0070 C.3   1 <1>  -0.1600 
 25 C        0.2900     3.3270     0.6490 C.3   1 <1>  -0.1600 
 26 C       -0.3750     4.4860    -0.0970 C.3   1 <1>  -0.2400 
 27 H        1.9430     0.7250    -1.3990 H     1 <1>   0.4200 
 28 H       -1.9290     1.8120    -1.7340 H     1 <1>   0.1500 
 29 H       -0.5640    -2.0830    -0.7020 H     1 <1>   0.1500 
 30 H       -3.6250     1.6870     0.0180 H     1 <1>   0.1500 
 31 H       -2.2610    -2.2160     1.0550 H     1 <1>   0.1500 
 32 H        3.7180    -3.3540    -0.6330 H     1 <1>   0.0800 
 33 H        2.8720    -3.1190     0.8770 H     1 <1>   0.0800 
 34 H        5.3990    -0.2240    -1.3360 H     1 <1>   0.0800 
 35 H        6.0920     0.3390     0.1550 H     1 <1>   0.0800 
 36 H        3.0960    -0.3410     2.2740 H     1 <1>   0.0800 
 37 H        4.6560     0.4240     2.2930 H     1 <1>   0.0800 
 38 H        4.3180     1.9600     0.3660 H     1 <1>   0.0800 
 39 H        3.5150     1.4340    -1.0540 H     1 <1>   0.0800 
 40 H       -4.2940     0.6280     2.1690 H     1 <1>   0.0800 
 41 H       -3.7910    -0.9980     2.5460 H     1 <1>   0.0800 
 42 H       -5.0310    -0.7260     1.3440 H     1 <1>   0.0800 
 43 H        6.9030    -1.7460     0.4950 H     1 <1>   0.0800 
 44 H        6.0440    -2.3520    -0.9000 H     1 <1>   0.0800 
 45 H        4.0910    -2.2630     2.8910 H     1 <1>   0.0800 
 46 H        5.6760    -1.5540     2.6980 H     1 <1>   0.0800 
 47 H        1.5150     0.9080     0.6610 H     1 <1>   0.0800 
 48 H        2.4130     1.9460     1.7130 H     1 <1>   0.0800 
 49 H        6.2990    -3.6900     1.7150 H     1 <1>   0.4000 
 50 H        2.3060     3.7710     0.0610 H     1 <1>   0.0800 
 51 H        1.4510     2.7380    -1.0500 H     1 <1>   0.0800 
 52 H       -0.3760     2.4810     0.6490 H     1 <1>   0.0800 
 53 H        0.4600     3.6130     1.6740 H     1 <1>   0.0800 
 54 H       -0.5730     4.2120    -1.1180 H     1 <1>   0.0800 
 55 H        0.2620     5.3540    -0.0880 H     1 <1>   0.0800 
 56 H       -1.3070     4.7420     0.3760 H     1 <1>   0.0800 
@<TRIPOS>BOND
  1   1   2  2   
  2   1   3  2   
  3   1   4  am  
  4   1   5  1   
  5   4   6  1   
  6   4  27  1   
  7   5   7  ar  
  8   5   8  ar  
  9   6   9  2   
 10   7  10  ar  
 11   7  28  1   
 12   8  11  ar  
 13   8  29  1   
 14   9  12  1   
 15   9  13  1   
 16  10  14  ar  
 17  10  30  1   
 18  11  14  ar  
 19  11  31  1   
 20  12  15  1   
 21  12  16  1   
 22  12  17  1   
 23  13  18  1   
 24  13  32  1   
 25  13  33  1   
 26  14  19  1   
 27  15  20  1   
 28  15  34  1   
 29  15  35  1   
 30  16  21  1   
 31  16  36  1   
 32  16  37  1   
 33  17  22  1   
 34  17  38  1   
 35  17  39  1   
 36  18  20  1   
 37  18  21  1   
 38  18  23  1   
 39  19  40  1   
 40  19  41  1   
 41  19  42  1   
 42  20  43  1   
 43  20  44  1   
 44  21  45  1   
 45  21  46  1   
 46  22  24  1   
 47  22  47  1   
 48  22  48  1   
 49  23  49  1   
 50  24  25  1   
 51  24  50  1   
 52  24  51  1   
 53  25  26  1   
 54  25  52  1   
 55  25  53  1   
 56  26  54  1   
 57  26  55  1   
 58  26  56  1   
@<TRIPOS>SUBSTRUCTURE
  1 ****   4 GROUP 4 **** **** 0

# MOE 2024.06 (io_trps.svl 2023.06)
