@<TRIPOS>MOLECULE
NONAME
43 44 1 0 0 
SMALL
USER_CHARGES


@<TRIPOS>ATOM
  1 O       -1.3080     0.7510     0.4540 O.3   1 <1>  -0.3630 
  2 C       -0.6100     1.8120    -0.0230 C.ar  1 <1>   0.0830 
  3 C       -0.8970    -0.5250    -0.0020 C.3   1 <1>   0.0400 
  4 C       -1.2230     2.6180    -0.9770 C.ar  1 <1>  -0.1440 
  5 C        0.6710     2.1070     0.4400 C.ar  1 <1>  -0.1440 
  6 C       -0.5290     3.6830    -1.5250 C.ar  1 <1>  -0.1500 
  7 C       -2.6530     2.3420    -1.3910 C.3   1 <1>   0.4870 
  8 C        1.3640     3.1750    -0.1250 C.ar  1 <1>   0.0830 
  9 C        1.3270     1.3040     1.5650 C.3   1 <1>  -0.0960 
 10 C        0.7600     3.9540    -1.1090 C.ar  1 <1>  -0.1500 
 11 N       -3.4920     2.4690    -0.1760 N.4   1 <1>  -0.9590 
 12 O        2.6260     3.4160     0.3190 O.3   1 <1>  -0.3630 
 13 C       -4.8610     1.9230    -0.2840 C.3   1 <1>   0.4230 
 14 C       -3.6000     3.8600     0.3260 C.3   1 <1>   0.3430 
 15 C        3.4340     4.4380    -0.2220 C.3   1 <1>   0.0400 
 16 C       -5.5810     2.5500     0.9070 C.3   1 <1>  -0.1600 
 17 C       -4.8940     0.3800    -0.2810 C.3   1 <1>   0.1200 
 18 C       -4.8710     3.8810     1.1670 C.3   1 <1>  -0.1600 
 19 O       -6.2080    -0.0480    -0.4030 O.3   1 <1>  -0.6800 
 20 H        0.1220    -0.7030     0.2910 H     1 <1>   0.0800 
 21 H       -0.9790    -0.5590    -1.0740 H     1 <1>   0.0800 
 22 H       -1.5340    -1.2680     0.4430 H     1 <1>   0.0800 
 23 H       -0.9760     4.3110    -2.2770 H     1 <1>   0.1500 
 24 H       -2.7160     1.3420    -1.7860 H     1 <1>   0.0800 
 25 H       -2.9730     3.0390    -2.1480 H     1 <1>   0.0800 
 26 H        0.6030     0.7530     2.1350 H     1 <1>   0.0800 
 27 H        1.8360     1.9630     2.2450 H     1 <1>   0.0800 
 28 H        2.0480     0.6200     1.1530 H     1 <1>   0.0800 
 29 H        1.2790     4.7810    -1.5570 H     1 <1>   0.1500 
 30 H       -2.9830     1.9300     0.5460 H     1 <1>   0.4500 
 31 H       -5.3110     2.2840    -1.1950 H     1 <1>   0.0800 
 32 H       -3.7040     4.5440    -0.5000 H     1 <1>   0.0800 
 33 H       -2.7320     4.1320     0.9070 H     1 <1>   0.0800 
 34 H        4.3860     4.4100     0.2770 H     1 <1>   0.0800 
 35 H        2.9600     5.3880    -0.0490 H     1 <1>   0.0800 
 36 H        3.5690     4.2580    -1.2740 H     1 <1>   0.0800 
 37 H       -5.4910     1.9120     1.7690 H     1 <1>   0.0800 
 38 H       -6.6280     2.6810     0.6920 H     1 <1>   0.0800 
 39 H       -4.5000    -0.0100     0.6410 H     1 <1>   0.0800 
 40 H       -4.3430    -0.0180    -1.1150 H     1 <1>   0.0800 
 41 H       -5.4860     4.7140     0.8720 H     1 <1>   0.0800 
 42 H       -4.6300     3.9900     2.2110 H     1 <1>   0.0800 
 43 H       -6.2800    -1.0250    -0.3620 H     1 <1>   0.4000 
@<TRIPOS>BOND
  1   1   2  1   
  2   1   3  1   
  3   2   4  ar  
  4   2   5  ar  
  5   3  20  1   
  6   3  21  1   
  7   3  22  1   
  8   4   6  ar  
  9   4   7  1   
 10   5   8  ar  
 11   5   9  1   
 12   6  10  ar  
 13   6  23  1   
 14   7  11  1   
 15   7  24  1   
 16   7  25  1   
 17   8  10  ar  
 18   8  12  1   
 19   9  26  1   
 20   9  27  1   
 21   9  28  1   
 22  10  29  1   
 23  11  13  1   
 24  11  14  1   
 25  11  30  1   
 26  12  15  1   
 27  13  16  1   
 28  13  17  1   
 29  13  31  1   
 30  14  18  1   
 31  14  32  1   
 32  14  33  1   
 33  15  34  1   
 34  15  35  1   
 35  15  36  1   
 36  16  18  1   
 37  16  37  1   
 38  16  38  1   
 39  17  19  1   
 40  17  39  1   
 41  17  40  1   
 42  18  41  1   
 43  18  42  1   
 44  19  43  1   
@<TRIPOS>SUBSTRUCTURE
  1 ****   4 GROUP 4 **** **** 0

# MOE 2024.06 (io_trps.svl 2023.06)
