@<TRIPOS>MOLECULE
NONAME
33 33 1 0 0 
SMALL
USER_CHARGES


@<TRIPOS>ATOM
  1 F        0.3830    -0.9260     0.5760 F     1 <1>  -0.3400 
  2 C        1.2840    -0.0330     0.1670 C.3   1 <1>   1.0200 
  3 F        1.0210     0.1700    -1.1210 F     1 <1>  -0.3400 
  4 F        0.9520     1.1000     0.7830 F     1 <1>  -0.3400 
  5 C        2.7440    -0.4920     0.4630 C.3   1 <1>   0.4850 
  6 O        2.9250    -0.7560     1.8570 O.3   1 <1>  -0.6800 
  7 C        3.8720     0.4990     0.0790 C.ar  1 <1>  -0.1430 
  8 C        2.8710    -1.8000    -0.3300 C.2   1 <1>   0.6590 
  9 C        3.6540     1.7130    -0.5730 C.ar  1 <1>  -0.1500 
 10 C        5.1870     0.1610     0.3910 C.ar  1 <1>  -0.1500 
 11 O        3.1800    -1.8410    -1.4950 O.2   1 <1>  -0.5700 
 12 O        2.6090    -2.9240     0.3430 O.3   1 <1>  -0.4300 
 13 C        4.7090     2.5490    -0.8880 C.ar  1 <1>  -0.1500 
 14 C        6.2390     0.9990     0.0750 C.ar  1 <1>  -0.1500 
 15 C        2.6830    -4.1960    -0.2700 C.3   1 <1>   0.0400 
 16 C        6.0140     2.2100    -0.5610 C.ar  1 <1>   0.1000 
 17 N        7.0770     3.0490    -0.8610 N.pl3 1 <1>  -0.8690 
 18 C        7.0520     4.4330    -0.3530 C.3   1 <1>   0.2090 
 19 C        8.1780     4.5850     0.6610 C.3   1 <1>  -0.2400 
 20 H        2.4810    -1.5980     2.0890 H     1 <1>   0.4000 
 21 H        2.6710     2.0420    -0.8560 H     1 <1>   0.1500 
 22 H        5.4030    -0.7660     0.8930 H     1 <1>   0.1500 
 23 H        4.5270     3.4750    -1.3990 H     1 <1>   0.1500 
 24 H        7.2440     0.7160     0.3270 H     1 <1>   0.1500 
 25 H        2.4330    -4.9450     0.4610 H     1 <1>   0.0800 
 26 H        3.6860    -4.3510    -0.6310 H     1 <1>   0.0800 
 27 H        1.9860    -4.2310    -1.0890 H     1 <1>   0.0800 
 28 H        7.9950     2.6200    -0.7170 H     1 <1>   0.4000 
 29 H        6.1060     4.6440     0.1170 H     1 <1>   0.0800 
 30 H        7.1920     5.1160    -1.1740 H     1 <1>   0.0800 
 31 H        8.0360     3.8980     1.4760 H     1 <1>   0.0800 
 32 H        8.1740     5.5850     1.0540 H     1 <1>   0.0800 
 33 H        9.1300     4.4050     0.1940 H     1 <1>   0.0800 
@<TRIPOS>BOND
  1   1   2  1   
  2   2   3  1   
  3   2   4  1   
  4   2   5  1   
  5   5   6  1   
  6   5   7  1   
  7   5   8  1   
  8   6  20  1   
  9   7   9  ar  
 10   7  10  ar  
 11   8  11  2   
 12   8  12  1   
 13   9  13  ar  
 14   9  21  1   
 15  10  14  ar  
 16  10  22  1   
 17  12  15  1   
 18  13  16  ar  
 19  13  23  1   
 20  14  16  ar  
 21  14  24  1   
 22  15  25  1   
 23  15  26  1   
 24  15  27  1   
 25  16  17  1   
 26  17  18  1   
 27  17  28  1   
 28  18  19  1   
 29  18  29  1   
 30  18  30  1   
 31  19  31  1   
 32  19  32  1   
 33  19  33  1   
@<TRIPOS>SUBSTRUCTURE
  1 ****   7 GROUP 4 **** **** 0

# MOE 2024.06 (io_trps.svl 2023.06)
