@<TRIPOS>MOLECULE
NONAME
48 49 1 0 0 
SMALL
USER_CHARGES


@<TRIPOS>ATOM
  1 O       -1.4840     6.7270    -0.1700 O.3   1 <1>  -0.5600 
  2 C       -2.1080     7.9720    -0.1480 C.3   1 <1>   0.2640 
  3 C       -0.0980     6.7780    -0.3400 C.3   1 <1>   0.1200 
  4 C       -3.5980     7.7610     0.0560 C.ar  1 <1>  -0.1440 
  5 C        0.4650     5.3520    -0.2640 C.3   1 <1>   0.2000 
  6 C       -4.1400     7.7770     1.3330 C.ar  1 <1>  -0.1500 
  7 C       -4.4310     7.5530    -1.0330 C.ar  1 <1>  -0.1500 
  8 O       -0.0600     4.7510     0.8710 O.3   1 <1>  -0.6800 
  9 C        2.0140     5.3320    -0.2490 C.3   1 <1>   0.1100 
 10 C       -5.5000     7.5970     1.5180 C.ar  1 <1>  -0.1500 
 11 C       -5.7910     7.3730    -0.8490 C.ar  1 <1>  -0.1500 
 12 N        2.6370     4.0390     0.1320 N.3   1 <1>  -0.8100 
 13 C       -6.3270     7.3960     0.4260 C.ar  1 <1>  -0.1500 
 14 C        4.1030     4.1250     0.2210 C.3   1 <1>   0.1100 
 15 C        2.1870     2.8870    -0.6720 C.3   1 <1>   0.1100 
 16 C        4.7010     2.8140     0.7720 C.3   1 <1>   0.3430 
 17 C        2.7730     1.5720    -0.1210 C.3   1 <1>   0.3430 
 18 N        4.2760     1.6170    -0.0400 N.4   1 <1>  -0.9590 
 19 C        4.7980     0.3300     0.5200 C.3   1 <1>   0.3430 
 20 C        6.3250     0.2050     0.4090 C.3   1 <1>   0.1200 
 21 O        6.6810    -1.0480     0.8730 O.3   1 <1>  -0.6800 
 22 H       -1.9230     8.4710    -1.0840 H     1 <1>   0.0800 
 23 H       -1.6960     8.5530     0.6600 H     1 <1>   0.0800 
 24 H        0.3260     7.3830     0.4440 H     1 <1>   0.0800 
 25 H        0.1210     7.2180    -1.2970 H     1 <1>   0.0800 
 26 H        0.1070     4.8020    -1.1160 H     1 <1>   0.0800 
 27 H       -3.5040     7.9260     2.1880 H     1 <1>   0.1500 
 28 H       -4.0220     7.5270    -2.0270 H     1 <1>   0.1500 
 29 H       -0.9930     5.0550     0.9450 H     1 <1>   0.4000 
 30 H        2.3420     6.0810     0.4520 H     1 <1>   0.0800 
 31 H        2.3690     5.6260    -1.2220 H     1 <1>   0.0800 
 32 H       -5.9150     7.6110     2.5110 H     1 <1>   0.1500 
 33 H       -6.4320     7.2130    -1.6980 H     1 <1>   0.1500 
 34 H       -7.3840     7.2550     0.5700 H     1 <1>   0.1500 
 35 H        4.3700     4.9300     0.8850 H     1 <1>   0.0800 
 36 H        4.5200     4.3410    -0.7480 H     1 <1>   0.0800 
 37 H        2.4690     3.0180    -1.7020 H     1 <1>   0.0800 
 38 H        1.1140     2.8120    -0.6240 H     1 <1>   0.0800 
 39 H        4.3670     2.6970     1.7900 H     1 <1>   0.0800 
 40 H        5.7750     2.8950     0.7810 H     1 <1>   0.0800 
 41 H        2.4600     0.7560    -0.7500 H     1 <1>   0.0800 
 42 H        2.3600     1.4110     0.8620 H     1 <1>   0.0800 
 43 H        4.6240     1.7410    -0.9980 H     1 <1>   0.4500 
 44 H        4.3600    -0.4950    -0.0160 H     1 <1>   0.0800 
 45 H        4.5160     0.2450     1.5570 H     1 <1>   0.0800 
 46 H        6.8250     0.9380     1.0190 H     1 <1>   0.0800 
 47 H        6.6460     0.2830    -0.6150 H     1 <1>   0.0800 
 48 H        7.6500    -1.1980     0.8200 H     1 <1>   0.4000 
@<TRIPOS>BOND
  1   1   2  1   
  2   1   3  1   
  3   2   4  1   
  4   2  22  1   
  5   2  23  1   
  6   3   5  1   
  7   3  24  1   
  8   3  25  1   
  9   4   6  ar  
 10   4   7  ar  
 11   5   8  1   
 12   5   9  1   
 13   5  26  1   
 14   6  10  ar  
 15   6  27  1   
 16   7  11  ar  
 17   7  28  1   
 18   8  29  1   
 19   9  12  1   
 20   9  30  1   
 21   9  31  1   
 22  10  13  ar  
 23  10  32  1   
 24  11  13  ar  
 25  11  33  1   
 26  12  14  1   
 27  12  15  1   
 28  13  34  1   
 29  14  16  1   
 30  14  35  1   
 31  14  36  1   
 32  15  17  1   
 33  15  37  1   
 34  15  38  1   
 35  16  18  1   
 36  16  39  1   
 37  16  40  1   
 38  17  18  1   
 39  17  41  1   
 40  17  42  1   
 41  18  19  1   
 42  18  43  1   
 43  19  20  1   
 44  19  44  1   
 45  19  45  1   
 46  20  21  1   
 47  20  46  1   
 48  20  47  1   
 49  21  48  1   
@<TRIPOS>SUBSTRUCTURE
  1 ****   5 GROUP 4 **** **** 0

# MOE 2024.06 (io_trps.svl 2023.06)
