@<TRIPOS>MOLECULE
NONAME
41 43 1 0 0 
SMALL
USER_CHARGES


@<TRIPOS>ATOM
  1 O        0.0150    -0.5010    -0.5930 O.2   1 <1>  -0.5640 
  2 N       -0.6500    -1.5620    -0.3040 N.2   1 <1>   1.5890 
  3 C        0.0350    -2.7370    -0.0570 C.2   1 <1>  -0.0410 
  4 C       -2.0210    -1.4400    -0.2470 C.2   1 <1>  -0.1510 
  5 C        1.4730    -2.6830    -0.1490 C.ar  1 <1>   0.0280 
  6 C       -0.7080    -3.8550     0.2270 C.2   1 <1>  -0.0380 
  7 C       -2.7450    -2.5570    -0.0230 C.2   1 <1>  -0.0380 
  8 C       -2.6780    -0.0650    -0.4470 C.3   1 <1>  -0.0220 
  9 C        2.2480    -2.1940     0.9030 C.ar  1 <1>  -0.1500 
 10 C        2.1270    -3.0980    -1.3070 C.ar  1 <1>  -0.1500 
 11 N       -2.0810    -3.7430     0.1820 N.pl3 1 <1>  -0.5080 
 12 C       -0.1280    -5.2490     0.5740 C.3   1 <1>   0.0580 
 13 C       -4.2730    -2.5660     0.0200 C.3   1 <1>  -0.0220 
 14 C       -4.1370    -0.0440     0.0250 C.3   1 <1>  -0.1600 
 15 C        3.6240    -2.1180     0.7980 C.ar  1 <1>  -0.1500 
 16 C        3.5030    -3.0240    -1.4140 C.ar  1 <1>  -0.1500 
 17 O       -2.7880    -4.7770     0.2970 O.3   1 <1>  -0.6920 
 18 C        1.1360    -5.2600     1.4460 C.3   1 <1>  -0.2400 
 19 C        0.0910    -6.0750    -0.6980 C.3   1 <1>  -0.2400 
 20 C       -4.8930    -1.2640    -0.5050 C.3   1 <1>  -0.1600 
 21 C        4.2540    -2.5320    -0.3620 C.ar  1 <1>  -0.1500 
 22 H       -2.6440     0.1900    -1.4940 H     1 <1>   0.0800 
 23 H       -2.1440     0.6980     0.0960 H     1 <1>   0.0800 
 24 H        1.7770    -1.8770     1.8180 H     1 <1>   0.1500 
 25 H        1.5570    -3.4880    -2.1330 H     1 <1>   0.1500 
 26 H       -0.8620    -5.7710     1.1660 H     1 <1>   0.0800 
 27 H       -4.5750    -2.7400     1.0380 H     1 <1>   0.0800 
 28 H       -4.6440    -3.3870    -0.5680 H     1 <1>   0.0800 
 29 H       -4.6160     0.8590    -0.3130 H     1 <1>   0.0800 
 30 H       -4.1690    -0.0530     1.1020 H     1 <1>   0.0800 
 31 H        4.2100    -1.7400     1.6180 H     1 <1>   0.1500 
 32 H        3.9940    -3.3500    -2.3150 H     1 <1>   0.1500 
 33 H        2.0140    -5.0070     0.8820 H     1 <1>   0.0800 
 34 H        1.2820    -6.2470     1.8470 H     1 <1>   0.0800 
 35 H        1.0220    -4.5790     2.2690 H     1 <1>   0.0800 
 36 H        0.8580    -5.6450    -1.3120 H     1 <1>   0.0800 
 37 H       -0.8290    -6.1070    -1.2550 H     1 <1>   0.0800 
 38 H        0.3670    -7.0820    -0.4430 H     1 <1>   0.0800 
 39 H       -5.9270    -1.2200    -0.2080 H     1 <1>   0.0800 
 40 H       -4.8590    -1.2690    -1.5810 H     1 <1>   0.0800 
 41 H        5.3260    -2.4740    -0.4450 H     1 <1>   0.1500 
@<TRIPOS>BOND
  1   1   2  2   
  2   2   3  1   
  3   2   4  1   
  4   3   5  1   
  5   3   6  2   
  6   4   7  2   
  7   4   8  1   
  8   5   9  ar  
  9   5  10  ar  
 10   6  11  1   
 11   6  12  1   
 12   7  11  1   
 13   7  13  1   
 14   8  14  1   
 15   8  22  1   
 16   8  23  1   
 17   9  15  ar  
 18   9  24  1   
 19  10  16  ar  
 20  10  25  1   
 21  11  17  1   
 22  12  18  1   
 23  12  19  1   
 24  12  26  1   
 25  13  20  1   
 26  13  27  1   
 27  13  28  1   
 28  14  20  1   
 29  14  29  1   
 30  14  30  1   
 31  15  21  ar  
 32  15  31  1   
 33  16  21  ar  
 34  16  32  1   
 35  18  33  1   
 36  18  34  1   
 37  18  35  1   
 38  19  36  1   
 39  19  37  1   
 40  19  38  1   
 41  20  39  1   
 42  20  40  1   
 43  21  41  1   
@<TRIPOS>SUBSTRUCTURE
  1 ****   3 GROUP 4 **** **** 0

# MOE 2024.06 (io_trps.svl 2023.06)
