@<TRIPOS>MOLECULE
NONAME
42 43 1 0 0 
SMALL
USER_CHARGES


@<TRIPOS>ATOM
  1 BR       0.1370     0.1850    -1.0930 Br    1 <1>  -0.1110 
  2 C        1.8510    -0.5800    -0.6620 C.ar  1 <1>   0.1110 
  3 C        2.5250    -1.2920    -1.6350 C.ar  1 <1>  -0.1500 
  4 C        2.3600    -0.3970     0.6100 C.ar  1 <1>  -0.1500 
  5 C        3.7570    -1.8380    -1.3170 C.ar  1 <1>  -0.1500 
  6 C        3.5930    -0.9470     0.9190 C.ar  1 <1>  -0.1500 
  7 C        4.2960    -1.6680    -0.0480 C.ar  1 <1>   0.0830 
  8 O        5.5100    -2.2320     0.1700 O.3   1 <1>  -0.3630 
  9 C        6.1920    -2.0590     1.4050 C.3   1 <1>   0.1810 
 10 C        7.5690    -2.7180     1.3830 C.2   1 <1>   0.5690 
 11 O        7.7600    -3.6040     2.1850 O.2   1 <1>  -0.5700 
 12 N        8.5600    -2.3030     0.5190 N.am  1 <1>  -0.6600 
 13 C        8.4020    -1.2300    -0.5030 C.3   1 <1>   0.1400 
 14 C        9.9000    -2.9520     0.5170 C.3   1 <1>   0.1400 
 15 C        9.4690    -0.1560    -0.2820 C.3   1 <1>  -0.1600 
 16 C       10.9820    -1.8950     0.7490 C.3   1 <1>  -0.1600 
 17 C       10.8930    -0.7520    -0.2800 C.3   1 <1>  -0.0190 
 18 C       11.9750     0.2970    -0.0300 C.2   1 <1>   0.6590 
 19 O       11.7300     1.3980     0.3940 O.2   1 <1>  -0.5700 
 20 O       13.2130    -0.0850    -0.3140 O.3   1 <1>  -0.4300 
 21 C       14.3100     0.7780    -0.1240 C.3   1 <1>   0.1200 
 22 C       15.5760     0.0300    -0.5290 C.3   1 <1>  -0.2400 
 23 H        2.0970    -1.4160    -2.6130 H     1 <1>   0.1500 
 24 H        1.8010     0.1620     1.3390 H     1 <1>   0.1500 
 25 H        4.3070    -2.4000    -2.0500 H     1 <1>   0.1500 
 26 H        3.9820    -0.8060     1.9090 H     1 <1>   0.1500 
 27 H        5.5970    -2.5080     2.1790 H     1 <1>   0.0800 
 28 H        6.3040    -1.0080     1.5930 H     1 <1>   0.0800 
 29 H        7.4300    -0.7760    -0.4530 H     1 <1>   0.0800 
 30 H        8.5130    -1.6640    -1.4820 H     1 <1>   0.0800 
 31 H       10.0530    -3.4370    -0.4320 H     1 <1>   0.0800 
 32 H        9.9630    -3.7040     1.2860 H     1 <1>   0.0800 
 33 H        9.2780     0.3350     0.6570 H     1 <1>   0.0800 
 34 H        9.3900     0.5860    -1.0570 H     1 <1>   0.0800 
 35 H       11.9480    -2.3650     0.6880 H     1 <1>   0.0800 
 36 H       10.8730    -1.5000     1.7440 H     1 <1>   0.0800 
 37 H       11.0790    -1.1640    -1.2560 H     1 <1>   0.0800 
 38 H       14.3440     1.0620     0.9150 H     1 <1>   0.0800 
 39 H       14.1650     1.6540    -0.7330 H     1 <1>   0.0800 
 40 H       15.7000    -0.8470     0.0800 H     1 <1>   0.0800 
 41 H       16.4320     0.6660    -0.3920 H     1 <1>   0.0800 
 42 H       15.5230    -0.2540    -1.5650 H     1 <1>   0.0800 
@<TRIPOS>BOND
  1   1   2  1   
  2   2   3  ar  
  3   2   4  ar  
  4   3   5  ar  
  5   3  23  1   
  6   4   6  ar  
  7   4  24  1   
  8   5   7  ar  
  9   5  25  1   
 10   6   7  ar  
 11   6  26  1   
 12   7   8  1   
 13   8   9  1   
 14   9  10  1   
 15   9  27  1   
 16   9  28  1   
 17  10  11  2   
 18  10  12  am  
 19  12  13  1   
 20  12  14  1   
 21  13  15  1   
 22  13  29  1   
 23  13  30  1   
 24  14  16  1   
 25  14  31  1   
 26  14  32  1   
 27  15  17  1   
 28  15  33  1   
 29  15  34  1   
 30  16  17  1   
 31  16  35  1   
 32  16  36  1   
 33  17  18  1   
 34  17  37  1   
 35  18  19  2   
 36  18  20  1   
 37  20  21  1   
 38  21  22  1   
 39  21  38  1   
 40  21  39  1   
 41  22  40  1   
 42  22  41  1   
 43  22  42  1   
@<TRIPOS>SUBSTRUCTURE
  1 ****  13 GROUP 4 **** **** 0

# MOE 2024.06 (io_trps.svl 2023.06)
