@<TRIPOS>MOLECULE
NONAME
37 39 1 0 0 
SMALL
USER_CHARGES


@<TRIPOS>ATOM
  1 O       -1.0600    -1.3130    -1.3880 O.co2 1 <1>  -0.9000 
  2 C       -1.6270    -1.5100    -0.3120 C.2   1 <1>   0.9060 
  3 O       -1.1800    -2.3170     0.5120 O.co2 1 <1>  -0.9000 
  4 C       -2.8590    -0.7150     0.0830 C.3   1 <1>  -0.1860 
  5 C       -4.1720    -1.4250     0.6010 C.3   1 <1>  -0.0190 
  6 C       -3.3830     0.2250    -1.0210 C.3   1 <1>   0.0580 
  7 C       -4.4190    -2.9450     0.5620 C.2   1 <1>   0.5690 
  8 C       -5.2700    -0.7000    -0.2190 C.3   1 <1>   0.0580 
  9 C       -3.9850    -0.6330    -2.1170 C.2   1 <1>  -0.2880 
 10 C       -4.6770     0.6980    -0.3670 C.3   1 <1>  -0.1600 
 11 O       -5.5520    -3.3150     0.7850 O.2   1 <1>  -0.5700 
 12 N       -3.4040    -3.8310     0.3500 N.am  1 <1>  -0.5470 
 13 C       -5.1080    -1.1680    -1.6510 C.2   1 <1>  -0.2880 
 14 C       -3.3350    -5.2250     0.2200 C.ar  1 <1>   0.1170 
 15 C       -4.4480    -6.0570     0.1540 C.ar  1 <1>  -0.1500 
 16 C       -2.0720    -5.7970     0.1450 C.ar  1 <1>  -0.1500 
 17 C       -4.3010    -7.4340     0.0280 C.ar  1 <1>   0.0820 
 18 C       -1.9150    -7.1660     0.0170 C.ar  1 <1>  -0.1500 
 19 O       -5.3440    -8.3020    -0.0350 O.3   1 <1>  -0.3630 
 20 C       -3.0300    -7.9830    -0.0400 C.ar  1 <1>  -0.1500 
 21 C       -6.6730    -7.8370     0.0510 C.3   1 <1>   0.0400 
 22 H       -2.5060    -0.0890     0.8810 H     1 <1>   0.0800 
 23 H       -4.2940    -1.1460     1.6310 H     1 <1>   0.0800 
 24 H       -2.7130     1.0010    -1.3490 H     1 <1>   0.0800 
 25 H       -6.2720    -0.7390     0.1720 H     1 <1>   0.0800 
 26 H       -3.4710    -0.7400    -3.0580 H     1 <1>   0.1500 
 27 H       -4.5220     1.1970     0.5740 H     1 <1>   0.0800 
 28 H       -5.2590     1.3180    -1.0280 H     1 <1>   0.0800 
 29 H       -2.4690    -3.3820     0.3400 H     1 <1>   0.3700 
 30 H       -5.8130    -1.8500    -2.0940 H     1 <1>   0.1500 
 31 H       -5.4200    -5.6130     0.2000 H     1 <1>   0.1500 
 32 H       -1.2070    -5.1540     0.1870 H     1 <1>   0.1500 
 33 H       -0.9280    -7.5880    -0.0380 H     1 <1>   0.1500 
 34 H       -2.9230    -9.0470    -0.1380 H     1 <1>   0.1500 
 35 H       -7.3300    -8.6860    -0.0050 H     1 <1>   0.0800 
 36 H       -6.8630    -7.1700    -0.7720 H     1 <1>   0.0800 
 37 H       -6.8060    -7.3320     0.9920 H     1 <1>   0.0800 
@<TRIPOS>BOND
  1   1   2  ar  
  2   2   3  ar  
  3   2   4  1   
  4   4   5  1   
  5   4   6  1   
  6   4  22  1   
  7   5   7  1   
  8   5   8  1   
  9   5  23  1   
 10   6   9  1   
 11   6  10  1   
 12   6  24  1   
 13   7  11  2   
 14   7  12  am  
 15   8  10  1   
 16   8  13  1   
 17   8  25  1   
 18   9  13  2   
 19   9  26  1   
 20  10  27  1   
 21  10  28  1   
 22  12  14  1   
 23  12  29  1   
 24  13  30  1   
 25  14  15  ar  
 26  14  16  ar  
 27  15  17  ar  
 28  15  31  1   
 29  16  18  ar  
 30  16  32  1   
 31  17  19  1   
 32  17  20  ar  
 33  18  20  ar  
 34  18  33  1   
 35  19  21  1   
 36  20  34  1   
 37  21  35  1   
 38  21  36  1   
 39  21  37  1   
@<TRIPOS>SUBSTRUCTURE
  1 ****  12 GROUP 4 **** **** 0

# MOE 2024.06 (io_trps.svl 2023.06)
