@<TRIPOS>MOLECULE
NONAME
54 57 1 0 0 
SMALL
USER_CHARGES


@<TRIPOS>ATOM
  1 O       -5.2800    -4.5310     0.6390 O.3   1 <1>  -0.3630 
  2 C       -4.2800    -3.6750     0.8770 C.ar  1 <1>   0.0820 
  3 C       -6.4660    -3.9290     1.1560 C.3   1 <1>   0.4000 
  4 C       -4.7550    -2.5660     1.5150 C.ar  1 <1>   0.0820 
  5 C       -2.9450    -3.8150     0.5590 C.ar  1 <1>  -0.1500 
  6 O       -6.0750    -2.6730     1.7080 O.3   1 <1>  -0.3630 
  7 C       -3.9200    -1.5270     1.8740 C.ar  1 <1>  -0.1500 
  8 C       -2.0800    -2.7770     0.9120 C.ar  1 <1>   0.0820 
  9 C       -2.5710    -1.6470     1.5640 C.ar  1 <1>  -0.1500 
 10 O       -0.7460    -2.7950     0.6540 O.3   1 <1>  -0.3630 
 11 C       -0.1410    -3.9100     0.0250 C.3   1 <1>   0.1200 
 12 C        1.3620    -3.6460    -0.1340 C.3   1 <1>   0.2000 
 13 O        1.5160    -2.4060    -0.7470 O.3   1 <1>  -0.6800 
 14 C        2.0550    -4.7490    -0.9640 C.3   1 <1>   0.1100 
 15 N        3.5360    -4.7880    -0.8330 N.3   1 <1>  -0.8100 
 16 C        4.0900    -5.9900    -1.5000 C.3   1 <1>   0.1100 
 17 C        4.1830    -3.5550    -1.3630 C.3   1 <1>   0.1100 
 18 C        5.6210    -6.1180    -1.3080 C.3   1 <1>   0.3430 
 19 C        5.7240    -3.6580    -1.4480 C.3   1 <1>   0.3430 
 20 N        6.2050    -4.8680    -0.7150 N.4   1 <1>  -0.9590 
 21 C        7.6740    -4.9230    -0.5110 C.3   1 <1>   0.4860 
 22 C        8.0020    -6.1230     0.3550 C.ar  1 <1>  -0.1430 
 23 C        7.6800    -6.1230     1.7060 C.ar  1 <1>  -0.1500 
 24 C        8.6180    -7.2360    -0.1990 C.ar  1 <1>  -0.1500 
 25 C        7.9620    -7.2280     2.4890 C.ar  1 <1>  -0.1500 
 26 C        8.8990    -8.3400     0.5860 C.ar  1 <1>  -0.1500 
 27 C        8.5700    -8.3370     1.9290 C.ar  1 <1>  -0.1500 
 28 H       -6.8780    -4.5510     1.9310 H     1 <1>   0.0800 
 29 H       -7.1680    -3.7690     0.3570 H     1 <1>   0.0800 
 30 H       -2.6250    -4.7060     0.0560 H     1 <1>   0.1500 
 31 H       -4.3120    -0.6610     2.3760 H     1 <1>   0.1500 
 32 H       -1.8900    -0.8590     1.8280 H     1 <1>   0.1500 
 33 H       -0.6000    -4.0490    -0.9390 H     1 <1>   0.0800 
 34 H       -0.3060    -4.7780     0.6380 H     1 <1>   0.0800 
 35 H        1.8100    -3.5980     0.8430 H     1 <1>   0.0800 
 36 H        0.8620    -1.7910    -0.3480 H     1 <1>   0.4000 
 37 H        1.7740    -4.6430    -1.9990 H     1 <1>   0.0800 
 38 H        1.6730    -5.6950    -0.6210 H     1 <1>   0.0800 
 39 H        3.8700    -5.9520    -2.5540 H     1 <1>   0.0800 
 40 H        3.6200    -6.8750    -1.1040 H     1 <1>   0.0800 
 41 H        3.9500    -2.7300    -0.7130 H     1 <1>   0.0800 
 42 H        3.7870    -3.3150    -2.3360 H     1 <1>   0.0800 
 43 H        6.0820    -6.3340    -2.2570 H     1 <1>   0.0800 
 44 H        5.8180    -6.9520    -0.6520 H     1 <1>   0.0800 
 45 H        6.1570    -2.7650    -1.0290 H     1 <1>   0.0800 
 46 H        6.0170    -3.7150    -2.4830 H     1 <1>   0.0800 
 47 H        5.7460    -4.8130     0.2050 H     1 <1>   0.4500 
 48 H        8.0140    -4.0250    -0.0210 H     1 <1>   0.0800 
 49 H        8.1790    -5.0080    -1.4590 H     1 <1>   0.0800 
 50 H        7.2110    -5.2690     2.1660 H     1 <1>   0.1500 
 51 H        8.8880    -7.2600    -1.2410 H     1 <1>   0.1500 
 52 H        7.7120    -7.2280     3.5370 H     1 <1>   0.1500 
 53 H        9.3780    -9.2040     0.1560 H     1 <1>   0.1500 
 54 H        8.7900    -9.1960     2.5400 H     1 <1>   0.1500 
@<TRIPOS>BOND
  1   1   2  1   
  2   1   3  1   
  3   2   4  ar  
  4   2   5  ar  
  5   3   6  1   
  6   3  28  1   
  7   3  29  1   
  8   4   6  1   
  9   4   7  ar  
 10   5   8  ar  
 11   5  30  1   
 12   7   9  ar  
 13   7  31  1   
 14   8   9  ar  
 15   8  10  1   
 16   9  32  1   
 17  10  11  1   
 18  11  12  1   
 19  11  33  1   
 20  11  34  1   
 21  12  13  1   
 22  12  14  1   
 23  12  35  1   
 24  13  36  1   
 25  14  15  1   
 26  14  37  1   
 27  14  38  1   
 28  15  16  1   
 29  15  17  1   
 30  16  18  1   
 31  16  39  1   
 32  16  40  1   
 33  17  19  1   
 34  17  41  1   
 35  17  42  1   
 36  18  20  1   
 37  18  43  1   
 38  18  44  1   
 39  19  20  1   
 40  19  45  1   
 41  19  46  1   
 42  20  21  1   
 43  20  47  1   
 44  21  22  1   
 45  21  48  1   
 46  21  49  1   
 47  22  23  ar  
 48  22  24  ar  
 49  23  25  ar  
 50  23  50  1   
 51  24  26  ar  
 52  24  51  1   
 53  25  27  ar  
 54  25  52  1   
 55  26  27  ar  
 56  26  53  1   
 57  27  54  1   
@<TRIPOS>SUBSTRUCTURE
  1 ****  12 GROUP 4 **** **** 0

# MOE 2024.06 (io_trps.svl 2023.06)
