@<TRIPOS>MOLECULE
NONAME
35 35 1 0 0 
SMALL
USER_CHARGES


@<TRIPOS>ATOM
  1 CL       0.5480    -0.0040    -2.3790 Cl    1 <1>  -0.1770 
  2 C        1.1880     1.3390    -1.4700 C.ar  1 <1>   0.1770 
  3 C        2.3900     1.1920    -0.8060 C.ar  1 <1>  -0.1500 
  4 C        0.4720     2.5190    -1.4270 C.ar  1 <1>  -0.1500 
  5 C        2.9020     2.2610    -0.0790 C.ar  1 <1>   0.0830 
  6 C        0.9740     3.5960    -0.7100 C.ar  1 <1>  -0.1440 
  7 O        4.0560     2.1660     0.6400 O.3   1 <1>  -0.3620 
  8 C        2.1990     3.4740    -0.0590 C.ar  1 <1>   0.0830 
  9 C        0.1950     4.8920    -0.6270 C.3   1 <1>   0.4870 
 10 C        4.7920     0.9630     0.7120 C.3   1 <1>   0.0400 
 11 O        2.6550     4.5610     0.6240 O.3   1 <1>  -0.3630 
 12 N       -0.0770     5.1480     0.8030 N.4   1 <1>  -0.9060 
 13 C        3.8900     5.1340     0.2390 C.3   1 <1>   0.2000 
 14 C       -0.7130     6.4640     1.0810 C.3   1 <1>   0.2630 
 15 C        4.5240     5.7310     1.4920 C.3   1 <1>  -0.2400 
 16 C        3.6140     6.2030    -0.8170 C.3   1 <1>  -0.2400 
 17 H        2.8930     0.2460    -0.8700 H     1 <1>   0.1500 
 18 H       -0.4650     2.5720    -1.9550 H     1 <1>   0.1500 
 19 H       -0.7270     4.8140    -1.1800 H     1 <1>   0.0800 
 20 H        0.7880     5.6920    -1.0420 H     1 <1>   0.0800 
 21 H        5.6450     1.1310     1.3450 H     1 <1>   0.0800 
 22 H        5.1220     0.6920    -0.2760 H     1 <1>   0.0800 
 23 H        4.1710     0.1940     1.1360 H     1 <1>   0.0800 
 24 H        0.8540     5.0830     1.2560 H     1 <1>   0.4500 
 25 H       -0.6220     4.3650     1.1830 H     1 <1>   0.4500 
 26 H        4.5360     4.3750    -0.1680 H     1 <1>   0.0800 
 27 H       -0.0940     7.2660     0.7120 H     1 <1>   0.0800 
 28 H       -0.8450     6.5960     2.1440 H     1 <1>   0.0800 
 29 H       -1.6790     6.5240     0.6060 H     1 <1>   0.0800 
 30 H        3.8920     6.4890     1.9190 H     1 <1>   0.0800 
 31 H        5.4720     6.1740     1.2460 H     1 <1>   0.0800 
 32 H        4.6950     4.9550     2.2170 H     1 <1>   0.0800 
 33 H        2.9590     6.9620    -0.4320 H     1 <1>   0.0800 
 34 H        3.1860     5.7560    -1.6960 H     1 <1>   0.0800 
 35 H        4.5400     6.6700    -1.1040 H     1 <1>   0.0800 
@<TRIPOS>BOND
  1   1   2  1   
  2   2   3  ar  
  3   2   4  ar  
  4   3   5  ar  
  5   3  17  1   
  6   4   6  ar  
  7   4  18  1   
  8   5   7  1   
  9   5   8  ar  
 10   6   8  ar  
 11   6   9  1   
 12   7  10  1   
 13   8  11  1   
 14   9  12  1   
 15   9  19  1   
 16   9  20  1   
 17  10  21  1   
 18  10  22  1   
 19  10  23  1   
 20  11  13  1   
 21  12  14  1   
 22  12  24  1   
 23  12  25  1   
 24  13  15  1   
 25  13  16  1   
 26  13  26  1   
 27  14  27  1   
 28  14  28  1   
 29  14  29  1   
 30  15  30  1   
 31  15  31  1   
 32  15  32  1   
 33  16  33  1   
 34  16  34  1   
 35  16  35  1   
@<TRIPOS>SUBSTRUCTURE
  1 ****   8 GROUP 4 **** **** 0

# MOE 2024.06 (io_trps.svl 2023.06)
