@<TRIPOS>MOLECULE
NONAME
34 36 1 0 0 
SMALL
USER_CHARGES


@<TRIPOS>ATOM
  1 S       -3.1260    -5.0800    -0.3950 S.3   1 <1>  -0.0800 
  2 C       -1.4400    -5.3940    -0.7820 C.ar  1 <1>   0.2970 
  3 C       -2.7430    -3.4760     0.2300 C.2   1 <1>  -0.1400 
  4 N       -1.0440    -6.5250    -1.3250 N.ar  1 <1>  -0.5670 
  5 C       -0.6520    -4.3200    -0.4390 C.ar  1 <1>   0.0000 
  6 C       -1.4200    -3.2300     0.1380 C.2   1 <1>  -0.1810 
  7 C       -3.9360    -2.6910     0.7420 C.3   1 <1>  -0.0600 
  8 C        0.2570    -6.5510    -1.5300 C.ar  1 <1>   0.4700 
  9 C        0.7100    -4.5020    -0.7150 C.ar  1 <1>   0.4100 
 10 C       -0.7510    -1.9370     0.5820 C.3   1 <1>  -0.0590 
 11 N        1.1580    -5.6190    -1.2610 N.ar  1 <1>  -0.6200 
 12 N        1.6390    -3.5370    -0.4270 N.pl3 1 <1>  -0.8690 
 13 C        3.1020    -3.6550    -0.5470 C.3   1 <1>   0.2890 
 14 C        3.6930    -3.7770     0.8510 C.3   1 <1>  -0.1600 
 15 C        3.6490    -2.3230    -1.0420 C.3   1 <1>  -0.1600 
 16 C        3.7510    -2.3490     1.4080 C.3   1 <1>  -0.1600 
 17 C        3.7290    -1.4150     0.1910 C.3   1 <1>  -0.1600 
 18 H       -4.4140    -3.2360     1.5360 H     1 <1>   0.0800 
 19 H       -4.6440    -2.5490    -0.0540 H     1 <1>   0.0800 
 20 H       -3.6430    -1.7290     1.1150 H     1 <1>   0.0800 
 21 H        0.6410    -7.4530    -1.9760 H     1 <1>   0.1500 
 22 H       -1.4700    -1.2310     0.9530 H     1 <1>   0.0800 
 23 H       -0.2410    -1.4840    -0.2500 H     1 <1>   0.0800 
 24 H       -0.0460    -2.1400     1.3680 H     1 <1>   0.0800 
 25 H        1.3420    -2.7300     0.1150 H     1 <1>   0.4000 
 26 H        3.3810    -4.4750    -1.1880 H     1 <1>   0.0800 
 27 H        4.6930    -4.1610     0.7640 H     1 <1>   0.0800 
 28 H        3.1210    -4.4450     1.4710 H     1 <1>   0.0800 
 29 H        3.0450    -1.9080    -1.8300 H     1 <1>   0.0800 
 30 H        4.6420    -2.4860    -1.4220 H     1 <1>   0.0800 
 31 H        4.6380    -2.2050     2.0010 H     1 <1>   0.0800 
 32 H        2.8880    -2.1630     2.0250 H     1 <1>   0.0800 
 33 H        2.8610    -0.7800     0.2360 H     1 <1>   0.0800 
 34 H        4.6100    -0.7960     0.1540 H     1 <1>   0.0800 
@<TRIPOS>BOND
  1   1   2  1   
  2   1   3  1   
  3   2   4  ar  
  4   2   5  ar  
  5   3   6  2   
  6   3   7  1   
  7   4   8  ar  
  8   5   6  1   
  9   5   9  ar  
 10   6  10  1   
 11   7  18  1   
 12   7  19  1   
 13   7  20  1   
 14   8  11  ar  
 15   8  21  1   
 16   9  11  ar  
 17   9  12  1   
 18  10  22  1   
 19  10  23  1   
 20  10  24  1   
 21  12  13  1   
 22  12  25  1   
 23  13  14  1   
 24  13  15  1   
 25  13  26  1   
 26  14  16  1   
 27  14  27  1   
 28  14  28  1   
 29  15  17  1   
 30  15  29  1   
 31  15  30  1   
 32  16  17  1   
 33  16  31  1   
 34  16  32  1   
 35  17  33  1   
 36  17  34  1   
@<TRIPOS>SUBSTRUCTURE
  1 ****   9 GROUP 4 **** **** 0

# MOE 2024.06 (io_trps.svl 2023.06)
