@<TRIPOS>MOLECULE
NONAME
35 36 1 0 0 
SMALL
USER_CHARGES


@<TRIPOS>ATOM
  1 I       -1.1760    -2.1660     2.9010 I     1 <1>  -0.0810 
  2 C       -0.0520    -2.3840     1.1060 C.ar  1 <1>   0.0810 
  3 C        1.1440    -3.0740     1.1520 C.ar  1 <1>  -0.1500 
  4 C       -0.5510    -1.8250    -0.0550 C.ar  1 <1>  -0.1500 
  5 C        1.8860    -3.2220    -0.0160 C.ar  1 <1>   0.1170 
  6 C        0.1880    -1.9690    -1.2160 C.ar  1 <1>  -0.1500 
  7 N        3.1150    -3.9000    -0.0690 N.am  1 <1>  -0.5470 
  8 C        1.3910    -2.6590    -1.1910 C.ar  1 <1>  -0.1500 
  9 C        3.7230    -4.7510     0.8120 C.2   1 <1>   0.5690 
 10 O        3.2440    -5.0980     1.8620 O.2   1 <1>  -0.5700 
 11 C        5.0850    -5.2980     0.4280 C.3   1 <1>  -0.0990 
 12 C        6.1680    -4.2060     0.4210 C.3   1 <1>  -0.1600 
 13 C        7.5270    -4.7730    -0.0010 C.3   1 <1>   0.1400 
 14 N        8.5080    -3.6760    -0.1360 N.am  1 <1>  -0.4200 
 15 C        8.5770    -2.8470    -1.2100 C.2   1 <1>   0.5690 
 16 C        9.4610    -3.3790     0.7850 C.2   1 <1>   0.5690 
 17 O        7.8500    -2.8780    -2.1700 O.2   1 <1>  -0.5700 
 18 C        9.7000    -1.8490    -1.0460 C.3   1 <1>  -0.0990 
 19 O        9.6360    -3.9500     1.8300 O.2   1 <1>  -0.5700 
 20 C       10.3030    -2.2100     0.3260 C.3   1 <1>  -0.0990 
 21 H        1.4850    -3.4820     2.0850 H     1 <1>   0.1500 
 22 H       -1.4860    -1.2940    -0.0540 H     1 <1>   0.1500 
 23 H       -0.1720    -1.5440    -2.1380 H     1 <1>   0.1500 
 24 H        3.6420    -3.7370    -0.9250 H     1 <1>   0.3700 
 25 H        1.9500    -2.7610    -2.1030 H     1 <1>   0.1500 
 26 H        5.0090    -5.7530    -0.5420 H     1 <1>   0.0800 
 27 H        5.3540    -6.0660     1.1320 H     1 <1>   0.0800 
 28 H        6.2500    -3.7830     1.4080 H     1 <1>   0.0800 
 29 H        5.8820    -3.4260    -0.2630 H     1 <1>   0.0800 
 30 H        7.4400    -5.2760    -0.9490 H     1 <1>   0.0800 
 31 H        7.8770    -5.4830     0.7300 H     1 <1>   0.0800 
 32 H        9.3070    -0.8490    -1.0560 H     1 <1>   0.0800 
 33 H       10.4170    -1.9730    -1.8380 H     1 <1>   0.0800 
 34 H       11.3310    -2.5120     0.2410 H     1 <1>   0.0800 
 35 H       10.2120    -1.3980     1.0250 H     1 <1>   0.0800 
@<TRIPOS>BOND
  1   1   2  1   
  2   2   3  ar  
  3   2   4  ar  
  4   3   5  ar  
  5   3  21  1   
  6   4   6  ar  
  7   4  22  1   
  8   5   7  1   
  9   5   8  ar  
 10   6   8  ar  
 11   6  23  1   
 12   7   9  am  
 13   7  24  1   
 14   8  25  1   
 15   9  10  2   
 16   9  11  1   
 17  11  12  1   
 18  11  26  1   
 19  11  27  1   
 20  12  13  1   
 21  12  28  1   
 22  12  29  1   
 23  13  14  1   
 24  13  30  1   
 25  13  31  1   
 26  14  15  am  
 27  14  16  am  
 28  15  17  2   
 29  15  18  1   
 30  16  19  2   
 31  16  20  1   
 32  18  20  1   
 33  18  32  1   
 34  18  33  1   
 35  20  34  1   
 36  20  35  1   
@<TRIPOS>SUBSTRUCTURE
  1 ****  12 GROUP 4 **** **** 0

# MOE 2024.06 (io_trps.svl 2023.06)
