@<TRIPOS>MOLECULE
NONAME
41 43 1 0 0 
SMALL
USER_CHARGES


@<TRIPOS>ATOM
  1 S       -6.4980    -3.9320    -1.3500 S.3   1 <1>  -0.0800 
  2 C       -4.9710    -4.8030    -1.3700 C.ar  1 <1>   0.2970 
  3 C       -5.8780    -2.7590    -0.1880 C.2   1 <1>  -0.1400 
  4 N       -4.7770    -5.8740    -2.1090 N.ar  1 <1>  -0.5670 
  5 C       -4.0610    -4.2090    -0.5280 C.ar  1 <1>   0.0000 
  6 C       -4.6000    -3.0400     0.1390 C.2   1 <1>  -0.1810 
  7 C       -6.8640    -1.6800     0.2200 C.3   1 <1>  -0.0600 
  8 C       -3.5660    -6.3690    -1.9750 C.ar  1 <1>   0.4700 
  9 C       -2.8180    -4.8520    -0.4930 C.ar  1 <1>   0.4100 
 10 C       -3.7540    -2.2350     1.1130 C.3   1 <1>  -0.0590 
 11 N       -2.5670    -5.9320    -1.2150 N.ar  1 <1>  -0.6200 
 12 N       -1.7700    -4.4210     0.2860 N.pl3 1 <1>  -0.8380 
 13 C       -1.4180    -5.2690     1.4620 C.3   1 <1>   0.2090 
 14 C       -0.6010    -3.8330    -0.4290 C.3   1 <1>   0.2090 
 15 C       -0.3600    -6.3300     1.0860 C.3   1 <1>   0.3430 
 16 C        0.4460    -4.9160    -0.7730 C.3   1 <1>   0.3430 
 17 N        0.8630    -5.7310     0.4320 N.4   1 <1>  -0.9590 
 18 C        1.8280    -6.8200     0.0690 C.3   1 <1>   0.3430 
 19 C        3.1980    -6.2850    -0.3720 C.3   1 <1>   0.1200 
 20 O        4.0180    -7.3740    -0.6010 O.3   1 <1>  -0.6800 
 21 H       -7.1730    -1.1240    -0.6470 H     1 <1>   0.0800 
 22 H       -6.4300    -0.9990     0.9270 H     1 <1>   0.0800 
 23 H       -7.7310    -2.1310     0.6670 H     1 <1>   0.0800 
 24 H       -3.3600    -7.2490    -2.5620 H     1 <1>   0.1500 
 25 H       -4.2990    -1.4030     1.5150 H     1 <1>   0.0800 
 26 H       -2.8820    -1.8560     0.6130 H     1 <1>   0.0800 
 27 H       -3.4440    -2.8610     1.9300 H     1 <1>   0.0800 
 28 H       -2.3040    -5.7670     1.8210 H     1 <1>   0.0800 
 29 H       -1.0500    -4.6450     2.2570 H     1 <1>   0.0800 
 30 H       -0.1550    -3.0680     0.1830 H     1 <1>   0.0800 
 31 H       -0.9380    -3.3660    -1.3400 H     1 <1>   0.0800 
 32 H       -0.8220    -7.0290     0.4070 H     1 <1>   0.0800 
 33 H       -0.0760    -6.8720     1.9730 H     1 <1>   0.0800 
 34 H        1.3050    -4.4420    -1.2170 H     1 <1>   0.0800 
 35 H        0.0110    -5.5700    -1.5120 H     1 <1>   0.0800 
 36 H        1.3020    -5.1020     1.1160 H     1 <1>   0.4500 
 37 H        1.4150    -7.4190    -0.7260 H     1 <1>   0.0800 
 38 H        1.9820    -7.4580     0.9240 H     1 <1>   0.0800 
 39 H        3.6490    -5.6890     0.4030 H     1 <1>   0.0800 
 40 H        3.1280    -5.7260    -1.2880 H     1 <1>   0.0800 
 41 H        4.9230    -7.1050    -0.8700 H     1 <1>   0.4000 
@<TRIPOS>BOND
  1   1   2  1   
  2   1   3  1   
  3   2   4  ar  
  4   2   5  ar  
  5   3   6  2   
  6   3   7  1   
  7   4   8  ar  
  8   5   6  1   
  9   5   9  ar  
 10   6  10  1   
 11   7  21  1   
 12   7  22  1   
 13   7  23  1   
 14   8  11  ar  
 15   8  24  1   
 16   9  11  ar  
 17   9  12  1   
 18  10  25  1   
 19  10  26  1   
 20  10  27  1   
 21  12  13  1   
 22  12  14  1   
 23  13  15  1   
 24  13  28  1   
 25  13  29  1   
 26  14  16  1   
 27  14  30  1   
 28  14  31  1   
 29  15  17  1   
 30  15  32  1   
 31  15  33  1   
 32  16  17  1   
 33  16  34  1   
 34  16  35  1   
 35  17  18  1   
 36  17  36  1   
 37  18  19  1   
 38  18  37  1   
 39  18  38  1   
 40  19  20  1   
 41  19  39  1   
 42  19  40  1   
 43  20  41  1   
@<TRIPOS>SUBSTRUCTURE
  1 ****   9 GROUP 4 **** **** 0

# MOE 2024.06 (io_trps.svl 2023.06)
