@<TRIPOS>MOLECULE
NONAME
38 40 1 0 0 
SMALL
USER_CHARGES


@<TRIPOS>ATOM
  1 O        1.8980    -1.3970    -1.6850 O.co2 1 <1>  -0.9000 
  2 C        1.2240    -2.4180    -1.5380 C.2   1 <1>   0.9060 
  3 O        1.7230    -3.5490    -1.4770 O.co2 1 <1>  -0.9000 
  4 C       -0.2700    -2.2890    -1.4190 C.3   1 <1>  -0.2660 
  5 C       -0.8570    -2.9580    -0.1590 C.3   1 <1>   0.2800 
  6 O       -0.4720    -4.2780    -0.2290 O.3   1 <1>  -0.6800 
  7 C       -2.4390    -2.8960    -0.0780 C.3   1 <1>   0.0000 
  8 C       -0.1530    -2.4010     1.0930 C.3   1 <1>  -0.2400 
  9 C       -2.9610    -1.4340     0.0140 C.3   1 <1>  -0.1600 
 10 C       -3.1040    -3.5430    -1.3300 C.3   1 <1>  -0.1600 
 11 C       -2.9830    -3.6570     1.1680 C.3   1 <1>  -0.1600 
 12 C       -4.5010    -1.3790     0.0910 C.3   1 <1>  -0.0800 
 13 C       -4.6410    -3.5000    -1.2590 C.3   1 <1>  -0.0800 
 14 C       -4.5200    -3.6150     1.2490 C.3   1 <1>  -0.0800 
 15 C       -5.0980    -2.0340    -1.1670 C.3   1 <1>  -0.1600 
 16 C       -4.9780    -2.1480     1.3350 C.3   1 <1>  -0.1600 
 17 C       -5.1120    -4.2650    -0.0120 C.3   1 <1>  -0.1600 
 18 H       -0.6780    -2.7180    -2.3090 H     1 <1>   0.0800 
 19 H       -0.4980    -1.2420    -1.4180 H     1 <1>   0.0800 
 20 H        0.4430    -4.2710    -0.6400 H     1 <1>   0.4000 
 21 H       -0.4690    -2.9080     1.9820 H     1 <1>   0.0800 
 22 H        0.9130    -2.5230     1.0200 H     1 <1>   0.0800 
 23 H       -0.3480    -1.3510     1.1990 H     1 <1>   0.0800 
 24 H       -2.6420    -0.8740    -0.8460 H     1 <1>   0.0800 
 25 H       -2.5570    -0.9520     0.8840 H     1 <1>   0.0800 
 26 H       -2.8030    -3.0280    -2.2230 H     1 <1>   0.0800 
 27 H       -2.7790    -4.5640    -1.4230 H     1 <1>   0.0800 
 28 H       -2.5960    -3.2250     2.0710 H     1 <1>   0.0800 
 29 H       -2.6570    -4.6820     1.1350 H     1 <1>   0.0800 
 30 H       -4.8230    -0.3540     0.1530 H     1 <1>   0.0800 
 31 H       -5.0550    -3.9560    -2.1420 H     1 <1>   0.0800 
 32 H       -4.8500    -4.1510     2.1220 H     1 <1>   0.0800 
 33 H       -4.7780    -1.4980    -2.0430 H     1 <1>   0.0800 
 34 H       -6.1720    -1.9890    -1.1280 H     1 <1>   0.0800 
 35 H       -6.0500    -2.1040     1.4030 H     1 <1>   0.0800 
 36 H       -4.5730    -1.6920     2.2220 H     1 <1>   0.0800 
 37 H       -4.7950    -5.2910    -0.0740 H     1 <1>   0.0800 
 38 H       -6.1870    -4.2540     0.0410 H     1 <1>   0.0800 
@<TRIPOS>BOND
  1   1   2  ar  
  2   2   3  ar  
  3   2   4  1   
  4   4   5  1   
  5   4  18  1   
  6   4  19  1   
  7   5   6  1   
  8   5   7  1   
  9   5   8  1   
 10   6  20  1   
 11   7   9  1   
 12   7  10  1   
 13   7  11  1   
 14   8  21  1   
 15   8  22  1   
 16   8  23  1   
 17   9  12  1   
 18   9  24  1   
 19   9  25  1   
 20  10  13  1   
 21  10  26  1   
 22  10  27  1   
 23  11  14  1   
 24  11  28  1   
 25  11  29  1   
 26  12  15  1   
 27  12  16  1   
 28  12  30  1   
 29  13  15  1   
 30  13  17  1   
 31  13  31  1   
 32  14  16  1   
 33  14  17  1   
 34  14  32  1   
 35  15  33  1   
 36  15  34  1   
 37  16  35  1   
 38  16  36  1   
 39  17  37  1   
 40  17  38  1   
@<TRIPOS>SUBSTRUCTURE
  1 ****   7 GROUP 4 **** **** 0

# MOE 2024.06 (io_trps.svl 2023.06)
