@<TRIPOS>MOLECULE
NONAME
56 58 1 0 0 
SMALL
USER_CHARGES


@<TRIPOS>ATOM
  1 S       -0.1500    -0.4300    -1.2010 S.3   1 <1>  -0.0800 
  2 C        1.2660     0.5600    -0.9180 C.2   1 <1>   0.1040 
  3 C       -1.2080     0.7720    -0.4920 C.2   1 <1>  -0.1400 
  4 N        2.5140     0.0730    -1.2790 N.am  1 <1>  -0.4940 
  5 C        0.9220     1.7570    -0.3430 C.2   1 <1>  -0.0860 
  6 C       -0.5060     1.8400    -0.0720 C.2   1 <1>  -0.1810 
  7 C       -2.6840     0.4290    -0.4620 C.3   1 <1>   0.0200 
  8 C        2.9550    -1.0510    -1.9230 C.2   1 <1>   0.5690 
  9 C        1.8890     2.7950    -0.0850 C.2   1 <1>   0.8060 
 10 C       -1.1840     3.0180     0.6270 C.3   1 <1>   0.0210 
 11 C       -3.2660     0.5090     0.9520 C.3   1 <1>  -0.1600 
 12 O        2.2480    -1.8840    -2.4340 O.2   1 <1>  -0.5700 
 13 C        4.4730    -1.2190    -1.9860 C.3   1 <1>   0.1710 
 14 O        1.6340     3.9840    -0.0580 O.2   1 <1>  -0.5700 
 15 O        3.1650     2.4230     0.1080 O.3   1 <1>  -0.4300 
 16 C       -2.0250     2.5900     1.8400 C.3   1 <1>  -0.1600 
 17 C       -3.3750     1.9400     1.4970 C.3   1 <1>  -0.1600 
 18 N        5.2070     0.0810    -1.9490 N.3   1 <1>  -0.9000 
 19 C        4.2090     3.3360     0.3760 C.3   1 <1>   0.1200 
 20 C        6.6370    -0.1010    -1.7380 C.3   1 <1>   0.3330 
 21 C        4.2890     3.5590     1.8840 C.3   1 <1>  -0.2400 
 22 C        6.9270    -0.6310    -0.3350 C.ar  1 <1>  -0.1440 
 23 C        7.3070     1.2500    -1.9420 C.3   1 <1>  -0.2400 
 24 C        6.2370    -0.1610     0.7750 C.ar  1 <1>  -0.1500 
 25 C        7.9020    -1.6020    -0.1550 C.ar  1 <1>  -0.1500 
 26 C        6.5140    -0.6510     2.0390 C.ar  1 <1>  -0.1500 
 27 C        8.1810    -2.0940     1.1080 C.ar  1 <1>  -0.1500 
 28 C        7.4870    -1.6190     2.2060 C.ar  1 <1>  -0.1500 
 29 H        3.3120     0.6600    -1.0030 H     1 <1>   0.3700 
 30 H       -2.8180    -0.5730    -0.8320 H     1 <1>   0.0800 
 31 H       -3.2150     1.0920    -1.1210 H     1 <1>   0.0800 
 32 H       -1.7950     3.5500    -0.0810 H     1 <1>   0.0800 
 33 H       -0.4580     3.7110     0.9990 H     1 <1>   0.0800 
 34 H       -2.6700    -0.0930     1.6180 H     1 <1>   0.0800 
 35 H       -4.2540     0.0820     0.9300 H     1 <1>   0.0800 
 36 H        4.7250    -1.7560    -2.8830 H     1 <1>   0.0800 
 37 H        4.7570    -1.8250    -1.1430 H     1 <1>   0.0800 
 38 H       -2.2280     3.4730     2.4200 H     1 <1>   0.0800 
 39 H       -1.4460     1.9290     2.4610 H     1 <1>   0.0800 
 40 H       -3.9580     1.9010     2.4010 H     1 <1>   0.0800 
 41 H       -3.9140     2.5590     0.8000 H     1 <1>   0.0800 
 42 H        5.0880     0.5350    -2.8640 H     1 <1>   0.3600 
 43 H        4.0320     4.2580    -0.1540 H     1 <1>   0.0800 
 44 H        5.1240     2.9000     0.0140 H     1 <1>   0.0800 
 45 H        7.0190    -0.7930    -2.4720 H     1 <1>   0.0800 
 46 H        3.3810     4.0080     2.2440 H     1 <1>   0.0800 
 47 H        5.1060     4.2220     2.1080 H     1 <1>   0.0800 
 48 H        4.4580     2.6260     2.3910 H     1 <1>   0.0800 
 49 H        6.9360     1.9630    -1.2290 H     1 <1>   0.0800 
 50 H        7.1330     1.6110    -2.9390 H     1 <1>   0.0800 
 51 H        8.3670     1.1490    -1.7970 H     1 <1>   0.0800 
 52 H        5.4750     0.5890     0.6540 H     1 <1>   0.1500 
 53 H        8.4530    -1.9810    -0.9980 H     1 <1>   0.1500 
 54 H        5.9700    -0.2810     2.8900 H     1 <1>   0.1500 
 55 H        8.9400    -2.8470     1.2370 H     1 <1>   0.1500 
 56 H        7.7040    -2.0020     3.1880 H     1 <1>   0.1500 
@<TRIPOS>BOND
  1   1   2  1   
  2   1   3  1   
  3   2   4  1   
  4   2   5  2   
  5   3   6  2   
  6   3   7  1   
  7   4   8  am  
  8   4  29  1   
  9   5   6  1   
 10   5   9  1   
 11   6  10  1   
 12   7  11  1   
 13   7  30  1   
 14   7  31  1   
 15   8  12  2   
 16   8  13  1   
 17   9  14  2   
 18   9  15  1   
 19  10  16  1   
 20  10  32  1   
 21  10  33  1   
 22  11  17  1   
 23  11  34  1   
 24  11  35  1   
 25  13  18  1   
 26  13  36  1   
 27  13  37  1   
 28  15  19  1   
 29  16  17  1   
 30  16  38  1   
 31  16  39  1   
 32  17  40  1   
 33  17  41  1   
 34  18  20  1   
 35  18  42  1   
 36  19  21  1   
 37  19  43  1   
 38  19  44  1   
 39  20  22  1   
 40  20  23  1   
 41  20  45  1   
 42  21  46  1   
 43  21  47  1   
 44  21  48  1   
 45  22  24  ar  
 46  22  25  ar  
 47  23  49  1   
 48  23  50  1   
 49  23  51  1   
 50  24  26  ar  
 51  24  52  1   
 52  25  27  ar  
 53  25  53  1   
 54  26  28  ar  
 55  26  54  1   
 56  27  28  ar  
 57  27  55  1   
 58  28  56  1   
@<TRIPOS>SUBSTRUCTURE
  1 ****   4 GROUP 4 **** **** 0

# MOE 2024.06 (io_trps.svl 2023.06)
