@<TRIPOS>MOLECULE
NONAME
31 31 1 0 0 
SMALL
USER_CHARGES


@<TRIPOS>ATOM
  1 S       -0.0510    -0.1560    -1.0140 S.o2  1 <1>   1.3330 
  2 O       -0.1470     1.2000    -1.4940 O.2   1 <1>  -0.6500 
  3 O       -0.7290    -1.2360    -1.6860 O.2   1 <1>  -0.6500 
  4 N        1.5990    -0.6220    -1.0660 N.am  1 <1>  -0.7570 
  5 C       -0.4200    -0.2350     0.7440 C.3   1 <1>  -0.0550 
  6 C        2.7390     0.0640    -0.6610 C.ar  1 <1>   0.1990 
  7 C       -1.8790     0.0960     1.1030 C.3   1 <1>  -0.2400 
  8 C        2.7040     1.3450    -0.1240 C.ar  1 <1>  -0.1500 
  9 C        3.9700    -0.5640    -0.7860 C.ar  1 <1>  -0.1500 
 10 C        3.8620     1.9790     0.2900 C.ar  1 <1>   0.0820 
 11 C        5.1390     0.0570    -0.3820 C.ar  1 <1>   0.0820 
 12 O        3.7150     3.2250     0.8100 O.3   1 <1>  -0.3630 
 13 C        5.0890     1.3360     0.1620 C.ar  1 <1>  -0.1500 
 14 O        6.2870    -0.6490    -0.5490 O.3   1 <1>  -0.3630 
 15 C        4.8300     4.0080     1.1740 C.3   1 <1>   0.0400 
 16 C        7.5420    -0.1080    -0.1980 C.3   1 <1>   0.0400 
 17 H        1.7030    -1.4740    -1.6080 H     1 <1>   0.4200 
 18 H        0.2220     0.4480     1.2660 H     1 <1>   0.0800 
 19 H       -0.1960    -1.2220     1.1000 H     1 <1>   0.0800 
 20 H       -2.1210     1.0940     0.7810 H     1 <1>   0.0800 
 21 H       -2.0260     0.0290     2.1660 H     1 <1>   0.0800 
 22 H       -2.5460    -0.5950     0.6160 H     1 <1>   0.0800 
 23 H        1.7780     1.8770    -0.0270 H     1 <1>   0.1500 
 24 H        4.0290    -1.5520    -1.2010 H     1 <1>   0.1500 
 25 H        5.9870     1.8210     0.4820 H     1 <1>   0.1500 
 26 H        4.4700     4.9610     1.5180 H     1 <1>   0.0800 
 27 H        5.4570     4.1460     0.3110 H     1 <1>   0.0800 
 28 H        5.3630     3.5120     1.9660 H     1 <1>   0.0800 
 29 H        8.2960    -0.8380    -0.4300 H     1 <1>   0.0800 
 30 H        7.5490     0.1030     0.8560 H     1 <1>   0.0800 
 31 H        7.7100     0.7850    -0.7740 H     1 <1>   0.0800 
@<TRIPOS>BOND
  1   1   2  2   
  2   1   3  2   
  3   1   4  am  
  4   1   5  1   
  5   4   6  1   
  6   4  17  1   
  7   5   7  1   
  8   5  18  1   
  9   5  19  1   
 10   6   8  ar  
 11   6   9  ar  
 12   7  20  1   
 13   7  21  1   
 14   7  22  1   
 15   8  10  ar  
 16   8  23  1   
 17   9  11  ar  
 18   9  24  1   
 19  10  12  1   
 20  10  13  ar  
 21  11  13  ar  
 22  11  14  1   
 23  12  15  1   
 24  13  25  1   
 25  14  16  1   
 26  15  26  1   
 27  15  27  1   
 28  15  28  1   
 29  16  29  1   
 30  16  30  1   
 31  16  31  1   
@<TRIPOS>SUBSTRUCTURE
  1 ****   6 GROUP 4 **** **** 0

# MOE 2024.06 (io_trps.svl 2023.06)
