@<TRIPOS>MOLECULE
NONAME
40 40 1 0 0 
SMALL
USER_CHARGES


@<TRIPOS>ATOM
  1 O       -0.5120     2.4330     1.9060 O.3   1 <1>  -0.6800 
  2 C       -0.3920     2.4720     0.5220 C.3   1 <1>   0.2000 
  3 C       -1.6090     3.2180    -0.0660 C.3   1 <1>  -0.0800 
  4 C       -0.3230     1.0200    -0.0070 C.3   1 <1>   0.3430 
  5 C       -1.7010     4.7140     0.3390 C.3   1 <1>  -0.0800 
  6 C       -2.9150     2.4480     0.2690 C.3   1 <1>  -0.1600 
  7 N       -1.6690     0.3820    -0.3040 N.4   1 <1>  -0.9590 
  8 C       -2.8620     5.4190    -0.3820 C.3   1 <1>  -0.2400 
  9 C       -0.4060     5.4840     0.0320 C.3   1 <1>  -0.2400 
 10 C       -2.7150     0.9610     0.5930 C.3   1 <1>   0.3430 
 11 C       -1.6370    -1.1050    -0.3380 C.3   1 <1>   0.5030 
 12 C       -2.9760    -1.6130    -0.8790 C.3   1 <1>  -0.2400 
 13 C       -1.3860    -1.6870     1.0570 C.3   1 <1>  -0.2400 
 14 C       -0.5350    -1.5620    -1.2990 C.3   1 <1>  -0.2400 
 15 H       -0.4920     3.3400     2.2760 H     1 <1>   0.4000 
 16 H        0.5350     2.9680     0.2920 H     1 <1>   0.0800 
 17 H       -1.4870     3.1930    -1.1360 H     1 <1>   0.0800 
 18 H        0.2140     0.4360     0.7210 H     1 <1>   0.0800 
 19 H        0.2590     1.0190    -0.9130 H     1 <1>   0.0800 
 20 H       -1.8840     4.7840     1.3990 H     1 <1>   0.0800 
 21 H       -3.6090     2.5430    -0.5470 H     1 <1>   0.0800 
 22 H       -3.3840     2.8890     1.1320 H     1 <1>   0.0800 
 23 H       -1.9320     0.6700    -1.2510 H     1 <1>   0.4500 
 24 H       -2.7420     5.3590    -1.4500 H     1 <1>   0.0800 
 25 H       -2.8950     6.4590    -0.1060 H     1 <1>   0.0800 
 26 H       -3.8100     4.9880    -0.1160 H     1 <1>   0.0800 
 27 H       -0.1400     5.3880    -1.0060 H     1 <1>   0.0800 
 28 H        0.4120     5.1390     0.6370 H     1 <1>   0.0800 
 29 H       -0.5380     6.5310     0.2470 H     1 <1>   0.0800 
 30 H       -3.6550     0.4470     0.4840 H     1 <1>   0.0800 
 31 H       -2.3940     0.8610     1.6190 H     1 <1>   0.0800 
 32 H       -2.9300    -2.6780    -1.0260 H     1 <1>   0.0800 
 33 H       -3.2060    -1.1630    -1.8280 H     1 <1>   0.0800 
 34 H       -3.7830    -1.4330    -0.1930 H     1 <1>   0.0800 
 35 H       -2.1730    -1.4290     1.7410 H     1 <1>   0.0800 
 36 H       -0.4470    -1.3590     1.4620 H     1 <1>   0.0800 
 37 H       -1.3530    -2.7610     0.9990 H     1 <1>   0.0800 
 38 H       -0.6570    -1.1130    -2.2690 H     1 <1>   0.0800 
 39 H       -0.5810    -2.6290    -1.4260 H     1 <1>   0.0800 
 40 H        0.4460    -1.3380    -0.9210 H     1 <1>   0.0800 
@<TRIPOS>BOND
  1   1   2  1   
  2   1  15  1   
  3   2   3  1   
  4   2   4  1   
  5   2  16  1   
  6   3   5  1   
  7   3   6  1   
  8   3  17  1   
  9   4   7  1   
 10   4  18  1   
 11   4  19  1   
 12   5   8  1   
 13   5   9  1   
 14   5  20  1   
 15   6  10  1   
 16   6  21  1   
 17   6  22  1   
 18   7  10  1   
 19   7  11  1   
 20   7  23  1   
 21   8  24  1   
 22   8  25  1   
 23   8  26  1   
 24   9  27  1   
 25   9  28  1   
 26   9  29  1   
 27  10  30  1   
 28  10  31  1   
 29  11  12  1   
 30  11  13  1   
 31  11  14  1   
 32  12  32  1   
 33  12  33  1   
 34  12  34  1   
 35  13  35  1   
 36  13  36  1   
 37  13  37  1   
 38  14  38  1   
 39  14  39  1   
 40  14  40  1   
@<TRIPOS>SUBSTRUCTURE
  1 ****   7 GROUP 4 **** **** 0

# MOE 2024.06 (io_trps.svl 2023.06)
