@<TRIPOS>MOLECULE
NONAME
40 41 1 0 0 
SMALL
USER_CHARGES


@<TRIPOS>ATOM
  1 S       -0.3530     0.7810    -1.7120 S.o2  1 <1>   1.4470 
  2 O       -1.3120     1.4800    -2.5390 O.2   1 <1>  -0.6500 
  3 O       -0.0500    -0.6060    -1.9860 O.2   1 <1>  -0.6500 
  4 N       -0.9350     0.8520    -0.1220 N.am  1 <1>  -0.8490 
  5 C        1.1990     1.7170    -1.6020 C.ar  1 <1>  -0.0090 
  6 C       -2.0630    -0.0830     0.1040 C.3   1 <1>   0.1960 
  7 C       -1.2700     2.2310     0.3030 C.3   1 <1>   0.1960 
  8 C        2.2880     1.2050    -0.9070 C.ar  1 <1>  -0.1500 
  9 C        1.3310     2.9720    -2.1820 C.ar  1 <1>  -0.1500 
 10 C       -3.4390     0.6240     0.1170 C.3   1 <1>   0.2000 
 11 C       -2.2980     2.2610     1.4560 C.3   1 <1>   0.2000 
 12 C        3.4830     1.9020    -0.7710 C.ar  1 <1>  -0.0090 
 13 C        2.5080     3.6880    -2.0680 C.ar  1 <1>  -0.1500 
 14 O       -3.4960     1.6250     1.1000 O.3   1 <1>  -0.5600 
 15 C       -4.5840    -0.3430     0.4050 C.3   1 <1>  -0.2400 
 16 C       -2.6610     3.6840     1.8740 C.3   1 <1>  -0.2400 
 17 S        4.8640     1.2120     0.1780 S.o2  1 <1>   1.2040 
 18 C        3.5730     3.1530    -1.3650 C.ar  1 <1>  -0.1500 
 19 O        6.0660     1.9620    -0.1080 O.2   1 <1>  -0.6500 
 20 O        4.8580    -0.2270     0.0580 O.2   1 <1>  -0.6500 
 21 C        4.3920     1.5990     1.8520 C.3   1 <1>  -0.1350 
 22 H       -1.9240    -0.5640     1.0560 H     1 <1>   0.0800 
 23 H       -2.0720    -0.8610    -0.6400 H     1 <1>   0.0800 
 24 H       -1.6890     2.7910    -0.5160 H     1 <1>   0.0800 
 25 H       -0.3700     2.7310     0.6140 H     1 <1>   0.0800 
 26 H        2.1980     0.2270    -0.4610 H     1 <1>   0.1500 
 27 H        0.5050     3.3940    -2.7330 H     1 <1>   0.1500 
 28 H       -3.6030     1.0940    -0.8380 H     1 <1>   0.0800 
 29 H       -1.8920     1.7330     2.3030 H     1 <1>   0.0800 
 30 H        2.5980     4.6580    -2.5270 H     1 <1>   0.1500 
 31 H       -4.4550    -0.8000     1.3690 H     1 <1>   0.0800 
 32 H       -4.6150    -1.1130    -0.3440 H     1 <1>   0.0800 
 33 H       -5.5200     0.1870     0.3860 H     1 <1>   0.0800 
 34 H       -3.1050     4.2130     1.0500 H     1 <1>   0.0800 
 35 H       -1.7830     4.2130     2.1960 H     1 <1>   0.0800 
 36 H       -3.3600     3.6540     2.6910 H     1 <1>   0.0800 
 37 H        4.4890     3.7160    -1.2840 H     1 <1>   0.1500 
 38 H        4.2980     2.6600     1.9790 H     1 <1>   0.0800 
 39 H        5.1390     1.2400     2.5330 H     1 <1>   0.0800 
 40 H        3.4580     1.1330     2.0960 H     1 <1>   0.0800 
@<TRIPOS>BOND
  1   1   2  2   
  2   1   3  2   
  3   1   4  am  
  4   1   5  1   
  5   4   6  1   
  6   4   7  1   
  7   5   8  ar  
  8   5   9  ar  
  9   6  10  1   
 10   6  22  1   
 11   6  23  1   
 12   7  11  1   
 13   7  24  1   
 14   7  25  1   
 15   8  12  ar  
 16   8  26  1   
 17   9  13  ar  
 18   9  27  1   
 19  10  14  1   
 20  10  15  1   
 21  10  28  1   
 22  11  14  1   
 23  11  16  1   
 24  11  29  1   
 25  12  17  1   
 26  12  18  ar  
 27  13  18  ar  
 28  13  30  1   
 29  15  31  1   
 30  15  32  1   
 31  15  33  1   
 32  16  34  1   
 33  16  35  1   
 34  16  36  1   
 35  17  19  2   
 36  17  20  2   
 37  17  21  1   
 38  18  37  1   
 39  21  38  1   
 40  21  39  1   
 41  21  40  1   
@<TRIPOS>SUBSTRUCTURE
  1 ****   5 GROUP 4 **** **** 0

# MOE 2024.06 (io_trps.svl 2023.06)
