@<TRIPOS>MOLECULE
NONAME
40 41 1 0 0 
SMALL
USER_CHARGES


@<TRIPOS>ATOM
  1 O       -0.0660    -0.0730     0.6180 O.3   1 <1>  -0.3630 
  2 C        1.1480     0.3430     0.1620 C.ar  1 <1>   0.0830 
  3 C       -1.2340     0.6670     0.3260 C.3   1 <1>   0.1200 
  4 C        1.5660     1.6820     0.0770 C.ar  1 <1>   0.0830 
  5 C        2.0080    -0.6690    -0.2310 C.ar  1 <1>  -0.1500 
  6 C       -2.4300    -0.2730     0.4200 C.3   1 <1>   0.1200 
  7 O        0.7370     2.6780     0.5070 O.3   1 <1>  -0.3630 
  8 C        2.8340     1.9600    -0.4320 C.ar  1 <1>  -0.1500 
  9 C        3.2660    -0.3790    -0.7280 C.ar  1 <1>  -0.1500 
 10 O       -3.6010     0.4550     0.1150 O.3   1 <1>  -0.3630 
 11 C        1.1590     4.0220     0.5890 C.3   1 <1>   0.0400 
 12 C        3.6760     0.9360    -0.8310 C.ar  1 <1>  -0.1500 
 13 C       -4.8190    -0.1440     0.1160 C.ar  1 <1>   0.0830 
 14 C       -5.9060     0.6490    -0.2090 C.ar  1 <1>  -0.1500 
 15 C       -5.0230    -1.4850     0.4200 C.ar  1 <1>  -0.1500 
 16 C       -7.1910     0.1290    -0.2370 C.ar  1 <1>  -0.1430 
 17 C       -6.3030    -2.0090     0.3940 C.ar  1 <1>  -0.1500 
 18 C       -7.3910    -1.2130     0.0680 C.ar  1 <1>  -0.1430 
 19 C       -8.3500     1.0460    -0.6010 C.3   1 <1>  -0.0970 
 20 C       -8.7820    -1.8320     0.0510 C.3   1 <1>  -0.0970 
 21 H       -1.1470     1.0680    -0.6680 H     1 <1>   0.0800 
 22 H       -1.3230     1.4560     1.0500 H     1 <1>   0.0800 
 23 H        1.6840    -1.6910    -0.1490 H     1 <1>   0.1500 
 24 H       -2.5220    -0.6590     1.4200 H     1 <1>   0.0800 
 25 H       -2.3330    -1.0710    -0.2940 H     1 <1>   0.0800 
 26 H        3.1910     2.9670    -0.5250 H     1 <1>   0.1500 
 27 H        3.9220    -1.1760    -1.0330 H     1 <1>   0.1500 
 28 H        0.3560     4.5980     1.0120 H     1 <1>   0.0800 
 29 H        1.3820     4.3800    -0.4010 H     1 <1>   0.0800 
 30 H        2.0240     4.0790     1.2260 H     1 <1>   0.0800 
 31 H        4.6530     1.1640    -1.2200 H     1 <1>   0.1500 
 32 H       -5.7290     1.6830    -0.4410 H     1 <1>   0.1500 
 33 H       -4.2080    -2.1330     0.6770 H     1 <1>   0.1500 
 34 H       -6.4470    -3.0490     0.6310 H     1 <1>   0.1500 
 35 H       -8.0040     2.0430    -0.8020 H     1 <1>   0.0800 
 36 H       -9.0530     1.0900     0.2110 H     1 <1>   0.0800 
 37 H       -8.8480     0.6780    -1.4790 H     1 <1>   0.0800 
 38 H       -9.4160    -1.3310     0.7600 H     1 <1>   0.0800 
 39 H       -8.7440    -2.8750     0.3110 H     1 <1>   0.0800 
 40 H       -9.2120    -1.7440    -0.9290 H     1 <1>   0.0800 
@<TRIPOS>BOND
  1   1   2  1   
  2   1   3  1   
  3   2   4  ar  
  4   2   5  ar  
  5   3   6  1   
  6   3  21  1   
  7   3  22  1   
  8   4   7  1   
  9   4   8  ar  
 10   5   9  ar  
 11   5  23  1   
 12   6  10  1   
 13   6  24  1   
 14   6  25  1   
 15   7  11  1   
 16   8  12  ar  
 17   8  26  1   
 18   9  12  ar  
 19   9  27  1   
 20  10  13  1   
 21  11  28  1   
 22  11  29  1   
 23  11  30  1   
 24  12  31  1   
 25  13  14  ar  
 26  13  15  ar  
 27  14  16  ar  
 28  14  32  1   
 29  15  17  ar  
 30  15  33  1   
 31  16  18  ar  
 32  16  19  1   
 33  17  18  ar  
 34  17  34  1   
 35  18  20  1   
 36  19  35  1   
 37  19  36  1   
 38  19  37  1   
 39  20  38  1   
 40  20  39  1   
 41  20  40  1   
@<TRIPOS>SUBSTRUCTURE
  1 ****   6 GROUP 4 **** **** 0

# MOE 2024.06 (io_trps.svl 2023.06)
