@<TRIPOS>MOLECULE
NONAME
36 36 1 0 0 
SMALL
USER_CHARGES


@<TRIPOS>ATOM
  1 O        0.9890     2.7650     0.8370 O.2   1 <1>  -0.5700 
  2 C       -0.0210     2.2670     0.3990 C.2   1 <1>   0.5690 
  3 N       -0.0050     1.0930    -0.2910 N.am  1 <1>  -0.7300 
  4 C       -1.3450     2.9860     0.6330 C.3   1 <1>   0.1810 
  5 C        1.1960     0.2780    -0.6000 C.3   1 <1>   0.0600 
  6 O       -2.4390     2.2790     0.0600 O.3   1 <1>  -0.3630 
  7 C       -3.7070     2.7580     0.1610 C.ar  1 <1>   0.0830 
  8 C       -4.0380     3.9430     0.8120 C.ar  1 <1>  -0.1500 
  9 C       -4.7080     2.0020    -0.4290 C.ar  1 <1>  -0.1500 
 10 C       -5.3590     4.3540     0.8650 C.ar  1 <1>  -0.1500 
 11 C       -6.0280     2.4130    -0.3750 C.ar  1 <1>  -0.1500 
 12 C       -6.3600     3.5980     0.2760 C.ar  1 <1>   0.0830 
 13 O       -7.6260     4.0780     0.3780 O.3   1 <1>  -0.3630 
 14 C       -8.7160     3.3850    -0.1870 C.3   1 <1>   0.1200 
 15 C       -9.9900     4.1800     0.1000 C.3   1 <1>  -0.1600 
 16 C      -11.2240     3.4840    -0.4880 C.3   1 <1>  -0.1600 
 17 C      -12.4960     4.2840    -0.1980 C.3   1 <1>  -0.2400 
 18 H       -0.9060     0.7390    -0.6290 H     1 <1>   0.3700 
 19 H       -1.2980     3.9610     0.1850 H     1 <1>   0.0800 
 20 H       -1.5140     3.0730     1.6910 H     1 <1>   0.0800 
 21 H        2.0780     0.7470    -0.1970 H     1 <1>   0.0800 
 22 H        1.3080     0.1850    -1.6660 H     1 <1>   0.0800 
 23 H        1.0930    -0.7000    -0.1650 H     1 <1>   0.0800 
 24 H       -3.2950     4.5590     1.2820 H     1 <1>   0.1500 
 25 H       -4.4460     1.0880    -0.9300 H     1 <1>   0.1500 
 26 H       -5.6260     5.2670     1.3660 H     1 <1>   0.1500 
 27 H       -6.7760     1.8020    -0.8430 H     1 <1>   0.1500 
 28 H       -8.7680     2.4090     0.2640 H     1 <1>   0.0800 
 29 H       -8.5510     3.3000    -1.2470 H     1 <1>   0.0800 
 30 H       -9.8930     5.1620    -0.3300 H     1 <1>   0.0800 
 31 H      -10.1070     4.2800     1.1650 H     1 <1>   0.0800 
 32 H      -11.3210     2.4990    -0.0620 H     1 <1>   0.0800 
 33 H      -11.1080     3.3780    -1.5530 H     1 <1>   0.0800 
 34 H      -12.6450     4.3840     0.8630 H     1 <1>   0.0800 
 35 H      -13.3510     3.7810    -0.6160 H     1 <1>   0.0800 
 36 H      -12.4310     5.2660    -0.6320 H     1 <1>   0.0800 
@<TRIPOS>BOND
  1   1   2  2   
  2   2   3  am  
  3   2   4  1   
  4   3   5  1   
  5   3  18  1   
  6   4   6  1   
  7   4  19  1   
  8   4  20  1   
  9   5  21  1   
 10   5  22  1   
 11   5  23  1   
 12   6   7  1   
 13   7   8  ar  
 14   7   9  ar  
 15   8  10  ar  
 16   8  24  1   
 17   9  11  ar  
 18   9  25  1   
 19  10  12  ar  
 20  10  26  1   
 21  11  12  ar  
 22  11  27  1   
 23  12  13  1   
 24  13  14  1   
 25  14  15  1   
 26  14  28  1   
 27  14  29  1   
 28  15  16  1   
 29  15  30  1   
 30  15  31  1   
 31  16  17  1   
 32  16  32  1   
 33  16  33  1   
 34  17  34  1   
 35  17  35  1   
 36  17  36  1   
@<TRIPOS>SUBSTRUCTURE
  1 ****   9 GROUP 4 **** **** 0

# MOE 2024.06 (io_trps.svl 2023.06)
