@<TRIPOS>MOLECULE
NONAME
48 51 1 0 0 
SMALL
USER_CHARGES


@<TRIPOS>ATOM
  1 CL       0.9990     2.1210    -1.3860 Cl    1 <1>  -0.1770 
  2 C        2.5310     1.3690    -1.0230 C.ar  1 <1>   0.1770 
  3 C        3.5580     1.4430    -1.9430 C.ar  1 <1>  -0.1500 
  4 C        2.6930     0.7100     0.1810 C.ar  1 <1>  -0.1500 
  5 C        4.7730     0.8460    -1.6500 C.ar  1 <1>  -0.1500 
  6 C        3.9100     0.1140     0.4690 C.ar  1 <1>  -0.1500 
  7 C        4.9550     0.1810    -0.4440 C.ar  1 <1>  -0.1430 
  8 C        6.2960    -0.4700    -0.1310 C.3   1 <1>   0.2540 
  9 N        7.3620     0.5490    -0.0480 N.3   1 <1>  -0.8100 
 10 C        7.1170     1.5320     1.0390 C.3   1 <1>   0.1100 
 11 C        8.6970    -0.0720     0.1090 C.3   1 <1>   0.1100 
 12 C        8.2190     2.6160     1.1090 C.3   1 <1>   0.3430 
 13 C        9.8290     0.9820     0.2190 C.3   1 <1>   0.3430 
 14 N        9.2900     2.3760     0.0840 N.4   1 <1>  -0.9590 
 15 C       10.3710     3.4030     0.0210 C.3   1 <1>   0.3430 
 16 C        9.8520     4.7760    -0.4460 C.3   1 <1>  -0.0800 
 17 C       11.1060     5.6750    -1.0270 C.3   1 <1>   0.0580 
 18 C        9.1160     5.6980     0.7710 C.3   1 <1>  -0.1600 
 19 C       11.8860     7.0650    -0.7240 C.2   1 <1>  -0.2880 
 20 C       10.4780     6.3810    -0.0930 C.3   1 <1>  -0.1600 
 21 C        9.9280     7.1270     0.8600 C.3   1 <1>   0.0580 
 22 C       11.2670     7.8280     0.2690 C.2   1 <1>  -0.2880 
 23 H        3.4050     1.9590    -2.8740 H     1 <1>   0.1500 
 24 H        1.8760     0.6640     0.8780 H     1 <1>   0.1500 
 25 H        5.5790     0.8990    -2.3600 H     1 <1>   0.1500 
 26 H        4.0330    -0.4020     1.4050 H     1 <1>   0.1500 
 27 H        6.5270    -1.1680    -0.9190 H     1 <1>   0.0800 
 28 H        6.2350    -1.0190     0.7940 H     1 <1>   0.0800 
 29 H        7.0560     1.0240     1.9870 H     1 <1>   0.0800 
 30 H        6.1730     2.0250     0.8780 H     1 <1>   0.0800 
 31 H        8.8960    -0.7060    -0.7390 H     1 <1>   0.0800 
 32 H        8.7130    -0.6960     0.9880 H     1 <1>   0.0800 
 33 H        8.6460     2.6270     2.0980 H     1 <1>   0.0800 
 34 H        7.7590     3.5740     0.9390 H     1 <1>   0.0800 
 35 H       10.5550     0.7920    -0.5540 H     1 <1>   0.0800 
 36 H       10.3250     0.8700     1.1690 H     1 <1>   0.0800 
 37 H        8.7690     2.3490    -0.8070 H     1 <1>   0.4500 
 38 H       11.1180     3.0740    -0.6840 H     1 <1>   0.0800 
 39 H       10.8490     3.5040     0.9810 H     1 <1>   0.0800 
 40 H        9.1520     4.6130    -1.2530 H     1 <1>   0.0800 
 41 H       10.8560     5.7910    -2.0740 H     1 <1>   0.0800 
 42 H        9.1670     5.2050     1.7290 H     1 <1>   0.0800 
 43 H        8.0750     5.8710     0.5420 H     1 <1>   0.0800 
 44 H       12.7800     7.2910    -1.2830 H     1 <1>   0.1500 
 45 H        9.7730     6.8600    -0.8980 H     1 <1>   0.0800 
 46 H       11.1680     5.8420     0.7510 H     1 <1>   0.0800 
 47 H        9.1660     7.8590     0.6240 H     1 <1>   0.0800 
 48 H       11.5650     8.7860     0.6650 H     1 <1>   0.1500 
@<TRIPOS>BOND
  1   1   2  1   
  2   2   3  ar  
  3   2   4  ar  
  4   3   5  ar  
  5   3  23  1   
  6   4   6  ar  
  7   4  24  1   
  8   5   7  ar  
  9   5  25  1   
 10   6   7  ar  
 11   6  26  1   
 12   7   8  1   
 13   8   9  1   
 14   8  27  1   
 15   8  28  1   
 16   9  10  1   
 17   9  11  1   
 18  10  12  1   
 19  10  29  1   
 20  10  30  1   
 21  11  13  1   
 22  11  31  1   
 23  11  32  1   
 24  12  14  1   
 25  12  33  1   
 26  12  34  1   
 27  13  14  1   
 28  13  35  1   
 29  13  36  1   
 30  14  15  1   
 31  14  37  1   
 32  15  16  1   
 33  15  38  1   
 34  15  39  1   
 35  16  17  1   
 36  16  18  1   
 37  16  40  1   
 38  17  19  1   
 39  17  20  1   
 40  17  41  1   
 41  18  21  1   
 42  18  42  1   
 43  18  43  1   
 44  19  22  2   
 45  19  44  1   
 46  20  21  1   
 47  20  45  1   
 48  20  46  1   
 49  21  22  1   
 50  21  47  1   
 51  22  48  1   
@<TRIPOS>SUBSTRUCTURE
  1 ****  12 GROUP 4 **** **** 0

# MOE 2024.06 (io_trps.svl 2023.06)
