@<TRIPOS>MOLECULE
NONAME
35 37 1 0 0 
SMALL
USER_CHARGES


@<TRIPOS>ATOM
  1 CL      -0.5810    -0.7660     1.9440 Cl    1 <1>  -0.1770 
  2 C       -0.5290    -2.3290     1.1650 C.ar  1 <1>   0.1770 
  3 C        0.5370    -2.6360     0.3400 C.ar  1 <1>  -0.1500 
  4 C       -1.5560    -3.2310     1.3820 C.ar  1 <1>  -0.1500 
  5 C        0.5500    -3.8790    -0.2630 C.ar  1 <1>   0.1900 
  6 C       -1.5180    -4.4730     0.7680 C.ar  1 <1>  -0.1500 
  7 F        1.5490    -4.1490    -1.0680 F     1 <1>  -0.1900 
  8 C       -0.4600    -4.8230    -0.0620 C.ar  1 <1>   0.1170 
  9 N       -0.4760    -6.0960    -0.6440 N.am  1 <1>  -0.5470 
 10 C        0.3630    -7.1300    -0.3540 C.2   1 <1>   0.5690 
 11 O        1.3950    -6.9570     0.2550 O.2   1 <1>  -0.5700 
 12 C        0.0150    -8.5460    -0.8570 C.3   1 <1>  -0.0190 
 13 C       -1.5390    -9.1310    -0.5330 C.3   1 <1>  -0.1860 
 14 C        1.0740    -9.6610    -0.2750 C.3   1 <1>  -0.0800 
 15 C       -2.5290    -8.0680    -0.0780 C.2   1 <1>   0.9060 
 16 C       -1.3840   -10.4570     0.4230 C.3   1 <1>  -0.0800 
 17 C       -0.1560   -10.0660     0.0550 C.3   1 <1>  -0.1600 
 18 C        1.2200   -11.0020     0.6490 C.3   1 <1>  -0.1600 
 19 O       -2.9220    -7.2730    -0.9420 O.co2 1 <1>  -0.9000 
 20 O       -2.8440    -7.9360     1.1050 O.co2 1 <1>  -0.9000 
 21 C       -0.3190   -11.5640     0.9770 C.3   1 <1>  -0.1600 
 22 H        1.3290    -1.9330     0.1710 H     1 <1>   0.1500 
 23 H       -2.3760    -2.9700     2.0260 H     1 <1>   0.1500 
 24 H       -2.3100    -5.1910     0.9320 H     1 <1>   0.1500 
 25 H       -1.4220    -6.4010    -0.9490 H     1 <1>   0.3700 
 26 H        0.1220    -8.4910    -1.9280 H     1 <1>   0.0800 
 27 H       -1.9550    -9.4650    -1.4710 H     1 <1>   0.0800 
 28 H        1.5520    -9.9850    -1.1890 H     1 <1>   0.0800 
 29 H       -1.8290   -10.1270     1.3530 H     1 <1>   0.0800 
 30 H       -0.0950    -9.4200     1.0390 H     1 <1>   0.0800 
 31 H       -0.2130   -10.7010    -0.9310 H     1 <1>   0.0800 
 32 H        1.7270   -10.7540     1.5690 H     1 <1>   0.0800 
 33 H        1.8030   -11.7580     0.1480 H     1 <1>   0.0800 
 34 H       -0.4830   -12.5130     0.4890 H     1 <1>   0.0800 
 35 H       -0.4450   -11.7170     2.0380 H     1 <1>   0.0800 
@<TRIPOS>BOND
  1   1   2  1   
  2   2   3  ar  
  3   2   4  ar  
  4   3   5  ar  
  5   3  22  1   
  6   4   6  ar  
  7   4  23  1   
  8   5   7  1   
  9   5   8  ar  
 10   6   8  ar  
 11   6  24  1   
 12   8   9  1   
 13   9  10  am  
 14   9  25  1   
 15  10  11  2   
 16  10  12  1   
 17  12  13  1   
 18  12  14  1   
 19  12  26  1   
 20  13  15  1   
 21  13  16  1   
 22  13  27  1   
 23  14  17  1   
 24  14  18  1   
 25  14  28  1   
 26  15  19  ar  
 27  15  20  ar  
 28  16  17  1   
 29  16  21  1   
 30  16  29  1   
 31  17  30  1   
 32  17  31  1   
 33  18  21  1   
 34  18  32  1   
 35  18  33  1   
 36  21  34  1   
 37  21  35  1   
@<TRIPOS>SUBSTRUCTURE
  1 ****   9 GROUP 4 **** **** 0

# MOE 2024.06 (io_trps.svl 2023.06)
