@<TRIPOS>MOLECULE
NONAME
52 55 1 0 0 
SMALL
USER_CHARGES


@<TRIPOS>ATOM
  1 S       -0.5150    -0.0360     0.3760 S.3   1 <1>  -0.0800 
  2 C        1.0070     0.8410     0.1670 C.ar  1 <1>   0.2970 
  3 C       -1.3720     1.4510     0.8100 C.2   1 <1>  -0.0450 
  4 N        2.1240     0.2290    -0.1850 N.ar  1 <1>  -0.5670 
  5 C        0.8190     2.1930     0.4250 C.ar  1 <1>   0.0000 
  6 C       -2.7350     1.5810     1.1440 C.2   1 <1>   0.7150 
  7 C       -0.5340     2.5140     0.7860 C.2   1 <1>   0.1250 
  8 C        3.1600     1.0460    -0.2920 C.ar  1 <1>   0.1660 
  9 C        1.9250     3.0180     0.3040 C.ar  1 <1>  -0.1500 
 10 O       -3.5250     0.6460     1.1700 O.2   1 <1>  -0.5700 
 11 N       -3.1470     2.8600     1.4430 N.am  1 <1>  -0.4200 
 12 N       -0.9880     3.7720     1.0920 N.2   1 <1>  -0.5750 
 13 C        3.1160     2.4230    -0.0610 C.ar  1 <1>  -0.1430 
 14 C        4.4680     0.4070    -0.7090 C.3   1 <1>  -0.0170 
 15 C       -2.2350     3.8960     1.3970 C.2   1 <1>   0.4500 
 16 C       -4.5650     3.1460     1.8220 C.3   1 <1>   0.2010 
 17 C        4.3710     3.2770    -0.1900 C.3   1 <1>   0.2640 
 18 C        5.6830     1.2810    -0.3620 C.3   1 <1>   0.2800 
 19 C       -5.2340     4.1410     0.8750 C.2   1 <1>   0.5690 
 20 O        5.4300     2.5840    -0.7890 O.3   1 <1>  -0.5600 
 21 C        6.9130     0.8230    -1.1460 C.3   1 <1>  -0.2400 
 22 C        6.0110     1.2720     1.1400 C.3   1 <1>  -0.2400 
 23 O       -5.1230     5.3100     1.1640 O.2   1 <1>  -0.5700 
 24 N       -5.9260     3.7340    -0.2430 N.am  1 <1>  -0.6600 
 25 C       -6.5920     4.7420    -1.1160 C.3   1 <1>   0.1400 
 26 C       -5.9430     2.3320    -0.7510 C.3   1 <1>   0.1400 
 27 C       -7.9570     5.1140    -0.5410 C.3   1 <1>  -0.2400 
 28 C       -7.1690     1.5920    -0.2230 C.3   1 <1>  -0.2400 
 29 H        1.8330     4.0730     0.4940 H     1 <1>   0.1500 
 30 H        4.4320     0.2410    -1.7700 H     1 <1>   0.0800 
 31 H        4.5690    -0.5520    -0.2350 H     1 <1>   0.0800 
 32 H       -2.6100     4.8750     1.6400 H     1 <1>   0.0600 
 33 H       -4.5750     3.5700     2.8100 H     1 <1>   0.0800 
 34 H       -5.1460     2.2440     1.8600 H     1 <1>   0.0800 
 35 H        4.6940     3.6170     0.7780 H     1 <1>   0.0800 
 36 H        4.1690     4.1380    -0.8030 H     1 <1>   0.0800 
 37 H        6.7230     0.8770    -2.2030 H     1 <1>   0.0800 
 38 H        7.1620    -0.1920    -0.8950 H     1 <1>   0.0800 
 39 H        7.7560     1.4490    -0.9130 H     1 <1>   0.0800 
 40 H        5.1470     1.5020     1.7370 H     1 <1>   0.0800 
 41 H        6.7920     1.9790     1.3550 H     1 <1>   0.0800 
 42 H        6.3510     0.2950     1.4320 H     1 <1>   0.0800 
 43 H       -6.7070     4.3570    -2.1140 H     1 <1>   0.0800 
 44 H       -5.9770     5.6250    -1.1740 H     1 <1>   0.0800 
 45 H       -5.0510     1.8160    -0.4470 H     1 <1>   0.0800 
 46 H       -5.9530     2.3320    -1.8270 H     1 <1>   0.0800 
 47 H       -8.6020     4.2580    -0.4990 H     1 <1>   0.0800 
 48 H       -8.4180     5.8580    -1.1640 H     1 <1>   0.0800 
 49 H       -7.8430     5.5260     0.4460 H     1 <1>   0.0800 
 50 H       -7.2080     1.6320     0.8500 H     1 <1>   0.0800 
 51 H       -7.1190     0.5600    -0.5220 H     1 <1>   0.0800 
 52 H       -8.0680     2.0140    -0.6300 H     1 <1>   0.0800 
@<TRIPOS>BOND
  1   1   2  1   
  2   1   3  1   
  3   2   4  ar  
  4   2   5  ar  
  5   3   6  1   
  6   3   7  2   
  7   4   8  ar  
  8   5   7  1   
  9   5   9  ar  
 10   6  10  2   
 11   6  11  am  
 12   7  12  1   
 13   8  13  ar  
 14   8  14  1   
 15   9  13  ar  
 16   9  29  1   
 17  11  15  1   
 18  11  16  1   
 19  12  15  2   
 20  13  17  1   
 21  14  18  1   
 22  14  30  1   
 23  14  31  1   
 24  15  32  1   
 25  16  19  1   
 26  16  33  1   
 27  16  34  1   
 28  17  20  1   
 29  17  35  1   
 30  17  36  1   
 31  18  20  1   
 32  18  21  1   
 33  18  22  1   
 34  19  23  2   
 35  19  24  am  
 36  21  37  1   
 37  21  38  1   
 38  21  39  1   
 39  22  40  1   
 40  22  41  1   
 41  22  42  1   
 42  24  25  1   
 43  24  26  1   
 44  25  27  1   
 45  25  43  1   
 46  25  44  1   
 47  26  28  1   
 48  26  45  1   
 49  26  46  1   
 50  27  47  1   
 51  27  48  1   
 52  27  49  1   
 53  28  50  1   
 54  28  51  1   
 55  28  52  1   
@<TRIPOS>SUBSTRUCTURE
  1 ****   7 GROUP 4 **** **** 0

# MOE 2024.06 (io_trps.svl 2023.06)
