@<TRIPOS>MOLECULE
NONAME
40 40 1 0 0 
SMALL
USER_CHARGES


@<TRIPOS>ATOM
  1 O       -0.0750     0.5780     0.7710 O.2   1 <1>  -0.5700 
  2 C       -0.0360     1.7370     0.4230 C.2   1 <1>   0.4950 
  3 C        1.2210     2.3970     0.1920 C.2   1 <1>  -0.1360 
  4 C       -1.3910     2.4750     0.2120 C.3   1 <1>   0.3410 
  5 C        2.4530     1.8520     0.3420 C.2   1 <1>  -0.1780 
  6 O       -1.2300     3.8430     0.0470 O.3   1 <1>  -0.6800 
  7 C       -2.0910     1.9830    -1.0580 C.3   1 <1>  -0.2400 
  8 C       -2.3170     2.3190     1.4230 C.3   1 <1>  -0.2400 
  9 C        3.7470     2.4500     0.1280 C.ar  1 <1>   0.0280 
 10 C        3.9120     3.7880    -0.2290 C.ar  1 <1>  -0.1500 
 11 C        4.8980     1.6800     0.2800 C.ar  1 <1>  -0.1500 
 12 C        5.1620     4.3430    -0.4290 C.ar  1 <1>   0.0830 
 13 C        6.1680     2.2080     0.0760 C.ar  1 <1>   0.0830 
 14 O        5.1830     5.6630    -0.7620 O.3   1 <1>  -0.3630 
 15 C        6.3060     3.5470    -0.2960 C.ar  1 <1>   0.0830 
 16 O        7.3020     1.4610     0.2250 O.3   1 <1>  -0.3630 
 17 C        6.1030     6.5180    -0.1180 C.3   1 <1>   0.0400 
 18 O        7.5420     4.0600    -0.5290 O.3   1 <1>  -0.3630 
 19 C        7.2710     0.1750     0.8040 C.3   1 <1>   0.0400 
 20 C        8.1030     3.7560    -1.7850 C.3   1 <1>   0.0400 
 21 H        1.1350     3.4150    -0.1300 H     1 <1>   0.1500 
 22 H        2.5000     0.8250     0.6640 H     1 <1>   0.1500 
 23 H       -2.1070     4.2590    -0.0520 H     1 <1>   0.4000 
 24 H       -2.2760     0.9260    -0.9800 H     1 <1>   0.0800 
 25 H       -1.4620     2.1480    -1.9140 H     1 <1>   0.0800 
 26 H       -3.0320     2.4810    -1.2030 H     1 <1>   0.0800 
 27 H       -2.5300     1.2780     1.5860 H     1 <1>   0.0800 
 28 H       -3.2490     2.8330     1.2730 H     1 <1>   0.0800 
 29 H       -1.8350     2.7000     2.3070 H     1 <1>   0.0800 
 30 H        3.0590     4.4260    -0.3520 H     1 <1>   0.1500 
 31 H        4.7750     0.6520     0.5560 H     1 <1>   0.1500 
 32 H        5.7150     7.5190    -0.1580 H     1 <1>   0.0800 
 33 H        7.0430     6.4720    -0.6360 H     1 <1>   0.0800 
 34 H        6.2190     6.2060     0.9060 H     1 <1>   0.0800 
 35 H        8.2840    -0.1710     0.9010 H     1 <1>   0.0800 
 36 H        6.7210    -0.4860     0.1580 H     1 <1>   0.0800 
 37 H        6.8120     0.2400     1.7750 H     1 <1>   0.0800 
 38 H        9.0560     4.2470    -1.8550 H     1 <1>   0.0800 
 39 H        7.4420     4.1160    -2.5540 H     1 <1>   0.0800 
 40 H        8.2290     2.6910    -1.8650 H     1 <1>   0.0800 
@<TRIPOS>BOND
  1   1   2  2   
  2   2   3  1   
  3   2   4  1   
  4   3   5  2   
  5   3  21  1   
  6   4   6  1   
  7   4   7  1   
  8   4   8  1   
  9   5   9  1   
 10   5  22  1   
 11   6  23  1   
 12   7  24  1   
 13   7  25  1   
 14   7  26  1   
 15   8  27  1   
 16   8  28  1   
 17   8  29  1   
 18   9  10  ar  
 19   9  11  ar  
 20  10  12  ar  
 21  10  30  1   
 22  11  13  ar  
 23  11  31  1   
 24  12  14  1   
 25  12  15  ar  
 26  13  15  ar  
 27  13  16  1   
 28  14  17  1   
 29  15  18  1   
 30  16  19  1   
 31  17  32  1   
 32  17  33  1   
 33  17  34  1   
 34  18  20  1   
 35  19  35  1   
 36  19  36  1   
 37  19  37  1   
 38  20  38  1   
 39  20  39  1   
 40  20  40  1   
@<TRIPOS>SUBSTRUCTURE
  1 ****   9 GROUP 4 **** **** 0

# MOE 2024.06 (io_trps.svl 2023.06)
