@<TRIPOS>MOLECULE
NONAME
51 55 1 0 0 
SMALL
USER_CHARGES


@<TRIPOS>ATOM
  1 CL       0.6590     0.2140    -1.0190 Cl    1 <1>  -0.1770 
  2 C        2.0790     1.1710    -0.6730 C.ar  1 <1>   0.1770 
  3 C        3.1000     1.2300    -1.6030 C.ar  1 <1>  -0.1500 
  4 C        2.1610     1.8560     0.5260 C.ar  1 <1>  -0.1500 
  5 C        4.2240     1.9890    -1.3260 C.ar  1 <1>  -0.1500 
  6 C        3.2880     2.6120     0.7940 C.ar  1 <1>  -0.1500 
  7 C        4.3290     2.6870    -0.1250 C.ar  1 <1>   0.1000 
  8 N        5.4480     3.4550     0.1740 N.pl3 1 <1>  -0.8380 
  9 C        5.6280     4.7010    -0.6210 C.3   1 <1>   0.2090 
 10 C        6.7110     2.7120     0.4390 C.3   1 <1>   0.2090 
 11 C        6.6980     5.6100     0.0210 C.3   1 <1>   0.3430 
 12 C        7.7700     3.6400     1.0700 C.3   1 <1>   0.3430 
 13 N        8.0140     4.9020     0.2690 N.4   1 <1>  -0.9590 
 14 C        9.0500     5.7970     0.8900 C.3   1 <1>   0.4230 
 15 C        9.3090     7.0510     0.0110 C.3   1 <1>  -0.0800 
 16 C       10.3990     5.0490     1.0780 C.3   1 <1>  -0.0800 
 17 C        9.8970     6.6450    -1.3610 C.3   1 <1>  -0.1600 
 18 C       10.3190     7.9730     0.7250 C.3   1 <1>  -0.1600 
 19 C       10.9900     4.6360    -0.2900 C.3   1 <1>  -0.1600 
 20 C       11.4030     5.9810     1.7860 C.3   1 <1>  -0.1600 
 21 C       11.2240     5.8870    -1.1590 C.3   1 <1>  -0.0800 
 22 C       11.6530     7.2360     0.9340 C.3   1 <1>  -0.0800 
 23 C       12.2180     6.8140    -0.4350 C.3   1 <1>  -0.1600 
 24 H        3.0090     0.6880    -2.5270 H     1 <1>   0.1500 
 25 H        1.3530     1.7930     1.2330 H     1 <1>   0.1500 
 26 H        5.0210     2.0400    -2.0440 H     1 <1>   0.1500 
 27 H        3.3700     3.1500     1.7210 H     1 <1>   0.1500 
 28 H        4.6910     5.2300    -0.6650 H     1 <1>   0.0800 
 29 H        5.9140     4.4530    -1.6280 H     1 <1>   0.0800 
 30 H        7.0880     2.2960    -0.4790 H     1 <1>   0.0800 
 31 H        6.5050     1.8960     1.1110 H     1 <1>   0.0800 
 32 H        6.3060     5.9760     0.9550 H     1 <1>   0.0800 
 33 H        6.8490     6.4560    -0.6280 H     1 <1>   0.0800 
 34 H        8.6850     3.0820     1.1700 H     1 <1>   0.0800 
 35 H        7.4340     3.9030     2.0590 H     1 <1>   0.0800 
 36 H        8.3990     4.6260    -0.6420 H     1 <1>   0.4500 
 37 H        8.7010     6.1220     1.8570 H     1 <1>   0.0800 
 38 H        8.4090     7.6220    -0.1250 H     1 <1>   0.0800 
 39 H       10.2790     4.1850     1.7060 H     1 <1>   0.0800 
 40 H        9.2060     6.0370    -1.9160 H     1 <1>   0.0800 
 41 H       10.0800     7.5290    -1.9500 H     1 <1>   0.0800 
 42 H        9.9270     8.2910     1.6760 H     1 <1>   0.0800 
 43 H       10.4880     8.8580     0.1350 H     1 <1>   0.0800 
 44 H       10.3430     3.9480    -0.8030 H     1 <1>   0.0800 
 45 H       11.9290     4.1300    -0.1390 H     1 <1>   0.0800 
 46 H       11.0280     6.2670     2.7540 H     1 <1>   0.0800 
 47 H       12.3350     5.4640     1.9440 H     1 <1>   0.0800 
 48 H       11.6320     5.6010    -2.1140 H     1 <1>   0.0800 
 49 H       12.3560     7.8840     1.4320 H     1 <1>   0.0800 
 50 H       12.4080     7.6880    -1.0360 H     1 <1>   0.0800 
 51 H       13.1590     6.3080    -0.3010 H     1 <1>   0.0800 
@<TRIPOS>BOND
  1   1   2  1   
  2   2   3  ar  
  3   2   4  ar  
  4   3   5  ar  
  5   3  24  1   
  6   4   6  ar  
  7   4  25  1   
  8   5   7  ar  
  9   5  26  1   
 10   6   7  ar  
 11   6  27  1   
 12   7   8  1   
 13   8   9  1   
 14   8  10  1   
 15   9  11  1   
 16   9  28  1   
 17   9  29  1   
 18  10  12  1   
 19  10  30  1   
 20  10  31  1   
 21  11  13  1   
 22  11  32  1   
 23  11  33  1   
 24  12  13  1   
 25  12  34  1   
 26  12  35  1   
 27  13  14  1   
 28  13  36  1   
 29  14  15  1   
 30  14  16  1   
 31  14  37  1   
 32  15  17  1   
 33  15  18  1   
 34  15  38  1   
 35  16  19  1   
 36  16  20  1   
 37  16  39  1   
 38  17  21  1   
 39  17  40  1   
 40  17  41  1   
 41  18  22  1   
 42  18  42  1   
 43  18  43  1   
 44  19  21  1   
 45  19  44  1   
 46  19  45  1   
 47  20  22  1   
 48  20  46  1   
 49  20  47  1   
 50  21  23  1   
 51  21  48  1   
 52  22  23  1   
 53  22  49  1   
 54  23  50  1   
 55  23  51  1   
@<TRIPOS>SUBSTRUCTURE
  1 ****  13 GROUP 4 **** **** 0

# MOE 2024.06 (io_trps.svl 2023.06)
