@<TRIPOS>MOLECULE
NONAME
42 44 1 0 0 
SMALL
USER_CHARGES


@<TRIPOS>ATOM
  1 O       -0.5270    -0.6520    -0.0830 O.3   1 <1>  -0.5600 
  2 C       -1.5730    -1.5430     0.1990 C.3   1 <1>   0.1200 
  3 C        0.6200    -1.2740    -0.5960 C.3   1 <1>   0.1200 
  4 C       -1.1380    -2.5870     1.2410 C.3   1 <1>   0.2090 
  5 C        1.1800    -2.3120     0.3940 C.3   1 <1>   0.2090 
  6 N        0.1130    -3.2760     0.7970 N.pl3 1 <1>  -0.8380 
  7 C        0.1380    -4.5940     0.4120 C.ar  1 <1>   0.7200 
  8 N        1.3130    -5.1710     0.3610 N.ar  1 <1>  -0.6200 
  9 N       -1.0000    -5.1660     0.1240 N.ar  1 <1>  -0.6200 
 10 C        1.2600    -6.4240    -0.0020 C.ar  1 <1>   0.7030 
 11 C       -0.9160    -6.4220    -0.2350 C.ar  1 <1>   0.7200 
 12 O        2.4080    -7.1120    -0.0660 O.3   1 <1>  -0.3630 
 13 N        0.2000    -7.1030    -0.3160 N.ar  1 <1>  -0.6200 
 14 N       -2.0870    -7.0780    -0.5530 N.pl3 1 <1>  -0.8380 
 15 C        3.6280    -6.5160     0.3250 C.3   1 <1>   0.3200 
 16 C       -3.3890    -6.3770    -0.7490 C.3   1 <1>   0.2090 
 17 C       -2.1800    -8.5620    -0.6780 C.3   1 <1>   0.2090 
 18 C        4.7480    -7.4880     0.1680 C.1   1 <1>   0.3570 
 19 C       -4.3990    -6.8850     0.2840 C.3   1 <1>  -0.1600 
 20 C       -3.1860    -9.0950     0.3480 C.3   1 <1>  -0.1600 
 21 N        5.6300    -8.1990     0.0600 N.1   1 <1>  -0.5570 
 22 C       -4.5550    -8.4120     0.2200 C.3   1 <1>  -0.1600 
 23 H       -1.8700    -2.0290    -0.7140 H     1 <1>   0.0800 
 24 H       -2.4020    -0.9690     0.5720 H     1 <1>   0.0800 
 25 H        1.3510    -0.5080    -0.7840 H     1 <1>   0.0800 
 26 H        0.3650    -1.7470    -1.5280 H     1 <1>   0.0800 
 27 H       -1.9350    -3.2910     1.4040 H     1 <1>   0.0800 
 28 H       -0.9510    -2.0910     2.1770 H     1 <1>   0.0800 
 29 H        1.5480    -1.8060     1.2690 H     1 <1>   0.0800 
 30 H        2.0080    -2.8210    -0.0660 H     1 <1>   0.0800 
 31 H        3.5480    -6.2160     1.3540 H     1 <1>   0.0800 
 32 H        3.8050    -5.6580    -0.2970 H     1 <1>   0.0800 
 33 H       -3.7490    -6.5870    -1.7420 H     1 <1>   0.0800 
 34 H       -3.2850    -5.3100    -0.6590 H     1 <1>   0.0800 
 35 H       -1.2290    -9.0370    -0.5150 H     1 <1>   0.0800 
 36 H       -2.5060    -8.8090    -1.6730 H     1 <1>   0.0800 
 37 H       -5.3500    -6.4160     0.1110 H     1 <1>   0.0800 
 38 H       -4.0610    -6.5940     1.2640 H     1 <1>   0.0800 
 39 H       -2.7880    -8.9270     1.3340 H     1 <1>   0.0800 
 40 H       -3.2970   -10.1570     0.2170 H     1 <1>   0.0800 
 41 H       -5.0040    -8.6850    -0.7200 H     1 <1>   0.0800 
 42 H       -5.2050    -8.7460     1.0110 H     1 <1>   0.0800 
@<TRIPOS>BOND
  1   1   2  1   
  2   1   3  1   
  3   2   4  1   
  4   2  23  1   
  5   2  24  1   
  6   3   5  1   
  7   3  25  1   
  8   3  26  1   
  9   4   6  1   
 10   4  27  1   
 11   4  28  1   
 12   5   6  1   
 13   5  29  1   
 14   5  30  1   
 15   6   7  1   
 16   7   8  ar  
 17   7   9  ar  
 18   8  10  ar  
 19   9  11  ar  
 20  10  12  1   
 21  10  13  ar  
 22  11  13  ar  
 23  11  14  1   
 24  12  15  1   
 25  14  16  1   
 26  14  17  1   
 27  15  18  1   
 28  15  31  1   
 29  15  32  1   
 30  16  19  1   
 31  16  33  1   
 32  16  34  1   
 33  17  20  1   
 34  17  35  1   
 35  17  36  1   
 36  18  21  3   
 37  19  22  1   
 38  19  37  1   
 39  19  38  1   
 40  20  22  1   
 41  20  39  1   
 42  20  40  1   
 43  22  41  1   
 44  22  42  1   
@<TRIPOS>SUBSTRUCTURE
  1 ****   9 GROUP 4 **** **** 0

# MOE 2024.06 (io_trps.svl 2023.06)
