@<TRIPOS>MOLECULE
NONAME
40 41 1 0 0 
SMALL
USER_CHARGES


@<TRIPOS>ATOM
  1 CL      -0.1450    -0.7230    -2.0030 Cl    1 <1>  -0.1770 
  2 C       -1.4880     0.3600    -1.7420 C.ar  1 <1>   0.1770 
  3 C       -2.1290     0.4230    -0.5100 C.ar  1 <1>  -0.0090 
  4 C       -1.8770     1.1420    -2.8180 C.ar  1 <1>  -0.1500 
  5 S       -1.6130    -0.6040     0.8850 S.o2  1 <1>   1.4470 
  6 C       -3.1920     1.3130    -0.3860 C.ar  1 <1>  -0.1500 
  7 C       -2.9380     2.0200    -2.6780 C.ar  1 <1>  -0.1500 
  8 O       -2.5430    -0.4210     1.9780 O.2   1 <1>  -0.6500 
  9 O       -0.2050    -0.4050     1.1440 O.2   1 <1>  -0.6500 
 10 N       -1.8380    -2.2020     0.3600 N.am  1 <1>  -0.8490 
 11 C       -3.5840     2.0930    -1.4590 C.ar  1 <1>   0.1770 
 12 C       -1.2250    -3.1850     1.3000 C.3   1 <1>   0.2570 
 13 C       -3.2480    -2.5390     0.1260 C.3   1 <1>   0.1160 
 14 CL      -4.9230     3.1920    -1.2680 Cl    1 <1>  -0.1770 
 15 C        0.1850    -3.6780     0.9330 C.2   1 <1>   0.5690 
 16 O        0.3710    -4.8700     0.8470 O.2   1 <1>  -0.5700 
 17 N        1.1910    -2.7870     0.7490 N.am  1 <1>  -0.7300 
 18 C        2.5930    -3.0970     0.4410 C.3   1 <1>   0.2200 
 19 C        3.4740    -2.4630     1.5090 C.3   1 <1>  -0.1600 
 20 C        2.9930    -2.3530    -0.8260 C.3   1 <1>  -0.1600 
 21 C        3.5940    -0.9850     1.1190 C.3   1 <1>  -0.1600 
 22 C        3.3000    -0.9170    -0.3860 C.3   1 <1>  -0.1600 
 23 H       -1.3520     1.0610    -3.7540 H     1 <1>   0.1500 
 24 H       -3.7220     1.4040     0.5470 H     1 <1>   0.1500 
 25 H       -3.2610     2.6390    -3.4970 H     1 <1>   0.1500 
 26 H       -1.8400    -4.0660     1.3510 H     1 <1>   0.0800 
 27 H       -1.1910    -2.7750     2.2950 H     1 <1>   0.0800 
 28 H       -3.6820    -1.8580    -0.5850 H     1 <1>   0.0800 
 29 H       -3.8090    -2.4890     1.0450 H     1 <1>   0.0800 
 30 H       -3.3250    -3.5350    -0.2790 H     1 <1>   0.0800 
 31 H        0.9820    -1.7800     0.8110 H     1 <1>   0.3700 
 32 H        2.7410    -4.1620     0.3600 H     1 <1>   0.0800 
 33 H        4.4470    -2.9180     1.4620 H     1 <1>   0.0800 
 34 H        3.0750    -2.6000     2.4990 H     1 <1>   0.0800 
 35 H        2.2300    -2.4040    -1.5830 H     1 <1>   0.0800 
 36 H        3.8910    -2.8000    -1.2140 H     1 <1>   0.0800 
 37 H        4.5730    -0.6010     1.3500 H     1 <1>   0.0800 
 38 H        2.8580    -0.4080     1.6530 H     1 <1>   0.0800 
 39 H        2.4400    -0.2900    -0.5540 H     1 <1>   0.0800 
 40 H        4.1350    -0.5170    -0.9340 H     1 <1>   0.0800 
@<TRIPOS>BOND
  1   1   2  1   
  2   2   3  ar  
  3   2   4  ar  
  4   3   5  1   
  5   3   6  ar  
  6   4   7  ar  
  7   4  23  1   
  8   5   8  2   
  9   5   9  2   
 10   5  10  am  
 11   6  11  ar  
 12   6  24  1   
 13   7  11  ar  
 14   7  25  1   
 15  10  12  1   
 16  10  13  1   
 17  11  14  1   
 18  12  15  1   
 19  12  26  1   
 20  12  27  1   
 21  13  28  1   
 22  13  29  1   
 23  13  30  1   
 24  15  16  2   
 25  15  17  am  
 26  17  18  1   
 27  17  31  1   
 28  18  19  1   
 29  18  20  1   
 30  18  32  1   
 31  19  21  1   
 32  19  33  1   
 33  19  34  1   
 34  20  22  1   
 35  20  35  1   
 36  20  36  1   
 37  21  22  1   
 38  21  37  1   
 39  21  38  1   
 40  22  39  1   
 41  22  40  1   
@<TRIPOS>SUBSTRUCTURE
  1 ****   9 GROUP 4 **** **** 0

# MOE 2024.06 (io_trps.svl 2023.06)
