@<TRIPOS>MOLECULE
NONAME
40 42 1 0 0 
SMALL
USER_CHARGES


@<TRIPOS>ATOM
  1 BR      -0.1790     0.2980     0.8840 Br    1 <1>  -0.1110 
  2 C       -1.7810    -0.6730     0.4510 C.ar  1 <1>   0.1110 
  3 C       -2.4160    -1.3890     1.4470 C.ar  1 <1>  -0.1500 
  4 C       -2.2560    -0.6300    -0.8440 C.ar  1 <1>  -0.1500 
  5 C       -3.5710    -2.0840     1.1310 C.ar  1 <1>  -0.1500 
  6 C       -3.4120    -1.3280    -1.1510 C.ar  1 <1>  -0.1500 
  7 C       -4.0770    -2.0510    -0.1650 C.ar  1 <1>  -0.1430 
  8 C       -5.3530    -2.7990    -0.5040 C.3   1 <1>   0.4870 
  9 N       -6.5090    -2.0450     0.0510 N.4   1 <1>  -0.9590 
 10 C       -7.7970    -2.8220    -0.0790 C.3   1 <1>   0.3430 
 11 C       -6.6330    -0.6730    -0.5770 C.3   1 <1>   0.3430 
 12 C       -9.0190    -2.0450     0.4540 C.3   1 <1>   0.2090 
 13 C       -7.8490     0.1170    -0.0480 C.3   1 <1>   0.2090 
 14 N       -9.0960    -0.6930    -0.1700 N.pl3 1 <1>  -0.8380 
 15 C      -10.2960    -0.0080    -0.0170 C.ar  1 <1>   0.1000 
 16 C      -11.1220     0.1740    -1.1200 C.ar  1 <1>  -0.1500 
 17 C      -10.6900     0.5000     1.2180 C.ar  1 <1>  -0.1500 
 18 C      -12.3230     0.8510    -0.9980 C.ar  1 <1>  -0.1500 
 19 C      -11.8900     1.1780     1.3490 C.ar  1 <1>  -0.1500 
 20 C      -12.6950     1.3460     0.2380 C.ar  1 <1>   0.1770 
 21 CL     -14.2100     2.2020     0.3990 Cl    1 <1>  -0.1770 
 22 H       -2.0060    -1.4020     2.4430 H     1 <1>   0.1500 
 23 H       -1.7260    -0.0650    -1.5920 H     1 <1>   0.1500 
 24 H       -4.0590    -2.6510     1.9070 H     1 <1>   0.1500 
 25 H       -3.7790    -1.3010    -2.1640 H     1 <1>   0.1500 
 26 H       -5.3100    -3.7860    -0.0730 H     1 <1>   0.0800 
 27 H       -5.4490    -2.8970    -1.5730 H     1 <1>   0.0800 
 28 H       -6.3170    -1.8950     1.0490 H     1 <1>   0.4500 
 29 H       -7.7190    -3.7570     0.4510 H     1 <1>   0.0800 
 30 H       -7.9770    -3.0450    -1.1180 H     1 <1>   0.0800 
 31 H       -6.7430    -0.7750    -1.6440 H     1 <1>   0.0800 
 32 H       -5.7390    -0.1010    -0.3910 H     1 <1>   0.0800 
 33 H       -8.9570    -1.9480     1.5240 H     1 <1>   0.0800 
 34 H       -9.9190    -2.5910     0.2240 H     1 <1>   0.0800 
 35 H       -7.9600     1.0250    -0.6180 H     1 <1>   0.0800 
 36 H       -7.6900     0.3900     0.9810 H     1 <1>   0.0800 
 37 H      -10.8180    -0.2180    -2.0730 H     1 <1>   0.1500 
 38 H      -10.0600     0.3660     2.0770 H     1 <1>   0.1500 
 39 H      -12.9670     0.9950    -1.8470 H     1 <1>   0.1500 
 40 H      -12.2040     1.5740     2.2980 H     1 <1>   0.1500 
@<TRIPOS>BOND
  1   1   2  1   
  2   2   3  ar  
  3   2   4  ar  
  4   3   5  ar  
  5   3  22  1   
  6   4   6  ar  
  7   4  23  1   
  8   5   7  ar  
  9   5  24  1   
 10   6   7  ar  
 11   6  25  1   
 12   7   8  1   
 13   8   9  1   
 14   8  26  1   
 15   8  27  1   
 16   9  10  1   
 17   9  11  1   
 18   9  28  1   
 19  10  12  1   
 20  10  29  1   
 21  10  30  1   
 22  11  13  1   
 23  11  31  1   
 24  11  32  1   
 25  12  14  1   
 26  12  33  1   
 27  12  34  1   
 28  13  14  1   
 29  13  35  1   
 30  13  36  1   
 31  14  15  1   
 32  15  16  ar  
 33  15  17  ar  
 34  16  18  ar  
 35  16  37  1   
 36  17  19  ar  
 37  17  38  1   
 38  18  20  ar  
 39  18  39  1   
 40  19  20  ar  
 41  19  40  1   
 42  20  21  1   
@<TRIPOS>SUBSTRUCTURE
  1 ****  13 GROUP 4 **** **** 0

# MOE 2024.06 (io_trps.svl 2023.06)
