@<TRIPOS>MOLECULE
NONAME
55 58 1 0 0 
SMALL
USER_CHARGES


@<TRIPOS>ATOM
  1 O        0.7410     0.3460     0.8040 O.2   1 <1>  -0.5740 
  2 C        1.2870    -0.2150    -0.1170 C.2   1 <1>   0.8240 
  3 N        0.6080    -1.2310    -0.7410 N.pl3 1 <1>  -0.7330 
  4 C        2.6320     0.1160    -0.5430 C.ar  1 <1>   0.0790 
  5 C       -0.6580    -1.5940    -0.5510 C.cat 1 <1>   1.0690 
  6 C        2.9920     0.1330    -1.8930 C.ar  1 <1>  -0.1570 
  7 C        3.6240     0.4100     0.3920 C.ar  1 <1>  -0.1570 
  8 N       -1.5550    -0.9040     0.1230 N.pl3 1 <1>  -0.7030 
  9 N       -1.2060    -2.7190    -1.0310 N.pl3 1 <1>  -0.7670 
 10 C        4.2910     0.4020    -2.2840 C.ar  1 <1>  -0.1570 
 11 C        4.9220     0.6790     0.0020 C.ar  1 <1>  -0.1570 
 12 C       -2.7720    -1.5350     0.0490 C.ar  1 <1>   0.3030 
 13 C       -2.5650    -2.6800    -0.7010 C.ar  1 <1>   0.3030 
 14 C       -0.5860    -3.8340    -1.8180 C.3   1 <1>   0.3490 
 15 C        5.2640     0.6730    -1.3390 C.ar  1 <1>  -0.1500 
 16 C       -4.0230    -1.2190     0.5620 C.ar  1 <1>  -0.1160 
 17 C       -3.6300    -3.5340    -0.9790 C.ar  1 <1>  -0.1160 
 18 C       -0.6020    -5.2220    -1.1090 C.3   1 <1>   0.3380 
 19 C        6.6910     0.9660    -1.7670 C.3   1 <1>  -0.1030 
 20 C       -5.0730    -2.0750     0.2960 C.ar  1 <1>  -0.1570 
 21 C       -4.8780    -3.2240    -0.4730 C.ar  1 <1>  -0.1570 
 22 N        0.0360    -5.2930     0.2580 N.4   1 <1>  -0.9610 
 23 C        0.4830    -6.6950     0.5370 C.3   1 <1>   0.3380 
 24 C       -0.8720    -4.8370     1.3570 C.3   1 <1>   0.3380 
 25 C        1.2970    -6.7230     1.8310 C.3   1 <1>  -0.1670 
 26 C       -0.0990    -4.8010     2.6750 C.3   1 <1>  -0.1670 
 27 C        0.4950    -6.1720     3.0160 C.3   1 <1>  -0.1670 
 28 H        1.1310    -1.6860    -1.4740 H     1 <1>   0.4450 
 29 H        2.2630    -0.0490    -2.6620 H     1 <1>   0.1430 
 30 H        3.3830     0.4300     1.4430 H     1 <1>   0.1430 
 31 H       -1.3200    -0.0340     0.6180 H     1 <1>   0.4450 
 32 H        4.5500     0.4080    -3.3300 H     1 <1>   0.1430 
 33 H        5.6700     0.8970     0.7450 H     1 <1>   0.1430 
 34 H        0.4320    -3.5900    -2.0620 H     1 <1>   0.0730 
 35 H       -1.1160    -3.9260    -2.7510 H     1 <1>   0.0730 
 36 H       -4.1660    -0.3270     1.1480 H     1 <1>   0.1430 
 37 H       -3.5010    -4.4140    -1.5800 H     1 <1>   0.1430 
 38 H       -0.0880    -5.9120    -1.7590 H     1 <1>   0.0730 
 39 H       -1.6200    -5.5670    -1.0400 H     1 <1>   0.0730 
 40 H        6.7060     1.4350    -2.7350 H     1 <1>   0.0730 
 41 H        7.2540     0.0520    -1.8170 H     1 <1>   0.0730 
 42 H        7.1670     1.6280    -1.0660 H     1 <1>   0.0730 
 43 H       -6.0590    -1.8570     0.6790 H     1 <1>   0.1430 
 44 H       -5.7220    -3.8670    -0.6720 H     1 <1>   0.1430 
 45 H        0.8910    -4.7270     0.3100 H     1 <1>   0.4450 
 46 H        1.0940    -7.0610    -0.2730 H     1 <1>   0.0730 
 47 H       -0.3740    -7.3420     0.6370 H     1 <1>   0.0730 
 48 H       -1.7060    -5.5150     1.4490 H     1 <1>   0.0730 
 49 H       -1.2530    -3.8530     1.1510 H     1 <1>   0.0730 
 50 H        2.2020    -6.1550     1.7020 H     1 <1>   0.0730 
 51 H        1.5840    -7.7390     2.0430 H     1 <1>   0.0730 
 52 H       -0.7650    -4.5010     3.4660 H     1 <1>   0.0730 
 53 H        0.6840    -4.0650     2.6180 H     1 <1>   0.0730 
 54 H        1.1290    -6.0940     3.8840 H     1 <1>   0.0730 
 55 H       -0.3020    -6.8570     3.2570 H     1 <1>   0.0730 
@<TRIPOS>BOND
  1   1   2  2   
  2   2   3  1   
  3   2   4  1   
  4   3   5  ar  
  5   3  28  1   
  6   4   6  ar  
  7   4   7  ar  
  8   5   8  ar  
  9   5   9  ar  
 10   6  10  ar  
 11   6  29  1   
 12   7  11  ar  
 13   7  30  1   
 14   8  12  1   
 15   8  31  1   
 16   9  13  1   
 17   9  14  1   
 18  10  15  ar  
 19  10  32  1   
 20  11  15  ar  
 21  11  33  1   
 22  12  13  ar  
 23  12  16  ar  
 24  13  17  ar  
 25  14  18  1   
 26  14  34  1   
 27  14  35  1   
 28  15  19  1   
 29  16  20  ar  
 30  16  36  1   
 31  17  21  ar  
 32  17  37  1   
 33  18  22  1   
 34  18  38  1   
 35  18  39  1   
 36  19  40  1   
 37  19  41  1   
 38  19  42  1   
 39  20  21  ar  
 40  20  43  1   
 41  21  44  1   
 42  22  23  1   
 43  22  24  1   
 44  22  45  1   
 45  23  25  1   
 46  23  46  1   
 47  23  47  1   
 48  24  26  1   
 49  24  48  1   
 50  24  49  1   
 51  25  27  1   
 52  25  50  1   
 53  25  51  1   
 54  26  27  1   
 55  26  52  1   
 56  26  53  1   
 57  27  54  1   
 58  27  55  1   
@<TRIPOS>SUBSTRUCTURE
  1 ****   5 GROUP 4 **** **** 0

# MOE 2024.06 (io_trps.svl 2023.06)
