@<TRIPOS>MOLECULE
NONAME
49 51 1 0 0 
SMALL
USER_CHARGES


@<TRIPOS>ATOM
  1 BR       0.1510     1.0090    -2.7930 Br    1 <1>  -0.1110 
  2 C        1.7060     1.5300    -1.7830 C.ar  1 <1>   0.1110 
  3 C        2.3700     0.5750    -1.0390 C.ar  1 <1>  -0.1500 
  4 C        2.1180     2.8470    -1.8260 C.ar  1 <1>  -0.1500 
  5 C        3.4880     0.9580    -0.3180 C.ar  1 <1>  -0.1500 
  6 C        3.2370     3.2140    -1.0980 C.ar  1 <1>  -0.1500 
  7 C        3.9400     2.2780    -0.3380 C.ar  1 <1>   0.1170 
  8 N        5.0880     2.6590     0.3860 N.am  1 <1>  -0.4770 
  9 C        5.5200     2.2030     1.5990 C.2   1 <1>   0.5690 
 10 C        6.0340     3.6610    -0.1500 C.3   1 <1>   0.1400 
 11 O        4.9880     1.3760     2.2980 O.2   1 <1>  -0.5700 
 12 C        6.8140     2.8540     2.0000 C.3   1 <1>  -0.0990 
 13 C        7.3090     3.4660     0.6830 C.3   1 <1>  -0.0190 
 14 C        8.1260     4.7380     0.8740 C.2   1 <1>   0.5690 
 15 O        7.5950     5.8110     0.7490 O.2   1 <1>  -0.5700 
 16 N        9.4440     4.6870     1.1770 N.am  1 <1>  -0.7300 
 17 C       10.3140     3.5160     1.4160 C.3   1 <1>   0.1400 
 18 C       11.1330     3.2370     0.1570 C.3   1 <1>  -0.1600 
 19 C       12.0090     1.9900     0.3360 C.3   1 <1>  -0.1600 
 20 C       12.8290     1.6890    -0.9240 C.3   1 <1>  -0.0170 
 21 C       13.6600     0.4330    -0.7200 C.ar  1 <1>  -0.1430 
 22 C       13.1380    -0.8100    -1.0410 C.ar  1 <1>  -0.1500 
 23 C       14.9450     0.5180    -0.2070 C.ar  1 <1>  -0.1500 
 24 C       13.8920    -1.9560    -0.8530 C.ar  1 <1>  -0.1500 
 25 C       15.7000    -0.6260    -0.0190 C.ar  1 <1>  -0.1500 
 26 C       15.1740    -1.8650    -0.3420 C.ar  1 <1>  -0.1500 
 27 H        2.0210    -0.4420    -1.0230 H     1 <1>   0.1500 
 28 H        1.5740     3.5660    -2.4120 H     1 <1>   0.1500 
 29 H        4.0140     0.2260     0.2670 H     1 <1>   0.1500 
 30 H        3.5580     4.2390    -1.1170 H     1 <1>   0.1500 
 31 H        5.6130     4.6410    -0.0040 H     1 <1>   0.0800 
 32 H        6.2200     3.4960    -1.1970 H     1 <1>   0.0800 
 33 H        7.5010     2.1320     2.4010 H     1 <1>   0.0800 
 34 H        6.6050     3.6140     2.7310 H     1 <1>   0.0800 
 35 H        7.9110     2.7420     0.1660 H     1 <1>   0.0800 
 36 H        9.9020     5.5990     1.2540 H     1 <1>   0.3700 
 37 H        9.7220     2.6540     1.6690 H     1 <1>   0.0800 
 38 H       10.9690     3.7250     2.2460 H     1 <1>   0.0800 
 39 H       11.7590     4.0870    -0.0550 H     1 <1>   0.0800 
 40 H       10.4670     3.0860    -0.6750 H     1 <1>   0.0800 
 41 H       11.3880     1.1390     0.5580 H     1 <1>   0.0800 
 42 H       12.6820     2.1330     1.1650 H     1 <1>   0.0800 
 43 H       13.4790     2.5180    -1.1460 H     1 <1>   0.0800 
 44 H       12.1740     1.5520    -1.7660 H     1 <1>   0.0800 
 45 H       12.1420    -0.8930    -1.4390 H     1 <1>   0.1500 
 46 H       15.3630     1.4760     0.0480 H     1 <1>   0.1500 
 47 H       13.4810    -2.9180    -1.1050 H     1 <1>   0.1500 
 48 H       16.6970    -0.5530     0.3790 H     1 <1>   0.1500 
 49 H       15.7610    -2.7550    -0.1960 H     1 <1>   0.1500 
@<TRIPOS>BOND
  1   1   2  1   
  2   2   3  ar  
  3   2   4  ar  
  4   3   5  ar  
  5   3  27  1   
  6   4   6  ar  
  7   4  28  1   
  8   5   7  ar  
  9   5  29  1   
 10   6   7  ar  
 11   6  30  1   
 12   7   8  1   
 13   8   9  am  
 14   8  10  1   
 15   9  11  2   
 16   9  12  1   
 17  10  13  1   
 18  10  31  1   
 19  10  32  1   
 20  12  13  1   
 21  12  33  1   
 22  12  34  1   
 23  13  14  1   
 24  13  35  1   
 25  14  15  2   
 26  14  16  am  
 27  16  17  1   
 28  16  36  1   
 29  17  18  1   
 30  17  37  1   
 31  17  38  1   
 32  18  19  1   
 33  18  39  1   
 34  18  40  1   
 35  19  20  1   
 36  19  41  1   
 37  19  42  1   
 38  20  21  1   
 39  20  43  1   
 40  20  44  1   
 41  21  22  ar  
 42  21  23  ar  
 43  22  24  ar  
 44  22  45  1   
 45  23  25  ar  
 46  23  46  1   
 47  24  26  ar  
 48  24  47  1   
 49  25  26  ar  
 50  25  48  1   
 51  26  49  1   
@<TRIPOS>SUBSTRUCTURE
  1 ****  13 GROUP 4 **** **** 0

# MOE 2024.06 (io_trps.svl 2023.06)
