@<TRIPOS>MOLECULE
NONAME
47 49 1 0 0 
SMALL
USER_CHARGES


@<TRIPOS>ATOM
  1 O       -3.3030    -0.1810    -0.9070 O.3   1 <1>  -0.3630 
  2 C       -4.5420    -0.6900    -0.7020 C.ar  1 <1>   0.0830 
  3 C       -2.3520    -0.1040     0.1320 C.3   1 <1>   0.0400 
  4 C       -5.3620    -0.7970    -1.8120 C.ar  1 <1>  -0.1500 
  5 C       -5.0160    -1.1020     0.5400 C.ar  1 <1>  -0.1500 
  6 C       -6.6430    -1.3040    -1.6940 C.ar  1 <1>  -0.1500 
  7 C       -6.2990    -1.6080     0.6590 C.ar  1 <1>  -0.1500 
  8 C       -7.1220    -1.7050    -0.4550 C.ar  1 <1>  -0.1430 
  9 C       -8.5350    -2.2380    -0.3230 C.3   1 <1>   0.4860 
 10 N       -9.3850    -1.1810     0.2890 N.4   1 <1>  -0.9590 
 11 C      -10.7660    -1.6870     0.6180 C.3   1 <1>   0.3430 
 12 C       -9.4540     0.0570    -0.5760 C.3   1 <1>   0.3430 
 13 C      -11.6540    -0.6110     1.2770 C.3   1 <1>   0.2090 
 14 C      -10.3200     1.1730     0.0440 C.3   1 <1>   0.2090 
 15 N      -11.6460     0.6610     0.4980 N.pl3 1 <1>  -0.8380 
 16 C      -12.7620     0.9420    -0.2880 C.ar  1 <1>   0.1000 
 17 C      -13.7370     1.8400     0.1500 C.ar  1 <1>  -0.1430 
 18 C      -12.9220     0.3250    -1.5250 C.ar  1 <1>  -0.1500 
 19 C      -14.8410     2.1010    -0.6440 C.ar  1 <1>  -0.1500 
 20 C      -13.6010     2.5410     1.4950 C.3   1 <1>  -0.0970 
 21 C      -14.0260     0.5900    -2.3130 C.ar  1 <1>  -0.1500 
 22 C      -14.9880     1.4790    -1.8720 C.ar  1 <1>  -0.1500 
 23 H       -1.4440     0.3020    -0.2760 H     1 <1>   0.0800 
 24 H       -2.1700    -1.0940     0.5130 H     1 <1>   0.0800 
 25 H       -2.7270     0.5450     0.9030 H     1 <1>   0.0800 
 26 H       -4.9810    -0.4830    -2.7680 H     1 <1>   0.1500 
 27 H       -4.3980    -1.0370     1.4160 H     1 <1>   0.1500 
 28 H       -7.2510    -1.3800    -2.5800 H     1 <1>   0.1500 
 29 H       -6.6380    -1.9270     1.6300 H     1 <1>   0.1500 
 30 H       -8.5260    -3.1170     0.3010 H     1 <1>   0.0800 
 31 H       -8.9180    -2.5110    -1.2930 H     1 <1>   0.0800 
 32 H       -8.9280    -0.8960     1.1630 H     1 <1>   0.4500 
 33 H      -10.7010    -2.5360     1.2790 H     1 <1>   0.0800 
 34 H      -11.2560    -2.0110    -0.2860 H     1 <1>   0.0800 
 35 H       -9.8730    -0.1970    -1.5350 H     1 <1>   0.0800 
 36 H       -8.4620     0.4440    -0.7450 H     1 <1>   0.0800 
 37 H      -11.3080    -0.4120     2.2760 H     1 <1>   0.0800 
 38 H      -12.6640    -0.9770     1.3510 H     1 <1>   0.0800 
 39 H      -10.4690     1.9550    -0.6830 H     1 <1>   0.0800 
 40 H       -9.8060     1.6080     0.8830 H     1 <1>   0.0800 
 41 H      -12.1840    -0.3660    -1.8760 H     1 <1>   0.1500 
 42 H      -15.5970     2.7910    -0.3140 H     1 <1>   0.1500 
 43 H      -13.5940     1.8140     2.2860 H     1 <1>   0.0800 
 44 H      -14.4150     3.2220     1.6630 H     1 <1>   0.0800 
 45 H      -12.6800     3.0950     1.5250 H     1 <1>   0.0800 
 46 H      -14.1420     0.1090    -3.2690 H     1 <1>   0.1500 
 47 H      -15.8500     1.6900    -2.4820 H     1 <1>   0.1500 
@<TRIPOS>BOND
  1   1   2  1   
  2   1   3  1   
  3   2   4  ar  
  4   2   5  ar  
  5   3  23  1   
  6   3  24  1   
  7   3  25  1   
  8   4   6  ar  
  9   4  26  1   
 10   5   7  ar  
 11   5  27  1   
 12   6   8  ar  
 13   6  28  1   
 14   7   8  ar  
 15   7  29  1   
 16   8   9  1   
 17   9  10  1   
 18   9  30  1   
 19   9  31  1   
 20  10  11  1   
 21  10  12  1   
 22  10  32  1   
 23  11  13  1   
 24  11  33  1   
 25  11  34  1   
 26  12  14  1   
 27  12  35  1   
 28  12  36  1   
 29  13  15  1   
 30  13  37  1   
 31  13  38  1   
 32  14  15  1   
 33  14  39  1   
 34  14  40  1   
 35  15  16  1   
 36  16  17  ar  
 37  16  18  ar  
 38  17  19  ar  
 39  17  20  1   
 40  18  21  ar  
 41  18  41  1   
 42  19  22  ar  
 43  19  42  1   
 44  20  43  1   
 45  20  44  1   
 46  20  45  1   
 47  21  22  ar  
 48  21  46  1   
 49  22  47  1   
@<TRIPOS>SUBSTRUCTURE
  1 ****  12 GROUP 4 **** **** 0

# MOE 2024.06 (io_trps.svl 2023.06)
