@<TRIPOS>MOLECULE
NONAME
43 45 1 0 0 
SMALL
USER_CHARGES


@<TRIPOS>ATOM
  1 O       -2.1190     0.8120    -0.4250 O.3   1 <1>  -0.3630 
  2 C       -1.1170     1.7030    -0.1910 C.ar  1 <1>   0.0830 
  3 C       -2.0140    -0.1520    -1.4550 C.3   1 <1>   0.0400 
  4 C       -1.2100     2.4950     0.9510 C.ar  1 <1>  -0.1440 
  5 C       -0.0250     1.8540    -1.0430 C.ar  1 <1>  -0.1500 
  6 C       -0.2190     3.4230     1.2320 C.ar  1 <1>  -0.1500 
  7 C       -2.3920     2.3450     1.8880 C.3   1 <1>   0.4870 
  8 C        0.9570     2.7840    -0.7550 C.ar  1 <1>  -0.1500 
  9 C        0.8610     3.5680     0.3800 C.ar  1 <1>  -0.1500 
 10 N       -3.6330     2.6340     1.1310 N.4   1 <1>  -0.9590 
 11 C       -3.6790     4.0500     0.6160 C.3   1 <1>   0.3430 
 12 C       -4.8790     2.2750     1.8900 C.3   1 <1>   0.3430 
 13 C       -4.9570     4.3340    -0.1970 C.3   1 <1>   0.2090 
 14 C       -6.1590     2.5570     1.0770 C.3   1 <1>   0.2090 
 15 N       -6.1870     3.9600     0.5640 N.pl3 1 <1>  -0.8380 
 16 C       -7.3610     4.3040    -0.0700 C.ar  1 <1>   0.4100 
 17 N       -7.6520     3.6240    -1.1700 N.ar  1 <1>  -0.6200 
 18 C       -8.1610     5.3160     0.4510 C.ar  1 <1>  -0.1500 
 19 C       -8.7820     3.9670    -1.7700 C.ar  1 <1>   0.1600 
 20 C       -9.3310     5.6600    -0.1840 C.ar  1 <1>  -0.1500 
 21 C       -9.6420     4.9570    -1.3300 C.ar  1 <1>  -0.1500 
 22 H       -1.9880     0.3490    -2.4070 H     1 <1>   0.0800 
 23 H       -2.8750    -0.7950    -1.4080 H     1 <1>   0.0800 
 24 H       -1.1200    -0.7320    -1.3040 H     1 <1>   0.0800 
 25 H        0.0820     1.2630    -1.9340 H     1 <1>   0.1500 
 26 H       -0.2690     4.0410     2.1130 H     1 <1>   0.1500 
 27 H       -2.2960     3.0200     2.7230 H     1 <1>   0.0800 
 28 H       -2.4150     1.3340     2.2600 H     1 <1>   0.0800 
 29 H        1.8010     2.8980    -1.4150 H     1 <1>   0.1500 
 30 H        1.6330     4.2870     0.5990 H     1 <1>   0.1500 
 31 H       -3.5640     2.0180     0.3020 H     1 <1>   0.4500 
 32 H       -2.8190     4.2410    -0.0060 H     1 <1>   0.0800 
 33 H       -3.6480     4.7370     1.4450 H     1 <1>   0.0800 
 34 H       -4.9270     2.8520     2.7980 H     1 <1>   0.0800 
 35 H       -4.8580     1.2320     2.1580 H     1 <1>   0.0800 
 36 H       -4.9260     3.7850    -1.1230 H     1 <1>   0.0800 
 37 H       -4.9980     5.3820    -0.4410 H     1 <1>   0.0800 
 38 H       -7.0220     2.3930     1.7000 H     1 <1>   0.0800 
 39 H       -6.2190     1.8690     0.2500 H     1 <1>   0.0800 
 40 H       -7.8500     5.8160     1.3470 H     1 <1>   0.1500 
 41 H       -9.0380     3.4270    -2.6660 H     1 <1>   0.1500 
 42 H       -9.9740     6.4380     0.1920 H     1 <1>   0.1500 
 43 H      -10.5420     5.1750    -1.8760 H     1 <1>   0.1500 
@<TRIPOS>BOND
  1   1   2  1   
  2   1   3  1   
  3   2   4  ar  
  4   2   5  ar  
  5   3  22  1   
  6   3  23  1   
  7   3  24  1   
  8   4   6  ar  
  9   4   7  1   
 10   5   8  ar  
 11   5  25  1   
 12   6   9  ar  
 13   6  26  1   
 14   7  10  1   
 15   7  27  1   
 16   7  28  1   
 17   8   9  ar  
 18   8  29  1   
 19   9  30  1   
 20  10  11  1   
 21  10  12  1   
 22  10  31  1   
 23  11  13  1   
 24  11  32  1   
 25  11  33  1   
 26  12  14  1   
 27  12  34  1   
 28  12  35  1   
 29  13  15  1   
 30  13  36  1   
 31  13  37  1   
 32  14  15  1   
 33  14  38  1   
 34  14  39  1   
 35  15  16  1   
 36  16  17  ar  
 37  16  18  ar  
 38  17  19  ar  
 39  18  20  ar  
 40  18  40  1   
 41  19  21  ar  
 42  19  41  1   
 43  20  21  ar  
 44  20  42  1   
 45  21  43  1   
@<TRIPOS>SUBSTRUCTURE
  1 ****  11 GROUP 4 **** **** 0

# MOE 2024.06 (io_trps.svl 2023.06)
