@<TRIPOS>MOLECULE
NONAME
43 45 1 0 0 
SMALL
USER_CHARGES


@<TRIPOS>ATOM
  1 S       -0.2320    -0.5770     0.4120 S.3   1 <1>  -0.2860 
  2 C        1.5560    -0.5310     0.5630 C.2   1 <1>   0.2420 
  3 C       -0.6140    -2.3850     0.6460 C.3   1 <1>   0.1310 
  4 N        2.2630    -1.5770     0.8060 N.2   1 <1>  -0.3380 
  5 N        2.2710     0.5860     0.4560 N.pl3 1 <1>   0.0480 
  6 C       -2.1070    -2.6690     0.5670 C.2   1 <1>   0.5690 
  7 N        3.5210    -1.1510     0.8890 N.2   1 <1>  -0.3380 
  8 C        3.5230     0.1390     0.6860 C.2   1 <1>   0.1330 
  9 C        1.8010     1.9780     0.2560 C.3   1 <1>   0.0960 
 10 O       -2.4670    -3.8220     0.5810 O.2   1 <1>  -0.5700 
 11 N       -2.9890    -1.6350     0.4880 N.am  1 <1>  -0.5790 
 12 C        4.6960     0.9760     0.7310 C.ar  1 <1>   0.0530 
 13 C        1.3060     2.2140    -1.1770 C.3   1 <1>  -0.2400 
 14 C       -4.4510    -1.7480     0.4080 C.3   1 <1>   0.0490 
 15 C        5.1840     1.6590    -0.3900 C.ar  1 <1>   0.0820 
 16 C        5.3790     1.1390     1.9340 C.ar  1 <1>  -0.1500 
 17 C       -5.1860    -0.7550    -0.4280 C.3   1 <1>  -0.2000 
 18 C       -5.2720    -0.6910     1.0680 C.3   1 <1>  -0.2000 
 19 O        4.6030     1.5250    -1.6000 O.3   1 <1>  -0.3630 
 20 C        6.2770     2.5040    -0.2910 C.ar  1 <1>  -0.1500 
 21 C        6.4800     1.9710     2.0320 C.ar  1 <1>  -0.1500 
 22 C        4.8350     0.3110    -2.2830 C.3   1 <1>   0.0400 
 23 C        6.9280     2.6620     0.9190 C.ar  1 <1>  -0.1500 
 24 H       -0.2320    -2.6700     1.6080 H     1 <1>   0.0800 
 25 H       -0.0920    -2.9220    -0.1230 H     1 <1>   0.0800 
 26 H        2.6080     2.6540     0.4730 H     1 <1>   0.0800 
 27 H        1.0050     2.1730     0.9530 H     1 <1>   0.0800 
 28 H       -2.6200    -0.6830     0.4640 H     1 <1>   0.3700 
 29 H        2.0890     2.0160    -1.8860 H     1 <1>   0.0800 
 30 H        1.0050     3.2400    -1.2880 H     1 <1>   0.0800 
 31 H        0.4610     1.5890    -1.4010 H     1 <1>   0.0800 
 32 H       -4.8020    -2.7690     0.4310 H     1 <1>   0.1000 
 33 H        5.0360     0.6030     2.8020 H     1 <1>   0.1500 
 34 H       -6.0530    -1.0840    -0.9740 H     1 <1>   0.1000 
 35 H       -4.6260    -0.0030    -0.9550 H     1 <1>   0.1000 
 36 H       -4.7730     0.1060     1.5890 H     1 <1>   0.1000 
 37 H       -6.1970    -0.9770     1.5360 H     1 <1>   0.1000 
 38 H        6.6180     3.0300    -1.1650 H     1 <1>   0.1500 
 39 H        6.9890     2.0830     2.9740 H     1 <1>   0.1500 
 40 H        4.3860     0.3810    -3.2570 H     1 <1>   0.0800 
 41 H        4.3940    -0.5010    -1.7340 H     1 <1>   0.0800 
 42 H        5.8970     0.1630    -2.3770 H     1 <1>   0.0800 
 43 H        7.7800     3.3140     0.9940 H     1 <1>   0.1500 
@<TRIPOS>BOND
  1   1   2  1   
  2   1   3  1   
  3   2   4  2   
  4   2   5  1   
  5   3   6  1   
  6   3  24  1   
  7   3  25  1   
  8   4   7  1   
  9   5   8  1   
 10   5   9  1   
 11   6  10  2   
 12   6  11  am  
 13   7   8  2   
 14   8  12  1   
 15   9  13  1   
 16   9  26  1   
 17   9  27  1   
 18  11  14  1   
 19  11  28  1   
 20  12  15  ar  
 21  12  16  ar  
 22  13  29  1   
 23  13  30  1   
 24  13  31  1   
 25  14  17  1   
 26  14  18  1   
 27  14  32  1   
 28  15  19  1   
 29  15  20  ar  
 30  16  21  ar  
 31  16  33  1   
 32  17  18  1   
 33  17  34  1   
 34  17  35  1   
 35  18  36  1   
 36  18  37  1   
 37  19  22  1   
 38  20  23  ar  
 39  20  38  1   
 40  21  23  ar  
 41  21  39  1   
 42  22  40  1   
 43  22  41  1   
 44  22  42  1   
 45  23  43  1   
@<TRIPOS>SUBSTRUCTURE
  1 ****   2 GROUP 4 **** **** 0

# MOE 2024.06 (io_trps.svl 2023.06)
