@<TRIPOS>MOLECULE
NONAME
45 46 1 0 0 
SMALL
USER_CHARGES


@<TRIPOS>ATOM
  1 CL       2.9980    -1.2530     2.0980 Cl    1 <1>  -0.1770 
  2 C        1.6580    -2.2750     1.6340 C.ar  1 <1>   0.1770 
  3 C        1.3940    -2.4950     0.2910 C.ar  1 <1>  -0.1440 
  4 C        0.8920    -2.8560     2.6270 C.ar  1 <1>  -0.1500 
  5 C        0.3290    -3.3170    -0.0540 C.ar  1 <1>  -0.1500 
  6 C        2.2560    -1.8510    -0.7750 C.3   1 <1>   0.4870 
  7 C       -0.1630    -3.6770     2.2730 C.ar  1 <1>  -0.1500 
  8 C       -0.4430    -3.9050     0.9350 C.ar  1 <1>  -0.1500 
  9 N        3.6100    -2.4660    -0.7410 N.4   1 <1>  -0.9590 
 10 C        4.6200    -1.7650    -1.6060 C.3   1 <1>   0.3430 
 11 C        3.6200    -3.9510    -0.9770 C.3   1 <1>   0.3430 
 12 C        5.9910    -2.4890    -1.6100 C.3   1 <1>   0.1960 
 13 C        5.0300    -4.5510    -0.7540 C.3   1 <1>   0.1960 
 14 N        6.0860    -3.5270    -0.5580 N.am  1 <1>  -0.8490 
 15 S        7.6200    -4.2550    -0.4900 S.o2  1 <1>   1.3330 
 16 O        8.1310    -4.2210    -1.8400 O.2   1 <1>  -0.6500 
 17 O        7.4420    -5.5190     0.1850 O.2   1 <1>  -0.6500 
 18 C        8.5680    -3.1550     0.5670 C.3   1 <1>  -0.0550 
 19 C       10.0210    -3.6100     0.7800 C.3   1 <1>  -0.1600 
 20 C       10.7830    -2.6370     1.6870 C.3   1 <1>  -0.1600 
 21 C       12.2280    -3.0980     1.8910 C.3   1 <1>  -0.2400 
 22 H        1.1170    -2.6690     3.6630 H     1 <1>   0.1500 
 23 H        0.0820    -3.5070    -1.0850 H     1 <1>   0.1500 
 24 H        2.3260    -0.7930    -0.5790 H     1 <1>   0.0800 
 25 H        1.8080    -1.9890    -1.7450 H     1 <1>   0.0800 
 26 H       -0.7690    -4.1370     3.0370 H     1 <1>   0.1500 
 27 H       -1.2710    -4.5420     0.6680 H     1 <1>   0.1500 
 28 H        3.9630    -2.3600     0.2250 H     1 <1>   0.4500 
 29 H        4.7630    -0.7590    -1.2460 H     1 <1>   0.0800 
 30 H        4.2610    -1.7000    -2.6200 H     1 <1>   0.0800 
 31 H        3.3060    -4.1630    -1.9860 H     1 <1>   0.0800 
 32 H        2.9280    -4.4400    -0.3110 H     1 <1>   0.0800 
 33 H        6.7720    -1.7590    -1.4780 H     1 <1>   0.0800 
 34 H        6.1390    -2.9390    -2.5790 H     1 <1>   0.0800 
 35 H        5.2800    -5.1810    -1.5930 H     1 <1>   0.0800 
 36 H        4.9910    -5.1870     0.1150 H     1 <1>   0.0800 
 37 H        8.0850    -3.0920     1.5230 H     1 <1>   0.0800 
 38 H        8.5770    -2.1730     0.1370 H     1 <1>   0.0800 
 39 H       10.5160    -3.6770    -0.1750 H     1 <1>   0.0800 
 40 H       10.0230    -4.5930     1.2230 H     1 <1>   0.0800 
 41 H       10.2960    -2.5730     2.6450 H     1 <1>   0.0800 
 42 H       10.7870    -1.6530     1.2470 H     1 <1>   0.0800 
 43 H       12.2520    -4.0700     2.3510 H     1 <1>   0.0800 
 44 H       12.7490    -2.4060     2.5290 H     1 <1>   0.0800 
 45 H       12.7460    -3.1490     0.9490 H     1 <1>   0.0800 
@<TRIPOS>BOND
  1   1   2  1   
  2   2   3  ar  
  3   2   4  ar  
  4   3   5  ar  
  5   3   6  1   
  6   4   7  ar  
  7   4  22  1   
  8   5   8  ar  
  9   5  23  1   
 10   6   9  1   
 11   6  24  1   
 12   6  25  1   
 13   7   8  ar  
 14   7  26  1   
 15   8  27  1   
 16   9  10  1   
 17   9  11  1   
 18   9  28  1   
 19  10  12  1   
 20  10  29  1   
 21  10  30  1   
 22  11  13  1   
 23  11  31  1   
 24  11  32  1   
 25  12  14  1   
 26  12  33  1   
 27  12  34  1   
 28  13  14  1   
 29  13  35  1   
 30  13  36  1   
 31  14  15  am  
 32  15  16  2   
 33  15  17  2   
 34  15  18  1   
 35  18  19  1   
 36  18  37  1   
 37  18  38  1   
 38  19  20  1   
 39  19  39  1   
 40  19  40  1   
 41  20  21  1   
 42  20  41  1   
 43  20  42  1   
 44  21  43  1   
 45  21  44  1   
 46  21  45  1   
@<TRIPOS>SUBSTRUCTURE
  1 ****  14 GROUP 4 **** **** 0

# MOE 2024.06 (io_trps.svl 2023.06)
