@<TRIPOS>MOLECULE
NONAME
46 48 1 0 0 
SMALL
USER_CHARGES


@<TRIPOS>ATOM
  1 S        0.2570    -0.9740     0.5600 S.3   1 <1>  -0.2860 
  2 C        1.9390    -0.6690     1.1090 C.2   1 <1>   0.2420 
  3 C       -0.2080    -2.5100     1.5060 C.3   1 <1>   0.1310 
  4 N        2.5330    -1.4020     1.9820 N.2   1 <1>  -0.3380 
  5 N        2.6780     0.3460     0.6700 N.pl3 1 <1>   0.0480 
  6 C       -1.6450    -2.9300     1.2370 C.2   1 <1>   0.5690 
  7 N        3.7300    -0.8480     2.1640 N.2   1 <1>  -0.3380 
  8 C        3.8130     0.1950     1.3840 C.2   1 <1>   0.1330 
  9 C        2.3050     1.4330    -0.2670 C.3   1 <1>   0.0960 
 10 O       -1.9900    -4.0320     1.5910 O.2   1 <1>  -0.5700 
 11 N       -2.4970    -2.0640     0.6220 N.am  1 <1>  -0.5790 
 12 C        4.9460     1.0830     1.3120 C.ar  1 <1>   0.0530 
 13 C        2.2430     0.9410    -1.7180 C.3   1 <1>  -0.2400 
 14 C       -3.9070    -2.3210     0.3000 C.3   1 <1>   0.0490 
 15 C        5.7460     1.1920     0.1690 C.ar  1 <1>   0.0820 
 16 C        5.2690     1.8820     2.4060 C.ar  1 <1>  -0.1500 
 17 C       -4.4490    -1.7520    -0.9680 C.3   1 <1>  -0.2000 
 18 C       -4.8570    -1.1710     0.3520 C.3   1 <1>  -0.2000 
 19 O        5.5180     0.4240    -0.9160 O.3   1 <1>  -0.3630 
 20 C        6.7910     2.0990     0.1120 C.ar  1 <1>  -0.1500 
 21 C        6.3210     2.7800     2.3570 C.ar  1 <1>  -0.1500 
 22 C        5.9340    -0.9210    -0.8320 C.3   1 <1>   0.1200 
 23 C        7.0810     2.8940     1.2060 C.ar  1 <1>  -0.1500 
 24 C        5.6120    -1.6010    -2.1590 C.3   1 <1>  -0.2400 
 25 H       -0.0720    -2.2960     2.5500 H     1 <1>   0.0800 
 26 H        0.4710    -3.2860     1.2040 H     1 <1>   0.0800 
 27 H        3.0250     2.2280    -0.1870 H     1 <1>   0.0800 
 28 H        1.3450     1.8210     0.0270 H     1 <1>   0.0800 
 29 H       -2.1350    -1.1580     0.3210 H     1 <1>   0.3700 
 30 H        3.2010     0.5690    -2.0330 H     1 <1>   0.0800 
 31 H        1.9740     1.7570    -2.3640 H     1 <1>   0.0800 
 32 H        1.5080     0.1650    -1.8310 H     1 <1>   0.0800 
 33 H       -4.2490    -3.2920     0.6220 H     1 <1>   0.1000 
 34 H        4.6820     1.7950     3.3040 H     1 <1>   0.1500 
 35 H       -5.1760    -2.3250    -1.5180 H     1 <1>   0.1000 
 36 H       -3.7930    -1.1910    -1.6090 H     1 <1>   0.1000 
 37 H       -4.4870    -0.2020     0.6370 H     1 <1>   0.1000 
 38 H       -5.8600    -1.3490     0.6980 H     1 <1>   0.1000 
 39 H        7.3760     2.1740    -0.7870 H     1 <1>   0.1500 
 40 H        6.5490     3.3890     3.2140 H     1 <1>   0.1500 
 41 H        5.4130    -1.4020    -0.0220 H     1 <1>   0.0800 
 42 H        6.9930    -0.9370    -0.6380 H     1 <1>   0.0800 
 43 H        7.8960     3.5960     1.1640 H     1 <1>   0.1500 
 44 H        4.5510    -1.5870    -2.3330 H     1 <1>   0.0800 
 45 H        5.9390    -2.6240    -2.1290 H     1 <1>   0.0800 
 46 H        6.1190    -1.1010    -2.9640 H     1 <1>   0.0800 
@<TRIPOS>BOND
  1   1   2  1   
  2   1   3  1   
  3   2   4  2   
  4   2   5  1   
  5   3   6  1   
  6   3  25  1   
  7   3  26  1   
  8   4   7  1   
  9   5   8  1   
 10   5   9  1   
 11   6  10  2   
 12   6  11  am  
 13   7   8  2   
 14   8  12  1   
 15   9  13  1   
 16   9  27  1   
 17   9  28  1   
 18  11  14  1   
 19  11  29  1   
 20  12  15  ar  
 21  12  16  ar  
 22  13  30  1   
 23  13  31  1   
 24  13  32  1   
 25  14  17  1   
 26  14  18  1   
 27  14  33  1   
 28  15  19  1   
 29  15  20  ar  
 30  16  21  ar  
 31  16  34  1   
 32  17  18  1   
 33  17  35  1   
 34  17  36  1   
 35  18  37  1   
 36  18  38  1   
 37  19  22  1   
 38  20  23  ar  
 39  20  39  1   
 40  21  23  ar  
 41  21  40  1   
 42  22  24  1   
 43  22  41  1   
 44  22  42  1   
 45  23  43  1   
 46  24  44  1   
 47  24  45  1   
 48  24  46  1   
@<TRIPOS>SUBSTRUCTURE
  1 ****   2 GROUP 4 **** **** 0

# MOE 2024.06 (io_trps.svl 2023.06)
