@<TRIPOS>MOLECULE
NONAME
30 31 1 0 0 
SMALL
USER_CHARGES


@<TRIPOS>ATOM
  1 CL      -1.3870    -1.8460    -1.7900 Cl    1 <1>  -0.1770 
  2 C       -0.3460    -2.4720    -0.5330 C.ar  1 <1>   0.1770 
  3 C       -0.7910    -2.5520     0.7780 C.ar  1 <1>   0.1770 
  4 C        0.9290    -2.8860    -0.8730 C.ar  1 <1>  -0.1500 
  5 CL      -2.4030    -2.0290     1.2110 Cl    1 <1>  -0.1770 
  6 C        0.0390    -3.0480     1.7670 C.ar  1 <1>  -0.1500 
  7 C        1.7690    -3.3850     0.1210 C.ar  1 <1>   0.0830 
  8 C        1.3180    -3.4640     1.4320 C.ar  1 <1>  -0.1500 
  9 O        3.0330    -3.8120    -0.1100 O.3   1 <1>  -0.3630 
 10 C        3.6000    -3.7810    -1.4140 C.3   1 <1>   0.1810 
 11 C        5.0310    -4.3130    -1.4240 C.2   1 <1>   0.5690 
 12 O        5.2790    -5.2370    -2.1650 O.2   1 <1>  -0.5700 
 13 N        6.0070    -3.7370    -0.6530 N.am  1 <1>  -0.6600 
 14 C        7.3990    -4.2320    -0.6330 C.3   1 <1>   0.1400 
 15 C        5.8160    -2.6400     0.3200 C.3   1 <1>   0.1400 
 16 C        8.0370    -3.5510     0.5730 C.3   1 <1>  -0.1600 
 17 C        7.2260    -2.2730     0.7690 C.3   1 <1>  -0.1600 
 18 H        1.2330    -2.8090    -1.8990 H     1 <1>   0.1500 
 19 H       -0.3130    -3.1090     2.7820 H     1 <1>   0.1500 
 20 H        1.9760    -3.8550     2.1880 H     1 <1>   0.1500 
 21 H        3.5970    -2.7670    -1.7650 H     1 <1>   0.0800 
 22 H        2.9940    -4.3930    -2.0570 H     1 <1>   0.0800 
 23 H        7.8900    -3.9330    -1.5440 H     1 <1>   0.0800 
 24 H        7.4240    -5.3060    -0.5470 H     1 <1>   0.0800 
 25 H        5.2420    -3.0060     1.1550 H     1 <1>   0.0800 
 26 H        5.3130    -1.8010    -0.1300 H     1 <1>   0.0800 
 27 H        9.0830    -3.3560     0.4140 H     1 <1>   0.0800 
 28 H        7.9260    -4.1910     1.4310 H     1 <1>   0.0800 
 29 H        7.2450    -1.9270     1.7870 H     1 <1>   0.0800 
 30 H        7.6070    -1.4970     0.1280 H     1 <1>   0.0800 
@<TRIPOS>BOND
  1   1   2  1   
  2   2   3  ar  
  3   2   4  ar  
  4   3   5  1   
  5   3   6  ar  
  6   4   7  ar  
  7   4  18  1   
  8   6   8  ar  
  9   6  19  1   
 10   7   8  ar  
 11   7   9  1   
 12   8  20  1   
 13   9  10  1   
 14  10  11  1   
 15  10  21  1   
 16  10  22  1   
 17  11  12  2   
 18  11  13  am  
 19  13  14  1   
 20  13  15  1   
 21  14  16  1   
 22  14  23  1   
 23  14  24  1   
 24  15  17  1   
 25  15  25  1   
 26  15  26  1   
 27  16  17  1   
 28  16  27  1   
 29  16  28  1   
 30  17  29  1   
 31  17  30  1   
@<TRIPOS>SUBSTRUCTURE
  1 ****   9 GROUP 4 **** **** 0

# MOE 2024.06 (io_trps.svl 2023.06)
