@<TRIPOS>MOLECULE
NONAME
33 33 1 0 0 
SMALL
USER_CHARGES


@<TRIPOS>ATOM
  1 CL       3.5240    -0.6090     4.7690 Cl    1 <1>  -0.1770 
  2 C        4.1490    -0.9110     3.1680 C.ar  1 <1>   0.1770 
  3 C        4.1070     0.0960     2.2220 C.ar  1 <1>  -0.1500 
  4 C        4.6770    -2.1530     2.8690 C.ar  1 <1>  -0.1500 
  5 C        4.6060    -0.1500     0.9540 C.ar  1 <1>  -0.1500 
  6 C        5.1750    -2.3940     1.5990 C.ar  1 <1>  -0.1500 
  7 C        5.1410    -1.3890     0.6310 C.ar  1 <1>   0.0830 
  8 O        5.6100    -1.5140    -0.6400 O.3   1 <1>  -0.3630 
  9 C        6.0980    -2.7050    -1.2570 C.3   1 <1>   0.3410 
 10 C        7.3150    -3.2870    -0.4870 C.2   1 <1>   0.5690 
 11 C        6.5550    -2.2630    -2.6540 C.3   1 <1>  -0.2400 
 12 C        4.9180    -3.6840    -1.4240 C.3   1 <1>  -0.2400 
 13 O        7.5200    -4.4800    -0.4910 O.2   1 <1>  -0.5700 
 14 N        8.1410    -2.4420     0.1890 N.am  1 <1>  -0.7300 
 15 C        9.2590    -2.8400     1.0480 C.3   1 <1>   0.2780 
 16 C        9.1480    -2.0300     2.3210 C.2   1 <1>  -0.2880 
 17 C       10.0420    -1.1340     2.7530 C.2   1 <1>  -0.3000 
 18 H        3.6910     1.0540     2.4770 H     1 <1>   0.1500 
 19 H        4.6970    -2.9180     3.6240 H     1 <1>   0.1500 
 20 H        4.5810     0.6220     0.2050 H     1 <1>   0.1500 
 21 H        5.5830    -3.3660     1.3960 H     1 <1>   0.1500 
 22 H        6.9280    -3.1100    -3.2020 H     1 <1>   0.0800 
 23 H        7.3460    -1.5390    -2.5730 H     1 <1>   0.0800 
 24 H        5.7360    -1.8330    -3.2020 H     1 <1>   0.0800 
 25 H        5.2300    -4.5300    -2.0100 H     1 <1>   0.0800 
 26 H        4.1000    -3.2020    -1.9290 H     1 <1>   0.0800 
 27 H        4.5770    -4.0560    -0.4780 H     1 <1>   0.0800 
 28 H        7.8880    -1.4530     0.2470 H     1 <1>   0.3700 
 29 H       10.1880    -2.6310     0.5460 H     1 <1>   0.0800 
 30 H        9.2120    -3.8940     1.2680 H     1 <1>   0.0800 
 31 H        8.2440    -2.2530     2.8630 H     1 <1>   0.1500 
 32 H        9.9330    -0.5710     3.6640 H     1 <1>   0.1500 
 33 H       10.9540    -0.8860     2.2370 H     1 <1>   0.1500 
@<TRIPOS>BOND
  1   1   2  1   
  2   2   3  ar  
  3   2   4  ar  
  4   3   5  ar  
  5   3  18  1   
  6   4   6  ar  
  7   4  19  1   
  8   5   7  ar  
  9   5  20  1   
 10   6   7  ar  
 11   6  21  1   
 12   7   8  1   
 13   8   9  1   
 14   9  10  1   
 15   9  11  1   
 16   9  12  1   
 17  10  13  2   
 18  10  14  am  
 19  11  22  1   
 20  11  23  1   
 21  11  24  1   
 22  12  25  1   
 23  12  26  1   
 24  12  27  1   
 25  14  15  1   
 26  14  28  1   
 27  15  16  1   
 28  15  29  1   
 29  15  30  1   
 30  16  17  2   
 31  16  31  1   
 32  17  32  1   
 33  17  33  1   
@<TRIPOS>SUBSTRUCTURE
  1 ****   7 GROUP 4 **** **** 0

# MOE 2024.06 (io_trps.svl 2023.06)
