@<TRIPOS>MOLECULE
NONAME
45 46 1 0 0 
SMALL
USER_CHARGES


@<TRIPOS>ATOM
  1 S       -0.0730     0.1080    -0.2660 S.o2  1 <1>   1.4470 
  2 O       -0.5350    -0.0930     1.0850 O.2   1 <1>  -0.6500 
  3 O       -0.9570     0.6320    -1.2770 O.2   1 <1>  -0.6500 
  4 N        0.1950    -1.4410    -0.7800 N.am  1 <1>  -0.9780 
  5 C        1.5590     0.8930    -0.3240 C.ar  1 <1>  -0.0090 
  6 C        2.3220     1.0620     0.8260 C.ar  1 <1>  -0.1500 
  7 C        2.1030     1.3310    -1.5260 C.ar  1 <1>  -0.1500 
  8 C        3.5740     1.6490     0.7780 C.ar  1 <1>  -0.1500 
  9 C        3.3540     1.9190    -1.5770 C.ar  1 <1>  -0.1500 
 10 C        4.1100     2.0910    -0.4260 C.ar  1 <1>   0.1170 
 11 N        5.3760     2.6820    -0.5360 N.am  1 <1>  -0.5470 
 12 C        6.2220     3.2280     0.3910 C.2   1 <1>   0.5690 
 13 O        5.9420     3.3340     1.5630 O.2   1 <1>  -0.5700 
 14 C        7.5670     3.7230    -0.1390 C.3   1 <1>  -0.0190 
 15 C        8.6890     2.6660    -0.2500 C.3   1 <1>   0.0000 
 16 C        8.2040     4.8970     0.6190 C.3   1 <1>  -0.1600 
 17 C        9.9390     3.5570    -0.5570 C.3   1 <1>  -0.1060 
 18 C        8.3930     1.6280    -1.3530 C.3   1 <1>  -0.2400 
 19 C        8.8250     1.8840     1.0800 C.3   1 <1>  -0.2400 
 20 C        9.7090     4.8150     0.3240 C.3   1 <1>  -0.1600 
 21 C        9.9770     3.9530    -2.0670 C.2   1 <1>   0.9060 
 22 C       11.2910     2.9070    -0.1560 C.3   1 <1>  -0.2400 
 23 O        9.2550     4.8680    -2.4920 O.co2 1 <1>  -0.9000 
 24 O       10.7080     3.3250    -2.8450 O.co2 1 <1>  -0.9000 
 25 H       -0.5820    -1.6130    -1.4120 H     1 <1>   0.4200 
 26 H        0.0110    -1.9970     0.0520 H     1 <1>   0.4200 
 27 H        1.9330     0.7310     1.7750 H     1 <1>   0.1500 
 28 H        1.5350     1.2100    -2.4340 H     1 <1>   0.1500 
 29 H        4.1350     1.7590     1.6890 H     1 <1>   0.1500 
 30 H        3.7450     2.2510    -2.5220 H     1 <1>   0.1500 
 31 H        5.7540     2.7220    -1.4830 H     1 <1>   0.3700 
 32 H        7.3710     4.0920    -1.1290 H     1 <1>   0.0800 
 33 H        8.0400     4.8020     1.6780 H     1 <1>   0.0800 
 34 H        7.7920     5.8320     0.2810 H     1 <1>   0.0800 
 35 H        8.1450     2.1070    -2.2850 H     1 <1>   0.0800 
 36 H        7.5780     0.9870    -1.0730 H     1 <1>   0.0800 
 37 H        9.2630     1.0180    -1.5230 H     1 <1>   0.0800 
 38 H        9.6020     1.1450     1.0070 H     1 <1>   0.0800 
 39 H        7.9130     1.3670     1.3180 H     1 <1>   0.0800 
 40 H        9.0560     2.5420     1.8970 H     1 <1>   0.0800 
 41 H       10.2410     4.7380     1.2550 H     1 <1>   0.0800 
 42 H       10.0500     5.7020    -0.1830 H     1 <1>   0.0800 
 43 H       11.3640     2.7310     0.9010 H     1 <1>   0.0800 
 44 H       12.0980     3.5570    -0.4460 H     1 <1>   0.0800 
 45 H       11.4180     1.9750    -0.6770 H     1 <1>   0.0800 
@<TRIPOS>BOND
  1   1   2  2   
  2   1   3  2   
  3   1   4  am  
  4   1   5  1   
  5   4  25  1   
  6   4  26  1   
  7   5   6  ar  
  8   5   7  ar  
  9   6   8  ar  
 10   6  27  1   
 11   7   9  ar  
 12   7  28  1   
 13   8  10  ar  
 14   8  29  1   
 15   9  10  ar  
 16   9  30  1   
 17  10  11  1   
 18  11  12  am  
 19  11  31  1   
 20  12  13  2   
 21  12  14  1   
 22  14  15  1   
 23  14  16  1   
 24  14  32  1   
 25  15  17  1   
 26  15  18  1   
 27  15  19  1   
 28  16  20  1   
 29  16  33  1   
 30  16  34  1   
 31  17  20  1   
 32  17  21  1   
 33  17  22  1   
 34  18  35  1   
 35  18  36  1   
 36  18  37  1   
 37  19  38  1   
 38  19  39  1   
 39  19  40  1   
 40  20  41  1   
 41  20  42  1   
 42  21  23  ar  
 43  21  24  ar  
 44  22  43  1   
 45  22  44  1   
 46  22  45  1   
@<TRIPOS>SUBSTRUCTURE
  1 ****  11 GROUP 4 **** **** 0

# MOE 2024.06 (io_trps.svl 2023.06)
