@<TRIPOS>MOLECULE
NONAME
52 55 1 0 0 
SMALL
USER_CHARGES


@<TRIPOS>ATOM
  1 O        0.5490    -0.5730    -1.0510 O.2   1 <1>  -0.5700 
  2 C        1.4940    -1.0660    -0.4610 C.2   1 <1>   0.5440 
  3 N        2.5290    -0.2530    -0.0300 N.am  1 <1>  -0.4200 
  4 C        1.5420    -2.4880    -0.2240 C.ar  1 <1>   0.0860 
  5 C        3.6540    -0.7870     0.5740 C.2   1 <1>   0.5440 
  6 C        2.4280     1.2290    -0.2170 C.3   1 <1>   0.1400 
  7 C        2.6670    -3.0470     0.4280 C.ar  1 <1>   0.0000 
  8 C        0.5170    -3.3310    -0.6170 C.ar  1 <1>  -0.1500 
  9 O        4.5830    -0.0570     0.8710 O.2   1 <1>  -0.5700 
 10 C        3.7310    -2.2060     0.8440 C.ar  1 <1>   0.0860 
 11 C        2.9300     1.6230    -1.6110 C.3   1 <1>  -0.1600 
 12 C        2.7280    -4.4400     0.6710 C.ar  1 <1>   0.0000 
 13 C        0.5800    -4.6970    -0.3970 C.ar  1 <1>  -0.1500 
 14 C        4.8090    -2.7650     1.5020 C.ar  1 <1>  -0.1500 
 15 C        3.1640     3.1350    -1.7800 C.3   1 <1>  -0.1600 
 16 C        1.6650    -5.2750     0.2260 C.ar  1 <1>   0.1000 
 17 C        3.8460    -4.9430     1.3640 C.ar  1 <1>  -0.1500 
 18 C        4.8680    -4.1290     1.7680 C.ar  1 <1>  -0.1500 
 19 C        1.9240     4.0080    -1.5160 C.3   1 <1>  -0.1600 
 20 N        1.7130    -6.6480     0.3890 N.pl3 1 <1>  -0.8380 
 21 C        1.8670     4.5510    -0.0750 C.3   1 <1>  -0.2660 
 22 C        2.6220    -7.4740    -0.4590 C.3   1 <1>   0.2090 
 23 C        0.5820    -7.4210     0.9840 C.3   1 <1>   0.2090 
 24 C        0.6780     5.4570     0.1550 C.2   1 <1>   0.9060 
 25 C        1.8180    -8.3620    -1.4260 C.3   1 <1>   0.1200 
 26 C       -0.0900    -8.3300    -0.0630 C.3   1 <1>   0.1200 
 27 O        0.7370     6.6220    -0.2480 O.co2 1 <1>  -0.9000 
 28 O       -0.3030     5.0000     0.7480 O.co2 1 <1>  -0.9000 
 29 O        0.8550    -9.1140    -0.7390 O.3   1 <1>  -0.5600 
 30 H        3.0120     1.7310     0.5350 H     1 <1>   0.0800 
 31 H        1.4050     1.5440    -0.0920 H     1 <1>   0.0800 
 32 H       -0.3490    -2.9230    -1.1100 H     1 <1>   0.1500 
 33 H        2.2120     1.2940    -2.3420 H     1 <1>   0.0800 
 34 H        3.8620     1.1210    -1.8010 H     1 <1>   0.0800 
 35 H       -0.2310    -5.3170    -0.7330 H     1 <1>   0.1500 
 36 H        5.6260    -2.1410     1.8240 H     1 <1>   0.1500 
 37 H        3.4760     3.3010    -2.7970 H     1 <1>   0.0800 
 38 H        3.9750     3.4520    -1.1480 H     1 <1>   0.0800 
 39 H        3.8870    -5.9950     1.5830 H     1 <1>   0.1500 
 40 H        5.7180    -4.5310     2.2930 H     1 <1>   0.1500 
 41 H        1.0190     3.4680    -1.7400 H     1 <1>   0.0800 
 42 H        1.9550     4.8600    -2.1750 H     1 <1>   0.0800 
 43 H        2.7480     5.1250     0.1370 H     1 <1>   0.0800 
 44 H        1.8040     3.7540     0.6380 H     1 <1>   0.0800 
 45 H        3.2280    -8.0990     0.1740 H     1 <1>   0.0800 
 46 H        3.2770    -6.8330    -1.0230 H     1 <1>   0.0800 
 47 H       -0.1450    -6.7450     1.3990 H     1 <1>   0.0800 
 48 H        0.9590    -8.0300     1.7870 H     1 <1>   0.0800 
 49 H        2.4730    -9.0500    -1.9290 H     1 <1>   0.0800 
 50 H        1.3200    -7.7560    -2.1630 H     1 <1>   0.0800 
 51 H       -0.6240    -7.7400    -0.7860 H     1 <1>   0.0800 
 52 H       -0.7840    -8.9960     0.4180 H     1 <1>   0.0800 
@<TRIPOS>BOND
  1   1   2  2   
  2   2   3  am  
  3   2   4  1   
  4   3   5  am  
  5   3   6  1   
  6   4   7  ar  
  7   4   8  ar  
  8   5   9  2   
  9   5  10  1   
 10   6  11  1   
 11   6  30  1   
 12   6  31  1   
 13   7  10  ar  
 14   7  12  ar  
 15   8  13  ar  
 16   8  32  1   
 17  10  14  ar  
 18  11  15  1   
 19  11  33  1   
 20  11  34  1   
 21  12  16  ar  
 22  12  17  ar  
 23  13  16  ar  
 24  13  35  1   
 25  14  18  ar  
 26  14  36  1   
 27  15  19  1   
 28  15  37  1   
 29  15  38  1   
 30  16  20  1   
 31  17  18  ar  
 32  17  39  1   
 33  18  40  1   
 34  19  21  1   
 35  19  41  1   
 36  19  42  1   
 37  20  22  1   
 38  20  23  1   
 39  21  24  1   
 40  21  43  1   
 41  21  44  1   
 42  22  25  1   
 43  22  45  1   
 44  22  46  1   
 45  23  26  1   
 46  23  47  1   
 47  23  48  1   
 48  24  27  ar  
 49  24  28  ar  
 50  25  29  1   
 51  25  49  1   
 52  25  50  1   
 53  26  29  1   
 54  26  51  1   
 55  26  52  1   
@<TRIPOS>SUBSTRUCTURE
  1 ****   4 GROUP 4 **** **** 0

# MOE 2024.06 (io_trps.svl 2023.06)
