@<TRIPOS>MOLECULE
NONAME
47 48 1 0 0 
SMALL
USER_CHARGES


@<TRIPOS>ATOM
  1 O        0.0610     0.8630     1.5960 O.2   1 <1>  -0.5700 
  2 C        0.1060     1.9590     1.0730 C.2   1 <1>   0.5440 
  3 N       -1.0300     2.7450     1.1060 N.am  1 <1>  -0.6600 
  4 C        1.3110     2.4070     0.3960 C.ar  1 <1>   0.0860 
  5 C       -1.2390     3.9160     0.2030 C.3   1 <1>   0.1400 
  6 C       -2.2480     2.3290     1.8650 C.3   1 <1>   0.1400 
  7 C        2.1380     3.3800     0.9720 C.ar  1 <1>  -0.1440 
  8 C        1.6550     1.9050    -0.8660 C.ar  1 <1>  -0.1430 
  9 C       -2.4200     3.6460    -0.7510 C.3   1 <1>   0.3430 
 10 C       -3.4050     2.0510     0.8910 C.3   1 <1>   0.3430 
 11 C        3.2430     3.8560     0.2870 C.ar  1 <1>  -0.1500 
 12 C        1.8500     3.9270     2.3650 C.3   1 <1>  -0.0970 
 13 C        2.7650     2.3920    -1.5350 C.ar  1 <1>  -0.1500 
 14 C        0.8260     0.8080    -1.5230 C.3   1 <1>  -0.0960 
 15 N       -3.6730     3.2270    -0.0220 N.4   1 <1>  -0.9590 
 16 C        3.5600     3.3700    -0.9680 C.ar  1 <1>  -0.1430 
 17 C       -4.7670     2.9430    -0.9920 C.3   1 <1>   0.3430 
 18 C        4.7740     3.8990    -1.7110 C.3   1 <1>  -0.0970 
 19 C       -6.1180     2.8890    -0.2750 C.3   1 <1>  -0.1600 
 20 C       -7.2620     2.7130    -1.2810 C.3   1 <1>  -0.2400 
 21 H       -0.3570     4.1150    -0.3800 H     1 <1>   0.0800 
 22 H       -1.4390     4.7910     0.7970 H     1 <1>   0.0800 
 23 H       -2.5230     3.1090     2.5520 H     1 <1>   0.0800 
 24 H       -2.0540     1.4440     2.4460 H     1 <1>   0.0800 
 25 H       -2.1260     2.8670    -1.4360 H     1 <1>   0.0800 
 26 H       -2.6130     4.5350    -1.3290 H     1 <1>   0.0800 
 27 H       -4.2880     1.8150     1.4600 H     1 <1>   0.0800 
 28 H       -3.1490     1.1840     0.3040 H     1 <1>   0.0800 
 29 H        3.8690     4.6090     0.7320 H     1 <1>   0.1500 
 30 H        1.7080     3.1160     3.0580 H     1 <1>   0.0800 
 31 H        0.9640     4.5340     2.3530 H     1 <1>   0.0800 
 32 H        2.6690     4.5260     2.7220 H     1 <1>   0.0800 
 33 H        3.0220     2.0050    -2.5050 H     1 <1>   0.1500 
 34 H       -0.1900     1.1290    -1.6510 H     1 <1>   0.0800 
 35 H        0.8370    -0.0730    -0.9050 H     1 <1>   0.0800 
 36 H        1.2250     0.5440    -2.4860 H     1 <1>   0.0800 
 37 H       -3.9690     4.0160     0.5670 H     1 <1>   0.4500 
 38 H       -4.5820     2.0100    -1.4990 H     1 <1>   0.0800 
 39 H       -4.8040     3.7260    -1.7330 H     1 <1>   0.0800 
 40 H        4.4910     4.7390    -2.3200 H     1 <1>   0.0800 
 41 H        5.1890     3.1350    -2.3440 H     1 <1>   0.0800 
 42 H        5.5340     4.2120    -1.0180 H     1 <1>   0.0800 
 43 H       -6.2810     3.8020     0.2700 H     1 <1>   0.0800 
 44 H       -6.1470     2.0630     0.4130 H     1 <1>   0.0800 
 45 H       -7.2930     3.5350    -1.9760 H     1 <1>   0.0800 
 46 H       -8.2050     2.6790    -0.7620 H     1 <1>   0.0800 
 47 H       -7.1510     1.7960    -1.8340 H     1 <1>   0.0800 
@<TRIPOS>BOND
  1   1   2  2   
  2   2   3  am  
  3   2   4  1   
  4   3   5  1   
  5   3   6  1   
  6   4   7  ar  
  7   4   8  ar  
  8   5   9  1   
  9   5  21  1   
 10   5  22  1   
 11   6  10  1   
 12   6  23  1   
 13   6  24  1   
 14   7  11  ar  
 15   7  12  1   
 16   8  13  ar  
 17   8  14  1   
 18   9  15  1   
 19   9  25  1   
 20   9  26  1   
 21  10  15  1   
 22  10  27  1   
 23  10  28  1   
 24  11  16  ar  
 25  11  29  1   
 26  12  30  1   
 27  12  31  1   
 28  12  32  1   
 29  13  16  ar  
 30  13  33  1   
 31  14  34  1   
 32  14  35  1   
 33  14  36  1   
 34  15  17  1   
 35  15  37  1   
 36  16  18  1   
 37  17  19  1   
 38  17  38  1   
 39  17  39  1   
 40  18  40  1   
 41  18  41  1   
 42  18  42  1   
 43  19  20  1   
 44  19  43  1   
 45  19  44  1   
 46  20  45  1   
 47  20  46  1   
 48  20  47  1   
@<TRIPOS>SUBSTRUCTURE
  1 ****   3 GROUP 4 **** **** 0

# MOE 2024.06 (io_trps.svl 2023.06)
