@<TRIPOS>MOLECULE
NONAME
39 39 1 0 0 
SMALL
USER_CHARGES


@<TRIPOS>ATOM
  1 O      -14.6080     1.7670     0.5470 O.3   1 <1>  -0.3630 
  2 C      -13.2820     1.4640     0.5360 C.ar  1 <1>   0.0820 
  3 C      -15.1810     2.7670    -0.2650 C.3   1 <1>   0.2000 
  4 C      -12.8890     0.4000     1.3310 C.ar  1 <1>  -0.1500 
  5 C      -12.3250     2.1480    -0.2090 C.ar  1 <1>  -0.1500 
  6 C      -16.5250     3.1330     0.3600 C.3   1 <1>  -0.2400 
  7 C      -15.3660     2.2130    -1.6800 C.3   1 <1>  -0.2400 
  8 C      -11.5610     0.0170     1.3860 C.ar  1 <1>  -0.1500 
  9 C      -10.9950     1.7670    -0.1560 C.ar  1 <1>  -0.1500 
 10 C      -10.6060     0.6950     0.6450 C.ar  1 <1>   0.0820 
 11 O       -9.3250     0.2540     0.7560 O.3   1 <1>  -0.3630 
 12 C       -8.2790     0.8690     0.0490 C.3   1 <1>   0.1200 
 13 C       -6.9960     0.1170     0.4120 C.3   1 <1>   0.3430 
 14 N       -5.8020     0.6790    -0.2870 N.4   1 <1>  -0.9060 
 15 C       -4.5570    -0.0200     0.0680 C.3   1 <1>   0.4810 
 16 C       -3.4560     0.7410    -0.6240 C.2   1 <1>  -0.2880 
 17 C       -2.5640     1.5300    -0.0150 C.2   1 <1>  -0.3000 
 18 H      -14.5430     3.6340    -0.2560 H     1 <1>   0.0800 
 19 H      -13.6310    -0.1240     1.9050 H     1 <1>   0.1500 
 20 H      -12.5970     2.9770    -0.8340 H     1 <1>   0.1500 
 21 H      -17.1680     2.2730     0.3950 H     1 <1>   0.0800 
 22 H      -17.0040     3.9000    -0.2200 H     1 <1>   0.0800 
 23 H      -16.3740     3.5050     1.3570 H     1 <1>   0.0800 
 24 H      -15.9950     1.3420    -1.6570 H     1 <1>   0.0800 
 25 H      -14.4190     1.9500    -2.1130 H     1 <1>   0.0800 
 26 H      -15.8280     2.9550    -2.3060 H     1 <1>   0.0800 
 27 H      -11.2660    -0.8100     2.0050 H     1 <1>   0.1500 
 28 H      -10.2880     2.3180    -0.7440 H     1 <1>   0.1500 
 29 H       -8.2280     1.8980     0.3580 H     1 <1>   0.0800 
 30 H       -8.4940     0.7870    -1.0020 H     1 <1>   0.0800 
 31 H       -7.1190    -0.9200     0.1420 H     1 <1>   0.0800 
 32 H       -6.8540     0.1780     1.4790 H     1 <1>   0.0800 
 33 H       -5.6620     1.6680    -0.0440 H     1 <1>   0.4500 
 34 H       -5.9140     0.6370    -1.3060 H     1 <1>   0.4500 
 35 H       -4.5760    -1.0480    -0.2610 H     1 <1>   0.0800 
 36 H       -4.4050     0.0070     1.1360 H     1 <1>   0.0800 
 37 H       -3.4400     0.5860    -1.6910 H     1 <1>   0.1500 
 38 H       -1.7800     2.0600    -0.5350 H     1 <1>   0.1500 
 39 H       -2.5210     1.7210     1.0460 H     1 <1>   0.1500 
@<TRIPOS>BOND
  1   1   2  1   
  2   1   3  1   
  3   2   4  ar  
  4   2   5  ar  
  5   3   6  1   
  6   3   7  1   
  7   3  18  1   
  8   4   8  ar  
  9   4  19  1   
 10   5   9  ar  
 11   5  20  1   
 12   6  21  1   
 13   6  22  1   
 14   6  23  1   
 15   7  24  1   
 16   7  25  1   
 17   7  26  1   
 18   8  10  ar  
 19   8  27  1   
 20   9  10  ar  
 21   9  28  1   
 22  10  11  1   
 23  11  12  1   
 24  12  13  1   
 25  12  29  1   
 26  12  30  1   
 27  13  14  1   
 28  13  31  1   
 29  13  32  1   
 30  14  15  1   
 31  14  33  1   
 32  14  34  1   
 33  15  16  1   
 34  15  35  1   
 35  15  36  1   
 36  16  17  2   
 37  16  37  1   
 38  17  38  1   
 39  17  39  1   
@<TRIPOS>SUBSTRUCTURE
  1 ****  10 GROUP 4 **** **** 0

# MOE 2024.06 (io_trps.svl 2023.06)
