@<TRIPOS>MOLECULE
NONAME
43 45 1 0 0 
SMALL
USER_CHARGES


@<TRIPOS>ATOM
  1 O       -0.7150     0.2680     2.5450 O.2   1 <1>  -0.5700 
  2 C       -1.6540     0.4950     1.8170 C.2   1 <1>   0.5690 
  3 N       -2.5770    -0.4750     1.4830 N.am  1 <1>  -0.2980 
  4 C       -1.8220     1.9060     1.2720 C.3   1 <1>  -0.0990 
  5 N       -3.7900    -0.3040     0.8520 N.2   1 <1>  -0.5120 
  6 C       -2.3540    -1.8860     1.8460 C.3   1 <1>   0.3640 
  7 C       -1.3550     2.0270    -0.1870 C.3   1 <1>  -0.2400 
  8 C       -4.4420    -1.4010     0.8480 C.2   1 <1>   0.4740 
  9 C       -1.2520    -2.5180     0.9940 C.ar  1 <1>  -0.1440 
 10 C       -3.7080    -2.5200     1.5480 C.3   1 <1>  -0.0990 
 11 C       -5.7380    -1.6590     0.2810 C.2   1 <1>   0.0550 
 12 C       -0.2760    -3.2960     1.6000 C.ar  1 <1>  -0.1500 
 13 C       -1.2090    -2.3370    -0.3840 C.ar  1 <1>  -0.1500 
 14 O       -6.4110    -0.6950    -0.3400 O.3   1 <1>  -0.2800 
 15 C       -6.4890    -2.7970     0.2440 C.2   1 <1>  -0.1500 
 16 C        0.7180    -3.8900     0.8420 C.ar  1 <1>  -0.1500 
 17 C       -0.2160    -2.9300    -1.1440 C.ar  1 <1>  -0.1500 
 18 C       -7.5580    -1.1810    -0.7660 C.2   1 <1>  -0.0400 
 19 C       -7.6670    -2.4830    -0.4340 C.2   1 <1>  -0.1500 
 20 C        0.7560    -3.7150    -0.5310 C.ar  1 <1>   0.0820 
 21 C       -8.5020    -0.2610    -1.5080 C.3   1 <1>  -0.0600 
 22 O        1.7610    -4.3330    -1.2000 O.3   1 <1>  -0.3630 
 23 C        1.9270    -4.1650    -2.5900 C.3   1 <1>   0.0400 
 24 H       -1.2500     2.5790     1.8850 H     1 <1>   0.0800 
 25 H       -2.8550     2.1910     1.3470 H     1 <1>   0.0800 
 26 H       -2.1180    -1.9520     2.8950 H     1 <1>   0.0800 
 27 H       -0.3200     1.7450    -0.2690 H     1 <1>   0.0800 
 28 H       -1.4680     3.0400    -0.5300 H     1 <1>   0.0800 
 29 H       -1.9410     1.3810    -0.8170 H     1 <1>   0.0800 
 30 H       -4.2090    -2.7810     2.4610 H     1 <1>   0.0800 
 31 H       -3.6140    -3.3860     0.9190 H     1 <1>   0.0800 
 32 H       -0.2780    -3.4410     2.6660 H     1 <1>   0.1500 
 33 H       -1.9490    -1.7270    -0.8730 H     1 <1>   0.1500 
 34 H       -6.2550    -3.7660     0.6470 H     1 <1>   0.1500 
 35 H        1.4750    -4.4910     1.3110 H     1 <1>   0.1500 
 36 H       -0.2150    -2.7670    -2.2050 H     1 <1>   0.1500 
 37 H       -8.4780    -3.1600    -0.6370 H     1 <1>   0.1500 
 38 H       -8.7730     0.5650    -0.8760 H     1 <1>   0.0800 
 39 H       -9.3920    -0.7920    -1.7930 H     1 <1>   0.0800 
 40 H       -8.0200     0.1170    -2.3900 H     1 <1>   0.0800 
 41 H        2.7930    -4.7250    -2.8930 H     1 <1>   0.0800 
 42 H        2.0740    -3.1210    -2.8000 H     1 <1>   0.0800 
 43 H        1.0540    -4.5420    -3.0940 H     1 <1>   0.0800 
@<TRIPOS>BOND
  1   1   2  2   
  2   2   3  am  
  3   2   4  1   
  4   3   5  1   
  5   3   6  1   
  6   4   7  1   
  7   4  24  1   
  8   4  25  1   
  9   5   8  2   
 10   6   9  1   
 11   6  10  1   
 12   6  26  1   
 13   7  27  1   
 14   7  28  1   
 15   7  29  1   
 16   8  10  1   
 17   8  11  1   
 18   9  12  ar  
 19   9  13  ar  
 20  10  30  1   
 21  10  31  1   
 22  11  14  1   
 23  11  15  2   
 24  12  16  ar  
 25  12  32  1   
 26  13  17  ar  
 27  13  33  1   
 28  14  18  1   
 29  15  19  1   
 30  15  34  1   
 31  16  20  ar  
 32  16  35  1   
 33  17  20  ar  
 34  17  36  1   
 35  18  19  2   
 36  18  21  1   
 37  19  37  1   
 38  20  22  1   
 39  21  38  1   
 40  21  39  1   
 41  21  40  1   
 42  22  23  1   
 43  23  41  1   
 44  23  42  1   
 45  23  43  1   
@<TRIPOS>SUBSTRUCTURE
  1 ****   6 GROUP 4 **** **** 0

# MOE 2024.06 (io_trps.svl 2023.06)
