@<TRIPOS>MOLECULE
NONAME
42 43 1 0 0 
SMALL
USER_CHARGES


@<TRIPOS>ATOM
  1 F      -16.7950     1.5930    -0.5200 F     1 <1>  -0.3400 
  2 C      -15.7160     0.9810    -0.0450 C.3   1 <1>   1.1640 
  3 F      -16.1020     0.3570     1.0610 F     1 <1>  -0.3400 
  4 F      -15.4150     0.0320    -0.9230 F     1 <1>  -0.3400 
  5 C      -14.5540     1.9510     0.2190 C.ar  1 <1>  -0.1440 
  6 C      -13.2340     1.5410     0.0620 C.ar  1 <1>  -0.1500 
  7 C      -14.7980     3.2580     0.6300 C.ar  1 <1>  -0.1500 
  8 C      -12.1800     2.4070     0.3020 C.ar  1 <1>   0.0830 
  9 C      -13.7500     4.1300     0.8720 C.ar  1 <1>  -0.1500 
 10 O      -10.9340     1.9090     0.1170 O.3   1 <1>  -0.3630 
 11 C      -12.4430     3.7110     0.7090 C.ar  1 <1>  -0.1500 
 12 C       -9.7870     2.6960     0.3240 C.3   1 <1>   0.1200 
 13 C       -8.5710     1.8170     0.0240 C.3   1 <1>  -0.1600 
 14 C       -7.2500     2.5760     0.2100 C.3   1 <1>  -0.1600 
 15 C       -6.0650     1.6560    -0.0920 C.3   1 <1>   0.3430 
 16 N       -4.7750     2.3510     0.1750 N.4   1 <1>  -0.9590 
 17 C       -4.4820     3.4350    -0.8320 C.3   1 <1>   0.3430 
 18 C       -3.6390     1.3630     0.2110 C.3   1 <1>   0.3430 
 19 C       -3.0840     4.0450    -0.6200 C.3   1 <1>   0.1200 
 20 C       -2.2780     2.0680     0.3790 C.3   1 <1>   0.1200 
 21 O       -2.1120     3.0400    -0.6110 O.3   1 <1>  -0.5600 
 22 H      -13.0020     0.5370    -0.2500 H     1 <1>   0.1500 
 23 H      -15.8080     3.6070     0.7660 H     1 <1>   0.1500 
 24 H      -13.9560     5.1390     1.1880 H     1 <1>   0.1500 
 25 H      -11.6520     4.4100     0.9040 H     1 <1>   0.1500 
 26 H       -9.7840     3.0270     1.3480 H     1 <1>   0.0800 
 27 H       -9.8320     3.5390    -0.3440 H     1 <1>   0.0800 
 28 H       -8.6490     1.4650    -0.9910 H     1 <1>   0.0800 
 29 H       -8.5980     0.9660     0.6840 H     1 <1>   0.0800 
 30 H       -7.1890     2.9250     1.2260 H     1 <1>   0.0800 
 31 H       -7.2440     3.4230    -0.4540 H     1 <1>   0.0800 
 32 H       -6.1050     1.3310    -1.1200 H     1 <1>   0.0800 
 33 H       -6.1400     0.7820     0.5360 H     1 <1>   0.0800 
 34 H       -4.8290     2.7900     1.1040 H     1 <1>   0.4500 
 35 H       -5.2210     4.2150    -0.7630 H     1 <1>   0.0800 
 36 H       -4.5240     3.0270    -1.8280 H     1 <1>   0.0800 
 37 H       -3.6150     0.8020    -0.7090 H     1 <1>   0.0800 
 38 H       -3.7800     0.6660     1.0210 H     1 <1>   0.0800 
 39 H       -3.0300     4.5880     0.3080 H     1 <1>   0.0800 
 40 H       -2.8470     4.7200    -1.4250 H     1 <1>   0.0800 
 41 H       -1.4770     1.3560     0.2740 H     1 <1>   0.0800 
 42 H       -2.1960     2.5360     1.3440 H     1 <1>   0.0800 
@<TRIPOS>BOND
  1   1   2  1   
  2   2   3  1   
  3   2   4  1   
  4   2   5  1   
  5   5   6  ar  
  6   5   7  ar  
  7   6   8  ar  
  8   6  22  1   
  9   7   9  ar  
 10   7  23  1   
 11   8  10  1   
 12   8  11  ar  
 13   9  11  ar  
 14   9  24  1   
 15  10  12  1   
 16  11  25  1   
 17  12  13  1   
 18  12  26  1   
 19  12  27  1   
 20  13  14  1   
 21  13  28  1   
 22  13  29  1   
 23  14  15  1   
 24  14  30  1   
 25  14  31  1   
 26  15  16  1   
 27  15  32  1   
 28  15  33  1   
 29  16  17  1   
 30  16  18  1   
 31  16  34  1   
 32  17  19  1   
 33  17  35  1   
 34  17  36  1   
 35  18  20  1   
 36  18  37  1   
 37  18  38  1   
 38  19  21  1   
 39  19  39  1   
 40  19  40  1   
 41  20  21  1   
 42  20  41  1   
 43  20  42  1   
@<TRIPOS>SUBSTRUCTURE
  1 ****  12 GROUP 4 **** **** 0

# MOE 2024.06 (io_trps.svl 2023.06)
