@<TRIPOS>MOLECULE
NONAME
34 35 1 0 0 
SMALL
USER_CHARGES


@<TRIPOS>ATOM
  1 BR      -0.1860     0.2280     0.9580 Br    1 <1>  -0.1110 
  2 C       -0.0670     1.9710     0.1370 C.ar  1 <1>   0.1110 
  3 C       -1.1260     2.4670    -0.6140 C.ar  1 <1>   0.0830 
  4 C        1.1030     2.6810     0.3160 C.ar  1 <1>  -0.1500 
  5 O       -2.2700     1.7790    -0.8020 O.3   1 <1>  -0.3630 
  6 C       -0.9800     3.7080    -1.2100 C.ar  1 <1>  -0.1500 
  7 C        1.2600     3.9360    -0.2800 C.ar  1 <1>   0.0860 
  8 C       -3.1930     1.7130     0.2640 C.3   1 <1>   0.1200 
  9 C        0.1910     4.4270    -1.0370 C.ar  1 <1>  -0.1500 
 10 C        2.4780     4.7070    -0.1320 C.2   1 <1>   0.5440 
 11 C       -4.0770     2.9600     0.2400 C.3   1 <1>  -0.2400 
 12 O        2.4360     5.9180    -0.1140 O.2   1 <1>  -0.5700 
 13 N        3.6850     4.0550    -0.0500 N.am  1 <1>  -0.4940 
 14 C        4.9340     4.5480     0.2650 C.2   1 <1>   0.4420 
 15 S        6.2620     3.4470     0.0920 S.3   1 <1>  -0.0800 
 16 N        5.3130     5.6990     0.6900 N.2   1 <1>  -0.3380 
 17 C        7.2970     4.7230     0.6380 C.2   1 <1>   0.1980 
 18 N        6.6620     5.7910     0.9000 N.2   1 <1>  -0.3380 
 19 C        8.7860     4.4510     0.7500 C.3   1 <1>   0.0200 
 20 C        9.4510     4.3260    -0.6260 C.3   1 <1>  -0.2400 
 21 H        1.8810     2.2580     0.9250 H     1 <1>   0.1500 
 22 H       -1.7850     4.1040    -1.8030 H     1 <1>   0.1500 
 23 H       -2.6600     1.6330     1.1950 H     1 <1>   0.0800 
 24 H       -3.7880     0.8280     0.1210 H     1 <1>   0.0800 
 25 H        0.2880     5.3960    -1.4990 H     1 <1>   0.1500 
 26 H       -3.4880     3.8420     0.4150 H     1 <1>   0.0800 
 27 H       -4.8200     2.8900     1.0130 H     1 <1>   0.0800 
 28 H       -4.5760     3.0410    -0.7090 H     1 <1>   0.0800 
 29 H        3.6680     3.0710    -0.2950 H     1 <1>   0.3700 
 30 H        8.9390     3.5490     1.3150 H     1 <1>   0.0800 
 31 H        9.2410     5.2620     1.2900 H     1 <1>   0.0800 
 32 H        9.0380     3.4960    -1.1730 H     1 <1>   0.0800 
 33 H       10.5090     4.1710    -0.5130 H     1 <1>   0.0800 
 34 H        9.2940     5.2270    -1.1940 H     1 <1>   0.0800 
@<TRIPOS>BOND
  1   1   2  1   
  2   2   3  ar  
  3   2   4  ar  
  4   3   5  1   
  5   3   6  ar  
  6   4   7  ar  
  7   4  21  1   
  8   5   8  1   
  9   6   9  ar  
 10   6  22  1   
 11   7   9  ar  
 12   7  10  1   
 13   8  11  1   
 14   8  23  1   
 15   8  24  1   
 16   9  25  1   
 17  10  12  2   
 18  10  13  am  
 19  11  26  1   
 20  11  27  1   
 21  11  28  1   
 22  13  14  1   
 23  13  29  1   
 24  14  15  1   
 25  14  16  2   
 26  15  17  1   
 27  16  18  1   
 28  17  18  2   
 29  17  19  1   
 30  19  20  1   
 31  19  30  1   
 32  19  31  1   
 33  20  32  1   
 34  20  33  1   
 35  20  34  1   
@<TRIPOS>SUBSTRUCTURE
  1 ****  10 GROUP 4 **** **** 0

# MOE 2024.06 (io_trps.svl 2023.06)
