@<TRIPOS>MOLECULE
NONAME
28 29 1 0 0 
SMALL
USER_CHARGES


@<TRIPOS>ATOM
  1 O        0.0590    -0.4480     0.3940 O.3   1 <1>  -0.5600 
  2 C        0.2200    -1.4640    -0.5530 C.3   1 <1>   0.1200 
  3 C        1.1240     0.4610     0.4150 C.3   1 <1>   0.1200 
  4 C        1.5160    -2.2510    -0.2860 C.3   1 <1>   0.1100 
  5 C        2.4490    -0.2660     0.7100 C.3   1 <1>   0.1100 
  6 N        2.6850    -1.3530    -0.2640 N.3   1 <1>  -0.8100 
  7 C        3.9200    -2.0980     0.0550 C.3   1 <1>   0.2900 
  8 C        5.1730    -1.2910    -0.2490 C.2   1 <1>  -0.0400 
  9 O        6.3200    -1.6990     0.2630 O.3   1 <1>  -0.2800 
 10 C        5.3620    -0.1770    -0.9900 C.2   1 <1>  -0.1500 
 11 C        7.2570    -0.8610    -0.1320 C.2   1 <1>  -0.0400 
 12 C        6.7300     0.1070    -0.9110 C.2   1 <1>  -0.1500 
 13 C        8.6800    -1.1010     0.3200 C.3   1 <1>  -0.0600 
 14 H        0.2450    -1.0210    -1.5340 H     1 <1>   0.0800 
 15 H       -0.6330    -2.1150    -0.4860 H     1 <1>   0.0800 
 16 H        0.9200     1.1890     1.1790 H     1 <1>   0.0800 
 17 H        1.1730     0.9580    -0.5380 H     1 <1>   0.0800 
 18 H        1.6450    -2.9870    -1.0610 H     1 <1>   0.0800 
 19 H        1.4240    -2.7640     0.6570 H     1 <1>   0.0800 
 20 H        2.4100    -0.6650     1.7090 H     1 <1>   0.0800 
 21 H        3.2540     0.4450     0.6660 H     1 <1>   0.0800 
 22 H        3.9610    -2.9990    -0.5310 H     1 <1>   0.0800 
 23 H        3.9190    -2.3750     1.0950 H     1 <1>   0.0800 
 24 H        4.6270     0.3860    -1.5370 H     1 <1>   0.1500 
 25 H        7.2230     0.9340    -1.3890 H     1 <1>   0.1500 
 26 H        8.7270    -1.0780     1.3930 H     1 <1>   0.0800 
 27 H        9.3300    -0.3440    -0.0770 H     1 <1>   0.0800 
 28 H        9.0110    -2.0640    -0.0240 H     1 <1>   0.0800 
@<TRIPOS>BOND
  1   1   2  1   
  2   1   3  1   
  3   2   4  1   
  4   2  14  1   
  5   2  15  1   
  6   3   5  1   
  7   3  16  1   
  8   3  17  1   
  9   4   6  1   
 10   4  18  1   
 11   4  19  1   
 12   5   6  1   
 13   5  20  1   
 14   5  21  1   
 15   6   7  1   
 16   7   8  1   
 17   7  22  1   
 18   7  23  1   
 19   8   9  1   
 20   8  10  2   
 21   9  11  1   
 22  10  12  1   
 23  10  24  1   
 24  11  12  2   
 25  11  13  1   
 26  12  25  1   
 27  13  26  1   
 28  13  27  1   
 29  13  28  1   
@<TRIPOS>SUBSTRUCTURE
  1 ****   7 GROUP 4 **** **** 0

# MOE 2024.06 (io_trps.svl 2023.06)
