@<TRIPOS>MOLECULE
NONAME
54 56 1 0 0 
SMALL
USER_CHARGES


@<TRIPOS>ATOM
  1 O      -11.5330     6.2030    -1.0380 O.3   1 <1>  -0.3630 
  2 C      -12.6960     6.6010    -0.4630 C.ar  1 <1>   0.0830 
  3 C      -10.9250     5.0320    -0.5220 C.3   1 <1>   0.2000 
  4 C      -13.1070     6.0840     0.7680 C.ar  1 <1>   0.0830 
  5 C      -13.4810     7.5330    -1.1180 C.ar  1 <1>  -0.1500 
  6 C      -11.0050     5.0340     1.0140 C.3   1 <1>   0.1200 
  7 C       -9.4840     4.9970    -1.0390 C.3   1 <1>   0.1200 
  8 O      -12.3450     5.1870     1.4420 O.3   1 <1>  -0.3630 
  9 C      -14.3090     6.4910     1.3210 C.ar  1 <1>  -0.1500 
 10 C      -14.6810     7.9420    -0.5570 C.ar  1 <1>  -0.1500 
 11 O       -8.8170     3.8750    -0.5310 O.3   1 <1>  -0.5600 
 12 C      -15.0950     7.4200     0.6590 C.ar  1 <1>  -0.1500 
 13 C       -7.5120     3.7270    -1.0100 C.3   1 <1>   0.1200 
 14 C       -6.9170     2.4350    -0.4310 C.3   1 <1>   0.2000 
 15 O       -7.1730     2.4040     0.9400 O.3   1 <1>  -0.6800 
 16 C       -5.3970     2.3040    -0.6790 C.3   1 <1>   0.3430 
 17 N       -4.7550     1.4900     0.4060 N.4   1 <1>  -0.9590 
 18 C       -3.6110     2.2140     1.0210 C.3   1 <1>   0.4230 
 19 C       -4.4310     0.0830     0.0480 C.3   1 <1>   0.4230 
 20 C       -2.2460     1.6320     0.6020 C.3   1 <1>  -0.1600 
 21 C       -3.7940     2.1680     2.5320 C.3   1 <1>  -0.2400 
 22 C       -3.3410     0.0450    -1.0380 C.3   1 <1>  -0.1600 
 23 C       -5.6830    -0.6850    -0.3640 C.3   1 <1>  -0.2400 
 24 C       -2.2510     1.1180    -0.8450 C.3   1 <1>  -0.1600 
 25 H      -11.4670     4.1890    -0.9130 H     1 <1>   0.0800 
 26 H      -13.1540     7.9310    -2.0610 H     1 <1>   0.1500 
 27 H      -10.4310     5.8480     1.4200 H     1 <1>   0.0800 
 28 H      -10.6360     4.1080     1.4150 H     1 <1>   0.0800 
 29 H       -8.9580     5.8810    -0.7200 H     1 <1>   0.0800 
 30 H       -9.4910     4.9380    -2.1140 H     1 <1>   0.0800 
 31 H      -14.6190     6.0820     2.2650 H     1 <1>   0.1500 
 32 H      -15.2920     8.6660    -1.0670 H     1 <1>   0.1500 
 33 H      -16.0280     7.7370     1.0910 H     1 <1>   0.1500 
 34 H       -6.9360     4.5830    -0.7000 H     1 <1>   0.0800 
 35 H       -7.5370     3.6810    -2.0860 H     1 <1>   0.0800 
 36 H       -7.4280     1.5960    -0.8730 H     1 <1>   0.0800 
 37 H       -8.0890     2.7520     1.0680 H     1 <1>   0.4000 
 38 H       -4.9720     3.2930    -0.6830 H     1 <1>   0.0800 
 39 H       -5.2140     1.8670    -1.6460 H     1 <1>   0.0800 
 40 H       -5.4990     1.4690     1.1290 H     1 <1>   0.4500 
 41 H       -3.6460     3.2460     0.7120 H     1 <1>   0.0800 
 42 H       -4.0300    -0.3920     0.9290 H     1 <1>   0.0800 
 43 H       -1.9720     0.8240     1.2600 H     1 <1>   0.0800 
 44 H       -1.4930     2.3930     0.7160 H     1 <1>   0.0800 
 45 H       -3.7820     1.1560     2.8950 H     1 <1>   0.0800 
 46 H       -4.7200     2.6380     2.8120 H     1 <1>   0.0800 
 47 H       -2.9940     2.7060     3.0090 H     1 <1>   0.0800 
 48 H       -3.7740     0.1480    -2.0170 H     1 <1>   0.0800 
 49 H       -2.8830    -0.9280    -1.0040 H     1 <1>   0.0800 
 50 H       -6.0760    -0.3370    -1.3010 H     1 <1>   0.0800 
 51 H       -6.4380    -0.6100     0.3980 H     1 <1>   0.0800 
 52 H       -5.4360    -1.7260    -0.4800 H     1 <1>   0.0800 
 53 H       -1.2860     0.7110    -1.0990 H     1 <1>   0.0800 
 54 H       -2.4380     1.9440    -1.5090 H     1 <1>   0.0800 
@<TRIPOS>BOND
  1   1   2  1   
  2   1   3  1   
  3   2   4  ar  
  4   2   5  ar  
  5   3   6  1   
  6   3   7  1   
  7   3  25  1   
  8   4   8  1   
  9   4   9  ar  
 10   5  10  ar  
 11   5  26  1   
 12   6   8  1   
 13   6  27  1   
 14   6  28  1   
 15   7  11  1   
 16   7  29  1   
 17   7  30  1   
 18   9  12  ar  
 19   9  31  1   
 20  10  12  ar  
 21  10  32  1   
 22  11  13  1   
 23  12  33  1   
 24  13  14  1   
 25  13  34  1   
 26  13  35  1   
 27  14  15  1   
 28  14  16  1   
 29  14  36  1   
 30  15  37  1   
 31  16  17  1   
 32  16  38  1   
 33  16  39  1   
 34  17  18  1   
 35  17  19  1   
 36  17  40  1   
 37  18  20  1   
 38  18  21  1   
 39  18  41  1   
 40  19  22  1   
 41  19  23  1   
 42  19  42  1   
 43  20  24  1   
 44  20  43  1   
 45  20  44  1   
 46  21  45  1   
 47  21  46  1   
 48  21  47  1   
 49  22  24  1   
 50  22  48  1   
 51  22  49  1   
 52  23  50  1   
 53  23  51  1   
 54  23  52  1   
 55  24  53  1   
 56  24  54  1   
@<TRIPOS>SUBSTRUCTURE
  1 ****  11 GROUP 4 **** **** 0

# MOE 2024.06 (io_trps.svl 2023.06)
