@<TRIPOS>MOLECULE
NONAME
49 51 1 0 0 
SMALL
USER_CHARGES


@<TRIPOS>ATOM
  1 F        6.1920     3.7520     0.2160 F     1 <1>  -0.3400 
  2 C        6.0550     2.4580    -0.0480 C.3   1 <1>   1.1640 
  3 F        6.5470     1.8170     1.0060 F     1 <1>  -0.3400 
  4 F        6.8870     2.2050    -1.0530 F     1 <1>  -0.3400 
  5 C        4.6120     2.0460    -0.3610 C.ar  1 <1>  -0.1440 
  6 C        4.3230     0.7470    -0.7940 C.ar  1 <1>   0.1170 
  7 C        3.5710     2.9590    -0.2030 C.ar  1 <1>  -0.1500 
  8 N        5.3380    -0.2070    -0.9850 N.am  1 <1>  -0.5470 
  9 C        2.9990     0.4070    -1.0550 C.ar  1 <1>  -0.1500 
 10 C        2.2620     2.6010    -0.4670 C.ar  1 <1>  -0.1500 
 11 C        5.3500    -1.5660    -0.8380 C.2   1 <1>   0.5690 
 12 C        1.9760     1.3200    -0.8940 C.ar  1 <1>  -0.1500 
 13 O        4.3980    -2.2210    -0.4880 O.2   1 <1>  -0.5700 
 14 C        6.6780    -2.2650    -1.1360 C.3   1 <1>   0.1710 
 15 N        7.8590    -1.3570    -1.0260 N.3   1 <1>  -0.8100 
 16 C        8.2090    -1.1080     0.3930 C.3   1 <1>   0.1100 
 17 C        9.0290    -1.9130    -1.7360 C.3   1 <1>   0.1100 
 18 C        9.3930    -0.1340     0.5280 C.3   1 <1>   0.1400 
 19 C       10.2360    -0.9620    -1.6700 C.3   1 <1>   0.1400 
 20 N       10.5730    -0.6170    -0.2550 N.am  1 <1>  -0.6600 
 21 C       11.8680    -0.6600     0.2120 C.2   1 <1>   0.5690 
 22 O       12.7640    -1.0470    -0.5080 O.2   1 <1>  -0.5700 
 23 C       12.2090    -0.2390     1.6680 C.3   1 <1>   0.2610 
 24 O       11.8340     1.0900     1.9200 O.3   1 <1>  -0.5600 
 25 C       13.6960    -0.2420     2.0290 C.3   1 <1>  -0.1600 
 26 C       12.8530     1.9500     1.5190 C.3   1 <1>   0.1200 
 27 C       14.1520     1.1590     1.6510 C.3   1 <1>  -0.1600 
 28 H        3.7630     3.9650     0.1330 H     1 <1>   0.1500 
 29 H        6.2790     0.1330    -1.2240 H     1 <1>   0.3700 
 30 H        2.7600    -0.5870    -1.3900 H     1 <1>   0.1500 
 31 H        1.4680     3.3170    -0.3410 H     1 <1>   0.1500 
 32 H        0.9590     1.0320    -1.1010 H     1 <1>   0.1500 
 33 H        6.6110    -2.6430    -2.1410 H     1 <1>   0.0800 
 34 H        6.7900    -3.1050    -0.4740 H     1 <1>   0.0800 
 35 H        8.4680    -2.0360     0.8750 H     1 <1>   0.0800 
 36 H        7.3630    -0.6940     0.9130 H     1 <1>   0.0800 
 37 H        8.7780    -2.0750    -2.7700 H     1 <1>   0.0800 
 38 H        9.3070    -2.8610    -1.3060 H     1 <1>   0.0800 
 39 H        9.6340    -0.0290     1.5690 H     1 <1>   0.0800 
 40 H        9.1020     0.8340     0.1600 H     1 <1>   0.0800 
 41 H       10.0030    -0.0580    -2.2040 H     1 <1>   0.0800 
 42 H       11.0750    -1.4260    -2.1570 H     1 <1>   0.0800 
 43 H       11.6640    -0.8740     2.3410 H     1 <1>   0.0800 
 44 H       14.2500    -1.0140     1.5240 H     1 <1>   0.0800 
 45 H       13.7920    -0.3860     3.0910 H     1 <1>   0.0800 
 46 H       12.8370     2.8210     2.1510 H     1 <1>   0.0800 
 47 H       12.6710     2.2310     0.4950 H     1 <1>   0.0800 
 48 H       14.6670     1.1530     0.7060 H     1 <1>   0.0800 
 49 H       14.7940     1.5840     2.4010 H     1 <1>   0.0800 
@<TRIPOS>BOND
  1   1   2  1   
  2   2   3  1   
  3   2   4  1   
  4   2   5  1   
  5   5   6  ar  
  6   5   7  ar  
  7   6   8  1   
  8   6   9  ar  
  9   7  10  ar  
 10   7  28  1   
 11   8  11  am  
 12   8  29  1   
 13   9  12  ar  
 14   9  30  1   
 15  10  12  ar  
 16  10  31  1   
 17  11  13  2   
 18  11  14  1   
 19  12  32  1   
 20  14  15  1   
 21  14  33  1   
 22  14  34  1   
 23  15  16  1   
 24  15  17  1   
 25  16  18  1   
 26  16  35  1   
 27  16  36  1   
 28  17  19  1   
 29  17  37  1   
 30  17  38  1   
 31  18  20  1   
 32  18  39  1   
 33  18  40  1   
 34  19  20  1   
 35  19  41  1   
 36  19  42  1   
 37  20  21  am  
 38  21  22  2   
 39  21  23  1   
 40  23  24  1   
 41  23  25  1   
 42  23  43  1   
 43  24  26  1   
 44  25  27  1   
 45  25  44  1   
 46  25  45  1   
 47  26  27  1   
 48  26  46  1   
 49  26  47  1   
 50  27  48  1   
 51  27  49  1   
@<TRIPOS>SUBSTRUCTURE
  1 ****  16 GROUP 4 **** **** 0

# MOE 2024.06 (io_trps.svl 2023.06)
