@<TRIPOS>MOLECULE
NONAME
46 48 1 0 0 
SMALL
USER_CHARGES


@<TRIPOS>ATOM
  1 S       -1.1630     1.1390    -0.6280 S.3   1 <1>  -0.0800 
  2 C        0.5530     1.2950    -0.8420 C.2   1 <1>   0.4420 
  3 C       -0.9710    -0.5510    -0.9470 C.2   1 <1>   0.1980 
  4 N        1.1110     0.1750    -1.1220 N.2   1 <1>  -0.3380 
  5 N        1.2000     2.5040    -0.7060 N.am  1 <1>  -0.4940 
  6 N        0.2350    -0.8740    -1.1860 N.2   1 <1>  -0.3380 
  7 C       -2.2070    -1.4260    -0.9470 C.3   1 <1>   0.0810 
  8 C        0.7400     3.7780    -0.5290 C.2   1 <1>   0.5690 
  9 C       -2.8680    -1.5540     0.4170 C.2   1 <1>   0.5690 
 10 O       -0.4300     4.0670    -0.5110 O.2   1 <1>  -0.5700 
 11 C        1.7450     4.9080    -0.3510 C.3   1 <1>   0.1310 
 12 O       -2.2530    -1.2040     1.3960 O.2   1 <1>  -0.5700 
 13 N       -4.1390    -2.0670     0.5310 N.am  1 <1>  -0.6600 
 14 S        3.4930     4.3280    -0.6200 S.3   1 <1>  -0.3310 
 15 C       -4.9860    -2.6110    -0.5750 C.3   1 <1>   0.1400 
 16 C       -4.8320    -2.1260     1.8550 C.3   1 <1>   0.1400 
 17 C        4.5540     5.7620    -0.3690 C.ar  1 <1>   0.1010 
 18 C       -6.3830    -1.9680    -0.5470 C.3   1 <1>   0.1200 
 19 C       -6.2420    -1.5200     1.7540 C.3   1 <1>   0.1200 
 20 C        5.9160     5.5660    -0.5090 C.ar  1 <1>  -0.1500 
 21 C        4.0480     7.0130    -0.0510 C.ar  1 <1>  -0.1500 
 22 O       -6.9660    -2.1190     0.7150 O.3   1 <1>  -0.5600 
 23 C        6.7830     6.6290    -0.3280 C.ar  1 <1>  -0.1500 
 24 C        4.9230     8.0710     0.1290 C.ar  1 <1>  -0.1500 
 25 C        6.2900     7.8850    -0.0070 C.ar  1 <1>  -0.1430 
 26 C        7.2440     9.0500     0.1900 C.3   1 <1>  -0.0970 
 27 H        2.2160     2.4220    -0.7680 H     1 <1>   0.3700 
 28 H       -1.9350    -2.4080    -1.2860 H     1 <1>   0.0800 
 29 H       -2.9020    -1.0000    -1.6430 H     1 <1>   0.0800 
 30 H        1.6850     5.2960     0.6480 H     1 <1>   0.0800 
 31 H        1.5520     5.6860    -1.0650 H     1 <1>   0.0800 
 32 H       -5.0920    -3.6740    -0.4440 H     1 <1>   0.0800 
 33 H       -4.5400    -2.4440    -1.5370 H     1 <1>   0.0800 
 34 H       -4.2750    -1.5900     2.6040 H     1 <1>   0.0800 
 35 H       -4.9080    -3.1510     2.1710 H     1 <1>   0.0800 
 36 H       -7.0280    -2.4450    -1.2630 H     1 <1>   0.0800 
 37 H       -6.3250    -0.9180    -0.7770 H     1 <1>   0.0800 
 38 H       -6.1850    -0.4610     1.5720 H     1 <1>   0.0800 
 39 H       -6.7830    -1.6840     2.6690 H     1 <1>   0.0800 
 40 H        6.2930     4.5900    -0.7580 H     1 <1>   0.1500 
 41 H        2.9960     7.1850     0.0600 H     1 <1>   0.1500 
 42 H        7.8420     6.4750    -0.4380 H     1 <1>   0.1500 
 43 H        4.5350     9.0450     0.3750 H     1 <1>   0.1500 
 44 H        6.8330     9.7620     0.8830 H     1 <1>   0.0800 
 45 H        7.4180     9.5410    -0.7510 H     1 <1>   0.0800 
 46 H        8.1850     8.7040     0.5790 H     1 <1>   0.0800 
@<TRIPOS>BOND
  1   1   2  1   
  2   1   3  1   
  3   2   4  2   
  4   2   5  1   
  5   3   6  2   
  6   3   7  1   
  7   4   6  1   
  8   5   8  am  
  9   5  27  1   
 10   7   9  1   
 11   7  28  1   
 12   7  29  1   
 13   8  10  2   
 14   8  11  1   
 15   9  12  2   
 16   9  13  am  
 17  11  14  1   
 18  11  30  1   
 19  11  31  1   
 20  13  15  1   
 21  13  16  1   
 22  14  17  1   
 23  15  18  1   
 24  15  32  1   
 25  15  33  1   
 26  16  19  1   
 27  16  34  1   
 28  16  35  1   
 29  17  20  ar  
 30  17  21  ar  
 31  18  22  1   
 32  18  36  1   
 33  18  37  1   
 34  19  22  1   
 35  19  38  1   
 36  19  39  1   
 37  20  23  ar  
 38  20  40  1   
 39  21  24  ar  
 40  21  41  1   
 41  23  25  ar  
 42  23  42  1   
 43  24  25  ar  
 44  24  43  1   
 45  25  26  1   
 46  26  44  1   
 47  26  45  1   
 48  26  46  1   
@<TRIPOS>SUBSTRUCTURE
  1 ****   2 GROUP 4 **** **** 0

# MOE 2024.06 (io_trps.svl 2023.06)
