@<TRIPOS>MOLECULE
NONAME
36 38 1 0 0 
SMALL
USER_CHARGES


@<TRIPOS>ATOM
  1 CL      -0.0420     0.1290     0.0470 Cl    1 <1>  -0.1770 
  2 C       -1.5850    -0.6850    -0.1020 C.ar  1 <1>   0.1770 
  3 C       -2.7630     0.0470    -0.0220 C.ar  1 <1>  -0.1440 
  4 C       -1.5890    -2.0520    -0.2950 C.ar  1 <1>  -0.1500 
  5 C       -3.9650    -0.6340    -0.1400 C.ar  1 <1>  -0.1500 
  6 C       -2.7470     1.5530     0.1910 C.3   1 <1>  -0.0960 
  7 C       -2.7940    -2.7320    -0.4200 C.ar  1 <1>   0.1170 
  8 C       -3.9750    -2.0040    -0.3350 C.ar  1 <1>  -0.1500 
  9 N       -2.8990    -4.1140    -0.6200 N.am  1 <1>  -0.5470 
 10 C       -1.9980    -5.0990    -0.9010 C.2   1 <1>   0.5690 
 11 O       -0.8390    -4.8420    -1.1410 O.2   1 <1>  -0.5700 
 12 C       -2.4090    -6.5770    -1.0180 C.3   1 <1>  -0.0190 
 13 C       -3.7630    -7.1540    -0.4980 C.3   1 <1>  -0.1860 
 14 C       -1.4330    -7.4140    -0.1740 C.3   1 <1>   0.2000 
 15 C       -4.8850    -6.2280    -0.0830 C.2   1 <1>   0.9060 
 16 C       -3.2860    -8.0730     0.6370 C.3   1 <1>   0.2000 
 17 O       -2.1030    -7.4760     1.0250 O.3   1 <1>  -0.5600 
 18 C       -1.4370    -8.8930    -0.5850 C.3   1 <1>  -0.1600 
 19 O       -5.2590    -5.3840    -0.9050 O.co2 1 <1>  -0.9000 
 20 O       -5.4340    -6.3380     1.0130 O.co2 1 <1>  -0.9000 
 21 C       -2.7440    -9.3790     0.0510 C.3   1 <1>  -0.1600 
 22 H       -0.6550    -2.5770    -0.3440 H     1 <1>   0.1500 
 23 H       -4.9010    -0.1070    -0.0810 H     1 <1>   0.1500 
 24 H       -2.2570     1.7860     1.1190 H     1 <1>   0.0800 
 25 H       -3.7470     1.9470     0.2230 H     1 <1>   0.0800 
 26 H       -2.2160     2.0310    -0.6130 H     1 <1>   0.0800 
 27 H       -4.9120    -2.5310    -0.4220 H     1 <1>   0.1500 
 28 H       -3.8810    -4.4460    -0.6320 H     1 <1>   0.3700 
 29 H       -2.2920    -6.8310    -2.0540 H     1 <1>   0.0800 
 30 H       -4.2010    -7.7570    -1.2680 H     1 <1>   0.0800 
 31 H       -0.4490    -6.9960    -0.0450 H     1 <1>   0.0800 
 32 H       -3.9600    -8.1930     1.4690 H     1 <1>   0.0800 
 33 H       -0.5900    -9.3960    -0.1540 H     1 <1>   0.0800 
 34 H       -1.4240    -9.0110    -1.6530 H     1 <1>   0.0800 
 35 H       -3.4220    -9.8220    -0.6560 H     1 <1>   0.0800 
 36 H       -2.5500   -10.0750     0.8480 H     1 <1>   0.0800 
@<TRIPOS>BOND
  1   1   2  1   
  2   2   3  ar  
  3   2   4  ar  
  4   3   5  ar  
  5   3   6  1   
  6   4   7  ar  
  7   4  22  1   
  8   5   8  ar  
  9   5  23  1   
 10   6  24  1   
 11   6  25  1   
 12   6  26  1   
 13   7   8  ar  
 14   7   9  1   
 15   8  27  1   
 16   9  10  am  
 17   9  28  1   
 18  10  11  2   
 19  10  12  1   
 20  12  13  1   
 21  12  14  1   
 22  12  29  1   
 23  13  15  1   
 24  13  16  1   
 25  13  30  1   
 26  14  17  1   
 27  14  18  1   
 28  14  31  1   
 29  15  19  ar  
 30  15  20  ar  
 31  16  17  1   
 32  16  21  1   
 33  16  32  1   
 34  18  21  1   
 35  18  33  1   
 36  18  34  1   
 37  21  35  1   
 38  21  36  1   
@<TRIPOS>SUBSTRUCTURE
  1 ****   9 GROUP 4 **** **** 0

# MOE 2024.06 (io_trps.svl 2023.06)
