@<TRIPOS>MOLECULE
NONAME
38 38 1 0 0 
SMALL
USER_CHARGES


@<TRIPOS>ATOM
  1 O       -0.2690    -0.3770     0.6350 O.2   1 <1>  -0.5700 
  2 C        0.3430    -1.2720     0.0770 C.2   1 <1>   0.5440 
  3 N        1.5770    -0.9860    -0.4390 N.am  1 <1>  -0.7300 
  4 C       -0.2190    -2.6040    -0.0630 C.ar  1 <1>   0.0860 
  5 C        2.2780     0.3110    -0.3300 C.3   1 <1>   0.1400 
  6 C       -1.5950    -2.8140    -0.2770 C.ar  1 <1>   0.1170 
  7 C        0.6180    -3.7220     0.0060 C.ar  1 <1>  -0.1500 
  8 C        3.7470     0.0570     0.0060 C.3   1 <1>  -0.1600 
  9 N       -2.4620    -1.7120    -0.3180 N.am  1 <1>  -0.5470 
 10 C       -2.0690    -4.1160    -0.4280 C.ar  1 <1>  -0.1500 
 11 C        0.1310    -5.0040    -0.1480 C.ar  1 <1>  -0.1500 
 12 C        4.5220     1.3740     0.1340 C.3   1 <1>  -0.1600 
 13 C       -3.7440    -1.5310    -0.7530 C.2   1 <1>   0.5690 
 14 C       -1.2190    -5.2010    -0.3690 C.ar  1 <1>  -0.1500 
 15 C        5.9940     1.1170     0.4710 C.3   1 <1>  -0.2400 
 16 O       -4.4140    -2.3950    -1.2610 O.2   1 <1>  -0.5700 
 17 C       -4.3410    -0.1430    -0.5990 C.3   1 <1>  -0.0990 
 18 C       -4.3740     0.3480     0.8590 C.3   1 <1>  -0.2400 
 19 H        2.0400    -1.6820    -1.0250 H     1 <1>   0.3700 
 20 H        1.8250     0.9110     0.4430 H     1 <1>   0.0800 
 21 H        2.1940     0.8400    -1.2640 H     1 <1>   0.0800 
 22 H        1.6690    -3.5860     0.1910 H     1 <1>   0.1500 
 23 H        4.1920    -0.5420    -0.7700 H     1 <1>   0.0800 
 24 H        3.8060    -0.4810     0.9370 H     1 <1>   0.0800 
 25 H       -2.0240    -0.8590     0.0580 H     1 <1>   0.3700 
 26 H       -3.1160    -4.2920    -0.5890 H     1 <1>   0.1500 
 27 H        0.7950    -5.8510    -0.0940 H     1 <1>   0.1500 
 28 H        4.0830     1.9780     0.9100 H     1 <1>   0.0800 
 29 H        4.4620     1.9240    -0.7910 H     1 <1>   0.0800 
 30 H       -1.6080    -6.1980    -0.4900 H     1 <1>   0.1500 
 31 H        6.0800     0.5890     1.4040 H     1 <1>   0.0800 
 32 H        6.5190     2.0520     0.5590 H     1 <1>   0.0800 
 33 H        6.4620     0.5350    -0.3030 H     1 <1>   0.0800 
 34 H       -5.3440    -0.1590    -0.9860 H     1 <1>   0.0800 
 35 H       -3.7710     0.5430    -1.1990 H     1 <1>   0.0800 
 36 H       -4.9290    -0.3440     1.4690 H     1 <1>   0.0800 
 37 H       -4.8500     1.3110     0.9130 H     1 <1>   0.0800 
 38 H       -3.3780     0.4370     1.2570 H     1 <1>   0.0800 
@<TRIPOS>BOND
  1   1   2  2   
  2   2   3  am  
  3   2   4  1   
  4   3   5  1   
  5   3  19  1   
  6   4   6  ar  
  7   4   7  ar  
  8   5   8  1   
  9   5  20  1   
 10   5  21  1   
 11   6   9  1   
 12   6  10  ar  
 13   7  11  ar  
 14   7  22  1   
 15   8  12  1   
 16   8  23  1   
 17   8  24  1   
 18   9  13  am  
 19   9  25  1   
 20  10  14  ar  
 21  10  26  1   
 22  11  14  ar  
 23  11  27  1   
 24  12  15  1   
 25  12  28  1   
 26  12  29  1   
 27  13  16  2   
 28  13  17  1   
 29  14  30  1   
 30  15  31  1   
 31  15  32  1   
 32  15  33  1   
 33  17  18  1   
 34  17  34  1   
 35  17  35  1   
 36  18  36  1   
 37  18  37  1   
 38  18  38  1   
@<TRIPOS>SUBSTRUCTURE
  1 ****   2 GROUP 4 **** **** 0

# MOE 2024.06 (io_trps.svl 2023.06)
