@<TRIPOS>MOLECULE
NONAME
43 43 1 0 0 
SMALL
USER_CHARGES


@<TRIPOS>ATOM
  1 CL       0.1150     0.6940    -1.0440 Cl    1 <1>  -0.1770 
  2 C        0.9810     2.1090    -0.4870 C.ar  1 <1>   0.1770 
  3 C        0.3860     3.3630    -0.5280 C.ar  1 <1>   0.0820 
  4 C        2.2640     1.9240    -0.0090 C.ar  1 <1>  -0.1500 
  5 O       -0.8840     3.4340    -1.0220 O.3   1 <1>  -0.3630 
  6 C        1.1220     4.4700    -0.0810 C.ar  1 <1>   0.0830 
  7 C        2.9910     3.0140     0.4400 C.ar  1 <1>  -0.1440 
  8 C       -1.8480     4.2480    -0.3920 C.3   1 <1>   0.2580 
  9 O        0.5610     5.7110    -0.1480 O.3   1 <1>  -0.3630 
 10 C        2.4160     4.2780     0.4050 C.ar  1 <1>  -0.1500 
 11 C        4.4020     2.8300     0.9530 C.3   1 <1>   0.4870 
 12 C       -3.2130     3.6400    -0.6500 C.2   1 <1>  -0.2880 
 13 C        1.2530     6.8880     0.2100 C.3   1 <1>   0.0400 
 14 N        5.3050     3.1110    -0.1800 N.4   1 <1>  -0.9060 
 15 C       -4.0870     3.2680     0.2900 C.2   1 <1>  -0.3000 
 16 C        6.7440     3.1910     0.1010 C.3   1 <1>   0.5030 
 17 C        7.0290     4.4670     0.9430 C.3   1 <1>   0.1200 
 18 C        7.2240     1.9200     0.8070 C.3   1 <1>  -0.2400 
 19 C        7.4220     3.3050    -1.2630 C.3   1 <1>  -0.2400 
 20 O        6.1640     5.5050     0.5670 O.3   1 <1>  -0.6800 
 21 H        2.6660     0.9260     0.0020 H     1 <1>   0.1500 
 22 H       -1.7880     5.2340    -0.8180 H     1 <1>   0.0800 
 23 H       -1.6390     4.2880     0.6620 H     1 <1>   0.0800 
 24 H        2.9880     5.1170     0.7590 H     1 <1>   0.1500 
 25 H        4.5410     1.8210     1.3080 H     1 <1>   0.0800 
 26 H        4.5900     3.5180     1.7620 H     1 <1>   0.0800 
 27 H       -3.4100     3.5300    -1.7030 H     1 <1>   0.1500 
 28 H        0.5980     7.7240     0.0370 H     1 <1>   0.0800 
 29 H        2.1290     6.9830    -0.4070 H     1 <1>   0.0800 
 30 H        1.5110     6.8420     1.2530 H     1 <1>   0.0800 
 31 H        5.0720     4.0660    -0.4900 H     1 <1>   0.4500 
 32 H        5.1120     2.4810    -0.9610 H     1 <1>   0.4500 
 33 H       -5.0480     2.8340     0.0750 H     1 <1>   0.1500 
 34 H       -3.9180     3.3600     1.3490 H     1 <1>   0.1500 
 35 H        8.0460     4.7950     0.7990 H     1 <1>   0.0800 
 36 H        6.8810     4.2750     1.9920 H     1 <1>   0.0800 
 37 H        8.2950     1.9470     0.9120 H     1 <1>   0.0800 
 38 H        6.8100     1.8310     1.7940 H     1 <1>   0.0800 
 39 H        6.9740     1.0440     0.2340 H     1 <1>   0.0800 
 40 H        7.0960     4.1890    -1.7840 H     1 <1>   0.0800 
 41 H        7.2210     2.4410    -1.8730 H     1 <1>   0.0800 
 42 H        8.4890     3.3760    -1.1410 H     1 <1>   0.0800 
 43 H        6.4600     6.3620     0.9520 H     1 <1>   0.4000 
@<TRIPOS>BOND
  1   1   2  1   
  2   2   3  ar  
  3   2   4  ar  
  4   3   5  1   
  5   3   6  ar  
  6   4   7  ar  
  7   4  21  1   
  8   5   8  1   
  9   6   9  1   
 10   6  10  ar  
 11   7  10  ar  
 12   7  11  1   
 13   8  12  1   
 14   8  22  1   
 15   8  23  1   
 16   9  13  1   
 17  10  24  1   
 18  11  14  1   
 19  11  25  1   
 20  11  26  1   
 21  12  15  2   
 22  12  27  1   
 23  13  28  1   
 24  13  29  1   
 25  13  30  1   
 26  14  16  1   
 27  14  31  1   
 28  14  32  1   
 29  15  33  1   
 30  15  34  1   
 31  16  17  1   
 32  16  18  1   
 33  16  19  1   
 34  17  20  1   
 35  17  35  1   
 36  17  36  1   
 37  18  37  1   
 38  18  38  1   
 39  18  39  1   
 40  19  40  1   
 41  19  41  1   
 42  19  42  1   
 43  20  43  1   
@<TRIPOS>SUBSTRUCTURE
  1 ****  10 GROUP 4 **** **** 0

# MOE 2024.06 (io_trps.svl 2023.06)
