@<TRIPOS>MOLECULE
NONAME
55 55 1 0 0 
SMALL
USER_CHARGES


@<TRIPOS>ATOM
  1 O        0.7920    -0.1440     0.5230 O.3   1 <1>  -0.6800 
  2 C        1.1490    -0.6930    -0.6800 C.3   1 <1>   0.2800 
  3 C        2.5780    -1.2540    -0.5440 C.3   1 <1>  -0.1600 
  4 C        0.1490    -1.8110    -0.9670 C.3   1 <1>  -0.2400 
  5 C        1.0340     0.4160    -1.7260 C.3   1 <1>  -0.2400 
  6 C        3.6460    -0.2310    -0.1070 C.3   1 <1>  -0.1600 
  7 C        5.0000    -0.9170     0.1400 C.3   1 <1>  -0.1600 
  8 C        6.1130     0.0700     0.5130 C.3   1 <1>   0.4230 
  9 N        7.3830    -0.6880     0.5400 N.4   1 <1>  -0.9060 
 10 C        5.8950     0.7060     1.8870 C.3   1 <1>  -0.2400 
 11 C        8.6300     0.1170     0.5810 C.3   1 <1>   0.4230 
 12 C        8.8490     0.8480    -0.7470 C.3   1 <1>  -0.1600 
 13 C        9.8060    -0.8150     0.8720 C.3   1 <1>  -0.1600 
 14 C       10.1870     1.5930    -0.7510 C.3   1 <1>   0.3430 
 15 C       11.1330    -0.0530     0.8570 C.3   1 <1>   0.3430 
 16 N       11.3030     0.6520    -0.4490 N.4   1 <1>  -0.9590 
 17 C       12.6050     1.3890    -0.5020 C.3   1 <1>   0.3430 
 18 C       13.7740     0.4080    -0.6160 C.3   1 <1>  -0.1600 
 19 C       15.0970     1.1600    -0.7950 C.3   1 <1>  -0.2400 
 20 H       -0.1310     0.1630     0.4750 H     1 <1>   0.4000 
 21 H        2.8650    -1.6830    -1.4870 H     1 <1>   0.0800 
 22 H        2.5480    -2.0570     0.1730 H     1 <1>   0.0800 
 23 H        0.3890    -2.2860    -1.9010 H     1 <1>   0.0800 
 24 H       -0.8510    -1.4240    -1.0360 H     1 <1>   0.0800 
 25 H        0.1860    -2.5550    -0.1920 H     1 <1>   0.0800 
 26 H        1.3680     0.0540    -2.6820 H     1 <1>   0.0800 
 27 H        1.6330     1.2650    -1.4550 H     1 <1>   0.0800 
 28 H        0.0120     0.7350    -1.8300 H     1 <1>   0.0800 
 29 H        3.3070     0.2480     0.7960 H     1 <1>   0.0800 
 30 H        3.7510     0.5240    -0.8660 H     1 <1>   0.0800 
 31 H        5.2700    -1.4330    -0.7650 H     1 <1>   0.0800 
 32 H        4.8770    -1.6470     0.9230 H     1 <1>   0.0800 
 33 H        6.1550     0.8400    -0.2410 H     1 <1>   0.0800 
 34 H        7.3890    -1.3140    -0.2730 H     1 <1>   0.4500 
 35 H        7.3330    -1.2990     1.3650 H     1 <1>   0.4500 
 36 H        5.7960    -0.0440     2.6530 H     1 <1>   0.0800 
 37 H        6.6890     1.3810     2.1450 H     1 <1>   0.0800 
 38 H        4.9890     1.2860     1.8820 H     1 <1>   0.0800 
 39 H        8.5630     0.8430     1.3770 H     1 <1>   0.0800 
 40 H        8.0710     1.5740    -0.9020 H     1 <1>   0.0800 
 41 H        8.8340     0.1570    -1.5710 H     1 <1>   0.0800 
 42 H        9.8560    -1.6090     0.1470 H     1 <1>   0.0800 
 43 H        9.6870    -1.2570     1.8460 H     1 <1>   0.0800 
 44 H       10.1670     2.3810    -0.0140 H     1 <1>   0.0800 
 45 H       10.3420     2.0480    -1.7180 H     1 <1>   0.0800 
 46 H       11.9440    -0.7470     1.0120 H     1 <1>   0.0800 
 47 H       11.1520     0.6650     1.6630 H     1 <1>   0.0800 
 48 H       11.3540    -0.0510    -1.2020 H     1 <1>   0.4500 
 49 H       12.7270     2.0040     0.3750 H     1 <1>   0.0800 
 50 H       12.6200     2.0350    -1.3660 H     1 <1>   0.0800 
 51 H       13.6330    -0.2360    -1.4670 H     1 <1>   0.0800 
 52 H       13.8510    -0.1970     0.2700 H     1 <1>   0.0800 
 53 H       15.0830     1.7580    -1.6900 H     1 <1>   0.0800 
 54 H       15.9100     0.4580    -0.8760 H     1 <1>   0.0800 
 55 H       15.2930     1.8020     0.0470 H     1 <1>   0.0800 
@<TRIPOS>BOND
  1   1   2  1   
  2   1  20  1   
  3   2   3  1   
  4   2   4  1   
  5   2   5  1   
  6   3   6  1   
  7   3  21  1   
  8   3  22  1   
  9   4  23  1   
 10   4  24  1   
 11   4  25  1   
 12   5  26  1   
 13   5  27  1   
 14   5  28  1   
 15   6   7  1   
 16   6  29  1   
 17   6  30  1   
 18   7   8  1   
 19   7  31  1   
 20   7  32  1   
 21   8   9  1   
 22   8  10  1   
 23   8  33  1   
 24   9  11  1   
 25   9  34  1   
 26   9  35  1   
 27  10  36  1   
 28  10  37  1   
 29  10  38  1   
 30  11  12  1   
 31  11  13  1   
 32  11  39  1   
 33  12  14  1   
 34  12  40  1   
 35  12  41  1   
 36  13  15  1   
 37  13  42  1   
 38  13  43  1   
 39  14  16  1   
 40  14  44  1   
 41  14  45  1   
 42  15  16  1   
 43  15  46  1   
 44  15  47  1   
 45  16  17  1   
 46  16  48  1   
 47  17  18  1   
 48  17  49  1   
 49  17  50  1   
 50  18  19  1   
 51  18  51  1   
 52  18  52  1   
 53  19  53  1   
 54  19  54  1   
 55  19  55  1   
@<TRIPOS>SUBSTRUCTURE
  1 ****   9 GROUP 4 **** **** 0

# MOE 2024.06 (io_trps.svl 2023.06)
