@<TRIPOS>MOLECULE
NONAME
49 51 1 0 0 
SMALL
USER_CHARGES


@<TRIPOS>ATOM
  1 O        1.0250    -1.2120    -1.1250 O.2   1 <1>  -0.5700 
  2 C        0.9780    -1.9740    -0.1880 C.2   1 <1>   0.5690 
  3 N        1.7520    -1.8940     0.9210 N.am  1 <1>  -0.4200 
  4 C        0.0480    -3.2010    -0.1120 C.3   1 <1>   0.2510 
  5 C        1.5040    -2.9140     1.7750 C.2   1 <1>   0.5690 
  6 C        2.8790    -0.9570     1.0750 C.3   1 <1>   0.2840 
  7 N       -1.4320    -2.9430    -0.1400 N.3   1 <1>  -0.8100 
  8 C        0.4400    -3.8370     1.2350 C.3   1 <1>  -0.0990 
  9 O        2.0430    -3.0910     2.8350 O.2   1 <1>  -0.5700 
 10 C        4.1160    -1.5650     0.4350 C.ar  1 <1>  -0.1430 
 11 C       -1.8160    -1.9740    -1.2070 C.3   1 <1>   0.1100 
 12 C       -2.2110    -4.1990    -0.2990 C.3   1 <1>   0.1100 
 13 C        4.4140    -1.3120    -0.8950 C.ar  1 <1>  -0.1500 
 14 C        4.9530    -2.3870     1.1730 C.ar  1 <1>  -0.1500 
 15 C       -3.3450    -1.8580    -1.4220 C.3   1 <1>   0.3430 
 16 C       -3.7400    -3.9620    -0.2080 C.3   1 <1>   0.3430 
 17 C        5.5390    -1.8700    -1.4770 C.ar  1 <1>  -0.1500 
 18 C        6.0770    -2.9450     0.5900 C.ar  1 <1>  -0.1500 
 19 N       -4.0900    -2.5030    -0.2950 N.4   1 <1>  -0.9590 
 20 C        6.3780    -2.6870    -0.7380 C.ar  1 <1>  -0.1430 
 21 C       -5.5470    -2.2210    -0.3350 C.3   1 <1>   0.3430 
 22 C        7.6110    -3.2990    -1.3770 C.3   1 <1>  -0.0970 
 23 C       -6.1810    -2.5880     1.0010 C.3   1 <1>  -0.2400 
 24 H        0.3180    -3.8570    -0.9220 H     1 <1>   0.0800 
 25 H        3.0550    -0.7730     2.1210 H     1 <1>   0.0800 
 26 H        2.6380    -0.0210     0.6020 H     1 <1>   0.0800 
 27 H        0.8580    -4.8160     1.0980 H     1 <1>   0.0800 
 28 H       -0.3760    -3.8700     1.9330 H     1 <1>   0.0800 
 29 H       -1.3520    -2.2440    -2.1420 H     1 <1>   0.0800 
 30 H       -1.4500    -0.9970    -0.9410 H     1 <1>   0.0800 
 31 H       -1.9330    -4.9110     0.4590 H     1 <1>   0.0800 
 32 H       -1.9830    -4.6440    -1.2540 H     1 <1>   0.0800 
 33 H        3.7690    -0.6830    -1.4850 H     1 <1>   0.1500 
 34 H        4.7300    -2.6020     2.2050 H     1 <1>   0.1500 
 35 H       -3.6080    -2.3350    -2.3520 H     1 <1>   0.0800 
 36 H       -3.6090    -0.8160    -1.5010 H     1 <1>   0.0800 
 37 H       -4.0920    -4.3600     0.7290 H     1 <1>   0.0800 
 38 H       -4.2280    -4.5100    -0.9970 H     1 <1>   0.0800 
 39 H        5.7570    -1.6650    -2.5100 H     1 <1>   0.1500 
 40 H        6.7160    -3.5820     1.1750 H     1 <1>   0.1500 
 41 H       -3.6790    -2.0850     0.5540 H     1 <1>   0.4500 
 42 H       -6.0120    -2.7790    -1.1330 H     1 <1>   0.0800 
 43 H       -5.7070    -1.1710    -0.5190 H     1 <1>   0.0800 
 44 H        7.3590    -4.2480    -1.8160 H     1 <1>   0.0800 
 45 H        8.3810    -3.4490    -0.6420 H     1 <1>   0.0800 
 46 H        7.9960    -2.6520    -2.1440 H     1 <1>   0.0800 
 47 H       -6.1320    -3.6460     1.1840 H     1 <1>   0.0800 
 48 H       -7.2200    -2.3090     0.9850 H     1 <1>   0.0800 
 49 H       -5.7080    -2.0570     1.8080 H     1 <1>   0.0800 
@<TRIPOS>BOND
  1   1   2  2   
  2   2   3  am  
  3   2   4  1   
  4   3   5  am  
  5   3   6  1   
  6   4   7  1   
  7   4   8  1   
  8   4  24  1   
  9   5   8  1   
 10   5   9  2   
 11   6  10  1   
 12   6  25  1   
 13   6  26  1   
 14   7  11  1   
 15   7  12  1   
 16   8  27  1   
 17   8  28  1   
 18  10  13  ar  
 19  10  14  ar  
 20  11  15  1   
 21  11  29  1   
 22  11  30  1   
 23  12  16  1   
 24  12  31  1   
 25  12  32  1   
 26  13  17  ar  
 27  13  33  1   
 28  14  18  ar  
 29  14  34  1   
 30  15  19  1   
 31  15  35  1   
 32  15  36  1   
 33  16  19  1   
 34  16  37  1   
 35  16  38  1   
 36  17  20  ar  
 37  17  39  1   
 38  18  20  ar  
 39  18  40  1   
 40  19  21  1   
 41  19  41  1   
 42  20  22  1   
 43  21  23  1   
 44  21  42  1   
 45  21  43  1   
 46  22  44  1   
 47  22  45  1   
 48  22  46  1   
 49  23  47  1   
 50  23  48  1   
 51  23  49  1   
@<TRIPOS>SUBSTRUCTURE
  1 ****   2 GROUP 4 **** **** 0

# MOE 2024.06 (io_trps.svl 2023.06)
