@<TRIPOS>MOLECULE
NONAME
47 49 1 0 0 
SMALL
USER_CHARGES


@<TRIPOS>ATOM
  1 F        1.3840     0.7570     2.4580 F     1 <1>  -0.1900 
  2 C        2.1130    -0.1470     1.8600 C.ar  1 <1>   0.1900 
  3 C        3.3850     0.1930     1.4490 C.ar  1 <1>  -0.1500 
  4 C        1.5780    -1.4060     1.6650 C.ar  1 <1>  -0.1500 
  5 C        4.1720    -0.7590     0.8110 C.ar  1 <1>   0.1170 
  6 C        2.3580    -2.3570     1.0280 C.ar  1 <1>  -0.1500 
  7 N        5.4570    -0.3980     0.3830 N.am  1 <1>  -0.5470 
  8 C        3.6380    -2.0320     0.6070 C.ar  1 <1>  -0.1500 
  9 C        6.5720    -1.1650     0.1920 C.2   1 <1>   0.6900 
 10 O        6.6110    -2.3260     0.5470 O.2   1 <1>  -0.5700 
 11 N        7.6440    -0.5710    -0.4140 N.am  1 <1>  -0.5470 
 12 C        8.9510    -1.0440    -0.5990 C.ar  1 <1>   0.1170 
 13 C        9.5460    -1.9640     0.2580 C.ar  1 <1>  -0.1500 
 14 C        9.6970    -0.5720    -1.6730 C.ar  1 <1>  -0.1500 
 15 C       10.8380    -2.4060     0.0450 C.ar  1 <1>  -0.1500 
 16 C       10.9920    -1.0070    -1.8900 C.ar  1 <1>  -0.1500 
 17 C       11.5740    -1.9280    -1.0300 C.ar  1 <1>  -0.1430 
 18 C       12.9940    -2.4090    -1.2600 C.3   1 <1>   0.4860 
 19 N       13.8770    -1.8180    -0.2180 N.4   1 <1>  -0.9590 
 20 C       13.9360    -0.3300    -0.3240 C.3   1 <1>   0.3430 
 21 C       15.2310    -2.4400    -0.2320 C.3   1 <1>   0.3430 
 22 C       14.7380     0.2380     0.8490 C.3   1 <1>  -0.1600 
 23 C       16.0530    -1.9110     0.9450 C.3   1 <1>  -0.1600 
 24 C       16.1400    -0.3790     0.9340 C.3   1 <1>  -0.1600 
 25 H        3.7520     1.1860     1.6290 H     1 <1>   0.1500 
 26 H        0.5830    -1.6320     2.0020 H     1 <1>   0.1500 
 27 H        1.9730    -3.3480     0.8600 H     1 <1>   0.1500 
 28 H        5.6290     0.6020     0.3470 H     1 <1>   0.3700 
 29 H        4.2280    -2.7820     0.1110 H     1 <1>   0.1500 
 30 H        7.4080     0.2620    -0.9440 H     1 <1>   0.3700 
 31 H        8.9920    -2.3430     1.0990 H     1 <1>   0.1500 
 32 H        9.2570     0.1370    -2.3510 H     1 <1>   0.1500 
 33 H       11.2500    -3.1320     0.7260 H     1 <1>   0.1500 
 34 H       11.5330    -0.6250    -2.7390 H     1 <1>   0.1500 
 35 H       13.3280    -2.1180    -2.2420 H     1 <1>   0.0800 
 36 H       13.0150    -3.4850    -1.1970 H     1 <1>   0.0800 
 37 H       13.4390    -2.0250     0.6880 H     1 <1>   0.4500 
 38 H       12.9400     0.0850    -0.3070 H     1 <1>   0.0800 
 39 H       14.4070    -0.0470    -1.2520 H     1 <1>   0.0800 
 40 H       15.7330    -2.2010    -1.1560 H     1 <1>   0.0800 
 41 H       15.1490    -3.5130    -0.1570 H     1 <1>   0.0800 
 42 H       14.2010     0.0610     1.7650 H     1 <1>   0.0800 
 43 H       14.8250     1.3040     0.7310 H     1 <1>   0.0800 
 44 H       17.0460    -2.3230     0.8940 H     1 <1>   0.0800 
 45 H       15.6130    -2.2470     1.8680 H     1 <1>   0.0800 
 46 H       16.6370    -0.0340     1.8260 H     1 <1>   0.0800 
 47 H       16.7260    -0.0570     0.0890 H     1 <1>   0.0800 
@<TRIPOS>BOND
  1   1   2  1   
  2   2   3  ar  
  3   2   4  ar  
  4   3   5  ar  
  5   3  25  1   
  6   4   6  ar  
  7   4  26  1   
  8   5   7  1   
  9   5   8  ar  
 10   6   8  ar  
 11   6  27  1   
 12   7   9  am  
 13   7  28  1   
 14   8  29  1   
 15   9  10  2   
 16   9  11  am  
 17  11  12  1   
 18  11  30  1   
 19  12  13  ar  
 20  12  14  ar  
 21  13  15  ar  
 22  13  31  1   
 23  14  16  ar  
 24  14  32  1   
 25  15  17  ar  
 26  15  33  1   
 27  16  17  ar  
 28  16  34  1   
 29  17  18  1   
 30  18  19  1   
 31  18  35  1   
 32  18  36  1   
 33  19  20  1   
 34  19  21  1   
 35  19  37  1   
 36  20  22  1   
 37  20  38  1   
 38  20  39  1   
 39  21  23  1   
 40  21  40  1   
 41  21  41  1   
 42  22  24  1   
 43  22  42  1   
 44  22  43  1   
 45  23  24  1   
 46  23  44  1   
 47  23  45  1   
 48  24  46  1   
 49  24  47  1   
@<TRIPOS>SUBSTRUCTURE
  1 ****  12 GROUP 4 **** **** 0

# MOE 2024.06 (io_trps.svl 2023.06)
