@<TRIPOS>MOLECULE
NONAME
36 37 1 0 0 
SMALL
USER_CHARGES


@<TRIPOS>ATOM
  1 O       -0.2380    -0.4250     0.7050 O.2   1 <1>  -0.5700 
  2 C       -0.6800    -1.2720    -0.0500 C.2   1 <1>   0.7150 
  3 N       -1.8040    -0.9730    -0.7720 N.am  1 <1>  -0.7300 
  4 C       -0.0580    -2.5710    -0.2010 C.2   1 <1>   0.0550 
  5 C       -2.5490     0.3100    -0.7320 C.3   1 <1>   0.1400 
  6 O        1.0250    -2.9040     0.4960 O.3   1 <1>  -0.2800 
  7 C       -0.3910    -3.6310    -0.9940 C.2   1 <1>  -0.1500 
  8 C       -3.9070     0.1030    -0.0570 C.3   1 <1>  -0.0220 
  9 C        1.3870    -4.1240     0.1780 C.2   1 <1>  -0.0400 
 10 C        0.5460    -4.6340    -0.7460 C.2   1 <1>  -0.1500 
 11 C       -4.7910     1.3510    -0.0360 C.2   1 <1>  -0.2760 
 12 C        2.6030    -4.7200     0.8500 C.3   1 <1>  -0.0600 
 13 C       -4.4700     2.5440    -0.5520 C.2   1 <1>  -0.2880 
 14 C       -6.1250     1.1050     0.6660 C.3   1 <1>  -0.0220 
 15 C       -5.3570     3.7780    -0.4890 C.3   1 <1>  -0.0220 
 16 C       -7.1420     2.2220     0.3880 C.3   1 <1>  -0.1600 
 17 C       -6.4930     3.6040     0.5260 C.3   1 <1>  -0.1600 
 18 H       -2.1780    -1.6840    -1.3980 H     1 <1>   0.3700 
 19 H       -2.6900     0.6650    -1.7380 H     1 <1>   0.0800 
 20 H       -1.9870     1.0500    -0.1860 H     1 <1>   0.0800 
 21 H       -1.2070    -3.7150    -1.6870 H     1 <1>   0.1500 
 22 H       -3.7350    -0.2130     0.9570 H     1 <1>   0.0800 
 23 H       -4.4330    -0.6790    -0.5740 H     1 <1>   0.0800 
 24 H        0.5700    -5.6050    -1.2100 H     1 <1>   0.1500 
 25 H        3.4660    -4.1150     0.6390 H     1 <1>   0.0800 
 26 H        2.7770    -5.7180     0.4920 H     1 <1>   0.0800 
 27 H        2.4500    -4.7490     1.9140 H     1 <1>   0.0800 
 28 H       -3.5450     2.7490    -1.0640 H     1 <1>   0.1500 
 29 H       -5.9480     1.0360     1.7250 H     1 <1>   0.0800 
 30 H       -6.5480     0.1720     0.3380 H     1 <1>   0.0800 
 31 H       -5.7660     3.9590    -1.4680 H     1 <1>   0.0800 
 32 H       -4.7660     4.6330    -0.2100 H     1 <1>   0.0800 
 33 H       -7.9690     2.1330     1.0700 H     1 <1>   0.0800 
 34 H       -7.5210     2.1110    -0.6130 H     1 <1>   0.0800 
 35 H       -7.2300     4.3750     0.3790 H     1 <1>   0.0800 
 36 H       -6.0950     3.7070     1.5210 H     1 <1>   0.0800 
@<TRIPOS>BOND
  1   1   2  2   
  2   2   3  am  
  3   2   4  1   
  4   3   5  1   
  5   3  18  1   
  6   4   6  1   
  7   4   7  2   
  8   5   8  1   
  9   5  19  1   
 10   5  20  1   
 11   6   9  1   
 12   7  10  1   
 13   7  21  1   
 14   8  11  1   
 15   8  22  1   
 16   8  23  1   
 17   9  10  2   
 18   9  12  1   
 19  10  24  1   
 20  11  13  2   
 21  11  14  1   
 22  12  25  1   
 23  12  26  1   
 24  12  27  1   
 25  13  15  1   
 26  13  28  1   
 27  14  16  1   
 28  14  29  1   
 29  14  30  1   
 30  15  17  1   
 31  15  31  1   
 32  15  32  1   
 33  16  17  1   
 34  16  33  1   
 35  16  34  1   
 36  17  35  1   
 37  17  36  1   
@<TRIPOS>SUBSTRUCTURE
  1 ****   3 GROUP 4 **** **** 0

# MOE 2024.06 (io_trps.svl 2023.06)
