@<TRIPOS>MOLECULE
NONAME
35 36 1 0 0 
SMALL
USER_CHARGES


@<TRIPOS>ATOM
  1 CL       1.6410     1.4720    -1.3120 Cl    1 <1>  -0.1770 
  2 C        2.1660    -0.0810    -0.6960 C.ar  1 <1>   0.1770 
  3 C        3.0320    -0.1670     0.3940 C.ar  1 <1>   0.0830 
  4 C        1.6850    -1.2200    -1.3140 C.ar  1 <1>  -0.1500 
  5 O        3.5180     0.9290     1.0230 O.3   1 <1>  -0.3630 
  6 C        3.3980    -1.4150     0.8790 C.ar  1 <1>  -0.1500 
  7 C        2.0740    -2.4520    -0.8230 C.ar  1 <1>   0.1770 
  8 C        4.4820     1.7100     0.3480 C.3   1 <1>   0.1200 
  9 C        2.9210    -2.5630     0.2670 C.ar  1 <1>  -0.1500 
 10 CL       1.4780    -3.9020    -1.5920 Cl    1 <1>  -0.1770 
 11 C        5.8670     1.0890     0.5530 C.3   1 <1>  -0.1600 
 12 C        6.9610     1.9460    -0.0990 C.3   1 <1>  -0.1600 
 13 C        8.3460     1.3200     0.1100 C.3   1 <1>  -0.1600 
 14 C        9.4460     2.1730    -0.5320 C.3   1 <1>   0.0960 
 15 N       10.7680     1.5550    -0.3140 N.pl3 1 <1>   0.0480 
 16 C       11.6260     1.7740     0.7080 C.2   1 <1>   0.0360 
 17 C       11.3840     0.6430    -1.0870 C.2   1 <1>  -0.3020 
 18 N       12.7160     1.0810     0.6370 N.2   1 <1>  -0.5650 
 19 C       12.5650     0.3670    -0.4940 C.2   1 <1>   0.0770 
 20 H        1.0220    -1.1500    -2.1550 H     1 <1>   0.1500 
 21 H        4.0520    -1.4790     1.7310 H     1 <1>   0.1500 
 22 H        4.4460     2.6980     0.7720 H     1 <1>   0.0800 
 23 H        4.2330     1.7660    -0.6960 H     1 <1>   0.0800 
 24 H        3.1980    -3.5370     0.6300 H     1 <1>   0.1500 
 25 H        5.8820     0.1040     0.1190 H     1 <1>   0.0800 
 26 H        6.0590     1.0050     1.6090 H     1 <1>   0.0800 
 27 H        6.9430     2.9330     0.3320 H     1 <1>   0.0800 
 28 H        6.7620     2.0350    -1.1540 H     1 <1>   0.0800 
 29 H        8.3620     0.3350    -0.3260 H     1 <1>   0.0800 
 30 H        8.5400     1.2280     1.1660 H     1 <1>   0.0800 
 31 H        9.4510     3.1590    -0.1030 H     1 <1>   0.0800 
 32 H        9.2790     2.2610    -1.5910 H     1 <1>   0.0800 
 33 H       11.4040     2.4650     1.5010 H     1 <1>   0.1500 
 34 H       10.9620     0.2480    -1.9920 H     1 <1>   0.1500 
 35 H       13.3280    -0.3180    -0.8260 H     1 <1>   0.1500 
@<TRIPOS>BOND
  1   1   2  1   
  2   2   3  ar  
  3   2   4  ar  
  4   3   5  1   
  5   3   6  ar  
  6   4   7  ar  
  7   4  20  1   
  8   5   8  1   
  9   6   9  ar  
 10   6  21  1   
 11   7   9  ar  
 12   7  10  1   
 13   8  11  1   
 14   8  22  1   
 15   8  23  1   
 16   9  24  1   
 17  11  12  1   
 18  11  25  1   
 19  11  26  1   
 20  12  13  1   
 21  12  27  1   
 22  12  28  1   
 23  13  14  1   
 24  13  29  1   
 25  13  30  1   
 26  14  15  1   
 27  14  31  1   
 28  14  32  1   
 29  15  16  1   
 30  15  17  1   
 31  16  18  2   
 32  16  33  1   
 33  17  19  2   
 34  17  34  1   
 35  18  19  1   
 36  19  35  1   
@<TRIPOS>SUBSTRUCTURE
  1 ****  11 GROUP 4 **** **** 0

# MOE 2024.06 (io_trps.svl 2023.06)
