@<TRIPOS>MOLECULE
NONAME
44 46 1 0 0 
SMALL
USER_CHARGES


@<TRIPOS>ATOM
  1 BR       0.4040     0.0670    -1.7330 Br    1 <1>  -0.1110 
  2 C        1.1550    -1.4770    -0.8650 C.ar  1 <1>   0.1110 
  3 C        2.5030    -1.4790    -0.5690 C.ar  1 <1>  -0.1500 
  4 C        0.3250    -2.5380    -0.5630 C.ar  1 <1>  -0.1500 
  5 C        3.0770    -2.5860     0.0620 C.ar  1 <1>   0.0860 
  6 C        0.8780    -3.6410     0.0610 C.ar  1 <1>  -0.1500 
  7 C        4.4890    -2.6320     0.3930 C.2   1 <1>   0.6340 
  8 C        2.2300    -3.6590     0.3650 C.ar  1 <1>  -0.1500 
  9 O        5.0210    -3.5780     0.9330 O.2   1 <1>  -0.5700 
 10 O        5.2450    -1.5710     0.0860 O.3   1 <1>  -0.4300 
 11 C        6.6240    -1.5480     0.3800 C.3   1 <1>   0.1200 
 12 C        7.2150    -0.2000    -0.0610 C.3   1 <1>  -0.0800 
 13 C        8.7410    -0.1860     0.1960 C.3   1 <1>   0.4230 
 14 C        6.5250     0.9720     0.6660 C.3   1 <1>  -0.1600 
 15 N        9.2970     1.2140     0.3520 N.4   1 <1>  -0.9590 
 16 C        9.5250    -0.9580    -0.8770 C.3   1 <1>  -0.1600 
 17 C        7.0970     2.3260     0.2120 C.3   1 <1>  -0.1600 
 18 C        8.5050     2.2360    -0.3830 C.3   1 <1>   0.3430 
 19 C       10.7510     1.3610     0.0170 C.3   1 <1>   0.3430 
 20 C       11.0100    -1.1040    -0.4990 C.3   1 <1>  -0.1600 
 21 C       11.5150     0.0790     0.3440 C.3   1 <1>  -0.1600 
 22 H        3.0980    -0.6230    -0.8300 H     1 <1>   0.1500 
 23 H       -0.7210    -2.5000    -0.8100 H     1 <1>   0.1500 
 24 H        0.2580    -4.4860     0.3100 H     1 <1>   0.1500 
 25 H        2.6450    -4.5260     0.8510 H     1 <1>   0.1500 
 26 H        7.0810    -2.3720    -0.1420 H     1 <1>   0.0800 
 27 H        6.7410    -1.6960     1.4420 H     1 <1>   0.0800 
 28 H        7.0430    -0.1030    -1.1190 H     1 <1>   0.0800 
 29 H        8.9090    -0.6990     1.1300 H     1 <1>   0.0800 
 30 H        6.6670     0.8620     1.7290 H     1 <1>   0.0800 
 31 H        5.4620     0.9600     0.4840 H     1 <1>   0.0800 
 32 H        9.1920     1.4370     1.3490 H     1 <1>   0.4500 
 33 H        9.4350    -0.4420    -1.8180 H     1 <1>   0.0800 
 34 H        9.1110    -1.9410    -1.0150 H     1 <1>   0.0800 
 35 H        7.0970     3.0120     1.0420 H     1 <1>   0.0800 
 36 H        6.4510     2.7500    -0.5390 H     1 <1>   0.0800 
 37 H        8.4380     1.9530    -1.4220 H     1 <1>   0.0800 
 38 H        8.9820     3.2020    -0.3260 H     1 <1>   0.0800 
 39 H       11.1730     2.1910     0.5600 H     1 <1>   0.0800 
 40 H       10.8600     1.5600    -1.0380 H     1 <1>   0.0800 
 41 H       11.5910    -1.1850    -1.4030 H     1 <1>   0.0800 
 42 H       11.1590    -2.0150     0.0580 H     1 <1>   0.0800 
 43 H       11.4090    -0.1370     1.3930 H     1 <1>   0.0800 
 44 H       12.5640     0.2280     0.1540 H     1 <1>   0.0800 
@<TRIPOS>BOND
  1   1   2  1   
  2   2   3  ar  
  3   2   4  ar  
  4   3   5  ar  
  5   3  22  1   
  6   4   6  ar  
  7   4  23  1   
  8   5   7  1   
  9   5   8  ar  
 10   6   8  ar  
 11   6  24  1   
 12   7   9  2   
 13   7  10  1   
 14   8  25  1   
 15  10  11  1   
 16  11  12  1   
 17  11  26  1   
 18  11  27  1   
 19  12  13  1   
 20  12  14  1   
 21  12  28  1   
 22  13  15  1   
 23  13  16  1   
 24  13  29  1   
 25  14  17  1   
 26  14  30  1   
 27  14  31  1   
 28  15  18  1   
 29  15  19  1   
 30  15  32  1   
 31  16  20  1   
 32  16  33  1   
 33  16  34  1   
 34  17  18  1   
 35  17  35  1   
 36  17  36  1   
 37  18  37  1   
 38  18  38  1   
 39  19  21  1   
 40  19  39  1   
 41  19  40  1   
 42  20  21  1   
 43  20  41  1   
 44  20  42  1   
 45  21  43  1   
 46  21  44  1   
@<TRIPOS>SUBSTRUCTURE
  1 ****  10 GROUP 4 **** **** 0

# MOE 2024.06 (io_trps.svl 2023.06)
