@<TRIPOS>MOLECULE
NONAME
43 45 1 0 0 
SMALL
USER_CHARGES


@<TRIPOS>ATOM
  1 O        0.2920     0.5740     1.5270 O.2   1 <1>  -0.5700 
  2 C        0.2740     1.5470     0.7980 C.2   1 <1>   0.5440 
  3 N        1.4120     1.8860     0.0960 N.am  1 <1>  -0.6600 
  4 C       -0.9380     2.3350     0.6840 C.ar  1 <1>   0.0860 
  5 C        1.5150     3.0690    -0.8170 C.3   1 <1>   0.1400 
  6 C        2.7070     1.1530     0.2670 C.3   1 <1>   0.1400 
  7 C       -1.9150     2.0710    -0.2820 C.ar  1 <1>  -0.1440 
  8 C       -1.1420     3.4100     1.5460 C.ar  1 <1>  -0.1500 
  9 C        2.6600     4.0060    -0.3940 C.3   1 <1>   0.2090 
 10 C        3.8400     2.1090     0.6760 C.3   1 <1>   0.2090 
 11 C       -3.0390     2.8750    -0.3760 C.ar  1 <1>  -0.1500 
 12 C       -1.7520     0.8950    -1.2350 C.3   1 <1>  -0.0960 
 13 C       -2.2660     4.2090     1.4490 C.ar  1 <1>  -0.1500 
 14 N        3.9470     3.2650    -0.2690 N.pl3 1 <1>  -0.8380 
 15 C       -3.2210     3.9470     0.4820 C.ar  1 <1>  -0.1430 
 16 C        5.0870     4.0390    -0.2040 C.ar  1 <1>   0.4100 
 17 C       -4.4600     4.8160     0.3690 C.3   1 <1>  -0.0970 
 18 N        5.6170     4.2470     0.9960 N.ar  1 <1>  -0.6200 
 19 C        5.6170     4.5730    -1.3760 C.ar  1 <1>  -0.1500 
 20 C        6.7000     5.0060     1.0240 C.ar  1 <1>   0.1600 
 21 C        6.7430     5.3610    -1.3320 C.ar  1 <1>  -0.1500 
 22 C        7.2950     5.5790    -0.0860 C.ar  1 <1>  -0.1500 
 23 H        0.5960     3.6260    -0.8340 H     1 <1>   0.0800 
 24 H        1.7060     2.7190    -1.8160 H     1 <1>   0.0800 
 25 H        2.9670     0.6800    -0.6630 H     1 <1>   0.0800 
 26 H        2.6130     0.3830     1.0120 H     1 <1>   0.0800 
 27 H       -0.4040     3.6140     2.3010 H     1 <1>   0.1500 
 28 H        2.4200     4.4580     0.5530 H     1 <1>   0.0800 
 29 H        2.7650     4.7920    -1.1200 H     1 <1>   0.0800 
 30 H        4.7740     1.5740     0.6910 H     1 <1>   0.0800 
 31 H        3.6520     2.4750     1.6710 H     1 <1>   0.0800 
 32 H       -3.7870     2.6660    -1.1200 H     1 <1>   0.1500 
 33 H       -0.8800     1.0340    -1.8490 H     1 <1>   0.0800 
 34 H       -2.6090     0.7910    -1.8760 H     1 <1>   0.0800 
 35 H       -1.6360    -0.0160    -0.6740 H     1 <1>   0.0800 
 36 H       -2.3960     5.0310     2.1300 H     1 <1>   0.1500 
 37 H       -5.2650     4.3760     0.9310 H     1 <1>   0.0800 
 38 H       -4.7620     4.9060    -0.6590 H     1 <1>   0.0800 
 39 H       -4.2670     5.8020     0.7530 H     1 <1>   0.0800 
 40 H        5.1320     4.3510    -2.3060 H     1 <1>   0.1500 
 41 H        7.1400     5.1820     1.9910 H     1 <1>   0.1500 
 42 H        7.1740     5.7850    -2.2220 H     1 <1>   0.1500 
 43 H        8.1760     6.1850     0.0230 H     1 <1>   0.1500 
@<TRIPOS>BOND
  1   1   2  2   
  2   2   3  am  
  3   2   4  1   
  4   3   5  1   
  5   3   6  1   
  6   4   7  ar  
  7   4   8  ar  
  8   5   9  1   
  9   5  23  1   
 10   5  24  1   
 11   6  10  1   
 12   6  25  1   
 13   6  26  1   
 14   7  11  ar  
 15   7  12  1   
 16   8  13  ar  
 17   8  27  1   
 18   9  14  1   
 19   9  28  1   
 20   9  29  1   
 21  10  14  1   
 22  10  30  1   
 23  10  31  1   
 24  11  15  ar  
 25  11  32  1   
 26  12  33  1   
 27  12  34  1   
 28  12  35  1   
 29  13  15  ar  
 30  13  36  1   
 31  14  16  1   
 32  15  17  1   
 33  16  18  ar  
 34  16  19  ar  
 35  17  37  1   
 36  17  38  1   
 37  17  39  1   
 38  18  20  ar  
 39  19  21  ar  
 40  19  40  1   
 41  20  22  ar  
 42  20  41  1   
 43  21  22  ar  
 44  21  42  1   
 45  22  43  1   
@<TRIPOS>SUBSTRUCTURE
  1 ****   5 GROUP 4 **** **** 0

# MOE 2024.06 (io_trps.svl 2023.06)
