@<TRIPOS>MOLECULE
NONAME
51 52 1 0 0 
SMALL
USER_CHARGES


@<TRIPOS>ATOM
  1 O       -0.4780     5.6190    -0.3050 O.3   1 <1>  -0.3630 
  2 C        0.7820     6.0740    -0.0780 C.ar  1 <1>   0.0830 
  3 C       -1.5990     6.3440     0.1290 C.3   1 <1>   0.1200 
  4 C        1.0710     7.2640     0.5860 C.ar  1 <1>  -0.1500 
  5 C        1.8210     5.2870    -0.5480 C.ar  1 <1>  -0.1500 
  6 C       -2.8360     5.5490    -0.2890 C.3   1 <1>  -0.1600 
  7 C        2.3880     7.6470     0.7710 C.ar  1 <1>  -0.1500 
  8 C        3.1380     5.6710    -0.3630 C.ar  1 <1>  -0.1500 
  9 C       -4.1110     6.2620     0.1420 C.3   1 <1>   0.3430 
 10 C        3.4270     6.8600     0.3010 C.ar  1 <1>   0.0830 
 11 N       -5.2760     5.4520    -0.2850 N.4   1 <1>  -0.9060 
 12 O        4.6860     7.3150     0.5270 O.3   1 <1>  -0.3630 
 13 C       -6.5820     6.0160     0.1190 C.3   1 <1>   0.4230 
 14 C        5.8110     6.5870     0.0890 C.3   1 <1>   0.0400 
 15 C       -7.6620     4.9090     0.0390 C.3   1 <1>  -0.0800 
 16 C       -6.9300     7.2320    -0.7460 C.3   1 <1>  -0.1600 
 17 C       -9.0800     5.4990    -0.2270 C.3   1 <1>  -0.0800 
 18 C       -7.5770     4.0350     1.3090 C.3   1 <1>  -0.2400 
 19 C       -8.2260     7.8980    -0.2480 C.3   1 <1>  -0.1600 
 20 C       -9.2220     6.9040     0.3790 C.3   1 <1>  -0.1600 
 21 C      -10.2440     4.6010     0.2200 C.3   1 <1>  -0.2400 
 22 H       -1.5760     7.3120    -0.3430 H     1 <1>   0.0800 
 23 H       -1.5400     6.4440     1.2000 H     1 <1>   0.0800 
 24 H        0.2980     7.9030     0.9660 H     1 <1>   0.1500 
 25 H        1.5940     4.3690    -1.0600 H     1 <1>   0.1500 
 26 H       -2.7860     4.5780     0.1720 H     1 <1>   0.0800 
 27 H       -2.8220     5.4410    -1.3600 H     1 <1>   0.0800 
 28 H        2.6220     8.5640     1.2820 H     1 <1>   0.1500 
 29 H        3.9170     5.0370    -0.7400 H     1 <1>   0.1500 
 30 H       -4.1500     7.2390    -0.3120 H     1 <1>   0.0800 
 31 H       -4.1170     6.3800     1.2140 H     1 <1>   0.0800 
 32 H       -5.2020     4.5110     0.1200 H     1 <1>   0.4500 
 33 H       -5.2710     5.3330    -1.3050 H     1 <1>   0.4500 
 34 H       -6.5270     6.3470     1.1440 H     1 <1>   0.0800 
 35 H        6.6930     7.1310     0.3740 H     1 <1>   0.0800 
 36 H        5.7710     6.4930    -0.9820 H     1 <1>   0.0800 
 37 H        5.8080     5.6210     0.5620 H     1 <1>   0.0800 
 38 H       -7.4480     4.2750    -0.8050 H     1 <1>   0.0800 
 39 H       -7.0740     6.9140    -1.7650 H     1 <1>   0.0800 
 40 H       -6.1460     7.9660    -0.7290 H     1 <1>   0.0800 
 41 H       -9.1860     5.6120    -1.2940 H     1 <1>   0.0800 
 42 H       -7.8940     4.5920     2.1740 H     1 <1>   0.0800 
 43 H       -6.5760     3.6820     1.4810 H     1 <1>   0.0800 
 44 H       -8.2060     3.1670     1.2180 H     1 <1>   0.0800 
 45 H       -8.6980     8.3960    -1.0790 H     1 <1>   0.0800 
 46 H       -7.9950     8.6560     0.4820 H     1 <1>   0.0800 
 47 H       -9.0610     6.8480     1.4430 H     1 <1>   0.0800 
 48 H      -10.2230     7.2730     0.2290 H     1 <1>   0.0800 
 49 H      -10.2860     4.5160     1.2910 H     1 <1>   0.0800 
 50 H      -10.1480     3.6180    -0.2070 H     1 <1>   0.0800 
 51 H      -11.1780     5.0160    -0.1150 H     1 <1>   0.0800 
@<TRIPOS>BOND
  1   1   2  1   
  2   1   3  1   
  3   2   4  ar  
  4   2   5  ar  
  5   3   6  1   
  6   3  22  1   
  7   3  23  1   
  8   4   7  ar  
  9   4  24  1   
 10   5   8  ar  
 11   5  25  1   
 12   6   9  1   
 13   6  26  1   
 14   6  27  1   
 15   7  10  ar  
 16   7  28  1   
 17   8  10  ar  
 18   8  29  1   
 19   9  11  1   
 20   9  30  1   
 21   9  31  1   
 22  10  12  1   
 23  11  13  1   
 24  11  32  1   
 25  11  33  1   
 26  12  14  1   
 27  13  15  1   
 28  13  16  1   
 29  13  34  1   
 30  14  35  1   
 31  14  36  1   
 32  14  37  1   
 33  15  17  1   
 34  15  18  1   
 35  15  38  1   
 36  16  19  1   
 37  16  39  1   
 38  16  40  1   
 39  17  20  1   
 40  17  21  1   
 41  17  41  1   
 42  18  42  1   
 43  18  43  1   
 44  18  44  1   
 45  19  20  1   
 46  19  45  1   
 47  19  46  1   
 48  20  47  1   
 49  20  48  1   
 50  21  49  1   
 51  21  50  1   
 52  21  51  1   
@<TRIPOS>SUBSTRUCTURE
  1 ****   6 GROUP 4 **** **** 0

# MOE 2024.06 (io_trps.svl 2023.06)
