@<TRIPOS>MOLECULE
NONAME
35 35 1 0 0 
SMALL
USER_CHARGES


@<TRIPOS>ATOM
  1 S        0.0230    -0.3320    -1.0320 S.3   1 <1>  -0.3310 
  2 C        0.0800    -1.9840    -0.3510 C.ar  1 <1>   0.7220 
  3 C        1.7140     0.3590    -0.7510 C.3   1 <1>  -0.0100 
  4 N       -1.0250    -2.6560    -0.4450 N.ar  1 <1>  -0.6200 
  5 N        1.2130    -2.3500     0.1670 N.ar  1 <1>  -0.6200 
  6 C       -0.9360    -3.8620     0.0660 C.ar  1 <1>   0.7200 
  7 C        1.1640    -3.5690     0.6380 C.ar  1 <1>   0.7200 
  8 N        0.1390    -4.3690     0.6200 N.ar  1 <1>  -0.6200 
  9 N       -2.0630    -4.6550     0.0130 N.pl3 1 <1>  -0.8380 
 10 N        2.2760    -4.0900     1.2010 N.pl3 1 <1>  -0.8690 
 11 C       -3.4030    -4.1110    -0.3490 C.3   1 <1>   0.1290 
 12 C       -2.0270    -6.1150     0.3120 C.3   1 <1>   0.1290 
 13 C        3.6580    -3.5700     1.0870 C.3   1 <1>   0.2090 
 14 C        4.5010    -4.4690     0.1660 C.3   1 <1>  -0.0800 
 15 C        5.9570    -3.9840     0.1430 C.3   1 <1>  -0.2400 
 16 C        3.9520    -4.5060    -1.2690 C.3   1 <1>  -0.2400 
 17 H        1.7300     1.3590    -1.1460 H     1 <1>   0.0800 
 18 H        2.4170    -0.2710    -1.2660 H     1 <1>   0.0800 
 19 H        1.8990     0.3580     0.3080 H     1 <1>   0.0800 
 20 H        2.1770    -5.0690     1.4650 H     1 <1>   0.4000 
 21 H       -3.4790    -3.0720    -0.0760 H     1 <1>   0.0800 
 22 H       -4.1750    -4.6510     0.1700 H     1 <1>   0.0800 
 23 H       -3.5550    -4.2050    -1.4100 H     1 <1>   0.0800 
 24 H       -1.0540    -6.5240     0.1010 H     1 <1>   0.0800 
 25 H       -2.7480    -6.6350    -0.2940 H     1 <1>   0.0800 
 26 H       -2.2550    -6.2740     1.3520 H     1 <1>   0.0800 
 27 H        4.0960    -3.5450     2.0700 H     1 <1>   0.0800 
 28 H        3.6510    -2.5630     0.7050 H     1 <1>   0.0800 
 29 H        4.4910    -5.4680     0.5680 H     1 <1>   0.0800 
 30 H        6.0180    -2.9860    -0.2560 H     1 <1>   0.0800 
 31 H        6.5570    -4.6340    -0.4680 H     1 <1>   0.0800 
 32 H        6.3680    -3.9830     1.1380 H     1 <1>   0.0800 
 33 H        3.9080    -3.5140    -1.6830 H     1 <1>   0.0800 
 34 H        2.9610    -4.9240    -1.2840 H     1 <1>   0.0800 
 35 H        4.5790    -5.1150    -1.8970 H     1 <1>   0.0800 
@<TRIPOS>BOND
  1   1   2  1   
  2   1   3  1   
  3   2   4  ar  
  4   2   5  ar  
  5   3  17  1   
  6   3  18  1   
  7   3  19  1   
  8   4   6  ar  
  9   5   7  ar  
 10   6   8  ar  
 11   6   9  1   
 12   7   8  ar  
 13   7  10  1   
 14   9  11  1   
 15   9  12  1   
 16  10  13  1   
 17  10  20  1   
 18  11  21  1   
 19  11  22  1   
 20  11  23  1   
 21  12  24  1   
 22  12  25  1   
 23  12  26  1   
 24  13  14  1   
 25  13  27  1   
 26  13  28  1   
 27  14  15  1   
 28  14  16  1   
 29  14  29  1   
 30  15  30  1   
 31  15  31  1   
 32  15  32  1   
 33  16  33  1   
 34  16  34  1   
 35  16  35  1   
@<TRIPOS>SUBSTRUCTURE
  1 ****   7 GROUP 4 **** **** 0

# MOE 2024.06 (io_trps.svl 2023.06)
