@<TRIPOS>MOLECULE
NONAME
39 39 1 0 0 
SMALL
USER_CHARGES


@<TRIPOS>ATOM
  1 O       -6.0580     3.5090     2.9190 O.3   1 <1>  -0.6800 
  2 C       -6.4890     2.4100     2.2180 C.3   1 <1>   0.4000 
  3 C       -5.3410     1.9660     1.3770 C.1   1 <1>  -0.2000 
  4 C       -7.6750     2.8460     1.3680 C.3   1 <1>  -0.2400 
  5 C       -4.4180     1.6780     0.6850 C.1   1 <1>  -0.2000 
  6 C       -3.2600     1.4340    -0.2130 C.3   1 <1>   0.5430 
  7 N       -2.7660     2.7630    -0.6670 N.4   1 <1>  -0.9590 
  8 C       -3.7510     3.4810    -1.5170 C.3   1 <1>   0.4230 
  9 C       -1.3870     2.6810    -1.2240 C.3   1 <1>   0.4860 
 10 C       -3.8140     2.8970    -2.9300 C.3   1 <1>  -0.2400 
 11 C       -3.3940     4.9640    -1.5510 C.3   1 <1>  -0.2400 
 12 C       -0.4570     2.1530    -0.1510 C.ar  1 <1>  -0.1430 
 13 C       -0.1340     2.9400     0.9460 C.ar  1 <1>  -0.1500 
 14 C        0.0730     0.8740    -0.2540 C.ar  1 <1>  -0.1500 
 15 C        0.6970     2.4460     1.9360 C.ar  1 <1>  -0.1500 
 16 C        0.9040     0.3830     0.7370 C.ar  1 <1>  -0.1500 
 17 C        1.2140     1.1680     1.8330 C.ar  1 <1>  -0.1500 
 18 H       -5.3320     3.2450     3.5130 H     1 <1>   0.4000 
 19 H       -6.7770     1.6450     2.9200 H     1 <1>   0.0800 
 20 H       -7.3890     3.6370     0.6990 H     1 <1>   0.0800 
 21 H       -8.4720     3.1880     2.0030 H     1 <1>   0.0800 
 22 H       -8.0350     2.0150     0.7900 H     1 <1>   0.0800 
 23 H       -3.5560     0.8270    -1.0530 H     1 <1>   0.0800 
 24 H       -2.4960     0.9130     0.3400 H     1 <1>   0.0800 
 25 H       -2.6940     3.3000     0.2040 H     1 <1>   0.4500 
 26 H       -4.7300     3.3930    -1.0710 H     1 <1>   0.0800 
 27 H       -1.0490     3.6570    -1.5310 H     1 <1>   0.0800 
 28 H       -1.3680     2.0290    -2.0820 H     1 <1>   0.0800 
 29 H       -2.8940     3.0410    -3.4670 H     1 <1>   0.0800 
 30 H       -4.5890     3.3990    -3.4810 H     1 <1>   0.0800 
 31 H       -4.0630     1.8520    -2.9090 H     1 <1>   0.0800 
 32 H       -2.4640     5.1450    -2.0580 H     1 <1>   0.0800 
 33 H       -3.3480     5.3650    -0.5540 H     1 <1>   0.0800 
 34 H       -4.1620     5.5010    -2.0790 H     1 <1>   0.0800 
 35 H       -0.5150     3.9420     1.0470 H     1 <1>   0.1500 
 36 H       -0.1470     0.2460    -1.1010 H     1 <1>   0.1500 
 37 H        0.9480     3.0550     2.7890 H     1 <1>   0.1500 
 38 H        1.3170    -0.6090     0.6580 H     1 <1>   0.1500 
 39 H        1.8620     0.7850     2.6030 H     1 <1>   0.1500 
@<TRIPOS>BOND
  1   1   2  1   
  2   1  18  1   
  3   2   3  1   
  4   2   4  1   
  5   2  19  1   
  6   3   5  3   
  7   4  20  1   
  8   4  21  1   
  9   4  22  1   
 10   5   6  1   
 11   6   7  1   
 12   6  23  1   
 13   6  24  1   
 14   7   8  1   
 15   7   9  1   
 16   7  25  1   
 17   8  10  1   
 18   8  11  1   
 19   8  26  1   
 20   9  12  1   
 21   9  27  1   
 22   9  28  1   
 23  10  29  1   
 24  10  30  1   
 25  10  31  1   
 26  11  32  1   
 27  11  33  1   
 28  11  34  1   
 29  12  13  ar  
 30  12  14  ar  
 31  13  15  ar  
 32  13  35  1   
 33  14  16  ar  
 34  14  36  1   
 35  15  17  ar  
 36  15  37  1   
 37  16  17  ar  
 38  16  38  1   
 39  17  39  1   
@<TRIPOS>SUBSTRUCTURE
  1 ****   7 GROUP 4 **** **** 0

# MOE 2024.06 (io_trps.svl 2023.06)
