@<TRIPOS>MOLECULE
NONAME
48 50 1 0 0 
SMALL
USER_CHARGES


@<TRIPOS>ATOM
  1 S        1.0940    -0.5870    -2.3220 S.3   1 <1>  -0.0800 
  2 C       -0.1460    -1.4810    -1.4560 C.2   1 <1>   0.1040 
  3 C        2.0810    -0.4360    -0.8790 C.2   1 <1>  -0.1400 
  4 N       -1.2730    -1.9350    -2.1200 N.am  1 <1>  -0.4940 
  5 C        0.1990    -1.6320    -0.1410 C.2   1 <1>  -0.0860 
  6 C        1.4740    -1.0320     0.1610 C.2   1 <1>  -0.1500 
  7 C        3.3950     0.3020    -1.0190 C.3   1 <1>  -0.0600 
  8 C       -1.8300    -1.6720    -3.3420 C.2   1 <1>   0.5690 
  9 C       -0.6070    -2.2960     0.8440 C.2   1 <1>   0.8060 
 10 O       -1.3760    -0.9010    -4.1530 O.2   1 <1>  -0.5700 
 11 C       -3.1280    -2.4150    -3.6670 C.3   1 <1>   0.1710 
 12 O       -1.7130    -2.7490     0.6080 O.2   1 <1>  -0.5700 
 13 O       -0.1190    -2.4170     2.0860 O.3   1 <1>  -0.4300 
 14 N       -3.7430    -3.1050    -2.4930 N.3   1 <1>  -0.8100 
 15 C       -0.8530    -3.0590     3.1120 C.3   1 <1>   0.0400 
 16 C       -4.7020    -4.1480    -2.9240 C.3   1 <1>   0.1100 
 17 C       -4.4290    -2.1490    -1.5810 C.3   1 <1>   0.1100 
 18 C       -5.3390    -4.8840    -1.7280 C.3   1 <1>   0.2090 
 19 C       -5.0550    -2.8560    -0.3640 C.3   1 <1>   0.2090 
 20 N       -6.0040    -3.9240    -0.8030 N.pl3 1 <1>  -0.8380 
 21 C       -6.8600    -4.4620     0.1380 C.ar  1 <1>   0.4100 
 22 N       -6.4460    -4.4990     1.4000 N.ar  1 <1>  -0.6200 
 23 C       -8.1010    -4.9460    -0.2690 C.ar  1 <1>  -0.1500 
 24 C       -7.2860    -5.0340     2.2700 C.ar  1 <1>   0.1600 
 25 C       -8.9650    -5.5010     0.6450 C.ar  1 <1>  -0.1500 
 26 C       -8.5340    -5.5420     1.9550 C.ar  1 <1>  -0.1500 
 27 H       -1.8830    -2.5660    -1.5790 H     1 <1>   0.3700 
 28 H        1.8780    -1.0760     1.1580 H     1 <1>   0.1500 
 29 H        4.0180    -0.1950    -1.7410 H     1 <1>   0.0800 
 30 H        3.9090     0.3310    -0.0760 H     1 <1>   0.0800 
 31 H        3.2140     1.3090    -1.3500 H     1 <1>   0.0800 
 32 H       -2.8860    -3.1440    -4.4190 H     1 <1>   0.0800 
 33 H       -3.8300    -1.7210    -4.0960 H     1 <1>   0.0800 
 34 H       -0.2670    -3.0400     4.0140 H     1 <1>   0.0800 
 35 H       -1.0470    -4.0770     2.8190 H     1 <1>   0.0800 
 36 H       -1.7800    -2.5330     3.2610 H     1 <1>   0.0800 
 37 H       -4.1910    -4.8700    -3.5360 H     1 <1>   0.0800 
 38 H       -5.4870    -3.7020    -3.5110 H     1 <1>   0.0800 
 39 H       -5.2100    -1.6320    -2.1130 H     1 <1>   0.0800 
 40 H       -3.7310    -1.4140    -1.2220 H     1 <1>   0.0800 
 41 H       -4.5740    -5.4190    -1.1910 H     1 <1>   0.0800 
 42 H       -6.0580    -5.5980    -2.0880 H     1 <1>   0.0800 
 43 H       -5.5820    -2.1380     0.2390 H     1 <1>   0.0800 
 44 H       -4.2760    -3.2910     0.2380 H     1 <1>   0.0800 
 45 H       -8.3680    -4.8710    -1.3050 H     1 <1>   0.1500 
 46 H       -6.9600    -5.0690     3.2950 H     1 <1>   0.1500 
 47 H       -9.9290    -5.8810     0.3560 H     1 <1>   0.1500 
 48 H       -9.1570    -5.9610     2.7230 H     1 <1>   0.1500 
@<TRIPOS>BOND
  1   1   2  1   
  2   1   3  1   
  3   2   4  1   
  4   2   5  2   
  5   3   6  2   
  6   3   7  1   
  7   4   8  am  
  8   4  27  1   
  9   5   6  1   
 10   5   9  1   
 11   6  28  1   
 12   7  29  1   
 13   7  30  1   
 14   7  31  1   
 15   8  10  2   
 16   8  11  1   
 17   9  12  2   
 18   9  13  1   
 19  11  14  1   
 20  11  32  1   
 21  11  33  1   
 22  13  15  1   
 23  14  16  1   
 24  14  17  1   
 25  15  34  1   
 26  15  35  1   
 27  15  36  1   
 28  16  18  1   
 29  16  37  1   
 30  16  38  1   
 31  17  19  1   
 32  17  39  1   
 33  17  40  1   
 34  18  20  1   
 35  18  41  1   
 36  18  42  1   
 37  19  20  1   
 38  19  43  1   
 39  19  44  1   
 40  20  21  1   
 41  21  22  ar  
 42  21  23  ar  
 43  22  24  ar  
 44  23  25  ar  
 45  23  45  1   
 46  24  26  ar  
 47  24  46  1   
 48  25  26  ar  
 49  25  47  1   
 50  26  48  1   
@<TRIPOS>SUBSTRUCTURE
  1 ****  12 GROUP 4 **** **** 0

# MOE 2024.06 (io_trps.svl 2023.06)
