@<TRIPOS>MOLECULE
NONAME
41 43 1 0 0 
SMALL
USER_CHARGES


@<TRIPOS>ATOM
  1 F       -1.3250     1.2290    -0.0100 F     1 <1>  -0.3400 
  2 C       -1.0100     2.1420     0.8990 C.3   1 <1>   1.1640 
  3 F       -0.0610     1.6160     1.6570 F     1 <1>  -0.3400 
  4 F       -2.0870     2.2640     1.6710 F     1 <1>  -0.3400 
  5 C       -0.6500     3.4930     0.2510 C.ar  1 <1>  -0.1440 
  6 C       -1.5100     4.1370    -0.6510 C.ar  1 <1>  -0.1440 
  7 C        0.5610     4.1040     0.5680 C.ar  1 <1>  -0.1500 
  8 C       -1.1340     5.3490    -1.2160 C.ar  1 <1>  -0.1500 
  9 C       -2.8670     3.5690    -1.0610 C.3   1 <1>   0.4870 
 10 C        0.9180     5.3150     0.0060 C.ar  1 <1>  -0.1500 
 11 C        0.0710     5.9370    -0.8890 C.ar  1 <1>  -0.1500 
 12 N       -3.8550     3.7880     0.0310 N.4   1 <1>  -0.9590 
 13 C       -5.1760     3.1240    -0.2860 C.3   1 <1>   0.3430 
 14 C       -4.0280     5.2610     0.3450 C.3   1 <1>   0.3430 
 15 C       -6.2540     3.3920     0.7870 C.3   1 <1>   0.2090 
 16 C       -5.1020     5.5110     1.4220 C.3   1 <1>   0.2090 
 17 N       -6.3790     4.8600     1.0100 N.pl3 1 <1>  -0.8380 
 18 C       -7.3130     5.5600     0.2810 C.ar  1 <1>   0.7200 
 19 N       -8.5340     5.0430     0.2330 N.ar  1 <1>  -0.6200 
 20 N       -6.8910     6.6610    -0.3380 N.ar  1 <1>  -0.6200 
 21 C       -9.4220     5.7230    -0.4520 C.ar  1 <1>   0.1600 
 22 C       -7.8010     7.3210    -1.0160 C.ar  1 <1>   0.1600 
 23 C       -9.1020     6.8890    -1.1030 C.ar  1 <1>  -0.1500 
 24 H        1.2520     3.6470     1.2590 H     1 <1>   0.1500 
 25 H       -1.7720     5.8540    -1.9230 H     1 <1>   0.1500 
 26 H       -2.7750     2.5170    -1.2750 H     1 <1>   0.0800 
 27 H       -3.2040     4.0600    -1.9590 H     1 <1>   0.0800 
 28 H        1.8600     5.7730     0.2610 H     1 <1>   0.1500 
 29 H        0.3570     6.8780    -1.3310 H     1 <1>   0.1500 
 30 H       -3.4890     3.3460     0.8870 H     1 <1>   0.4500 
 31 H       -5.0390     2.0600    -0.3850 H     1 <1>   0.0800 
 32 H       -5.5500     3.4990    -1.2250 H     1 <1>   0.0800 
 33 H       -4.3270     5.7900    -0.5450 H     1 <1>   0.0800 
 34 H       -3.0930     5.6810     0.6800 H     1 <1>   0.0800 
 35 H       -5.9880     2.9100     1.7120 H     1 <1>   0.0800 
 36 H       -7.1910     2.9720     0.4640 H     1 <1>   0.0800 
 37 H       -5.2460     6.5700     1.5590 H     1 <1>   0.0800 
 38 H       -4.7810     5.1070     2.3670 H     1 <1>   0.0800 
 39 H      -10.4290     5.3420    -0.4950 H     1 <1>   0.1500 
 40 H       -7.5050     8.2280    -1.5150 H     1 <1>   0.1500 
 41 H       -9.8390     7.4390    -1.6580 H     1 <1>   0.1500 
@<TRIPOS>BOND
  1   1   2  1   
  2   2   3  1   
  3   2   4  1   
  4   2   5  1   
  5   5   6  ar  
  6   5   7  ar  
  7   6   8  ar  
  8   6   9  1   
  9   7  10  ar  
 10   7  24  1   
 11   8  11  ar  
 12   8  25  1   
 13   9  12  1   
 14   9  26  1   
 15   9  27  1   
 16  10  11  ar  
 17  10  28  1   
 18  11  29  1   
 19  12  13  1   
 20  12  14  1   
 21  12  30  1   
 22  13  15  1   
 23  13  31  1   
 24  13  32  1   
 25  14  16  1   
 26  14  33  1   
 27  14  34  1   
 28  15  17  1   
 29  15  35  1   
 30  15  36  1   
 31  16  17  1   
 32  16  37  1   
 33  16  38  1   
 34  17  18  1   
 35  18  19  ar  
 36  18  20  ar  
 37  19  21  ar  
 38  20  22  ar  
 39  21  23  ar  
 40  21  39  1   
 41  22  23  ar  
 42  22  40  1   
 43  23  41  1   
@<TRIPOS>SUBSTRUCTURE
  1 ****  12 GROUP 4 **** **** 0

# MOE 2024.06 (io_trps.svl 2023.06)
