@<TRIPOS>MOLECULE
NONAME
25 26 1 0 0 
SMALL
USER_CHARGES


@<TRIPOS>ATOM
  1 S        0.1360    -0.1950    -0.4530 S.3   1 <1>  -0.0800 
  2 C        1.6170     0.5030     0.2110 C.2   1 <1>  -0.0050 
  3 C       -0.8330     1.1580     0.0910 C.2   1 <1>  -0.1100 
  4 C        1.3120     1.6910     0.7930 C.2   1 <1>  -0.1500 
  5 C        2.8600    -0.1920     0.0750 C.2   1 <1>  -0.1050 
  6 C       -0.0630     2.0600     0.7260 C.2   1 <1>  -0.1500 
  7 C        3.0800    -1.3880    -0.5260 C.2   1 <1>  -0.1360 
  8 C        4.3110    -2.0970    -0.6710 C.2   1 <1>   0.3750 
  9 N        4.4630    -3.2210    -1.2370 N.2   1 <1>  -0.5130 
 10 C        5.6060    -1.5560    -0.1360 C.3   1 <1>  -0.0990 
 11 O        5.7250    -3.5900    -1.1960 O.3   1 <1>  -0.2170 
 12 C        6.5850    -2.5750    -0.7180 C.3   1 <1>   0.5600 
 13 O        7.1220    -2.0340    -1.8880 O.3   1 <1>  -0.6800 
 14 C        7.6480    -3.1350     0.3030 C.3   1 <1>   1.0200 
 15 F        8.4690    -4.0450    -0.2160 F     1 <1>  -0.3400 
 16 F        8.4280    -2.1760     0.7980 F     1 <1>  -0.3400 
 17 F        7.0860    -3.7130     1.3630 F     1 <1>  -0.3400 
 18 H       -1.8860     1.1360    -0.1250 H     1 <1>   0.1500 
 19 H        2.0260     2.3330     1.2780 H     1 <1>   0.1500 
 20 H        3.6850     0.3360     0.5190 H     1 <1>   0.1500 
 21 H       -0.4130     2.9820     1.1570 H     1 <1>   0.1500 
 22 H        2.2520    -1.9140    -0.9670 H     1 <1>   0.1500 
 23 H        5.5940    -1.5860     0.9370 H     1 <1>   0.0800 
 24 H        5.8150    -0.5580    -0.4740 H     1 <1>   0.0800 
 25 H        6.4590    -2.1850    -2.5910 H     1 <1>   0.4000 
@<TRIPOS>BOND
  1   1   2  1   
  2   1   3  1   
  3   2   4  2   
  4   2   5  1   
  5   3   6  2   
  6   3  18  1   
  7   4   6  1   
  8   4  19  1   
  9   5   7  2   
 10   5  20  1   
 11   6  21  1   
 12   7   8  1   
 13   7  22  1   
 14   8   9  2   
 15   8  10  1   
 16   9  11  1   
 17  10  12  1   
 18  10  23  1   
 19  10  24  1   
 20  11  12  1   
 21  12  13  1   
 22  12  14  1   
 23  13  25  1   
 24  14  15  1   
 25  14  16  1   
 26  14  17  1   
@<TRIPOS>SUBSTRUCTURE
  1 ****   8 GROUP 4 **** **** 0

# MOE 2024.06 (io_trps.svl 2023.06)
