@<TRIPOS>MOLECULE
NONAME
46 48 1 0 0 
SMALL
USER_CHARGES


@<TRIPOS>ATOM
  1 N        1.6950     0.8220     1.4210 N.ar  1 <1>  -0.6200 
  2 C        1.7220     0.7550     0.0970 C.ar  1 <1>   0.4100 
  3 C        0.6210     1.3940     1.9420 C.ar  1 <1>   0.1600 
  4 N        2.8350     0.1620    -0.4570 N.pl3 1 <1>  -0.8380 
  5 C        0.7100     1.2410    -0.7240 C.ar  1 <1>  -0.1500 
  6 C       -0.4350     1.9070     1.2090 C.ar  1 <1>  -0.1500 
  7 C        2.9650    -1.2910    -0.1370 C.3   1 <1>   0.2090 
  8 C        4.0950     0.9360    -0.2480 C.3   1 <1>   0.2090 
  9 C       -0.3990     1.8330    -0.1690 C.ar  1 <1>  -0.1500 
 10 C        4.1680    -1.9280    -0.8610 C.3   1 <1>   0.3430 
 11 C        5.2900     0.2820    -0.9700 C.3   1 <1>   0.3430 
 12 N        5.4480    -1.1740    -0.6170 N.4   1 <1>  -0.9590 
 13 C        6.6000    -1.7980    -1.3040 C.3   1 <1>   0.4810 
 14 C        7.8590    -1.1720    -0.7370 C.2   1 <1>  -0.2760 
 15 C        8.2730    -1.4210     0.5200 C.2   1 <1>  -0.1780 
 16 C        8.6050    -0.2870    -1.7360 C.3   1 <1>  -0.1020 
 17 C        9.4220    -0.8940     1.2170 C.ar  1 <1>   0.0280 
 18 C       10.3140    -1.7570     1.8460 C.ar  1 <1>  -0.1500 
 19 C        9.6650     0.4740     1.3060 C.ar  1 <1>  -0.1500 
 20 C       11.4140    -1.2730     2.5320 C.ar  1 <1>  -0.1500 
 21 C       10.7630     0.9640     1.9900 C.ar  1 <1>  -0.1500 
 22 C       11.6400     0.0890     2.6040 C.ar  1 <1>  -0.1500 
 23 H        0.5780     1.4590     3.0160 H     1 <1>   0.1500 
 24 H        0.8120     1.1460    -1.7880 H     1 <1>   0.1500 
 25 H       -1.2730     2.3580     1.7090 H     1 <1>   0.1500 
 26 H        3.0750    -1.4170     0.9280 H     1 <1>   0.0800 
 27 H        2.0610    -1.7980    -0.4320 H     1 <1>   0.0800 
 28 H        3.9580     1.9370    -0.6190 H     1 <1>   0.0800 
 29 H        4.3050     1.0060     0.8060 H     1 <1>   0.0800 
 30 H       -1.2010     2.2200    -0.7750 H     1 <1>   0.1500 
 31 H        3.9530    -1.9410    -1.9160 H     1 <1>   0.0800 
 32 H        4.2730    -2.9480    -0.5300 H     1 <1>   0.0800 
 33 H        6.1860     0.8210    -0.7110 H     1 <1>   0.0800 
 34 H        5.1370     0.3830    -2.0320 H     1 <1>   0.0800 
 35 H        5.6590    -1.2070     0.3880 H     1 <1>   0.4500 
 36 H        6.6150    -2.8580    -1.1060 H     1 <1>   0.0800 
 37 H        6.5410    -1.6460    -2.3700 H     1 <1>   0.0800 
 38 H        7.7200    -2.1040     1.1430 H     1 <1>   0.1500 
 39 H        8.8020    -0.8340    -2.6410 H     1 <1>   0.0800 
 40 H        9.5560     0.0290    -1.3450 H     1 <1>   0.0800 
 41 H        8.0350     0.5900    -1.9810 H     1 <1>   0.0800 
 42 H       10.1500    -2.8180     1.7960 H     1 <1>   0.1500 
 43 H        8.9870     1.1640     0.8400 H     1 <1>   0.1500 
 44 H       12.0950    -1.9560     3.0100 H     1 <1>   0.1500 
 45 H       10.9370     2.0250     2.0470 H     1 <1>   0.1500 
 46 H       12.4960     0.4670     3.1370 H     1 <1>   0.1500 
@<TRIPOS>BOND
  1   1   2  ar  
  2   1   3  ar  
  3   2   4  1   
  4   2   5  ar  
  5   3   6  ar  
  6   3  23  1   
  7   4   7  1   
  8   4   8  1   
  9   5   9  ar  
 10   5  24  1   
 11   6   9  ar  
 12   6  25  1   
 13   7  10  1   
 14   7  26  1   
 15   7  27  1   
 16   8  11  1   
 17   8  28  1   
 18   8  29  1   
 19   9  30  1   
 20  10  12  1   
 21  10  31  1   
 22  10  32  1   
 23  11  12  1   
 24  11  33  1   
 25  11  34  1   
 26  12  13  1   
 27  12  35  1   
 28  13  14  1   
 29  13  36  1   
 30  13  37  1   
 31  14  15  2   
 32  14  16  1   
 33  15  17  1   
 34  15  38  1   
 35  16  39  1   
 36  16  40  1   
 37  16  41  1   
 38  17  18  ar  
 39  17  19  ar  
 40  18  20  ar  
 41  18  42  1   
 42  19  21  ar  
 43  19  43  1   
 44  20  22  ar  
 45  20  44  1   
 46  21  22  ar  
 47  21  45  1   
 48  22  46  1   
@<TRIPOS>SUBSTRUCTURE
  1 ****  11 GROUP 4 **** **** 0

# MOE 2024.06 (io_trps.svl 2023.06)
