@<TRIPOS>MOLECULE
NONAME
40 41 1 0 0 
SMALL
USER_CHARGES


@<TRIPOS>ATOM
  1 O        0.9750    -0.9030    -0.2110 O.3   1 <1>  -0.6800 
  2 C        2.0500    -0.1520    -0.6470 C.3   1 <1>   0.1200 
  3 C        2.8030     0.3400     0.5970 C.3   1 <1>   0.3430 
  4 N        4.0310     1.1270     0.2470 N.4   1 <1>  -0.9590 
  5 C        5.2010     0.6280     1.0230 C.3   1 <1>   0.4860 
  6 C        3.8630     2.6000     0.4450 C.3   1 <1>   0.3430 
  7 C        6.4600     1.2380     0.4390 C.ar  1 <1>  -0.1440 
  8 C        2.8580     3.1830    -0.5500 C.3   1 <1>  -0.1600 
  9 C        7.1410     2.2240     1.1050 C.ar  1 <1>  -0.1500 
 10 C        6.9310     0.7950    -0.8070 C.ar  1 <1>  -0.1500 
 11 C        2.8400     4.7130    -0.4690 C.3   1 <1>  -0.2400 
 12 C        8.2930     2.8220     0.5590 C.ar  1 <1>   0.0000 
 13 C        8.0480     1.3590    -1.3580 C.ar  1 <1>  -0.1500 
 14 C        8.7530     2.3850    -0.7010 C.ar  1 <1>   0.0000 
 15 C        9.0030     3.8450     1.2220 C.ar  1 <1>  -0.1500 
 16 C        9.9010     2.9900    -1.2510 C.ar  1 <1>  -0.1500 
 17 C       10.1140     4.4140     0.6640 C.ar  1 <1>  -0.1500 
 18 C       10.5670     3.9820    -0.5880 C.ar  1 <1>  -0.1500 
 19 H        0.4370    -1.2420    -0.9590 H     1 <1>   0.4000 
 20 H        1.6690     0.6670    -1.2310 H     1 <1>   0.0800 
 21 H        2.6740    -0.7880    -1.2520 H     1 <1>   0.0800 
 22 H        3.0770    -0.5260     1.1760 H     1 <1>   0.0800 
 23 H        2.1380     0.9430     1.1930 H     1 <1>   0.0800 
 24 H        4.2720     0.9820    -0.7410 H     1 <1>   0.4500 
 25 H        5.2660    -0.4460     0.9540 H     1 <1>   0.0800 
 26 H        5.1050     0.8990     2.0620 H     1 <1>   0.0800 
 27 H        4.8100     3.0940     0.2920 H     1 <1>   0.0800 
 28 H        3.5400     2.8070     1.4530 H     1 <1>   0.0800 
 29 H        1.8670     2.8240    -0.3340 H     1 <1>   0.0800 
 30 H        3.1270     2.8990    -1.5520 H     1 <1>   0.0800 
 31 H        6.8160     2.5760     2.0680 H     1 <1>   0.1500 
 32 H        6.4220     0.0060    -1.3330 H     1 <1>   0.1500 
 33 H        2.5530     5.0430     0.5150 H     1 <1>   0.0800 
 34 H        2.1310     5.1110    -1.1760 H     1 <1>   0.0800 
 35 H        3.8090     5.1210    -0.7020 H     1 <1>   0.0800 
 36 H        8.4170     1.0240    -2.3120 H     1 <1>   0.1500 
 37 H        8.6580     4.1760     2.1850 H     1 <1>   0.1500 
 38 H       10.2500     2.6550    -2.2120 H     1 <1>   0.1500 
 39 H       10.6520     5.1950     1.1730 H     1 <1>   0.1500 
 40 H       11.4430     4.4410    -1.0130 H     1 <1>   0.1500 
@<TRIPOS>BOND
  1   1   2  1   
  2   1  19  1   
  3   2   3  1   
  4   2  20  1   
  5   2  21  1   
  6   3   4  1   
  7   3  22  1   
  8   3  23  1   
  9   4   5  1   
 10   4   6  1   
 11   4  24  1   
 12   5   7  1   
 13   5  25  1   
 14   5  26  1   
 15   6   8  1   
 16   6  27  1   
 17   6  28  1   
 18   7   9  ar  
 19   7  10  ar  
 20   8  11  1   
 21   8  29  1   
 22   8  30  1   
 23   9  12  ar  
 24   9  31  1   
 25  10  13  ar  
 26  10  32  1   
 27  11  33  1   
 28  11  34  1   
 29  11  35  1   
 30  12  14  ar  
 31  12  15  ar  
 32  13  14  ar  
 33  13  36  1   
 34  14  16  ar  
 35  15  17  ar  
 36  15  37  1   
 37  16  18  ar  
 38  16  38  1   
 39  17  18  ar  
 40  17  39  1   
 41  18  40  1   
@<TRIPOS>SUBSTRUCTURE
  1 ****   7 GROUP 4 **** **** 0

# MOE 2024.06 (io_trps.svl 2023.06)
