@<TRIPOS>MOLECULE
NONAME
35 35 1 0 0 
SMALL
USER_CHARGES


@<TRIPOS>ATOM
  1 CL      -0.2640     0.2640     0.9360 Cl    1 <1>  -0.1770 
  2 C        0.8700     1.5220     0.5150 C.ar  1 <1>   0.1770 
  3 C        0.5280     2.5540    -0.3450 C.ar  1 <1>  -0.0090 
  4 C        2.1290     1.4410     1.0800 C.ar  1 <1>  -0.1500 
  5 S       -1.1210     2.6640    -1.0810 S.o2  1 <1>   1.4470 
  6 C        1.5060     3.5030    -0.6250 C.ar  1 <1>  -0.1500 
  7 C        3.0770     2.4020     0.7880 C.ar  1 <1>  -0.1500 
  8 O       -1.3760     1.4340    -1.7990 O.2   1 <1>  -0.6500 
  9 O       -1.2370     3.9130    -1.8030 O.2   1 <1>  -0.6500 
 10 N       -2.1760     2.7530     0.2530 N.am  1 <1>  -0.8490 
 11 C        2.7900     3.4620    -0.0750 C.ar  1 <1>   0.0860 
 12 C       -3.3780     1.9220     0.1350 C.3   1 <1>   0.1960 
 13 C       -2.4610     4.0960     0.7660 C.3   1 <1>   0.1960 
 14 C        3.7730     4.4850    -0.3910 C.2   1 <1>   0.6340 
 15 C       -4.3670     2.4650    -0.9010 C.3   1 <1>  -0.2400 
 16 C       -1.2450     4.6720     1.4860 C.3   1 <1>  -0.2400 
 17 O        3.5310     5.4370    -1.1010 O.2   1 <1>  -0.5700 
 18 O        4.9970     4.3640     0.1320 O.3   1 <1>  -0.4300 
 19 C        6.0130     5.3150    -0.1230 C.3   1 <1>   0.0400 
 20 H        2.3600     0.6260     1.7450 H     1 <1>   0.1500 
 21 H        1.2650     4.3120    -1.2980 H     1 <1>   0.1500 
 22 H        4.0540     2.3270     1.2360 H     1 <1>   0.1500 
 23 H       -3.8630     1.8670     1.0950 H     1 <1>   0.0800 
 24 H       -3.0950     0.9150    -0.1300 H     1 <1>   0.0800 
 25 H       -3.2670     4.0380     1.4780 H     1 <1>   0.0800 
 26 H       -2.7720     4.7500    -0.0330 H     1 <1>   0.0800 
 27 H       -4.7310     3.4370    -0.6220 H     1 <1>   0.0800 
 28 H       -5.2100     1.8010    -0.9630 H     1 <1>   0.0800 
 29 H       -3.9170     2.5160    -1.8750 H     1 <1>   0.0800 
 30 H       -0.8600     3.9650     2.1990 H     1 <1>   0.0800 
 31 H       -1.5350     5.5630     2.0120 H     1 <1>   0.0800 
 32 H       -0.4780     4.9440     0.7850 H     1 <1>   0.0800 
 33 H        6.9040     5.0130     0.3980 H     1 <1>   0.0800 
 34 H        5.6850     6.2780     0.2280 H     1 <1>   0.0800 
 35 H        6.1970     5.3510    -1.1830 H     1 <1>   0.0800 
@<TRIPOS>BOND
  1   1   2  1   
  2   2   3  ar  
  3   2   4  ar  
  4   3   5  1   
  5   3   6  ar  
  6   4   7  ar  
  7   4  20  1   
  8   5   8  2   
  9   5   9  2   
 10   5  10  am  
 11   6  11  ar  
 12   6  21  1   
 13   7  11  ar  
 14   7  22  1   
 15  10  12  1   
 16  10  13  1   
 17  11  14  1   
 18  12  15  1   
 19  12  23  1   
 20  12  24  1   
 21  13  16  1   
 22  13  25  1   
 23  13  26  1   
 24  14  17  2   
 25  14  18  1   
 26  15  27  1   
 27  15  28  1   
 28  15  29  1   
 29  16  30  1   
 30  16  31  1   
 31  16  32  1   
 32  18  19  1   
 33  19  33  1   
 34  19  34  1   
 35  19  35  1   
@<TRIPOS>SUBSTRUCTURE
  1 ****   3 GROUP 4 **** **** 0

# MOE 2024.06 (io_trps.svl 2023.06)
