@<TRIPOS>MOLECULE
NONAME
53 56 1 0 0 
SMALL
USER_CHARGES


@<TRIPOS>ATOM
  1 F       -2.7130    -1.3290     3.1910 F     1 <1>  -0.1900 
  2 C       -2.8750    -1.2690     1.8940 C.ar  1 <1>   0.1900 
  3 C       -1.9530    -1.8540     1.0430 C.ar  1 <1>   0.1900 
  4 C       -3.9840    -0.6150     1.3910 C.ar  1 <1>  -0.1500 
  5 F       -0.9050    -2.4740     1.5240 F     1 <1>  -0.1900 
  6 C       -2.1220    -1.7970    -0.3280 C.ar  1 <1>  -0.1500 
  7 C       -4.1680    -0.5550     0.0140 C.ar  1 <1>  -0.1440 
  8 C       -3.2360    -1.1430    -0.8370 C.ar  1 <1>  -0.1500 
  9 C       -5.3910     0.1600    -0.5490 C.3   1 <1>   0.2540 
 10 N       -6.6480    -0.4800    -0.0950 N.3   1 <1>  -0.8100 
 11 C       -7.9160     0.1660    -0.5750 C.3   1 <1>   0.1900 
 12 C       -6.6270    -1.9310    -0.4450 C.3   1 <1>   0.1100 
 13 C       -8.0630     1.6940    -0.3080 C.3   1 <1>  -0.0800 
 14 C       -9.1520    -0.5380     0.0800 C.3   1 <1>   0.4230 
 15 C       -7.9730    -2.6630    -0.2550 C.3   1 <1>   0.3430 
 16 C       -7.4200     2.5950    -1.3870 C.3   1 <1>  -0.1600 
 17 C       -7.6690     2.1280     1.1230 C.3   1 <1>  -0.1600 
 18 N       -8.8880    -1.8940     0.6390 N.4   1 <1>  -0.9590 
 19 C      -10.3410    -0.7560    -0.8510 C.3   1 <1>  -0.1600 
 20 C       -7.7240     4.0760    -1.1230 C.3   1 <1>  -0.1600 
 21 C       -7.9590     3.6170     1.3550 C.3   1 <1>  -0.1600 
 22 C      -10.2070    -2.5460     0.8230 C.3   1 <1>   0.3430 
 23 C      -11.1250    -1.9140    -0.2240 C.3   1 <1>  -0.1600 
 24 C       -7.2880     4.4900     0.2870 C.3   1 <1>  -0.1600 
 25 H       -4.6920    -0.1650     2.0640 H     1 <1>   0.1500 
 26 H       -1.3960    -2.2530    -0.9780 H     1 <1>   0.1500 
 27 H       -3.3680    -1.0940    -1.9050 H     1 <1>   0.1500 
 28 H       -5.3530     0.1790    -1.6250 H     1 <1>   0.0800 
 29 H       -5.3390     1.1700    -0.1930 H     1 <1>   0.0800 
 30 H       -7.9780     0.0210    -1.6410 H     1 <1>   0.0800 
 31 H       -5.8990    -2.4290     0.1730 H     1 <1>   0.0800 
 32 H       -6.3130    -2.0590    -1.4670 H     1 <1>   0.0800 
 33 H       -9.1150     1.9090    -0.3950 H     1 <1>   0.0800 
 34 H       -9.4910     0.0840     0.8910 H     1 <1>   0.0800 
 35 H       -7.7890    -3.6450     0.1490 H     1 <1>   0.0800 
 36 H       -8.4370    -2.7880    -1.2200 H     1 <1>   0.0800 
 37 H       -7.8050     2.3320    -2.3570 H     1 <1>   0.0800 
 38 H       -6.3560     2.4830    -1.4220 H     1 <1>   0.0800 
 39 H       -6.6230     1.9570     1.2970 H     1 <1>   0.0800 
 40 H       -8.2100     1.5530     1.8520 H     1 <1>   0.0800 
 41 H       -8.3830    -1.7520     1.5250 H     1 <1>   0.4500 
 42 H      -10.0000    -1.0350    -1.8330 H     1 <1>   0.0800 
 43 H      -10.9380     0.1360    -0.9350 H     1 <1>   0.0800 
 44 H       -8.7800     4.2550    -1.2360 H     1 <1>   0.0800 
 45 H       -7.2120     4.6840    -1.8490 H     1 <1>   0.0800 
 46 H       -7.6010     3.9060     2.3290 H     1 <1>   0.0800 
 47 H       -9.0220     3.7860     1.3330 H     1 <1>   0.0800 
 48 H      -10.5870    -2.3290     1.8090 H     1 <1>   0.0800 
 49 H      -10.1410    -3.6160     0.7000 H     1 <1>   0.0800 
 50 H      -11.4060    -2.6380    -0.9680 H     1 <1>   0.0800 
 51 H      -12.0200    -1.5580     0.2560 H     1 <1>   0.0800 
 52 H       -7.5450     5.5220     0.4540 H     1 <1>   0.0800 
 53 H       -6.2180     4.4010     0.3720 H     1 <1>   0.0800 
@<TRIPOS>BOND
  1   1   2  1   
  2   2   3  ar  
  3   2   4  ar  
  4   3   5  1   
  5   3   6  ar  
  6   4   7  ar  
  7   4  25  1   
  8   6   8  ar  
  9   6  26  1   
 10   7   8  ar  
 11   7   9  1   
 12   8  27  1   
 13   9  10  1   
 14   9  28  1   
 15   9  29  1   
 16  10  11  1   
 17  10  12  1   
 18  11  13  1   
 19  11  14  1   
 20  11  30  1   
 21  12  15  1   
 22  12  31  1   
 23  12  32  1   
 24  13  16  1   
 25  13  17  1   
 26  13  33  1   
 27  14  18  1   
 28  14  19  1   
 29  14  34  1   
 30  15  18  1   
 31  15  35  1   
 32  15  36  1   
 33  16  20  1   
 34  16  37  1   
 35  16  38  1   
 36  17  21  1   
 37  17  39  1   
 38  17  40  1   
 39  18  22  1   
 40  18  41  1   
 41  19  23  1   
 42  19  42  1   
 43  19  43  1   
 44  20  24  1   
 45  20  44  1   
 46  20  45  1   
 47  21  24  1   
 48  21  46  1   
 49  21  47  1   
 50  22  23  1   
 51  22  48  1   
 52  22  49  1   
 53  23  50  1   
 54  23  51  1   
 55  24  52  1   
 56  24  53  1   
@<TRIPOS>SUBSTRUCTURE
  1 ****  10 GROUP 4 **** **** 0

# MOE 2024.06 (io_trps.svl 2023.06)
