@<TRIPOS>MOLECULE
NONAME
45 46 1 0 0 
SMALL
USER_CHARGES


@<TRIPOS>ATOM
  1 O        1.0580    -0.1510    -0.4870 O.3   1 <1>  -0.3630 
  2 C        2.0230     0.7950    -0.3860 C.ar  1 <1>   0.0830 
  3 C        0.1690    -0.4170     0.5760 C.3   1 <1>   0.0400 
  4 C        2.2610     1.5430     0.7630 C.ar  1 <1>  -0.1500 
  5 C        2.8030     1.0090    -1.5090 C.ar  1 <1>  -0.1500 
  6 C        3.2730     2.4880     0.7790 C.ar  1 <1>  -0.1500 
  7 C        3.8140     1.9530    -1.4960 C.ar  1 <1>  -0.1500 
  8 C        4.0570     2.6940    -0.3480 C.ar  1 <1>  -0.1430 
  9 C        5.1760     3.7080    -0.3230 C.3   1 <1>   0.4860 
 10 N        6.3860     2.9760     0.1040 N.4   1 <1>  -0.9060 
 11 C        7.6250     3.7680     0.1390 C.3   1 <1>   0.4230 
 12 C        8.7950     2.7840     0.2520 C.3   1 <1>  -0.1600 
 13 C        7.5570     4.7320     1.3250 C.3   1 <1>  -0.2400 
 14 C       10.1750     3.4530     0.1430 C.3   1 <1>  -0.0170 
 15 C       11.2570     2.3870     0.1400 C.ar  1 <1>  -0.1430 
 16 C       11.7360     1.8800     1.3400 C.ar  1 <1>  -0.1500 
 17 C       11.7730     1.9100    -1.0570 C.ar  1 <1>  -0.1500 
 18 C       12.7170     0.9040     1.3440 C.ar  1 <1>  -0.1500 
 19 C       12.7550     0.9340    -1.0580 C.ar  1 <1>  -0.1500 
 20 C       13.2230     0.4340     0.1460 C.ar  1 <1>   0.0830 
 21 O       14.1740    -0.5110     0.1640 O.3   1 <1>  -0.5330 
 22 H       -0.5120    -1.1850     0.2560 H     1 <1>   0.0800 
 23 H       -0.3770     0.4810     0.8080 H     1 <1>   0.0800 
 24 H        0.7320    -0.7600     1.4260 H     1 <1>   0.0800 
 25 H        1.6670     1.4010     1.6470 H     1 <1>   0.1500 
 26 H        2.6060     0.4290    -2.3940 H     1 <1>   0.1500 
 27 H        3.4320     3.0560     1.6800 H     1 <1>   0.1500 
 28 H        4.3960     2.0960    -2.3910 H     1 <1>   0.1500 
 29 H        4.9410     4.4990     0.3710 H     1 <1>   0.0800 
 30 H        5.3120     4.1310    -1.3060 H     1 <1>   0.0800 
 31 H        6.4970     2.1780    -0.5320 H     1 <1>   0.4500 
 32 H        6.2060     2.5650     1.0260 H     1 <1>   0.4500 
 33 H        7.7260     4.3260    -0.7790 H     1 <1>   0.0800 
 34 H        8.7260     2.0620    -0.5430 H     1 <1>   0.0800 
 35 H        8.7450     2.2550     1.1890 H     1 <1>   0.0800 
 36 H        7.4930     4.1970     2.2570 H     1 <1>   0.0800 
 37 H        6.7210     5.4020     1.2400 H     1 <1>   0.0800 
 38 H        8.4410     5.3430     1.3550 H     1 <1>   0.0800 
 39 H       10.3490     4.1160     0.9720 H     1 <1>   0.0800 
 40 H       10.2420     4.0320    -0.7620 H     1 <1>   0.0800 
 41 H       11.3540     2.2400     2.2790 H     1 <1>   0.1500 
 42 H       11.4170     2.2940    -1.9970 H     1 <1>   0.1500 
 43 H       13.0950     0.5060     2.2680 H     1 <1>   0.1500 
 44 H       13.1500     0.5710    -1.9880 H     1 <1>   0.1500 
 45 H       14.4780    -0.7670    -0.7240 H     1 <1>   0.4500 
@<TRIPOS>BOND
  1   1   2  1   
  2   1   3  1   
  3   2   4  ar  
  4   2   5  ar  
  5   3  22  1   
  6   3  23  1   
  7   3  24  1   
  8   4   6  ar  
  9   4  25  1   
 10   5   7  ar  
 11   5  26  1   
 12   6   8  ar  
 13   6  27  1   
 14   7   8  ar  
 15   7  28  1   
 16   8   9  1   
 17   9  10  1   
 18   9  29  1   
 19   9  30  1   
 20  10  11  1   
 21  10  31  1   
 22  10  32  1   
 23  11  12  1   
 24  11  13  1   
 25  11  33  1   
 26  12  14  1   
 27  12  34  1   
 28  12  35  1   
 29  13  36  1   
 30  13  37  1   
 31  13  38  1   
 32  14  15  1   
 33  14  39  1   
 34  14  40  1   
 35  15  16  ar  
 36  15  17  ar  
 37  16  18  ar  
 38  16  41  1   
 39  17  19  ar  
 40  17  42  1   
 41  18  20  ar  
 42  18  43  1   
 43  19  20  ar  
 44  19  44  1   
 45  20  21  1   
 46  21  45  1   
@<TRIPOS>SUBSTRUCTURE
  1 ****  10 GROUP 4 **** **** 0

# MOE 2024.06 (io_trps.svl 2023.06)
