@<TRIPOS>MOLECULE
NONAME
32 32 1 0 0 
SMALL
USER_CHARGES


@<TRIPOS>ATOM
  1 O        0.1460     0.3350    -0.1190 O.2   1 <1>  -0.5700 
  2 C        0.8200     1.3460    -0.0580 C.2   1 <1>   0.5440 
  3 N        0.1840     2.5490     0.1020 N.am  1 <1>  -0.7300 
  4 C        2.2680     1.2780    -0.1330 C.ar  1 <1>   0.0860 
  5 C       -1.2870     2.7450     0.1820 C.3   1 <1>   0.0600 
  6 C        2.9530     0.1340     0.2800 C.ar  1 <1>  -0.1500 
  7 C        3.0370     2.3410    -0.6160 C.ar  1 <1>  -0.1500 
  8 C        4.3330     0.0510     0.2320 C.ar  1 <1>  -0.1500 
  9 C        4.4160     2.2670    -0.6660 C.ar  1 <1>  -0.1500 
 10 C        5.0770     1.1270    -0.2410 C.ar  1 <1>   0.0830 
 11 O        6.4260     1.1370    -0.3190 O.3   1 <1>  -0.3630 
 12 C        7.2020     0.0330     0.0960 C.3   1 <1>   0.1200 
 13 C        8.6930     0.3600    -0.0850 C.3   1 <1>  -0.0800 
 14 C        9.5500    -0.8580     0.2800 C.3   1 <1>  -0.2400 
 15 C        9.1180     1.5660     0.7650 C.3   1 <1>  -0.2400 
 16 H        0.7520     3.3800     0.2710 H     1 <1>   0.3700 
 17 H       -1.8020     1.8240    -0.0340 H     1 <1>   0.0800 
 18 H       -1.5940     3.4880    -0.5330 H     1 <1>   0.0800 
 19 H       -1.5570     3.0690     1.1720 H     1 <1>   0.0800 
 20 H        2.3830    -0.7040     0.6450 H     1 <1>   0.1500 
 21 H        2.5510     3.2330    -0.9650 H     1 <1>   0.1500 
 22 H        4.8070    -0.8530     0.5640 H     1 <1>   0.1500 
 23 H        4.9950     3.0930    -1.0390 H     1 <1>   0.1500 
 24 H        6.9270    -0.8140    -0.5070 H     1 <1>   0.0800 
 25 H        6.9840    -0.1640     1.1310 H     1 <1>   0.0800 
 26 H        8.8600     0.5890    -1.1250 H     1 <1>   0.0800 
 27 H        9.4130    -1.1240     1.3140 H     1 <1>   0.0800 
 28 H       10.5910    -0.6420     0.1180 H     1 <1>   0.0800 
 29 H        9.2830    -1.7020    -0.3320 H     1 <1>   0.0800 
 30 H        8.9510     1.3730     1.8090 H     1 <1>   0.0800 
 31 H        8.5550     2.4390     0.4840 H     1 <1>   0.0800 
 32 H       10.1620     1.7800     0.6160 H     1 <1>   0.0800 
@<TRIPOS>BOND
  1   1   2  2   
  2   2   3  am  
  3   2   4  1   
  4   3   5  1   
  5   3  16  1   
  6   4   6  ar  
  7   4   7  ar  
  8   5  17  1   
  9   5  18  1   
 10   5  19  1   
 11   6   8  ar  
 12   6  20  1   
 13   7   9  ar  
 14   7  21  1   
 15   8  10  ar  
 16   8  22  1   
 17   9  10  ar  
 18   9  23  1   
 19  10  11  1   
 20  11  12  1   
 21  12  13  1   
 22  12  24  1   
 23  12  25  1   
 24  13  14  1   
 25  13  15  1   
 26  13  26  1   
 27  14  27  1   
 28  14  28  1   
 29  14  29  1   
 30  15  30  1   
 31  15  31  1   
 32  15  32  1   
@<TRIPOS>SUBSTRUCTURE
  1 ****  10 GROUP 4 **** **** 0

# MOE 2024.06 (io_trps.svl 2023.06)
