@<TRIPOS>MOLECULE
NONAME
41 42 1 0 0 
SMALL
USER_CHARGES


@<TRIPOS>ATOM
  1 F       -6.0940     2.8720    -2.1790 F     1 <1>  -0.1900 
  2 C       -5.3750     2.5010    -1.1470 C.ar  1 <1>   0.1900 
  3 C       -5.2120     3.3970    -0.0910 C.ar  1 <1>   0.1170 
  4 C       -4.8160     1.2390    -1.1660 C.ar  1 <1>  -0.1500 
  5 N       -5.8210     4.6680    -0.1590 N.am  1 <1>  -0.5470 
  6 C       -4.4490     2.9580     0.9890 C.ar  1 <1>  -0.1500 
  7 C       -4.0560     0.8340    -0.0810 C.ar  1 <1>  -0.1500 
  8 C       -5.6160     5.8100     0.5580 C.2   1 <1>   0.5690 
  9 C       -3.8780     1.6940     0.9910 C.ar  1 <1>  -0.1500 
 10 O       -4.8190     5.9090     1.4570 O.2   1 <1>  -0.5700 
 11 C       -6.4130     7.0380     0.1760 C.3   1 <1>  -0.0990 
 12 C       -5.8270     8.3310     0.7600 C.3   1 <1>   0.3430 
 13 N       -4.7200     8.9190    -0.0650 N.4   1 <1>  -0.9590 
 14 C       -3.4640     8.1100     0.0410 C.3   1 <1>   0.3430 
 15 C       -4.5200    10.3410     0.3410 C.3   1 <1>   0.3430 
 16 C       -2.3650     8.5880    -0.9110 C.3   1 <1>  -0.1600 
 17 C       -3.9810    11.1530    -0.8360 C.3   1 <1>  -0.1600 
 18 C       -1.7140     9.9100    -0.4800 C.3   1 <1>  -0.1600 
 19 C       -2.4490    11.1640    -0.9700 C.3   1 <1>  -0.1600 
 20 H       -4.9710     0.5880    -2.0080 H     1 <1>   0.1500 
 21 H       -6.5090     4.7220    -0.9130 H     1 <1>   0.3700 
 22 H       -4.2950     3.5920     1.8420 H     1 <1>   0.1500 
 23 H       -3.6080    -0.1450    -0.0690 H     1 <1>   0.1500 
 24 H       -3.2900     1.3770     1.8360 H     1 <1>   0.1500 
 25 H       -7.3970     6.9070     0.5870 H     1 <1>   0.0800 
 26 H       -6.5080     7.1160    -0.8910 H     1 <1>   0.0800 
 27 H       -5.4800     8.1490     1.7660 H     1 <1>   0.0800 
 28 H       -6.6270     9.0510     0.8220 H     1 <1>   0.0800 
 29 H       -5.0010     8.9270    -1.0530 H     1 <1>   0.4500 
 30 H       -3.6780     7.0840    -0.2060 H     1 <1>   0.0800 
 31 H       -3.0990     8.1260     1.0560 H     1 <1>   0.0800 
 32 H       -3.8560    10.4100     1.1880 H     1 <1>   0.0800 
 33 H       -5.4700    10.7630     0.6260 H     1 <1>   0.0800 
 34 H       -2.7260     8.6420    -1.9240 H     1 <1>   0.0800 
 35 H       -1.5970     7.8340    -0.8950 H     1 <1>   0.0800 
 36 H       -4.2980    12.1740    -0.7100 H     1 <1>   0.0800 
 37 H       -4.4260    10.8070    -1.7530 H     1 <1>   0.0800 
 38 H       -0.7130     9.9450    -0.8770 H     1 <1>   0.0800 
 39 H       -1.6180     9.9340     0.5930 H     1 <1>   0.0800 
 40 H       -2.0580    12.0060    -0.4220 H     1 <1>   0.0800 
 41 H       -2.2020    11.3330    -2.0050 H     1 <1>   0.0800 
@<TRIPOS>BOND
  1   1   2  1   
  2   2   3  ar  
  3   2   4  ar  
  4   3   5  1   
  5   3   6  ar  
  6   4   7  ar  
  7   4  20  1   
  8   5   8  am  
  9   5  21  1   
 10   6   9  ar  
 11   6  22  1   
 12   7   9  ar  
 13   7  23  1   
 14   8  10  2   
 15   8  11  1   
 16   9  24  1   
 17  11  12  1   
 18  11  25  1   
 19  11  26  1   
 20  12  13  1   
 21  12  27  1   
 22  12  28  1   
 23  13  14  1   
 24  13  15  1   
 25  13  29  1   
 26  14  16  1   
 27  14  30  1   
 28  14  31  1   
 29  15  17  1   
 30  15  32  1   
 31  15  33  1   
 32  16  18  1   
 33  16  34  1   
 34  16  35  1   
 35  17  19  1   
 36  17  36  1   
 37  17  37  1   
 38  18  19  1   
 39  18  38  1   
 40  18  39  1   
 41  19  40  1   
 42  19  41  1   
@<TRIPOS>SUBSTRUCTURE
  1 ****   8 GROUP 4 **** **** 0

# MOE 2024.06 (io_trps.svl 2023.06)
