@<TRIPOS>MOLECULE
NONAME
46 48 1 0 0 
SMALL
USER_CHARGES


@<TRIPOS>ATOM
  1 F       -1.8480     0.0140    -0.5630 F     1 <1>  -0.1900 
  2 C       -3.1560    -0.0060    -0.6100 C.ar  1 <1>   0.1900 
  3 C       -3.8570    -0.4290     0.5030 C.ar  1 <1>  -0.1500 
  4 C       -3.7880     0.3970    -1.7710 C.ar  1 <1>  -0.1500 
  5 C       -5.2400    -0.4470     0.4470 C.ar  1 <1>  -0.1500 
  6 C       -5.1710     0.3720    -1.8100 C.ar  1 <1>  -0.1500 
  7 C       -5.9120    -0.0480    -0.7080 C.ar  1 <1>   0.1000 
  8 N       -7.3020    -0.0510    -0.7910 N.pl3 1 <1>  -0.8380 
  9 C       -8.0180     1.2590    -0.8310 C.3   1 <1>   0.2090 
 10 C       -8.1150    -1.1690    -0.2210 C.3   1 <1>   0.2090 
 11 C       -8.6940     1.5720     0.5170 C.3   1 <1>   0.1100 
 12 C       -8.8170    -0.7690     1.0940 C.3   1 <1>   0.1100 
 13 N       -9.5990     0.4800     0.9590 N.3   1 <1>  -0.8100 
 14 C      -10.2790     0.8350     2.2410 C.3   1 <1>   0.1710 
 15 C      -11.4210     1.8360     2.0600 C.2   1 <1>   0.5690 
 16 O      -11.7660     2.5200     2.9930 O.2   1 <1>  -0.5700 
 17 N      -11.9810     1.8950     0.8140 N.am  1 <1>  -0.5470 
 18 C      -13.0160     2.6890     0.2900 C.ar  1 <1>   0.1170 
 19 C      -13.0190     3.0960    -1.0490 C.ar  1 <1>  -0.1430 
 20 C      -14.0750     3.0700     1.1100 C.ar  1 <1>  -0.1500 
 21 C      -14.0770     3.8690    -1.5230 C.ar  1 <1>  -0.1500 
 22 C      -11.8640     2.7100    -1.9800 C.3   1 <1>   1.1630 
 23 C      -15.1170     3.8370     0.6280 C.ar  1 <1>  -0.1500 
 24 C      -15.1200     4.2370    -0.6930 C.ar  1 <1>  -0.1500 
 25 F      -12.0700     3.0500    -3.2480 F     1 <1>  -0.3400 
 26 F      -11.6330     1.4020    -1.9910 F     1 <1>  -0.3400 
 27 F      -10.7180     3.2840    -1.6320 F     1 <1>  -0.3400 
 28 H       -3.3280    -0.7350     1.3870 H     1 <1>   0.1500 
 29 H       -3.2100     0.7190    -2.6180 H     1 <1>   0.1500 
 30 H       -5.8020    -0.7640     1.3030 H     1 <1>   0.1500 
 31 H       -5.6940     0.6720    -2.6990 H     1 <1>   0.1500 
 32 H       -8.7640     1.2260    -1.6050 H     1 <1>   0.0800 
 33 H       -7.3240     2.0450    -1.0720 H     1 <1>   0.0800 
 34 H       -7.4860    -2.0250    -0.0520 H     1 <1>   0.0800 
 35 H       -8.8620    -1.4520    -0.9420 H     1 <1>   0.0800 
 36 H       -9.2460     2.4900     0.4180 H     1 <1>   0.0800 
 37 H       -7.9240     1.7310     1.2530 H     1 <1>   0.0800 
 38 H       -8.0740    -0.6510     1.8630 H     1 <1>   0.0800 
 39 H       -9.4730    -1.5700     1.3860 H     1 <1>   0.0800 
 40 H       -9.5670     1.2350     2.9410 H     1 <1>   0.0800 
 41 H      -10.7070    -0.0510     2.6740 H     1 <1>   0.0800 
 42 H      -11.4780     1.2710     0.1680 H     1 <1>   0.3700 
 43 H      -14.0880     2.7640     2.1400 H     1 <1>   0.1500 
 44 H      -14.1060     4.2000    -2.5490 H     1 <1>   0.1500 
 45 H      -15.9240     4.1210     1.2820 H     1 <1>   0.1500 
 46 H      -15.9310     4.8350    -1.0730 H     1 <1>   0.1500 
@<TRIPOS>BOND
  1   1   2  1   
  2   2   3  ar  
  3   2   4  ar  
  4   3   5  ar  
  5   3  28  1   
  6   4   6  ar  
  7   4  29  1   
  8   5   7  ar  
  9   5  30  1   
 10   6   7  ar  
 11   6  31  1   
 12   7   8  1   
 13   8   9  1   
 14   8  10  1   
 15   9  11  1   
 16   9  32  1   
 17   9  33  1   
 18  10  12  1   
 19  10  34  1   
 20  10  35  1   
 21  11  13  1   
 22  11  36  1   
 23  11  37  1   
 24  12  13  1   
 25  12  38  1   
 26  12  39  1   
 27  13  14  1   
 28  14  15  1   
 29  14  40  1   
 30  14  41  1   
 31  15  16  2   
 32  15  17  am  
 33  17  18  1   
 34  17  42  1   
 35  18  19  ar  
 36  18  20  ar  
 37  19  21  ar  
 38  19  22  1   
 39  20  23  ar  
 40  20  43  1   
 41  21  24  ar  
 42  21  44  1   
 43  22  25  1   
 44  22  26  1   
 45  22  27  1   
 46  23  24  ar  
 47  23  45  1   
 48  24  46  1   
@<TRIPOS>SUBSTRUCTURE
  1 ****  11 GROUP 4 **** **** 0

# MOE 2024.06 (io_trps.svl 2023.06)
