@<TRIPOS>MOLECULE
NONAME
44 45 1 0 0 
SMALL
USER_CHARGES


@<TRIPOS>ATOM
  1 S       -0.0920    -0.9850     0.5130 S.3   1 <1>  -0.2860 
  2 C        1.5750    -0.4080     0.1790 C.2   1 <1>   0.2420 
  3 C       -0.5700    -1.7840    -1.1000 C.3   1 <1>   0.1310 
  4 N        2.1520    -0.5320    -0.9610 N.2   1 <1>  -0.3380 
  5 N        2.3310     0.1920     1.0990 N.pl3 1 <1>   0.0480 
  6 C       -2.0050    -2.2840    -1.0770 C.2   1 <1>   0.5690 
  7 N        3.3650     0.0080    -0.8120 N.2   1 <1>  -0.3380 
  8 C        3.4590     0.4290     0.4090 C.2   1 <1>   0.0060 
  9 C        1.9950     0.4870     2.5060 C.3   1 <1>   0.0160 
 10 O       -2.3060    -3.1620    -1.8480 O.2   1 <1>  -0.5700 
 11 N       -2.8830    -1.7160    -0.1920 N.am  1 <1>  -0.5470 
 12 C        4.6820     1.1110     1.0140 C.3   1 <1>   0.0200 
 13 C       -4.2510    -1.9270     0.0400 C.ar  1 <1>   0.1170 
 14 C        5.8820     1.1670     0.0570 C.3   1 <1>  -0.1600 
 15 C       -5.0940    -2.5550    -0.8710 C.ar  1 <1>  -0.1500 
 16 C       -4.7990    -1.4720     1.2340 C.ar  1 <1>  -0.1500 
 17 C        7.0940     1.8490     0.7060 C.3   1 <1>  -0.1600 
 18 C       -6.4390    -2.7270    -0.5950 C.ar  1 <1>  -0.1500 
 19 C       -6.1440    -1.6410     1.5120 C.ar  1 <1>  -0.1500 
 20 C        8.2790     1.8970    -0.2620 C.3   1 <1>  -0.2400 
 21 C       -6.9730    -2.2690     0.5980 C.ar  1 <1>  -0.1430 
 22 C       -8.4480    -2.4600     0.9010 C.3   1 <1>  -0.0970 
 23 H        0.1100    -2.6000    -1.2630 H     1 <1>   0.0800 
 24 H       -0.4430    -1.0490    -1.8720 H     1 <1>   0.0800 
 25 H        0.9720     0.8120     2.5700 H     1 <1>   0.0800 
 26 H        2.6340     1.2650     2.8810 H     1 <1>   0.0800 
 27 H        2.1250    -0.4020     3.0950 H     1 <1>   0.0800 
 28 H       -2.4440    -1.0560     0.4500 H     1 <1>   0.3700 
 29 H        4.9710     0.5760     1.9020 H     1 <1>   0.0800 
 30 H        4.4120     2.1130     1.2960 H     1 <1>   0.0800 
 31 H        5.5990     1.7060    -0.8320 H     1 <1>   0.0800 
 32 H        6.1460     0.1650    -0.2360 H     1 <1>   0.0800 
 33 H       -4.7070    -2.9140    -1.8060 H     1 <1>   0.1500 
 34 H       -4.1720    -0.9840     1.9560 H     1 <1>   0.1500 
 35 H        7.3840     1.3100     1.5910 H     1 <1>   0.0800 
 36 H        6.8340     2.8540     0.9940 H     1 <1>   0.0800 
 37 H       -7.0670    -3.2200    -1.3150 H     1 <1>   0.1500 
 38 H       -6.5440    -1.2830     2.4450 H     1 <1>   0.1500 
 39 H        8.5700     0.9020    -0.5490 H     1 <1>   0.0800 
 40 H        9.1200     2.3780     0.2070 H     1 <1>   0.0800 
 41 H        8.0190     2.4500    -1.1480 H     1 <1>   0.0800 
 42 H       -8.8060    -1.6740     1.5420 H     1 <1>   0.0800 
 43 H       -8.5990    -3.4050     1.3920 H     1 <1>   0.0800 
 44 H       -9.0230    -2.4450    -0.0080 H     1 <1>   0.0800 
@<TRIPOS>BOND
  1   1   2  1   
  2   1   3  1   
  3   2   4  2   
  4   2   5  1   
  5   3   6  1   
  6   3  23  1   
  7   3  24  1   
  8   4   7  1   
  9   5   8  1   
 10   5   9  1   
 11   6  10  2   
 12   6  11  am  
 13   7   8  2   
 14   8  12  1   
 15   9  25  1   
 16   9  26  1   
 17   9  27  1   
 18  11  13  1   
 19  11  28  1   
 20  12  14  1   
 21  12  29  1   
 22  12  30  1   
 23  13  15  ar  
 24  13  16  ar  
 25  14  17  1   
 26  14  31  1   
 27  14  32  1   
 28  15  18  ar  
 29  15  33  1   
 30  16  19  ar  
 31  16  34  1   
 32  17  20  1   
 33  17  35  1   
 34  17  36  1   
 35  18  21  ar  
 36  18  37  1   
 37  19  21  ar  
 38  19  38  1   
 39  20  39  1   
 40  20  40  1   
 41  20  41  1   
 42  21  22  1   
 43  22  42  1   
 44  22  43  1   
 45  22  44  1   
@<TRIPOS>SUBSTRUCTURE
  1 ****   1 GROUP 4 **** **** 0

# MOE 2024.06 (io_trps.svl 2023.06)
