@<TRIPOS>MOLECULE
NONAME
41 43 1 0 0 
SMALL
USER_CHARGES


@<TRIPOS>ATOM
  1 F       -1.1670    -0.5480    -1.8220 F     1 <1>  -0.3400 
  2 C       -0.6540    -1.0900    -0.7200 C.3   1 <1>   1.0200 
  3 F       -0.4690    -0.0740     0.1220 F     1 <1>  -0.3400 
  4 F        0.5710    -1.4860    -1.0600 F     1 <1>  -0.3400 
  5 C       -1.5460    -2.2480    -0.0990 C.3   1 <1>   0.5800 
  6 O       -0.9030    -2.9070     0.9520 O.3   1 <1>  -0.6800 
  7 N       -1.9030    -3.3450    -1.0460 N.am  1 <1>  -0.2980 
  8 C       -2.9340    -1.8160     0.4530 C.3   1 <1>  -0.0190 
  9 N       -3.2510    -3.6440    -0.9760 N.2   1 <1>  -0.5120 
 10 C       -1.0140    -3.8700    -1.9760 C.2   1 <1>   0.5440 
 11 C       -3.8200    -2.8590    -0.1780 C.2   1 <1>   0.3280 
 12 C       -3.5160    -0.4220     0.1170 C.3   1 <1>  -0.1600 
 13 O       -1.2890    -3.7540    -3.1560 O.2   1 <1>  -0.5700 
 14 C        0.2440    -4.4880    -1.5930 C.ar  1 <1>   0.0860 
 15 C       -5.2940    -2.8190     0.1690 C.3   1 <1>  -0.0990 
 16 C       -4.9840    -0.3230     0.5700 C.3   1 <1>  -0.1600 
 17 C        0.4030    -5.3350    -0.4830 C.ar  1 <1>   0.0820 
 18 C        1.3770    -4.2540    -2.3750 C.ar  1 <1>  -0.1500 
 19 C       -5.8540    -1.4100    -0.0860 C.3   1 <1>  -0.1600 
 20 O       -0.6460    -5.6290     0.3030 O.3   1 <1>  -0.5320 
 21 C        1.6340    -5.9060    -0.1660 C.ar  1 <1>  -0.1440 
 22 C        2.6010    -4.8140    -2.0700 C.ar  1 <1>  -0.1500 
 23 C        2.7300    -5.6370    -0.9670 C.ar  1 <1>  -0.1500 
 24 C        1.8130    -6.8180     1.0430 C.3   1 <1>  -0.0970 
 25 H       -0.9660    -3.8740     0.7620 H     1 <1>   0.4000 
 26 H       -2.9560    -1.9360     1.5220 H     1 <1>   0.0800 
 27 H       -3.4830    -0.2490    -0.9450 H     1 <1>   0.0800 
 28 H       -2.9470     0.3500     0.6060 H     1 <1>   0.0800 
 29 H       -5.4150    -3.0800     1.2040 H     1 <1>   0.0800 
 30 H       -5.8240    -3.5410    -0.4270 H     1 <1>   0.0800 
 31 H       -5.3730     0.6470     0.3090 H     1 <1>   0.0800 
 32 H       -5.0390    -0.4170     1.6420 H     1 <1>   0.0800 
 33 H        1.2890    -3.6180    -3.2400 H     1 <1>   0.1500 
 34 H       -6.8610    -1.3470     0.2890 H     1 <1>   0.0800 
 35 H       -5.8880    -1.2370    -1.1490 H     1 <1>   0.0800 
 36 H       -0.4630    -6.3630     0.9200 H     1 <1>   0.4500 
 37 H        3.4560    -4.6100    -2.6920 H     1 <1>   0.1500 
 38 H        3.6920    -6.0650    -0.7430 H     1 <1>   0.1500 
 39 H        1.2310    -7.7140     0.9210 H     1 <1>   0.0800 
 40 H        1.5070    -6.3100     1.9400 H     1 <1>   0.0800 
 41 H        2.8440    -7.1030     1.1580 H     1 <1>   0.0800 
@<TRIPOS>BOND
  1   1   2  1   
  2   2   3  1   
  3   2   4  1   
  4   2   5  1   
  5   5   6  1   
  6   5   7  1   
  7   5   8  1   
  8   6  25  1   
  9   7   9  1   
 10   7  10  am  
 11   8  11  1   
 12   8  12  1   
 13   8  26  1   
 14   9  11  2   
 15  10  13  2   
 16  10  14  1   
 17  11  15  1   
 18  12  16  1   
 19  12  27  1   
 20  12  28  1   
 21  14  17  ar  
 22  14  18  ar  
 23  15  19  1   
 24  15  29  1   
 25  15  30  1   
 26  16  19  1   
 27  16  31  1   
 28  16  32  1   
 29  17  20  1   
 30  17  21  ar  
 31  18  22  ar  
 32  18  33  1   
 33  19  34  1   
 34  19  35  1   
 35  20  36  1   
 36  21  23  ar  
 37  21  24  1   
 38  22  23  ar  
 39  22  37  1   
 40  23  38  1   
 41  24  39  1   
 42  24  40  1   
 43  24  41  1   
@<TRIPOS>SUBSTRUCTURE
  1 ****   7 GROUP 4 **** **** 0

# MOE 2024.06 (io_trps.svl 2023.06)
