@<TRIPOS>MOLECULE
NONAME
38 38 1 0 0 
SMALL
USER_CHARGES


@<TRIPOS>ATOM
  1 O        0.3970     1.1030    -1.2120 O.2   1 <1>  -0.5700 
  2 C        0.2580     1.7660    -0.2030 C.2   1 <1>   0.5440 
  3 N       -0.9090     1.6600     0.5010 N.am  1 <1>  -0.7300 
  4 C        1.3220     2.6400     0.2600 C.ar  1 <1>   0.0860 
  5 C       -2.0570     0.8140     0.1440 C.3   1 <1>   0.2200 
  6 C        2.6550     2.3420    -0.0160 C.ar  1 <1>  -0.1500 
  7 C        1.0570     3.8000     0.9930 C.ar  1 <1>  -0.1500 
  8 C       -3.2720     1.7260    -0.0720 C.3   1 <1>  -0.1600 
  9 C       -2.2560    -0.1900     1.2780 C.3   1 <1>  -0.2400 
 10 C        3.6910     3.1550     0.4310 C.ar  1 <1>   0.0830 
 11 C        2.0790     4.6160     1.4440 C.ar  1 <1>  -0.1500 
 12 C       -4.5170     0.9740    -0.5660 C.3   1 <1>  -0.2400 
 13 O        5.0070     2.9160     0.1980 O.3   1 <1>  -0.3630 
 14 C        3.3930     4.2910     1.1640 C.ar  1 <1>  -0.1500 
 15 C        5.4740     1.8060    -0.5370 C.3   1 <1>   0.2000 
 16 C        5.5140     0.5840     0.3830 C.3   1 <1>  -0.2400 
 17 C        6.8710     2.1600    -1.0400 C.3   1 <1>  -0.2400 
 18 H       -0.9880     2.1280     1.4020 H     1 <1>   0.3700 
 19 H       -1.8450     0.2820    -0.7700 H     1 <1>   0.0800 
 20 H        2.8540     1.4550    -0.5870 H     1 <1>   0.1500 
 21 H        0.0400     4.0730     1.2070 H     1 <1>   0.1500 
 22 H       -3.0120     2.4630    -0.8120 H     1 <1>   0.0800 
 23 H       -3.5100     2.2390     0.8430 H     1 <1>   0.0800 
 24 H       -2.5270     0.3100     2.1900 H     1 <1>   0.0800 
 25 H       -1.3500    -0.7490     1.4310 H     1 <1>   0.0800 
 26 H       -3.0320    -0.8880     1.0230 H     1 <1>   0.0800 
 27 H        1.8560     5.5050     2.0080 H     1 <1>   0.1500 
 28 H       -4.2910     0.4260    -1.4640 H     1 <1>   0.0800 
 29 H       -5.3030     1.6750    -0.7850 H     1 <1>   0.0800 
 30 H       -4.8760     0.2890     0.1800 H     1 <1>   0.0800 
 31 H        4.1970     4.9160     1.5090 H     1 <1>   0.1500 
 32 H        4.8270     1.6470    -1.3830 H     1 <1>   0.0800 
 33 H        6.1570     0.7720     1.2240 H     1 <1>   0.0800 
 34 H        5.8920    -0.2660    -0.1550 H     1 <1>   0.0800 
 35 H        4.5290     0.3440     0.7400 H     1 <1>   0.0800 
 36 H        7.5280     2.3580    -0.2120 H     1 <1>   0.0800 
 37 H        6.8230     3.0290    -1.6710 H     1 <1>   0.0800 
 38 H        7.2730     1.3450    -1.6130 H     1 <1>   0.0800 
@<TRIPOS>BOND
  1   1   2  2   
  2   2   3  am  
  3   2   4  1   
  4   3   5  1   
  5   3  18  1   
  6   4   6  ar  
  7   4   7  ar  
  8   5   8  1   
  9   5   9  1   
 10   5  19  1   
 11   6  10  ar  
 12   6  20  1   
 13   7  11  ar  
 14   7  21  1   
 15   8  12  1   
 16   8  22  1   
 17   8  23  1   
 18   9  24  1   
 19   9  25  1   
 20   9  26  1   
 21  10  13  1   
 22  10  14  ar  
 23  11  14  ar  
 24  11  27  1   
 25  12  28  1   
 26  12  29  1   
 27  12  30  1   
 28  13  15  1   
 29  14  31  1   
 30  15  16  1   
 31  15  17  1   
 32  15  32  1   
 33  16  33  1   
 34  16  34  1   
 35  16  35  1   
 36  17  36  1   
 37  17  37  1   
 38  17  38  1   
@<TRIPOS>SUBSTRUCTURE
  1 ****   4 GROUP 4 **** **** 0

# MOE 2024.06 (io_trps.svl 2023.06)
