@<TRIPOS>MOLECULE
NONAME
35 35 1 0 0 
SMALL
USER_CHARGES


@<TRIPOS>ATOM
  1 O       -0.1990    -0.1700     0.5980 O.2   1 <1>  -0.5700 
  2 C       -0.0650    -1.1910    -0.0460 C.2   1 <1>   0.6900 
  3 N        1.1590    -1.6810    -0.3890 N.am  1 <1>  -0.5470 
  4 N       -1.1500    -1.8980    -0.4450 N.am  1 <1>  -0.7300 
  5 C        2.4420    -1.1310    -0.2440 C.ar  1 <1>   0.1170 
  6 C       -2.5470    -1.5300    -0.1360 C.3   1 <1>   0.1400 
  7 C        3.5320    -1.9880    -0.1850 C.ar  1 <1>  -0.1500 
  8 C        2.6750     0.2380    -0.1800 C.ar  1 <1>  -0.1500 
  9 C       -3.3560    -2.8020     0.1150 C.3   1 <1>  -0.1600 
 10 C        4.8220    -1.5040    -0.0610 C.ar  1 <1>   0.0830 
 11 C        3.9590     0.7410    -0.0560 C.ar  1 <1>   0.0830 
 12 C       -4.8170    -2.4760     0.4440 C.3   1 <1>  -0.2400 
 13 O        5.8130    -2.4310    -0.0110 O.3   1 <1>  -0.3630 
 14 C        5.0410    -0.1310     0.0040 C.ar  1 <1>  -0.1500 
 15 O        4.0790     2.0930    -0.0040 O.3   1 <1>  -0.3630 
 16 C        7.1630    -2.0550     0.1480 C.3   1 <1>   0.0400 
 17 C        5.3280     2.7170     0.1930 C.3   1 <1>   0.0400 
 18 H        1.1400    -2.6480    -0.6890 H     1 <1>   0.3700 
 19 H       -1.0350    -2.6270    -1.1440 H     1 <1>   0.3700 
 20 H       -2.9590    -0.9800    -0.9660 H     1 <1>   0.0800 
 21 H       -2.5740    -0.8990     0.7370 H     1 <1>   0.0800 
 22 H        3.3860    -3.0500    -0.2310 H     1 <1>   0.1500 
 23 H        1.8540     0.9290    -0.2280 H     1 <1>   0.1500 
 24 H       -2.9220    -3.3390     0.9410 H     1 <1>   0.0800 
 25 H       -3.3250    -3.4290    -0.7590 H     1 <1>   0.0800 
 26 H       -4.8750    -1.8640     1.3280 H     1 <1>   0.0800 
 27 H       -5.3660    -3.3840     0.6220 H     1 <1>   0.0800 
 28 H       -5.2800    -1.9500    -0.3730 H     1 <1>   0.0800 
 29 H        6.0350     0.2510     0.0980 H     1 <1>   0.1500 
 30 H        7.7570    -2.9510     0.1730 H     1 <1>   0.0800 
 31 H        7.2700    -1.5190     1.0740 H     1 <1>   0.0800 
 32 H        7.4570    -1.4460    -0.6890 H     1 <1>   0.0800 
 33 H        5.1660     3.7790     0.2290 H     1 <1>   0.0800 
 34 H        5.9730     2.4730    -0.6320 H     1 <1>   0.0800 
 35 H        5.7430     2.3790     1.1250 H     1 <1>   0.0800 
@<TRIPOS>BOND
  1   1   2  2   
  2   2   3  am  
  3   2   4  am  
  4   3   5  1   
  5   3  18  1   
  6   4   6  1   
  7   4  19  1   
  8   5   7  ar  
  9   5   8  ar  
 10   6   9  1   
 11   6  20  1   
 12   6  21  1   
 13   7  10  ar  
 14   7  22  1   
 15   8  11  ar  
 16   8  23  1   
 17   9  12  1   
 18   9  24  1   
 19   9  25  1   
 20  10  13  1   
 21  10  14  ar  
 22  11  14  ar  
 23  11  15  1   
 24  12  26  1   
 25  12  27  1   
 26  12  28  1   
 27  13  16  1   
 28  14  29  1   
 29  15  17  1   
 30  16  30  1   
 31  16  31  1   
 32  16  32  1   
 33  17  33  1   
 34  17  34  1   
 35  17  35  1   
@<TRIPOS>SUBSTRUCTURE
  1 ****   5 GROUP 4 **** **** 0

# MOE 2024.06 (io_trps.svl 2023.06)
