@<TRIPOS>MOLECULE
NONAME
56 58 1 0 0 
SMALL
USER_CHARGES


@<TRIPOS>ATOM
  1 O       -0.5380     3.0260    -0.7970 O.2   1 <1>  -0.5700 
  2 C        0.0570     2.5720     0.1450 C.2   1 <1>   0.6590 
  3 O       -0.5430     1.9330     1.1360 O.3   1 <1>  -0.4300 
  4 C        1.5730     2.7090     0.2550 C.3   1 <1>  -0.0190 
  5 C       -1.9390     1.7430     1.1480 C.3   1 <1>   0.1200 
  6 C        1.9880     4.1920     0.2920 C.3   1 <1>  -0.1600 
  7 C        2.2730     1.9840    -0.9090 C.3   1 <1>  -0.1600 
  8 C       -2.3020     0.9780     2.4170 C.3   1 <1>  -0.2400 
  9 C        3.5040     4.3680     0.2600 C.3   1 <1>   0.3430 
 10 C        3.7820     2.2180    -0.9110 C.3   1 <1>   0.3430 
 11 N        4.0600     3.6880    -0.9550 N.4   1 <1>  -0.9590 
 12 C        5.4970     3.9730    -1.2590 C.3   1 <1>   0.4230 
 13 C        6.4250     3.6580    -0.0780 C.3   1 <1>  -0.1600 
 14 C        5.6730     5.4290    -1.7020 C.3   1 <1>  -0.1600 
 15 C        7.8790     3.9600    -0.4420 C.3   1 <1>   0.3430 
 16 C        7.1330     5.7190    -2.0540 C.3   1 <1>   0.3430 
 17 N        8.0090     5.3760    -0.8990 N.4   1 <1>  -0.9590 
 18 C        9.4380     5.7100    -1.1920 C.3   1 <1>   0.4860 
 19 C       10.2180     5.5940     0.1010 C.ar  1 <1>  -0.1440 
 20 C       10.0860     6.5620     1.0870 C.ar  1 <1>  -0.1500 
 21 C       11.0590     4.5110     0.3150 C.ar  1 <1>  -0.1500 
 22 C       10.7730     6.4360     2.2810 C.ar  1 <1>  -0.1500 
 23 C       11.7460     4.3880     1.5100 C.ar  1 <1>  -0.1500 
 24 C       11.6000     5.3480     2.4940 C.ar  1 <1>  -0.1500 
 25 H        1.8760     2.2460     1.1790 H     1 <1>   0.0800 
 26 H       -2.2170     1.1860     0.2680 H     1 <1>   0.0800 
 27 H       -2.4170     2.7090     1.1290 H     1 <1>   0.0800 
 28 H        1.6000     4.6450     1.1880 H     1 <1>   0.0800 
 29 H        1.5520     4.7180    -0.5420 H     1 <1>   0.0800 
 30 H        1.8620     2.3130    -1.8490 H     1 <1>   0.0800 
 31 H        2.0820     0.9270    -0.8330 H     1 <1>   0.0800 
 32 H       -1.8130     0.0210     2.4270 H     1 <1>   0.0800 
 33 H       -3.3650     0.8190     2.4510 H     1 <1>   0.0800 
 34 H       -2.0130     1.5410     3.2860 H     1 <1>   0.0800 
 35 H        3.9330     3.9400     1.1520 H     1 <1>   0.0800 
 36 H        3.7330     5.4210     0.2420 H     1 <1>   0.0800 
 37 H        4.2130     1.7300    -1.7710 H     1 <1>   0.0800 
 38 H        4.2140     1.7860    -0.0220 H     1 <1>   0.0800 
 39 H        3.5030     4.0400    -1.7480 H     1 <1>   0.4500 
 40 H        5.7920     3.3460    -2.0870 H     1 <1>   0.0800 
 41 H        6.3570     2.6170     0.1810 H     1 <1>   0.0800 
 42 H        6.1670     4.2390     0.7900 H     1 <1>   0.0800 
 43 H        5.3660     6.1120    -0.9300 H     1 <1>   0.0800 
 44 H        5.0730     5.6160    -2.5750 H     1 <1>   0.0800 
 45 H        8.2090     3.2920    -1.2220 H     1 <1>   0.0800 
 46 H        8.5040     3.7930     0.4240 H     1 <1>   0.0800 
 47 H        7.2440     6.7630    -2.3040 H     1 <1>   0.0800 
 48 H        7.4230     5.1370    -2.9160 H     1 <1>   0.0800 
 49 H        7.7770     5.9810    -0.0980 H     1 <1>   0.4500 
 50 H        9.5210     6.7190    -1.5640 H     1 <1>   0.0800 
 51 H        9.8440     5.0380    -1.9310 H     1 <1>   0.0800 
 52 H        9.4600     7.4270     0.9460 H     1 <1>   0.1500 
 53 H       11.1990     3.7530    -0.4380 H     1 <1>   0.1500 
 54 H       10.6730     7.1860     3.0490 H     1 <1>   0.1500 
 55 H       12.4000     3.5480     1.6770 H     1 <1>   0.1500 
 56 H       12.1370     5.2530     3.4240 H     1 <1>   0.1500 
@<TRIPOS>BOND
  1   1   2  2   
  2   2   3  1   
  3   2   4  1   
  4   3   5  1   
  5   4   6  1   
  6   4   7  1   
  7   4  25  1   
  8   5   8  1   
  9   5  26  1   
 10   5  27  1   
 11   6   9  1   
 12   6  28  1   
 13   6  29  1   
 14   7  10  1   
 15   7  30  1   
 16   7  31  1   
 17   8  32  1   
 18   8  33  1   
 19   8  34  1   
 20   9  11  1   
 21   9  35  1   
 22   9  36  1   
 23  10  11  1   
 24  10  37  1   
 25  10  38  1   
 26  11  12  1   
 27  11  39  1   
 28  12  13  1   
 29  12  14  1   
 30  12  40  1   
 31  13  15  1   
 32  13  41  1   
 33  13  42  1   
 34  14  16  1   
 35  14  43  1   
 36  14  44  1   
 37  15  17  1   
 38  15  45  1   
 39  15  46  1   
 40  16  17  1   
 41  16  47  1   
 42  16  48  1   
 43  17  18  1   
 44  17  49  1   
 45  18  19  1   
 46  18  50  1   
 47  18  51  1   
 48  19  20  ar  
 49  19  21  ar  
 50  20  22  ar  
 51  20  52  1   
 52  21  23  ar  
 53  21  53  1   
 54  22  24  ar  
 55  22  54  1   
 56  23  24  ar  
 57  23  55  1   
 58  24  56  1   
@<TRIPOS>SUBSTRUCTURE
  1 ****  13 GROUP 4 **** **** 0

# MOE 2024.06 (io_trps.svl 2023.06)
