@<TRIPOS>MOLECULE
NONAME
37 39 1 0 0 
SMALL
USER_CHARGES


@<TRIPOS>ATOM
  1 S        0.3180     0.3690    -2.0900 S.3   1 <1>  -0.0800 
  2 C       -0.4300     1.6490    -1.1320 C.2   1 <1>   0.4420 
  3 C        1.6400     0.2900    -0.9500 C.ar  1 <1>   0.0400 
  4 N        0.2330     1.9700    -0.0880 N.2   1 <1>  -0.5650 
  5 N       -1.6210     2.1270    -1.6260 N.am  1 <1>  -0.4940 
  6 C        1.3970     1.2250     0.0370 C.ar  1 <1>   0.2270 
  7 C        2.7520    -0.5310    -0.9720 C.ar  1 <1>  -0.1500 
  8 C       -2.5370     3.0850    -1.3010 C.2   1 <1>   0.5690 
  9 C        2.3240     1.3460     1.0640 C.ar  1 <1>  -0.1500 
 10 C        3.6650    -0.3960     0.0610 C.ar  1 <1>  -0.1500 
 11 O       -3.5030     3.1300    -2.0220 O.2   1 <1>  -0.5700 
 12 C       -2.4250     4.0820    -0.1040 C.3   1 <1>   0.0610 
 13 C        3.4500     0.5370     1.0720 C.ar  1 <1>  -0.1500 
 14 C       -3.5910     5.1200    -0.1260 C.3   1 <1>  -0.1600 
 15 C       -1.0590     4.8360    -0.1430 C.3   1 <1>  -0.1600 
 16 C       -2.5730     3.3140     1.2290 C.3   1 <1>  -0.2400 
 17 C       -3.3270     6.2690    -1.1100 C.3   1 <1>  -0.1600 
 18 C       -1.1400     6.3230     0.2330 C.3   1 <1>  -0.1600 
 19 C       -2.0890     7.0870    -0.7040 C.3   1 <1>  -0.1600 
 20 H       -1.9320     1.6400    -2.4620 H     1 <1>   0.3700 
 21 H        2.8960    -1.2440    -1.7640 H     1 <1>   0.1500 
 22 H        2.1510     2.0680     1.8410 H     1 <1>   0.1500 
 23 H        4.5460    -1.0160     0.0840 H     1 <1>   0.1500 
 24 H        4.1690     0.6310     1.8690 H     1 <1>   0.1500 
 25 H       -3.7240     5.5500     0.8510 H     1 <1>   0.0800 
 26 H       -4.5220     4.6380    -0.3710 H     1 <1>   0.0800 
 27 H       -0.6490     4.7760    -1.1360 H     1 <1>   0.0800 
 28 H       -0.3550     4.3680     0.5190 H     1 <1>   0.0800 
 29 H       -1.8290     2.5480     1.3280 H     1 <1>   0.0800 
 30 H       -3.5390     2.8450     1.2790 H     1 <1>   0.0800 
 31 H       -2.4720     3.9830     2.0650 H     1 <1>   0.0800 
 32 H       -4.1870     6.9140    -1.1590 H     1 <1>   0.0800 
 33 H       -3.1770     5.8570    -2.0930 H     1 <1>   0.0800 
 34 H       -0.1600     6.7660     0.1920 H     1 <1>   0.0800 
 35 H       -1.4890     6.4080     1.2480 H     1 <1>   0.0800 
 36 H       -2.4020     7.9920    -0.2110 H     1 <1>   0.0800 
 37 H       -1.5590     7.3740    -1.5960 H     1 <1>   0.0800 
@<TRIPOS>BOND
  1   1   2  1   
  2   1   3  1   
  3   2   4  2   
  4   2   5  1   
  5   3   6  ar  
  6   3   7  ar  
  7   4   6  1   
  8   5   8  am  
  9   5  20  1   
 10   6   9  ar  
 11   7  10  ar  
 12   7  21  1   
 13   8  11  2   
 14   8  12  1   
 15   9  13  ar  
 16   9  22  1   
 17  10  13  ar  
 18  10  23  1   
 19  12  14  1   
 20  12  15  1   
 21  12  16  1   
 22  13  24  1   
 23  14  17  1   
 24  14  25  1   
 25  14  26  1   
 26  15  18  1   
 27  15  27  1   
 28  15  28  1   
 29  16  29  1   
 30  16  30  1   
 31  16  31  1   
 32  17  19  1   
 33  17  32  1   
 34  17  33  1   
 35  18  19  1   
 36  18  34  1   
 37  18  35  1   
 38  19  36  1   
 39  19  37  1   
@<TRIPOS>SUBSTRUCTURE
  1 ****   4 GROUP 4 **** **** 0

# MOE 2024.06 (io_trps.svl 2023.06)
