@<TRIPOS>MOLECULE
NONAME
38 38 1 0 0 
SMALL
USER_CHARGES


@<TRIPOS>ATOM
  1 S       -0.0150     0.3550    -1.5860 S.o2  1 <1>   1.3330 
  2 O        0.7980     0.2060    -2.7660 O.2   1 <1>  -0.6500 
  3 O       -0.6110     1.6250    -1.2560 O.2   1 <1>  -0.6500 
  4 N       -1.3060    -0.7470    -1.8290 N.am  1 <1>  -0.7570 
  5 C        0.8400    -0.3370    -0.1700 C.3   1 <1>  -0.0550 
  6 C       -2.3850    -0.8640    -0.9660 C.ar  1 <1>   0.1990 
  7 C        2.0740     0.4720     0.2630 C.3   1 <1>  -0.1600 
  8 C       -2.5350    -1.9870    -0.1530 C.ar  1 <1>  -0.1430 
  9 C       -3.3380     0.1430    -0.9130 C.ar  1 <1>  -0.1500 
 10 C        2.7550    -0.1630     1.4810 C.3   1 <1>  -0.1600 
 11 C       -3.6200    -2.0640     0.7030 C.ar  1 <1>  -0.1500 
 12 C       -1.5370    -3.1390    -0.1850 C.3   1 <1>  -0.0970 
 13 C       -4.4430     0.0830    -0.0670 C.ar  1 <1>   0.0860 
 14 C        3.9790     0.6500     1.9080 C.3   1 <1>  -0.2400 
 15 C       -4.5560    -1.0470     0.7450 C.ar  1 <1>  -0.1500 
 16 C       -5.4280     1.1500    -0.0410 C.2   1 <1>   0.6340 
 17 O       -5.4390     2.0650    -0.8370 O.2   1 <1>  -0.5700 
 18 O       -6.3700     1.1120     0.9080 O.3   1 <1>  -0.4300 
 19 C       -7.3670     2.1100     1.0090 C.3   1 <1>   0.0400 
 20 H       -1.5390    -0.7170    -2.8170 H     1 <1>   0.4200 
 21 H        1.1480    -1.3370    -0.4060 H     1 <1>   0.0800 
 22 H        0.1560    -0.3890     0.6550 H     1 <1>   0.0800 
 23 H        1.7700     1.4780     0.5010 H     1 <1>   0.0800 
 24 H        2.7700     0.5210    -0.5580 H     1 <1>   0.0800 
 25 H       -3.2150     1.0070    -1.5440 H     1 <1>   0.1500 
 26 H        3.0650    -1.1670     1.2430 H     1 <1>   0.0800 
 27 H        2.0600    -0.2120     2.3020 H     1 <1>   0.0800 
 28 H       -3.7470    -2.9210     1.3420 H     1 <1>   0.1500 
 29 H       -0.6590    -2.8830     0.3780 H     1 <1>   0.0800 
 30 H       -1.2510    -3.3610    -1.1980 H     1 <1>   0.0800 
 31 H       -1.9670    -4.0290     0.2390 H     1 <1>   0.0800 
 32 H        4.7000     0.6950     1.1100 H     1 <1>   0.0800 
 33 H        4.4460     0.1930     2.7630 H     1 <1>   0.0800 
 34 H        3.6920     1.6530     2.1720 H     1 <1>   0.0800 
 35 H       -5.3910    -1.1350     1.4190 H     1 <1>   0.1500 
 36 H       -8.0040     1.8750     1.8420 H     1 <1>   0.0800 
 37 H       -7.9380     2.1250     0.0960 H     1 <1>   0.0800 
 38 H       -6.8900     3.0630     1.1630 H     1 <1>   0.0800 
@<TRIPOS>BOND
  1   1   2  2   
  2   1   3  2   
  3   1   4  am  
  4   1   5  1   
  5   4   6  1   
  6   4  20  1   
  7   5   7  1   
  8   5  21  1   
  9   5  22  1   
 10   6   8  ar  
 11   6   9  ar  
 12   7  10  1   
 13   7  23  1   
 14   7  24  1   
 15   8  11  ar  
 16   8  12  1   
 17   9  13  ar  
 18   9  25  1   
 19  10  14  1   
 20  10  26  1   
 21  10  27  1   
 22  11  15  ar  
 23  11  28  1   
 24  12  29  1   
 25  12  30  1   
 26  12  31  1   
 27  13  15  ar  
 28  13  16  1   
 29  14  32  1   
 30  14  33  1   
 31  14  34  1   
 32  15  35  1   
 33  16  17  2   
 34  16  18  1   
 35  18  19  1   
 36  19  36  1   
 37  19  37  1   
 38  19  38  1   
@<TRIPOS>SUBSTRUCTURE
  1 ****   6 GROUP 4 **** **** 0

# MOE 2024.06 (io_trps.svl 2023.06)
