@<TRIPOS>MOLECULE
NONAME
28 28 1 0 0 
SMALL
USER_CHARGES


@<TRIPOS>ATOM
  1 I        0.3670    -0.5110     0.2300 I     1 <1>  -0.0810 
  2 C       -1.6520    -1.1690     0.0670 C.ar  1 <1>   0.0810 
  3 C       -2.6490    -0.2210    -0.0770 C.ar  1 <1>  -0.1500 
  4 C       -1.9120    -2.5260     0.1080 C.ar  1 <1>  -0.1500 
  5 C       -3.9600    -0.6540    -0.1820 C.ar  1 <1>  -0.1500 
  6 C       -3.2270    -2.9460     0.0030 C.ar  1 <1>  -0.1500 
  7 C       -4.2510    -2.0160    -0.1350 C.ar  1 <1>   0.0830 
  8 O       -5.5170    -2.5010    -0.2420 O.3   1 <1>  -0.2330 
  9 C       -6.6310    -1.9480     0.2410 C.2   1 <1>   0.8700 
 10 O       -6.6460    -0.9400     0.9150 O.2   1 <1>  -0.5700 
 11 O       -7.7500    -2.5960    -0.0690 O.3   1 <1>  -0.4300 
 12 C       -9.0060    -2.1370     0.3860 C.3   1 <1>   0.1200 
 13 C      -10.1080    -3.0940    -0.0940 C.3   1 <1>  -0.0800 
 14 C      -11.4840    -2.5700     0.3340 C.3   1 <1>  -0.2400 
 15 C       -9.9050    -4.5160     0.4510 C.3   1 <1>  -0.2400 
 16 H       -2.4100     0.8270    -0.1070 H     1 <1>   0.1500 
 17 H       -1.1120    -3.2370     0.2190 H     1 <1>   0.1500 
 18 H       -4.7430     0.0730    -0.3030 H     1 <1>   0.1500 
 19 H       -3.4640    -3.9950     0.0290 H     1 <1>   0.1500 
 20 H       -9.1640    -1.1470    -0.0100 H     1 <1>   0.0800 
 21 H       -8.9820    -2.0910     1.4610 H     1 <1>   0.0800 
 22 H      -10.0820    -3.1250    -1.1700 H     1 <1>   0.0800 
 23 H      -11.5560    -2.5210     1.4070 H     1 <1>   0.0800 
 24 H      -12.2610    -3.2180    -0.0320 H     1 <1>   0.0800 
 25 H      -11.6510    -1.5850    -0.0670 H     1 <1>   0.0800 
 26 H       -9.9060    -4.5140     1.5270 H     1 <1>   0.0800 
 27 H       -8.9670    -4.9180     0.1110 H     1 <1>   0.0800 
 28 H      -10.6910    -5.1640     0.1070 H     1 <1>   0.0800 
@<TRIPOS>BOND
  1   1   2  1   
  2   2   3  ar  
  3   2   4  ar  
  4   3   5  ar  
  5   3  16  1   
  6   4   6  ar  
  7   4  17  1   
  8   5   7  ar  
  9   5  18  1   
 10   6   7  ar  
 11   6  19  1   
 12   7   8  1   
 13   8   9  1   
 14   9  10  2   
 15   9  11  1   
 16  11  12  1   
 17  12  13  1   
 18  12  20  1   
 19  12  21  1   
 20  13  14  1   
 21  13  15  1   
 22  13  22  1   
 23  14  23  1   
 24  14  24  1   
 25  14  25  1   
 26  15  26  1   
 27  15  27  1   
 28  15  28  1   
@<TRIPOS>SUBSTRUCTURE
  1 ****   8 GROUP 4 **** **** 0

# MOE 2024.06 (io_trps.svl 2023.06)
