@<TRIPOS>MOLECULE
NONAME
41 42 1 0 0 
SMALL
USER_CHARGES


@<TRIPOS>ATOM
  1 O       -0.2520     0.1850     0.0320 O.2   1 <1>  -0.5700 
  2 C       -0.7370    -0.9090     0.2570 C.2   1 <1>   0.6900 
  3 N       -2.0760    -1.0280     0.5370 N.am  1 <1>  -0.6600 
  4 N        0.0220    -2.0420     0.2130 N.am  1 <1>  -0.5470 
  5 C       -3.0250     0.0820     0.2520 C.3   1 <1>   0.1400 
  6 C       -2.6940    -2.1950     1.2250 C.3   1 <1>   0.1400 
  7 C        1.3920    -2.3000     0.0300 C.ar  1 <1>   0.1170 
  8 C       -4.1840    -0.4430    -0.6020 C.3   1 <1>  -0.1600 
  9 C       -3.8360    -2.7460     0.3650 C.3   1 <1>  -0.1600 
 10 C        1.7840    -3.6170    -0.2320 C.ar  1 <1>   0.0830 
 11 C        2.3680    -1.3140     0.1120 C.ar  1 <1>  -0.1500 
 12 C       -4.8720    -1.6550     0.0470 C.3   1 <1>  -0.0800 
 13 O        0.7980    -4.5650    -0.2950 O.3   1 <1>  -0.3630 
 14 C        3.1310    -3.9170    -0.4150 C.ar  1 <1>  -0.1500 
 15 C        3.7080    -1.6120    -0.0720 C.ar  1 <1>  -0.1430 
 16 C       -5.9720    -2.2060    -0.8670 C.3   1 <1>  -0.2400 
 17 C        1.0920    -5.9000    -0.6420 C.3   1 <1>   0.0400 
 18 C        4.0850    -2.9170    -0.3360 C.ar  1 <1>  -0.1500 
 19 C        4.7530    -0.5150     0.0180 C.3   1 <1>  -0.0970 
 20 H       -0.5350    -2.8890     0.1690 H     1 <1>   0.3700 
 21 H       -2.5280     0.8810    -0.2720 H     1 <1>   0.0800 
 22 H       -3.3970     0.4730     1.1830 H     1 <1>   0.0800 
 23 H       -3.0820    -1.8680     2.1750 H     1 <1>   0.0800 
 24 H       -1.9710    -2.9670     1.4160 H     1 <1>   0.0800 
 25 H       -3.7960    -0.7150    -1.5690 H     1 <1>   0.0800 
 26 H       -4.8980     0.3480    -0.7460 H     1 <1>   0.0800 
 27 H       -4.3110    -3.5550     0.8900 H     1 <1>   0.0800 
 28 H       -3.4240    -3.1400    -0.5470 H     1 <1>   0.0800 
 29 H        2.0810    -0.3010     0.3250 H     1 <1>   0.1500 
 30 H       -5.3260    -1.3340     0.9710 H     1 <1>   0.0800 
 31 H        3.4610    -4.9170    -0.6180 H     1 <1>   0.1500 
 32 H       -5.5570    -2.5370    -1.8030 H     1 <1>   0.0800 
 33 H       -6.7060    -1.4450    -1.0670 H     1 <1>   0.0800 
 34 H       -6.4670    -3.0370    -0.3970 H     1 <1>   0.0800 
 35 H        0.1690    -6.4510    -0.6640 H     1 <1>   0.0800 
 36 H        1.7480    -6.3180     0.1010 H     1 <1>   0.0800 
 37 H        1.5490    -5.9160    -1.6150 H     1 <1>   0.0800 
 38 H        5.1230    -3.1600    -0.4780 H     1 <1>   0.1500 
 39 H        4.3210     0.4370    -0.2340 H     1 <1>   0.0800 
 40 H        5.5630    -0.7100    -0.6620 H     1 <1>   0.0800 
 41 H        5.1420    -0.4650     1.0190 H     1 <1>   0.0800 
@<TRIPOS>BOND
  1   1   2  2   
  2   2   3  am  
  3   2   4  am  
  4   3   5  1   
  5   3   6  1   
  6   4   7  1   
  7   4  20  1   
  8   5   8  1   
  9   5  21  1   
 10   5  22  1   
 11   6   9  1   
 12   6  23  1   
 13   6  24  1   
 14   7  10  ar  
 15   7  11  ar  
 16   8  12  1   
 17   8  25  1   
 18   8  26  1   
 19   9  12  1   
 20   9  27  1   
 21   9  28  1   
 22  10  13  1   
 23  10  14  ar  
 24  11  15  ar  
 25  11  29  1   
 26  12  16  1   
 27  12  30  1   
 28  13  17  1   
 29  14  18  ar  
 30  14  31  1   
 31  15  18  ar  
 32  15  19  1   
 33  16  32  1   
 34  16  33  1   
 35  16  34  1   
 36  17  35  1   
 37  17  36  1   
 38  17  37  1   
 39  18  38  1   
 40  19  39  1   
 41  19  40  1   
 42  19  41  1   
@<TRIPOS>SUBSTRUCTURE
  1 ****   4 GROUP 4 **** **** 0

# MOE 2024.06 (io_trps.svl 2023.06)
