@<TRIPOS>MOLECULE
NONAME
32 33 1 0 0 
SMALL
USER_CHARGES


@<TRIPOS>ATOM
  1 S       -0.1560     0.3350     0.8010 S.o2  1 <1>   1.4470 
  2 O       -0.4180     0.9450     2.0880 O.2   1 <1>  -0.6500 
  3 O       -0.4470    -1.0690     0.6080 O.2   1 <1>  -0.6500 
  4 N       -1.0760     1.1850    -0.3390 N.am  1 <1>  -0.8490 
  5 C        1.5500     0.6740     0.2840 C.ar  1 <1>  -0.0090 
  6 C       -2.4890     0.7760    -0.3010 C.3   1 <1>   0.1960 
  7 C       -0.9900     2.6450    -0.1660 C.3   1 <1>   0.1960 
  8 C        1.9620     0.4140    -1.0190 C.ar  1 <1>  -0.1500 
  9 C        2.4830     1.2020     1.1720 C.ar  1 <1>  -0.1500 
 10 C       -3.3230     1.5570    -1.3340 C.3   1 <1>   0.1200 
 11 C       -1.8510     3.3750    -1.2130 C.3   1 <1>   0.1200 
 12 C        3.2580     0.6790    -1.4280 C.ar  1 <1>  -0.1500 
 13 C        3.7830     1.4720     0.7780 C.ar  1 <1>  -0.1500 
 14 O       -3.1780     2.9370    -1.1470 O.3   1 <1>  -0.5600 
 15 C        4.1620     1.2090    -0.5280 C.ar  1 <1>   0.1010 
 16 S        5.8270     1.5310    -1.1300 S.3   1 <1>  -0.3310 
 17 C        6.7990     2.1750     0.3020 C.3   1 <1>  -0.0100 
 18 H       -2.8960     0.9440     0.6830 H     1 <1>   0.0800 
 19 H       -2.5670    -0.2760    -0.5170 H     1 <1>   0.0800 
 20 H        0.0320     2.9640    -0.2700 H     1 <1>   0.0800 
 21 H       -1.3310     2.9270     0.8170 H     1 <1>   0.0800 
 22 H        1.2570     0.0000    -1.7210 H     1 <1>   0.1500 
 23 H        2.1860     1.4060     2.1880 H     1 <1>   0.1500 
 24 H       -4.3660     1.3180    -1.2270 H     1 <1>   0.0800 
 25 H       -3.0090     1.3100    -2.3330 H     1 <1>   0.0800 
 26 H       -1.4760     3.1930    -2.2050 H     1 <1>   0.0800 
 27 H       -1.8450     4.4340    -1.0270 H     1 <1>   0.0800 
 28 H        3.5690     0.4770    -2.4380 H     1 <1>   0.1500 
 29 H        4.4750     1.8810     1.4880 H     1 <1>   0.1500 
 30 H        7.8020     2.3550    -0.0420 H     1 <1>   0.0800 
 31 H        6.7900     1.4270     1.0740 H     1 <1>   0.0800 
 32 H        6.3400     3.0890     0.6320 H     1 <1>   0.0800 
@<TRIPOS>BOND
  1   1   2  2   
  2   1   3  2   
  3   1   4  am  
  4   1   5  1   
  5   4   6  1   
  6   4   7  1   
  7   5   8  ar  
  8   5   9  ar  
  9   6  10  1   
 10   6  18  1   
 11   6  19  1   
 12   7  11  1   
 13   7  20  1   
 14   7  21  1   
 15   8  12  ar  
 16   8  22  1   
 17   9  13  ar  
 18   9  23  1   
 19  10  14  1   
 20  10  24  1   
 21  10  25  1   
 22  11  14  1   
 23  11  26  1   
 24  11  27  1   
 25  12  15  ar  
 26  12  28  1   
 27  13  15  ar  
 28  13  29  1   
 29  15  16  1   
 30  16  17  1   
 31  17  30  1   
 32  17  31  1   
 33  17  32  1   
@<TRIPOS>SUBSTRUCTURE
  1 ****   5 GROUP 4 **** **** 0

# MOE 2024.06 (io_trps.svl 2023.06)
