@<TRIPOS>MOLECULE
NONAME
42 44 1 0 0 
SMALL
USER_CHARGES


@<TRIPOS>ATOM
  1 CL       1.8970     0.2430     2.6810 Cl    1 <1>  -0.1770 
  2 C        2.6100     0.1990     1.0870 C.ar  1 <1>   0.1770 
  3 C        2.4350    -0.8840     0.2280 C.ar  1 <1>  -0.0090 
  4 C        3.3530     1.3130     0.7270 C.ar  1 <1>  -0.1500 
  5 S        1.4620    -2.3540     0.6500 S.o2  1 <1>   1.4470 
  6 C        3.0290    -0.7970    -1.0280 C.ar  1 <1>  -0.1500 
  7 C        3.9410     1.3750    -0.5230 C.ar  1 <1>  -0.1500 
  8 O        1.3630    -2.5890     2.0720 O.2   1 <1>  -0.6500 
  9 O        1.9360    -3.4380    -0.1830 O.2   1 <1>  -0.6500 
 10 N       -0.0990    -1.9840     0.0970 N.am  1 <1>  -0.8490 
 11 C        3.7690     0.3140    -1.3890 C.ar  1 <1>   0.1770 
 12 C       -0.8120    -1.0490     0.9900 C.3   1 <1>   0.1960 
 13 C       -0.8990    -3.2120    -0.0730 C.3   1 <1>   0.1960 
 14 CL       4.4980     0.3780    -2.9720 Cl    1 <1>  -0.1770 
 15 C       -2.2050    -0.6840     0.4510 C.3   1 <1>   0.1400 
 16 C       -2.3050    -2.9280    -0.6300 C.3   1 <1>   0.1400 
 17 N       -3.0230    -1.9070     0.1950 N.am  1 <1>  -0.6600 
 18 C       -4.3300    -2.0070     0.6200 C.2   1 <1>   0.5690 
 19 O       -4.8290    -1.1110     1.2660 O.2   1 <1>  -0.5700 
 20 C       -5.1840    -3.2650     0.3050 C.3   1 <1>   0.2610 
 21 O       -5.2660    -3.4970    -1.0770 O.3   1 <1>  -0.5600 
 22 C       -6.6550    -3.1910     0.7200 C.3   1 <1>  -0.1600 
 23 C       -6.3140    -2.7570    -1.6190 C.3   1 <1>   0.1200 
 24 C       -7.3300    -2.5720    -0.4940 C.3   1 <1>  -0.1600 
 25 H        3.4670     2.1260     1.4240 H     1 <1>   0.1500 
 26 H        2.9190    -1.6010    -1.7360 H     1 <1>   0.1500 
 27 H        4.5220     2.2290    -0.8250 H     1 <1>   0.1500 
 28 H       -0.2480    -0.1400     1.0860 H     1 <1>   0.0800 
 29 H       -0.9210    -1.4790     1.9730 H     1 <1>   0.0800 
 30 H       -0.9890    -3.7220     0.8720 H     1 <1>   0.0800 
 31 H       -0.4010    -3.8770    -0.7580 H     1 <1>   0.0800 
 32 H       -2.0980    -0.1350    -0.4680 H     1 <1>   0.0800 
 33 H       -2.6960    -0.0430     1.1630 H     1 <1>   0.0800 
 34 H       -2.8500    -3.8530    -0.6610 H     1 <1>   0.0800 
 35 H       -2.2190    -2.5650    -1.6380 H     1 <1>   0.0800 
 36 H       -4.7140    -4.1180     0.7590 H     1 <1>   0.0800 
 37 H       -6.8110    -2.6240     1.6210 H     1 <1>   0.0800 
 38 H       -7.0210    -4.1910     0.8740 H     1 <1>   0.0800 
 39 H       -6.7230    -3.3010    -2.4540 H     1 <1>   0.0800 
 40 H       -5.9220    -1.8100    -1.9490 H     1 <1>   0.0800 
 41 H       -7.5080    -1.5220    -0.3400 H     1 <1>   0.0800 
 42 H       -8.2620    -3.0580    -0.7230 H     1 <1>   0.0800 
@<TRIPOS>BOND
  1   1   2  1   
  2   2   3  ar  
  3   2   4  ar  
  4   3   5  1   
  5   3   6  ar  
  6   4   7  ar  
  7   4  25  1   
  8   5   8  2   
  9   5   9  2   
 10   5  10  am  
 11   6  11  ar  
 12   6  26  1   
 13   7  11  ar  
 14   7  27  1   
 15  10  12  1   
 16  10  13  1   
 17  11  14  1   
 18  12  15  1   
 19  12  28  1   
 20  12  29  1   
 21  13  16  1   
 22  13  30  1   
 23  13  31  1   
 24  15  17  1   
 25  15  32  1   
 26  15  33  1   
 27  16  17  1   
 28  16  34  1   
 29  16  35  1   
 30  17  18  am  
 31  18  19  2   
 32  18  20  1   
 33  20  21  1   
 34  20  22  1   
 35  20  36  1   
 36  21  23  1   
 37  22  24  1   
 38  22  37  1   
 39  22  38  1   
 40  23  24  1   
 41  23  39  1   
 42  23  40  1   
 43  24  41  1   
 44  24  42  1   
@<TRIPOS>SUBSTRUCTURE
  1 ****  10 GROUP 4 **** **** 0

# MOE 2024.06 (io_trps.svl 2023.06)
