@<TRIPOS>MOLECULE
NONAME
43 45 1 0 0 
SMALL
USER_CHARGES


@<TRIPOS>ATOM
  1 F        0.3800    -0.3660     0.4960 F     1 <1>  -0.1900 
  2 C        0.2710    -1.6210     0.1300 C.ar  1 <1>   0.1900 
  3 C        1.4250    -2.3110    -0.2420 C.ar  1 <1>   0.1170 
  4 C       -0.9870    -2.1900     0.1340 C.ar  1 <1>  -0.1500 
  5 N        2.6690    -1.6450    -0.2150 N.am  1 <1>  -0.5470 
  6 C        1.2600    -3.6420    -0.6200 C.ar  1 <1>  -0.1500 
  7 C       -1.1180    -3.5140    -0.2480 C.ar  1 <1>  -0.1500 
  8 C        3.9330    -2.0240    -0.5790 C.2   1 <1>   0.5690 
  9 C        0.0060    -4.2330    -0.6230 C.ar  1 <1>  -0.1500 
 10 O        4.1950    -3.1050    -1.0440 O.2   1 <1>  -0.5700 
 11 C        5.0530    -1.0060    -0.4090 C.3   1 <1>  -0.0190 
 12 C        6.4630    -1.6110    -0.5190 C.3   1 <1>   0.1400 
 13 C        5.0450    -0.2610     0.9410 C.3   1 <1>  -0.0990 
 14 N        7.2730    -0.7750     0.3900 N.am  1 <1>  -0.6600 
 15 C        6.5040    -0.0220     1.2070 C.2   1 <1>   0.5690 
 16 C        8.7540    -0.8180     0.4310 C.3   1 <1>   0.2200 
 17 O        6.8930     0.7490     2.0480 O.2   1 <1>  -0.5700 
 18 C        9.3400    -0.2410    -0.8640 C.3   1 <1>  -0.1600 
 19 C        9.2490    -2.2490     0.6780 C.3   1 <1>  -0.1600 
 20 C       10.8750    -0.2920    -0.8430 C.3   1 <1>  -0.1600 
 21 C       10.7830    -2.3020     0.7030 C.3   1 <1>  -0.1600 
 22 C       11.3790    -1.7200    -0.5870 C.3   1 <1>  -0.1600 
 23 H       -1.8440    -1.6110     0.4290 H     1 <1>   0.1500 
 24 H        2.5890    -0.6880     0.1310 H     1 <1>   0.3700 
 25 H        2.1060    -4.2340    -0.9150 H     1 <1>   0.1500 
 26 H       -2.0880    -3.9830    -0.2540 H     1 <1>   0.1500 
 27 H       -0.0950    -5.2640    -0.9200 H     1 <1>   0.1500 
 28 H        4.9580    -0.2830    -1.1990 H     1 <1>   0.0800 
 29 H        6.8270    -1.5690    -1.5300 H     1 <1>   0.0800 
 30 H        6.4800    -2.6300    -0.1670 H     1 <1>   0.0800 
 31 H        4.6560    -0.8760     1.7320 H     1 <1>   0.0800 
 32 H        4.5110     0.6690     0.8910 H     1 <1>   0.0800 
 33 H        9.0880    -0.2030     1.2510 H     1 <1>   0.0800 
 34 H        9.0190     0.7800    -0.9730 H     1 <1>   0.0800 
 35 H        8.9870    -0.8040    -1.7080 H     1 <1>   0.0800 
 36 H        8.8950    -2.9000    -0.1020 H     1 <1>   0.0800 
 37 H        8.8640    -2.6000     1.6200 H     1 <1>   0.0800 
 38 H       11.2420     0.3590    -0.0670 H     1 <1>   0.0800 
 39 H       11.2610     0.0640    -1.7820 H     1 <1>   0.0800 
 40 H       11.1070    -3.3220     0.8220 H     1 <1>   0.0800 
 41 H       11.1450    -1.7410     1.5470 H     1 <1>   0.0800 
 42 H       12.4530    -1.7150    -0.5170 H     1 <1>   0.0800 
 43 H       11.1070    -2.3470    -1.4190 H     1 <1>   0.0800 
@<TRIPOS>BOND
  1   1   2  1   
  2   2   3  ar  
  3   2   4  ar  
  4   3   5  1   
  5   3   6  ar  
  6   4   7  ar  
  7   4  23  1   
  8   5   8  am  
  9   5  24  1   
 10   6   9  ar  
 11   6  25  1   
 12   7   9  ar  
 13   7  26  1   
 14   8  10  2   
 15   8  11  1   
 16   9  27  1   
 17  11  12  1   
 18  11  13  1   
 19  11  28  1   
 20  12  14  1   
 21  12  29  1   
 22  12  30  1   
 23  13  15  1   
 24  13  31  1   
 25  13  32  1   
 26  14  15  am  
 27  14  16  1   
 28  15  17  2   
 29  16  18  1   
 30  16  19  1   
 31  16  33  1   
 32  18  20  1   
 33  18  34  1   
 34  18  35  1   
 35  19  21  1   
 36  19  36  1   
 37  19  37  1   
 38  20  22  1   
 39  20  38  1   
 40  20  39  1   
 41  21  22  1   
 42  21  40  1   
 43  21  41  1   
 44  22  42  1   
 45  22  43  1   
@<TRIPOS>SUBSTRUCTURE
  1 ****  11 GROUP 4 **** **** 0

# MOE 2024.06 (io_trps.svl 2023.06)
