@<TRIPOS>MOLECULE
NONAME
33 34 1 0 0 
SMALL
USER_CHARGES


@<TRIPOS>ATOM
  1 CL       2.4080     2.4220     2.2030 Cl    1 <1>  -0.1770 
  2 C        1.1850     2.7410     0.9990 C.ar  1 <1>   0.1770 
  3 C        1.3920     2.3620    -0.3280 C.ar  1 <1>   0.0860 
  4 C        0.0230     3.3700     1.4130 C.ar  1 <1>  -0.1500 
  5 C        2.6100     1.7170    -0.7550 C.2   1 <1>   0.5440 
  6 C        0.3700     2.6270    -1.2390 C.ar  1 <1>  -0.1500 
  7 C       -0.9760     3.6340     0.4920 C.ar  1 <1>  -0.1500 
  8 O        2.5770     0.5300    -1.0160 O.2   1 <1>  -0.5700 
  9 N        3.7910     2.4140    -0.9120 N.am  1 <1>  -0.6600 
 10 C       -0.7890     3.2550    -0.8250 C.ar  1 <1>   0.1770 
 11 C        3.8850     3.9010    -0.8980 C.3   1 <1>   0.1400 
 12 C        5.0820     1.7080    -1.1440 C.3   1 <1>   0.1400 
 13 CL      -2.0450     3.5820    -1.9890 Cl    1 <1>  -0.1770 
 14 C        4.9100     4.3510     0.1460 C.3   1 <1>  -0.1600 
 15 C        6.1070     2.1480    -0.0940 C.3   1 <1>  -0.1600 
 16 C        6.2790     3.6770    -0.0740 C.3   1 <1>  -0.0190 
 17 C        7.3120     4.1000     0.9710 C.2   1 <1>   0.5690 
 18 O        6.9880     4.3250     2.1080 O.2   1 <1>  -0.5700 
 19 N        8.6030     4.2180     0.6120 N.am  1 <1>  -0.8000 
 20 H       -0.0930     3.6470     2.4470 H     1 <1>   0.1500 
 21 H        0.4850     2.3370    -2.2680 H     1 <1>   0.1500 
 22 H       -1.8890     4.1210     0.7870 H     1 <1>   0.1500 
 23 H        2.9320     4.3490    -0.6780 H     1 <1>   0.0800 
 24 H        4.1910     4.2370    -1.8740 H     1 <1>   0.0800 
 25 H        5.4370     1.9430    -2.1320 H     1 <1>   0.0800 
 26 H        4.9490     0.6410    -1.0820 H     1 <1>   0.0800 
 27 H        4.5390     4.1080     1.1270 H     1 <1>   0.0800 
 28 H        5.0230     5.4200     0.0990 H     1 <1>   0.0800 
 29 H        7.0500     1.6760    -0.3040 H     1 <1>   0.0800 
 30 H        5.7800     1.8080     0.8740 H     1 <1>   0.0800 
 31 H        6.6460     3.9870    -1.0360 H     1 <1>   0.0800 
 32 H        9.2860     4.4930     1.3200 H     1 <1>   0.3700 
 33 H        8.9630     4.0310    -0.3220 H     1 <1>   0.3700 
@<TRIPOS>BOND
  1   1   2  1   
  2   2   3  ar  
  3   2   4  ar  
  4   3   5  1   
  5   3   6  ar  
  6   4   7  ar  
  7   4  20  1   
  8   5   8  2   
  9   5   9  am  
 10   6  10  ar  
 11   6  21  1   
 12   7  10  ar  
 13   7  22  1   
 14   9  11  1   
 15   9  12  1   
 16  10  13  1   
 17  11  14  1   
 18  11  23  1   
 19  11  24  1   
 20  12  15  1   
 21  12  25  1   
 22  12  26  1   
 23  14  16  1   
 24  14  27  1   
 25  14  28  1   
 26  15  16  1   
 27  15  29  1   
 28  15  30  1   
 29  16  17  1   
 30  16  31  1   
 31  17  18  2   
 32  17  19  am  
 33  19  32  1   
 34  19  33  1   
@<TRIPOS>SUBSTRUCTURE
  1 ****   9 GROUP 4 **** **** 0

# MOE 2024.06 (io_trps.svl 2023.06)
