@<TRIPOS>MOLECULE
NONAME
48 49 1 0 0 
SMALL
USER_CHARGES


@<TRIPOS>ATOM
  1 O       -1.5940     0.5030     0.5830 O.3   1 <1>  -0.3630 
  2 C       -0.8620     1.6510     0.5900 C.ar  1 <1>   0.0830 
  3 C       -1.7440    -0.2640    -0.5980 C.3   1 <1>   0.0400 
  4 C       -1.4380     2.7350     1.2460 C.ar  1 <1>  -0.1440 
  5 C        0.4030     1.7740     0.0010 C.ar  1 <1>  -0.1440 
  6 C       -0.7800     3.9540     1.2770 C.ar  1 <1>  -0.1500 
  7 C       -2.7710     2.5720     1.9600 C.3   1 <1>   0.4870 
  8 C        1.0300     3.0210    -0.0020 C.ar  1 <1>   0.0830 
  9 C        1.1530     0.5760    -0.5910 C.3   1 <1>  -0.0960 
 10 C        0.4360     4.1020     0.6410 C.ar  1 <1>  -0.1500 
 11 N       -3.9110     3.0270     1.1090 N.4   1 <1>  -0.9590 
 12 O        2.2260     3.1380    -0.6400 O.3   1 <1>  -0.3630 
 13 C       -4.0510     2.2220    -0.1450 C.3   1 <1>   0.3430 
 14 C       -3.9020     4.4860     0.7760 C.3   1 <1>   0.3430 
 15 C        2.9950     4.3210    -0.6030 C.3   1 <1>   0.0400 
 16 C       -5.3190     2.6310    -0.9360 C.3   1 <1>   0.1100 
 17 C       -5.1600     4.8840    -0.0360 C.3   1 <1>   0.1100 
 18 N       -6.0690     3.7380    -0.2840 N.3   1 <1>  -0.8100 
 19 C       -7.2380     4.1650    -1.0850 C.3   1 <1>   0.1100 
 20 C       -8.3700     3.1320    -1.0420 C.3   1 <1>   0.1200 
 21 O       -9.4400     3.6020    -1.7870 O.3   1 <1>  -0.6800 
 22 H       -2.7280    -0.6960    -0.5990 H     1 <1>   0.0800 
 23 H       -1.0170    -1.0560    -0.5970 H     1 <1>   0.0800 
 24 H       -1.6160     0.3680    -1.4590 H     1 <1>   0.0800 
 25 H       -1.1960     4.7980     1.7980 H     1 <1>   0.1500 
 26 H       -2.7520     3.1390     2.8760 H     1 <1>   0.0800 
 27 H       -2.9050     1.5340     2.2210 H     1 <1>   0.0800 
 28 H        0.9590    -0.3090    -0.0130 H     1 <1>   0.0800 
 29 H        2.2170     0.7230    -0.5660 H     1 <1>   0.0800 
 30 H        0.8600     0.4180    -1.6120 H     1 <1>   0.0800 
 31 H        0.9120     5.0640     0.6660 H     1 <1>   0.1500 
 32 H       -4.8030     2.8800     1.6020 H     1 <1>   0.4500 
 33 H       -4.1090     1.1740     0.0980 H     1 <1>   0.0800 
 34 H       -3.1820     2.3630    -0.7670 H     1 <1>   0.0800 
 35 H       -3.0240     4.7230     0.1970 H     1 <1>   0.0800 
 36 H       -3.8680     5.0710     1.6800 H     1 <1>   0.0800 
 37 H        3.9060     4.1420    -1.1440 H     1 <1>   0.0800 
 38 H        3.2210     4.5600     0.4210 H     1 <1>   0.0800 
 39 H        2.4420     5.1130    -1.0750 H     1 <1>   0.0800 
 40 H       -5.9520     1.7660    -1.0250 H     1 <1>   0.0800 
 41 H       -5.0290     2.9210    -1.9320 H     1 <1>   0.0800 
 42 H       -4.8490     5.3140    -0.9740 H     1 <1>   0.0800 
 43 H       -5.6910     5.6490     0.5070 H     1 <1>   0.0800 
 44 H       -6.9430     4.3340    -2.1070 H     1 <1>   0.0800 
 45 H       -7.6190     5.0890    -0.6820 H     1 <1>   0.0800 
 46 H       -8.7060     2.9640    -0.0340 H     1 <1>   0.0800 
 47 H       -8.0610     2.2020    -1.4840 H     1 <1>   0.0800 
 48 H       -9.8990     4.3320    -1.3260 H     1 <1>   0.4000 
@<TRIPOS>BOND
  1   1   2  1   
  2   1   3  1   
  3   2   4  ar  
  4   2   5  ar  
  5   3  22  1   
  6   3  23  1   
  7   3  24  1   
  8   4   6  ar  
  9   4   7  1   
 10   5   8  ar  
 11   5   9  1   
 12   6  10  ar  
 13   6  25  1   
 14   7  11  1   
 15   7  26  1   
 16   7  27  1   
 17   8  10  ar  
 18   8  12  1   
 19   9  28  1   
 20   9  29  1   
 21   9  30  1   
 22  10  31  1   
 23  11  13  1   
 24  11  14  1   
 25  11  32  1   
 26  12  15  1   
 27  13  16  1   
 28  13  33  1   
 29  13  34  1   
 30  14  17  1   
 31  14  35  1   
 32  14  36  1   
 33  15  37  1   
 34  15  38  1   
 35  15  39  1   
 36  16  18  1   
 37  16  40  1   
 38  16  41  1   
 39  17  18  1   
 40  17  42  1   
 41  17  43  1   
 42  18  19  1   
 43  19  20  1   
 44  19  44  1   
 45  19  45  1   
 46  20  21  1   
 47  20  46  1   
 48  20  47  1   
 49  21  48  1   
@<TRIPOS>SUBSTRUCTURE
  1 ****  13 GROUP 4 **** **** 0

# MOE 2024.06 (io_trps.svl 2023.06)
