@<TRIPOS>MOLECULE
NONAME
41 41 1 0 0 
SMALL
USER_CHARGES


@<TRIPOS>ATOM
  1 O        0.8900     0.9870    -2.4550 O.2   1 <1>  -0.5700 
  2 C        0.7010     1.3470    -1.3060 C.2   1 <1>   0.5440 
  3 N        1.6710     1.0830    -0.3550 N.am  1 <1>  -0.6600 
  4 C       -0.5090     2.0780    -0.9970 C.ar  1 <1>   0.0860 
  5 C        2.7940     0.1530    -0.6420 C.3   1 <1>   0.1400 
  6 C        1.6340     1.6400     1.0210 C.3   1 <1>   0.1400 
  7 C       -1.5180     1.5410    -0.1870 C.ar  1 <1>   0.0830 
  8 C       -0.7000     3.3540    -1.5260 C.ar  1 <1>  -0.1500 
  9 C        2.3850    -1.2710    -0.2570 C.3   1 <1>  -0.1600 
 10 C        2.3860     2.9670     1.0460 C.3   1 <1>  -0.2400 
 11 O       -1.3260     0.2960     0.3130 O.3   1 <1>  -0.3630 
 12 C       -2.6680     2.2800     0.0840 C.ar  1 <1>  -0.1500 
 13 C       -1.8410     4.0840    -1.2550 C.ar  1 <1>  -0.1500 
 14 C        3.5150    -2.2710    -0.5310 C.3   1 <1>  -0.1600 
 15 C       -2.3160    -0.4100     1.0210 C.3   1 <1>   0.1200 
 16 C       -2.8260     3.5470    -0.4460 C.ar  1 <1>  -0.1500 
 17 C        3.0970    -3.6920    -0.1450 C.3   1 <1>  -0.2400 
 18 C       -1.7520    -1.7880     1.3550 C.3   1 <1>  -0.2400 
 19 H        3.6660     0.4550    -0.0880 H     1 <1>   0.0800 
 20 H        3.0400     0.1890    -1.6900 H     1 <1>   0.0800 
 21 H        2.0910     0.9450     1.7060 H     1 <1>   0.0800 
 22 H        0.6200     1.7910     1.3420 H     1 <1>   0.0800 
 23 H        0.0640     3.7650    -2.1620 H     1 <1>   0.1500 
 24 H        1.5170    -1.5460    -0.8320 H     1 <1>   0.0800 
 25 H        2.1260    -1.3000     0.7860 H     1 <1>   0.0800 
 26 H        3.4100     2.8240     0.7500 H     1 <1>   0.0800 
 27 H        2.3700     3.3750     2.0400 H     1 <1>   0.0800 
 28 H        1.9180     3.6700     0.3810 H     1 <1>   0.0800 
 29 H       -3.4490     1.8870     0.7060 H     1 <1>   0.1500 
 30 H       -1.9650     5.0680    -1.6740 H     1 <1>   0.1500 
 31 H        4.3900    -1.9930     0.0320 H     1 <1>   0.0800 
 32 H        3.7680    -2.2480    -1.5780 H     1 <1>   0.0800 
 33 H       -3.1870    -0.4950     0.3940 H     1 <1>   0.0800 
 34 H       -2.5490     0.1340     1.9190 H     1 <1>   0.0800 
 35 H       -3.7160     4.1150    -0.2350 H     1 <1>   0.1500 
 36 H        2.8580    -3.7430     0.9030 H     1 <1>   0.0800 
 37 H        3.8980    -4.3800    -0.3480 H     1 <1>   0.0800 
 38 H        2.2340    -3.9950    -0.7120 H     1 <1>   0.0800 
 39 H       -1.5040    -2.3120     0.4500 H     1 <1>   0.0800 
 40 H       -2.4830    -2.3610     1.8950 H     1 <1>   0.0800 
 41 H       -0.8720    -1.6890     1.9640 H     1 <1>   0.0800 
@<TRIPOS>BOND
  1   1   2  2   
  2   2   3  am  
  3   2   4  1   
  4   3   5  1   
  5   3   6  1   
  6   4   7  ar  
  7   4   8  ar  
  8   5   9  1   
  9   5  19  1   
 10   5  20  1   
 11   6  10  1   
 12   6  21  1   
 13   6  22  1   
 14   7  11  1   
 15   7  12  ar  
 16   8  13  ar  
 17   8  23  1   
 18   9  14  1   
 19   9  24  1   
 20   9  25  1   
 21  10  26  1   
 22  10  27  1   
 23  10  28  1   
 24  11  15  1   
 25  12  16  ar  
 26  12  29  1   
 27  13  16  ar  
 28  13  30  1   
 29  14  17  1   
 30  14  31  1   
 31  14  32  1   
 32  15  18  1   
 33  15  33  1   
 34  15  34  1   
 35  16  35  1   
 36  17  36  1   
 37  17  37  1   
 38  17  38  1   
 39  18  39  1   
 40  18  40  1   
 41  18  41  1   
@<TRIPOS>SUBSTRUCTURE
  1 ****   2 GROUP 4 **** **** 0

# MOE 2024.06 (io_trps.svl 2023.06)
