@<TRIPOS>MOLECULE
NONAME
36 36 1 0 0 
SMALL
USER_CHARGES


@<TRIPOS>ATOM
  1 O        0.4440     0.5720    -1.0110 O.2   1 <1>  -0.5700 
  2 C       -0.1920     1.3440    -0.3190 C.2   1 <1>   0.5440 
  3 N       -1.3550     0.9060     0.2520 N.am  1 <1>  -0.7300 
  4 C        0.2680     2.6980    -0.0860 C.ar  1 <1>   0.0860 
  5 C       -1.9320    -0.4450     0.0900 C.3   1 <1>   0.1400 
  6 C        1.6150     2.9850     0.2000 C.ar  1 <1>   0.1170 
  7 C       -0.6430     3.7560    -0.1340 C.ar  1 <1>  -0.1500 
  8 C       -3.4430    -0.3220    -0.1020 C.3   1 <1>  -0.1600 
  9 N        2.5570     1.9440     0.2430 N.am  1 <1>  -0.5470 
 10 C        1.9910     4.3070     0.4280 C.ar  1 <1>  -0.1500 
 11 C       -0.2530     5.0600     0.0990 C.ar  1 <1>  -0.1500 
 12 C       -4.0960    -1.6980    -0.2740 C.3   1 <1>  -0.2400 
 13 C        3.7940     1.8220     0.8170 C.2   1 <1>   0.5690 
 14 C        1.0710     5.3350     0.3820 C.ar  1 <1>  -0.1500 
 15 O        4.3250     2.6930     1.4620 O.2   1 <1>  -0.5700 
 16 C        4.5390     0.5010     0.6360 C.3   1 <1>   0.1810 
 17 O        3.7310    -0.4730     0.0220 O.3   1 <1>  -0.5600 
 18 C        4.3650    -1.6940    -0.1820 C.3   1 <1>   0.0400 
 19 H       -1.8200     1.5010     0.9380 H     1 <1>   0.3700 
 20 H       -1.7120    -1.0310     0.9660 H     1 <1>   0.0800 
 21 H       -1.4920    -0.9330    -0.7650 H     1 <1>   0.0800 
 22 H       -1.6740     3.5520    -0.3660 H     1 <1>   0.1500 
 23 H       -3.6400     0.2720    -0.9790 H     1 <1>   0.0800 
 24 H       -3.8770     0.1680     0.7520 H     1 <1>   0.0800 
 25 H        2.2460     1.0680    -0.2110 H     1 <1>   0.3700 
 26 H        3.0170     4.5430     0.6400 H     1 <1>   0.1500 
 27 H       -0.9720     5.8610     0.0580 H     1 <1>   0.1500 
 28 H       -3.6910    -2.2010    -1.1350 H     1 <1>   0.0800 
 29 H       -5.1570    -1.5870    -0.4120 H     1 <1>   0.0800 
 30 H       -3.9260    -2.3080     0.5960 H     1 <1>   0.0800 
 31 H        1.3860     6.3490     0.5640 H     1 <1>   0.1500 
 32 H        4.8450     0.1370     1.5990 H     1 <1>   0.0800 
 33 H        5.4040     0.6700     0.0200 H     1 <1>   0.0800 
 34 H        3.6620    -2.3590    -0.6530 H     1 <1>   0.0800 
 35 H        4.6680    -2.1010     0.7670 H     1 <1>   0.0800 
 36 H        5.2150    -1.5510    -0.8260 H     1 <1>   0.0800 
@<TRIPOS>BOND
  1   1   2  2   
  2   2   3  am  
  3   2   4  1   
  4   3   5  1   
  5   3  19  1   
  6   4   6  ar  
  7   4   7  ar  
  8   5   8  1   
  9   5  20  1   
 10   5  21  1   
 11   6   9  1   
 12   6  10  ar  
 13   7  11  ar  
 14   7  22  1   
 15   8  12  1   
 16   8  23  1   
 17   8  24  1   
 18   9  13  am  
 19   9  25  1   
 20  10  14  ar  
 21  10  26  1   
 22  11  14  ar  
 23  11  27  1   
 24  12  28  1   
 25  12  29  1   
 26  12  30  1   
 27  13  15  2   
 28  13  16  1   
 29  14  31  1   
 30  16  17  1   
 31  16  32  1   
 32  16  33  1   
 33  17  18  1   
 34  18  34  1   
 35  18  35  1   
 36  18  36  1   
@<TRIPOS>SUBSTRUCTURE
  1 ****   2 GROUP 4 **** **** 0

# MOE 2024.06 (io_trps.svl 2023.06)
