@<TRIPOS>MOLECULE
NONAME
40 42 1 0 0 
SMALL
USER_CHARGES


@<TRIPOS>ATOM
  1 O        1.6770     4.0940     1.9230 O.co2 1 <1>  -0.9000 
  2 C        1.2180     3.0780     1.3970 C.2   1 <1>   0.9060 
  3 O        1.7340     1.9590     1.5360 O.co2 1 <1>  -0.9000 
  4 C        0.0330     3.1650     0.4720 C.3   1 <1>  -0.1860 
  5 C       -0.8200     4.4350     0.5580 C.3   1 <1>   0.1960 
  6 C       -1.0060     2.0180     0.6770 C.3   1 <1>  -0.0190 
  7 C       -1.9710     3.9400    -0.2970 C.2   1 <1>  -0.2760 
  8 C       -1.5550     4.4790     1.8870 C.2   1 <1>  -0.2880 
  9 C       -0.7990     0.8640    -0.2880 C.2   1 <1>   0.5690 
 10 C       -2.3540     2.7610     0.5790 C.3   1 <1>   0.1960 
 11 C       -2.4790     4.3860    -1.4560 C.2   1 <1>  -0.2760 
 12 C       -2.4750     3.5170     1.8900 C.2   1 <1>  -0.2880 
 13 O       -1.7110     0.4770    -0.9840 O.2   1 <1>  -0.5700 
 14 N        0.4450     0.3000    -0.2700 N.am  1 <1>  -0.5470 
 15 C       -3.6390     3.7260    -2.1860 C.3   1 <1>  -0.1020 
 16 C       -1.9560     5.6040    -2.2030 C.3   1 <1>  -0.1020 
 17 C        1.0480    -0.7510    -0.9720 C.ar  1 <1>   0.1170 
 18 C        0.3880    -1.5360    -1.9120 C.ar  1 <1>  -0.1500 
 19 C        2.3850    -1.0220    -0.7080 C.ar  1 <1>  -0.1500 
 20 C        1.0460    -2.5610    -2.5680 C.ar  1 <1>  -0.1500 
 21 C        3.0490    -2.0460    -1.3600 C.ar  1 <1>  -0.1500 
 22 C        2.3790    -2.8180    -2.2930 C.ar  1 <1>  -0.1500 
 23 H        0.4280     3.1170    -0.5260 H     1 <1>   0.0800 
 24 H       -0.3410     5.3490     0.2580 H     1 <1>   0.0800 
 25 H       -0.9140     1.6130     1.6700 H     1 <1>   0.0800 
 26 H       -1.2690     5.2050     2.6280 H     1 <1>   0.1500 
 27 H       -3.2180     2.1870     0.3010 H     1 <1>   0.0800 
 28 H       -3.1870     3.2160     2.6360 H     1 <1>   0.1500 
 29 H        1.0780     0.7780     0.4070 H     1 <1>   0.3700 
 30 H       -3.3300     3.4310    -3.1720 H     1 <1>   0.0800 
 31 H       -4.4620     4.4110    -2.2670 H     1 <1>   0.0800 
 32 H       -3.9800     2.8460    -1.6740 H     1 <1>   0.0800 
 33 H       -2.7370     6.3350    -2.3070 H     1 <1>   0.0800 
 34 H       -1.6160     5.3150    -3.1820 H     1 <1>   0.0800 
 35 H       -1.1350     6.0630    -1.6880 H     1 <1>   0.0800 
 36 H       -0.6450    -1.3470    -2.1360 H     1 <1>   0.1500 
 37 H        2.9040    -0.4170     0.0180 H     1 <1>   0.1500 
 38 H        0.5200    -3.1570    -3.2920 H     1 <1>   0.1500 
 39 H        4.0840    -2.2380    -1.1410 H     1 <1>   0.1500 
 40 H        2.8910    -3.6160    -2.8030 H     1 <1>   0.1500 
@<TRIPOS>BOND
  1   1   2  ar  
  2   2   3  ar  
  3   2   4  1   
  4   4   5  1   
  5   4   6  1   
  6   4  23  1   
  7   5   7  1   
  8   5   8  1   
  9   5  24  1   
 10   6   9  1   
 11   6  10  1   
 12   6  25  1   
 13   7  10  1   
 14   7  11  2   
 15   8  12  2   
 16   8  26  1   
 17   9  13  2   
 18   9  14  am  
 19  10  12  1   
 20  10  27  1   
 21  11  15  1   
 22  11  16  1   
 23  12  28  1   
 24  14  17  1   
 25  14  29  1   
 26  15  30  1   
 27  15  31  1   
 28  15  32  1   
 29  16  33  1   
 30  16  34  1   
 31  16  35  1   
 32  17  18  ar  
 33  17  19  ar  
 34  18  20  ar  
 35  18  36  1   
 36  19  21  ar  
 37  19  37  1   
 38  20  22  ar  
 39  20  38  1   
 40  21  22  ar  
 41  21  39  1   
 42  22  40  1   
@<TRIPOS>SUBSTRUCTURE
  1 ****   9 GROUP 4 **** **** 0

# MOE 2024.06 (io_trps.svl 2023.06)
