@<TRIPOS>MOLECULE
NONAME
35 36 1 0 0 
SMALL
USER_CHARGES


@<TRIPOS>ATOM
  1 O        0.9810    -1.3390    -0.8760 O.2   1 <1>  -0.5700 
  2 C        0.4480    -2.0640    -0.0570 C.2   1 <1>   0.5440 
  3 N        1.2660    -2.6420     0.8850 N.am  1 <1>  -0.6600 
  4 C       -0.9740    -2.3520    -0.1210 C.ar  1 <1>   0.0860 
  5 C        1.5190    -4.1070     0.7950 C.3   1 <1>   0.1400 
  6 C        2.4520    -1.8710     1.3620 C.3   1 <1>   0.1400 
  7 C       -1.6940    -2.8640     0.9520 C.ar  1 <1>  -0.1500 
  8 C       -1.7220    -2.1340    -1.2690 C.ar  1 <1>  -0.1500 
  9 C        2.7350    -4.3770    -0.1200 C.3   1 <1>   0.3430 
 10 C        3.6570    -2.1270     0.4370 C.3   1 <1>   0.3430 
 11 C       -3.0430    -3.1330     0.8240 C.ar  1 <1>   0.1600 
 12 C       -3.0700    -2.4360    -1.2980 C.ar  1 <1>   0.1600 
 13 N        3.9560    -3.5990     0.2960 N.4   1 <1>  -0.9590 
 14 N       -3.7450    -2.9390    -0.2780 N.ar  1 <1>  -0.6200 
 15 C        5.0790    -3.8360    -0.6370 C.3   1 <1>   0.4810 
 16 C        6.3440    -3.4350     0.0850 C.2   1 <1>  -0.2880 
 17 C        7.2330    -4.2840     0.6110 C.2   1 <1>  -0.3000 
 18 H        0.6540    -4.6050     0.3910 H     1 <1>   0.0800 
 19 H        1.6990    -4.5040     1.7790 H     1 <1>   0.0800 
 20 H        2.6880    -2.1530     2.3730 H     1 <1>   0.0800 
 21 H        2.2200    -0.8180     1.3590 H     1 <1>   0.0800 
 22 H       -1.2080    -3.0470     1.8920 H     1 <1>   0.1500 
 23 H       -1.2510    -1.7230    -2.1450 H     1 <1>   0.1500 
 24 H        2.4610    -4.1010    -1.1260 H     1 <1>   0.0800 
 25 H        2.9520    -5.4330    -0.1160 H     1 <1>   0.0800 
 26 H        4.5160    -1.6090     0.8290 H     1 <1>   0.0800 
 27 H        3.4290    -1.7070    -0.5300 H     1 <1>   0.0800 
 28 H       -3.5780    -3.5300     1.6720 H     1 <1>   0.1500 
 29 H       -3.6230    -2.2570    -2.2040 H     1 <1>   0.1500 
 30 H        4.2760    -3.9440     1.2100 H     1 <1>   0.4500 
 31 H        4.9560    -3.2720    -1.5480 H     1 <1>   0.0800 
 32 H        5.1350    -4.8840    -0.8830 H     1 <1>   0.0800 
 33 H        6.4810    -2.3670     0.1350 H     1 <1>   0.1500 
 34 H        8.1340    -3.9700     1.1160 H     1 <1>   0.1500 
 35 H        7.1570    -5.3590     0.5860 H     1 <1>   0.1500 
@<TRIPOS>BOND
  1   1   2  2   
  2   2   3  am  
  3   2   4  1   
  4   3   5  1   
  5   3   6  1   
  6   4   7  ar  
  7   4   8  ar  
  8   5   9  1   
  9   5  18  1   
 10   5  19  1   
 11   6  10  1   
 12   6  20  1   
 13   6  21  1   
 14   7  11  ar  
 15   7  22  1   
 16   8  12  ar  
 17   8  23  1   
 18   9  13  1   
 19   9  24  1   
 20   9  25  1   
 21  10  13  1   
 22  10  26  1   
 23  10  27  1   
 24  11  14  ar  
 25  11  28  1   
 26  12  14  ar  
 27  12  29  1   
 28  13  15  1   
 29  13  30  1   
 30  15  16  1   
 31  15  31  1   
 32  15  32  1   
 33  16  17  2   
 34  16  33  1   
 35  17  34  1   
 36  17  35  1   
@<TRIPOS>SUBSTRUCTURE
  1 ****   3 GROUP 4 **** **** 0

# MOE 2024.06 (io_trps.svl 2023.06)
