@<TRIPOS>MOLECULE
NONAME
35 36 1 0 0 
SMALL
USER_CHARGES


@<TRIPOS>ATOM
  1 BR       1.7970    -0.2990     1.3110 Br    1 <1>  -0.1110 
  2 C        0.8030    -1.8070     0.6440 C.ar  1 <1>   0.1110 
  3 C       -0.3570    -2.1760     1.2980 C.ar  1 <1>  -0.1500 
  4 C        1.2720    -2.4770    -0.4680 C.ar  1 <1>  -0.1500 
  5 C       -1.0780    -3.2600     0.8180 C.ar  1 <1>  -0.1430 
  6 C        0.5520    -3.5580    -0.9430 C.ar  1 <1>  -0.1500 
  7 C       -0.6240    -3.9540    -0.3040 C.ar  1 <1>   0.0830 
  8 C       -2.3550    -3.6870     1.5170 C.3   1 <1>   0.4870 
  9 O       -1.3760    -5.0040    -0.7340 O.3   1 <1>  -0.3620 
 10 N       -3.4800    -3.5870     0.5550 N.4   1 <1>  -0.9590 
 11 C       -0.8950    -5.8900    -1.7280 C.3   1 <1>   0.0400 
 12 C       -3.7320    -2.1840     0.1190 C.3   1 <1>   0.3430 
 13 C       -4.7040    -4.2720     1.0490 C.3   1 <1>   0.3430 
 14 C       -4.7710    -2.1770    -1.0030 C.3   1 <1>  -0.1600 
 15 C       -5.7580    -4.2960    -0.0600 C.3   1 <1>  -0.1600 
 16 C       -6.0650    -2.8880    -0.5870 C.3   1 <1>  -0.1600 
 17 H       -0.6690    -1.6180     2.1630 H     1 <1>   0.1500 
 18 H        2.1810    -2.1570    -0.9470 H     1 <1>   0.1500 
 19 H        0.9240    -4.0730    -1.8100 H     1 <1>   0.1500 
 20 H       -2.5400    -3.0650     2.3770 H     1 <1>   0.0800 
 21 H       -2.2440    -4.7080     1.8460 H     1 <1>   0.0800 
 22 H       -3.1360    -4.1020    -0.2730 H     1 <1>   0.4500 
 23 H       -1.6070    -6.6870    -1.8450 H     1 <1>   0.0800 
 24 H        0.0510    -6.2930    -1.4110 H     1 <1>   0.0800 
 25 H       -0.7910    -5.3570    -2.6570 H     1 <1>   0.0800 
 26 H       -2.8170    -1.7360    -0.2390 H     1 <1>   0.0800 
 27 H       -4.0940    -1.6020     0.9500 H     1 <1>   0.0800 
 28 H       -5.0960    -3.7470     1.9050 H     1 <1>   0.0800 
 29 H       -4.4710    -5.2830     1.3430 H     1 <1>   0.0800 
 30 H       -4.3550    -2.6520    -1.8750 H     1 <1>   0.0800 
 31 H       -4.9940    -1.1580    -1.2700 H     1 <1>   0.0800 
 32 H       -6.6620    -4.7380     0.3230 H     1 <1>   0.0800 
 33 H       -5.4120    -4.9210    -0.8650 H     1 <1>   0.0800 
 34 H       -6.7350    -2.9510    -1.4290 H     1 <1>   0.0800 
 35 H       -6.5590    -2.3160     0.1810 H     1 <1>   0.0800 
@<TRIPOS>BOND
  1   1   2  1   
  2   2   3  ar  
  3   2   4  ar  
  4   3   5  ar  
  5   3  17  1   
  6   4   6  ar  
  7   4  18  1   
  8   5   7  ar  
  9   5   8  1   
 10   6   7  ar  
 11   6  19  1   
 12   7   9  1   
 13   8  10  1   
 14   8  20  1   
 15   8  21  1   
 16   9  11  1   
 17  10  12  1   
 18  10  13  1   
 19  10  22  1   
 20  11  23  1   
 21  11  24  1   
 22  11  25  1   
 23  12  14  1   
 24  12  26  1   
 25  12  27  1   
 26  13  15  1   
 27  13  28  1   
 28  13  29  1   
 29  14  16  1   
 30  14  30  1   
 31  14  31  1   
 32  15  16  1   
 33  15  32  1   
 34  15  33  1   
 35  16  34  1   
 36  16  35  1   
@<TRIPOS>SUBSTRUCTURE
  1 ****   5 GROUP 4 **** **** 0

# MOE 2024.06 (io_trps.svl 2023.06)
