@<TRIPOS>MOLECULE
NONAME
62 66 1 0 0 
SMALL
USER_CHARGES


@<TRIPOS>ATOM
  1 O        1.0080    -0.2380     2.0330 O.2   1 <1>  -0.5700 
  2 C        1.9180    -0.1250     1.2560 C.2   1 <1>   0.4950 
  3 C        2.7730    -1.2060     0.8690 C.2   1 <1>  -0.1360 
  4 C        2.1800     1.2110     0.5930 C.3   1 <1>  -0.0990 
  5 C        3.8690    -1.0930     0.0920 C.2   1 <1>  -0.2760 
  6 C        3.6880     1.4060     0.3600 C.3   1 <1>  -0.1600 
  7 C        4.3970     0.2560    -0.4220 C.3   1 <1>   0.1380 
  8 C        4.6150    -2.3200    -0.3950 C.3   1 <1>  -0.0220 
  9 C        5.9750     0.3640    -0.3760 C.3   1 <1>  -0.0800 
 10 C        3.9410     0.3520    -1.8940 C.3   1 <1>  -0.2400 
 11 C        6.1110    -2.2010    -0.1300 C.3   1 <1>  -0.0190 
 12 C        6.7290    -0.9430    -0.8040 C.3   1 <1>  -0.0800 
 13 C        6.6070     1.0580     0.8810 C.3   1 <1>   0.2000 
 14 C        6.7850    -3.4960    -0.5710 C.2   1 <1>   0.6590 
 15 C        8.2580    -0.9190    -0.5080 C.3   1 <1>  -0.0800 
 16 O        6.4140     2.4250     0.7630 O.3   1 <1>  -0.6800 
 17 C        8.1240     0.8910     1.1270 C.3   1 <1>  -0.1600 
 18 O        6.7290    -3.8910    -1.7080 O.2   1 <1>  -0.5700 
 19 O        7.4420    -4.1590     0.3730 O.3   1 <1>  -0.4300 
 20 C        8.9070     0.4120    -0.1110 C.3   1 <1>   0.0000 
 21 C        9.2420    -1.5320    -1.5090 C.3   1 <1>  -0.1600 
 22 C        8.1390    -5.3550     0.0960 C.3   1 <1>   0.0400 
 23 C       10.3720    -0.0570     0.1350 C.3   1 <1>   0.2800 
 24 C        8.9370     1.4980    -1.2300 C.3   1 <1>  -0.2400 
 25 C       10.6270    -1.0750    -1.0030 C.3   1 <1>  -0.1600 
 26 O       10.4670    -0.7730     1.3500 O.3   1 <1>  -0.4300 
 27 C       11.4580     1.0290     0.2700 C.3   1 <1>  -0.1600 
 28 C       11.5960    -0.5620     1.9920 C.2   1 <1>   0.6590 
 29 C       12.4480     0.4460     1.2740 C.3   1 <1>  -0.0990 
 30 O       11.8920    -1.1040     3.0210 O.2   1 <1>  -0.5700 
 31 H        2.4370    -2.1580     1.2350 H     1 <1>   0.1500 
 32 H        1.8080     1.9960     1.2270 H     1 <1>   0.0800 
 33 H        1.6410     1.2510    -0.3350 H     1 <1>   0.0800 
 34 H        4.1050     1.4820     1.3460 H     1 <1>   0.0800 
 35 H        3.8580     2.3480    -0.1300 H     1 <1>   0.0800 
 36 H        4.4450    -2.4500    -1.4500 H     1 <1>   0.0800 
 37 H        4.2370    -3.1990     0.0980 H     1 <1>   0.0800 
 38 H        6.1750     1.0480    -1.1700 H     1 <1>   0.0800 
 39 H        2.8860     0.1640    -1.9800 H     1 <1>   0.0800 
 40 H        4.4490    -0.3660    -2.5100 H     1 <1>   0.0800 
 41 H        4.1410     1.3310    -2.2920 H     1 <1>   0.0800 
 42 H        6.2370    -2.1120     0.9350 H     1 <1>   0.0800 
 43 H        6.6070    -1.0520    -1.8680 H     1 <1>   0.0800 
 44 H        6.0900     0.7350     1.7690 H     1 <1>   0.0800 
 45 H        8.3710    -1.5380     0.3680 H     1 <1>   0.0800 
 46 H        6.9810     2.7730     0.0500 H     1 <1>   0.4000 
 47 H        8.2200     0.1500     1.9010 H     1 <1>   0.0800 
 48 H        8.5580     1.7900     1.5270 H     1 <1>   0.0800 
 49 H        9.0570    -1.1460    -2.4970 H     1 <1>   0.0800 
 50 H        9.1770    -2.6050    -1.5370 H     1 <1>   0.0800 
 51 H        8.5950    -5.7020     1.0060 H     1 <1>   0.0800 
 52 H        8.8950    -5.1540    -0.6430 H     1 <1>   0.0800 
 53 H        7.4420    -6.0870    -0.2740 H     1 <1>   0.0800 
 54 H        8.0040     1.6540    -1.7190 H     1 <1>   0.0800 
 55 H        9.6330     1.2400    -2.0070 H     1 <1>   0.0800 
 56 H        9.2480     2.4420    -0.8200 H     1 <1>   0.0800 
 57 H       11.1570    -0.6150    -1.8180 H     1 <1>   0.0800 
 58 H       11.2070    -1.9110    -0.6510 H     1 <1>   0.0800 
 59 H       11.0200     1.9190     0.6880 H     1 <1>   0.0800 
 60 H       11.9190     1.2800    -0.6680 H     1 <1>   0.0800 
 61 H       12.8290     1.1860     1.9540 H     1 <1>   0.0800 
 62 H       13.2540    -0.0650     0.7810 H     1 <1>   0.0800 
@<TRIPOS>BOND
  1   1   2  2   
  2   2   3  1   
  3   2   4  1   
  4   3   5  2   
  5   3  31  1   
  6   4   6  1   
  7   4  32  1   
  8   4  33  1   
  9   5   7  1   
 10   5   8  1   
 11   6   7  1   
 12   6  34  1   
 13   6  35  1   
 14   7   9  1   
 15   7  10  1   
 16   8  11  1   
 17   8  36  1   
 18   8  37  1   
 19   9  12  1   
 20   9  13  1   
 21   9  38  1   
 22  10  39  1   
 23  10  40  1   
 24  10  41  1   
 25  11  12  1   
 26  11  14  1   
 27  11  42  1   
 28  12  15  1   
 29  12  43  1   
 30  13  16  1   
 31  13  17  1   
 32  13  44  1   
 33  14  18  2   
 34  14  19  1   
 35  15  20  1   
 36  15  21  1   
 37  15  45  1   
 38  16  46  1   
 39  17  20  1   
 40  17  47  1   
 41  17  48  1   
 42  19  22  1   
 43  20  23  1   
 44  20  24  1   
 45  21  25  1   
 46  21  49  1   
 47  21  50  1   
 48  22  51  1   
 49  22  52  1   
 50  22  53  1   
 51  23  25  1   
 52  23  26  1   
 53  23  27  1   
 54  24  54  1   
 55  24  55  1   
 56  24  56  1   
 57  25  57  1   
 58  25  58  1   
 59  26  28  1   
 60  27  29  1   
 61  27  59  1   
 62  27  60  1   
 63  28  29  1   
 64  28  30  2   
 65  29  61  1   
 66  29  62  1   
@<TRIPOS>SUBSTRUCTURE
  1 ****  12 GROUP 4 **** **** 0

# MOE 2024.06 (io_trps.svl 2023.06)
