@<TRIPOS>MOLECULE
NONAME
37 38 1 0 0 
SMALL
USER_CHARGES


@<TRIPOS>ATOM
  1 CL      -0.9900    -0.8230     1.9210 Cl    1 <1>  -0.1770 
  2 C       -0.5520    -2.0460     0.7380 C.ar  1 <1>   0.1770 
  3 C        0.7320    -2.5600     0.7170 C.ar  1 <1>   0.1770 
  4 C       -1.5190    -2.4790    -0.1680 C.ar  1 <1>   0.1170 
  5 CL       1.9340    -2.0100     1.8620 Cl    1 <1>  -0.1770 
  6 C        1.0920    -3.5180    -0.2120 C.ar  1 <1>  -0.1500 
  7 N       -2.8150    -1.9240    -0.1070 N.am  1 <1>  -0.5470 
  8 C       -1.1380    -3.4410    -1.1040 C.ar  1 <1>  -0.1500 
  9 C        0.1480    -3.9560    -1.1260 C.ar  1 <1>  -0.1500 
 10 C       -4.0130    -2.3490    -0.6210 C.2   1 <1>   0.5690 
 11 O       -4.1260    -3.3680    -1.2600 O.2   1 <1>  -0.5700 
 12 C       -5.2570    -1.4830    -0.3400 C.3   1 <1>   0.1710 
 13 N       -6.5580    -2.2130    -0.2670 N.3   1 <1>  -0.8100 
 14 C       -6.5830    -3.2750     0.7720 C.3   1 <1>   0.1100 
 15 C       -7.7310    -1.3190    -0.1440 C.3   1 <1>   0.1100 
 16 C       -7.9030    -4.0840     0.7430 C.3   1 <1>   0.3430 
 17 C       -9.0650    -2.1090    -0.1750 C.3   1 <1>   0.3430 
 18 N       -8.8190    -3.5820    -0.3340 N.4   1 <1>  -0.9590 
 19 C      -10.0620    -4.3890    -0.4870 C.3   1 <1>   0.2630 
 20 H        2.0930    -3.9120    -0.2190 H     1 <1>   0.1500 
 21 H       -2.8580    -1.0870     0.4770 H     1 <1>   0.3700 
 22 H       -1.8440    -3.7960    -1.8330 H     1 <1>   0.1500 
 23 H        0.4140    -4.7000    -1.8590 H     1 <1>   0.1500 
 24 H       -5.3180    -0.7590    -1.1330 H     1 <1>   0.0800 
 25 H       -5.1040    -0.9490     0.5810 H     1 <1>   0.0800 
 26 H       -6.4520    -2.8390     1.7480 H     1 <1>   0.0800 
 27 H       -5.7680    -3.9610     0.6120 H     1 <1>   0.0800 
 28 H       -7.7280    -0.6140    -0.9580 H     1 <1>   0.0800 
 29 H       -7.6710    -0.7570     0.7730 H     1 <1>   0.0800 
 30 H       -8.3850    -4.0130     1.7030 H     1 <1>   0.0800 
 31 H       -7.6680    -5.1220     0.5690 H     1 <1>   0.0800 
 32 H       -9.6640    -1.7470    -0.9950 H     1 <1>   0.0800 
 33 H       -9.6100    -1.9220     0.7350 H     1 <1>   0.0800 
 34 H       -8.2330    -3.6410    -1.1860 H     1 <1>   0.4500 
 35 H      -10.6620    -4.3270     0.4060 H     1 <1>   0.0800 
 36 H       -9.8140    -5.4230    -0.6670 H     1 <1>   0.0800 
 37 H      -10.6420    -4.0270    -1.3210 H     1 <1>   0.0800 
@<TRIPOS>BOND
  1   1   2  1   
  2   2   3  ar  
  3   2   4  ar  
  4   3   5  1   
  5   3   6  ar  
  6   4   7  1   
  7   4   8  ar  
  8   6   9  ar  
  9   6  20  1   
 10   7  10  am  
 11   7  21  1   
 12   8   9  ar  
 13   8  22  1   
 14   9  23  1   
 15  10  11  2   
 16  10  12  1   
 17  12  13  1   
 18  12  24  1   
 19  12  25  1   
 20  13  14  1   
 21  13  15  1   
 22  14  16  1   
 23  14  26  1   
 24  14  27  1   
 25  15  17  1   
 26  15  28  1   
 27  15  29  1   
 28  16  18  1   
 29  16  30  1   
 30  16  31  1   
 31  17  18  1   
 32  17  32  1   
 33  17  33  1   
 34  18  19  1   
 35  18  34  1   
 36  19  35  1   
 37  19  36  1   
 38  19  37  1   
@<TRIPOS>SUBSTRUCTURE
  1 ****  10 GROUP 4 **** **** 0

# MOE 2024.06 (io_trps.svl 2023.06)
