@<TRIPOS>MOLECULE
NONAME
46 48 1 0 0 
SMALL
USER_CHARGES


@<TRIPOS>ATOM
  1 S       -0.7590     0.6080     0.4440 S.o2  1 <1>   1.4470 
  2 O       -1.8620     0.9220     1.3290 O.2   1 <1>  -0.6500 
  3 O       -0.0560    -0.6370     0.6480 O.2   1 <1>  -0.6500 
  4 N       -1.4650     0.4980    -1.1010 N.am  1 <1>  -0.8490 
  5 C        0.3940     1.9980     0.2930 C.ar  1 <1>  -0.0090 
  6 C       -1.9870    -0.8500    -1.3960 C.3   1 <1>   0.1960 
  7 C       -2.4590     1.5640    -1.3870 C.3   1 <1>   0.1960 
  8 C        0.3230     3.0910     1.1510 C.ar  1 <1>  -0.1500 
  9 C        1.3760     2.0050    -0.6910 C.ar  1 <1>  -0.1500 
 10 C       -3.2530    -1.1610    -0.5620 C.3   1 <1>   0.3430 
 11 C       -3.9270     1.0740    -1.5460 C.3   1 <1>   0.3430 
 12 C        1.1960     4.1580     1.0260 C.ar  1 <1>  -0.1500 
 13 C        2.2530     3.0680    -0.8230 C.ar  1 <1>  -0.1500 
 14 N       -4.3140    -0.0850    -0.6520 N.4   1 <1>  -0.9590 
 15 C        2.1620     4.1470     0.0370 C.ar  1 <1>  -0.1500 
 16 C       -4.7200     0.3820     0.7050 C.3   1 <1>   0.4860 
 17 C       -6.0820     1.0370     0.5800 C.ar  1 <1>  -0.1430 
 18 C       -6.2070     2.4170     0.6640 C.ar  1 <1>  -0.1500 
 19 C       -7.2150     0.2630     0.3810 C.ar  1 <1>  -0.1500 
 20 C       -7.4460     3.0370     0.5350 C.ar  1 <1>  -0.1430 
 21 C       -8.4520     0.8660     0.2510 C.ar  1 <1>  -0.1500 
 22 C       -8.5680     2.2420     0.3240 C.ar  1 <1>  -0.1500 
 23 C       -7.5470     4.5710     0.6260 C.3   1 <1>   1.1630 
 24 F       -8.7870     5.0350     0.5330 F     1 <1>  -0.3400 
 25 F       -6.8510     5.1560    -0.3410 F     1 <1>  -0.3400 
 26 F       -7.0550     5.0310     1.7680 F     1 <1>  -0.3400 
 27 H       -1.2330    -1.5960    -1.2040 H     1 <1>   0.0800 
 28 H       -2.2230    -0.9190    -2.4440 H     1 <1>   0.0800 
 29 H       -2.1730     2.0510    -2.3040 H     1 <1>   0.0800 
 30 H       -2.4270     2.3260    -0.6250 H     1 <1>   0.0800 
 31 H       -0.4200     3.1110     1.9310 H     1 <1>   0.1500 
 32 H        1.4590     1.1680    -1.3630 H     1 <1>   0.1500 
 33 H       -2.9500    -1.2870     0.4650 H     1 <1>   0.0800 
 34 H       -3.6620    -2.1020    -0.8920 H     1 <1>   0.0800 
 35 H       -4.0450     0.7630    -2.5710 H     1 <1>   0.0800 
 36 H       -4.5990     1.9030    -1.3960 H     1 <1>   0.0800 
 37 H        1.1280     4.9960     1.7000 H     1 <1>   0.1500 
 38 H        3.0080     3.0550    -1.5910 H     1 <1>   0.1500 
 39 H       -5.1680    -0.4970    -1.0480 H     1 <1>   0.4500 
 40 H        2.8430     4.9750    -0.0620 H     1 <1>   0.1500 
 41 H       -4.0110     1.0890     1.0990 H     1 <1>   0.0800 
 42 H       -4.7860    -0.4510     1.3870 H     1 <1>   0.0800 
 43 H       -5.3340     3.0270     0.8380 H     1 <1>   0.1500 
 44 H       -7.1570    -0.8120     0.3320 H     1 <1>   0.1500 
 45 H       -9.3340     0.2650     0.0960 H     1 <1>   0.1500 
 46 H       -9.5460     2.6850     0.2200 H     1 <1>   0.1500 
@<TRIPOS>BOND
  1   1   2  2   
  2   1   3  2   
  3   1   4  am  
  4   1   5  1   
  5   4   6  1   
  6   4   7  1   
  7   5   8  ar  
  8   5   9  ar  
  9   6  10  1   
 10   6  27  1   
 11   6  28  1   
 12   7  11  1   
 13   7  29  1   
 14   7  30  1   
 15   8  12  ar  
 16   8  31  1   
 17   9  13  ar  
 18   9  32  1   
 19  10  14  1   
 20  10  33  1   
 21  10  34  1   
 22  11  14  1   
 23  11  35  1   
 24  11  36  1   
 25  12  15  ar  
 26  12  37  1   
 27  13  15  ar  
 28  13  38  1   
 29  14  16  1   
 30  14  39  1   
 31  15  40  1   
 32  16  17  1   
 33  16  41  1   
 34  16  42  1   
 35  17  18  ar  
 36  17  19  ar  
 37  18  20  ar  
 38  18  43  1   
 39  19  21  ar  
 40  19  44  1   
 41  20  22  ar  
 42  20  23  1   
 43  21  22  ar  
 44  21  45  1   
 45  22  46  1   
 46  23  24  1   
 47  23  25  1   
 48  23  26  1   
@<TRIPOS>SUBSTRUCTURE
  1 ****   7 GROUP 4 **** **** 0

# MOE 2024.06 (io_trps.svl 2023.06)
