@<TRIPOS>MOLECULE
NONAME
30 31 1 0 0 
SMALL
USER_CHARGES


@<TRIPOS>ATOM
  1 O        0.3360     0.5900    -1.0830 O.2   1 <1>  -0.5700 
  2 C        1.2810     1.2390    -0.6630 C.2   1 <1>   0.5440 
  3 N        1.0930     2.5870    -0.3680 N.am  1 <1>  -0.2980 
  4 C        2.5640     0.5810    -0.4830 C.ar  1 <1>   0.0860 
  5 N        2.0670     3.4980     0.0000 N.2   1 <1>  -0.5120 
  6 C       -0.2240     3.2590    -0.4770 C.3   1 <1>   0.5800 
  7 C        2.6300    -0.6650     0.1430 C.ar  1 <1>  -0.1500 
  8 C        3.7660     1.1310    -0.9340 C.ar  1 <1>  -0.1500 
  9 C        1.5740     4.6530     0.0510 C.2   1 <1>   0.3280 
 10 O       -0.6990     3.0650    -1.7450 O.3   1 <1>  -0.6800 
 11 C        0.1060     4.7360    -0.2730 C.3   1 <1>  -0.0990 
 12 C       -1.2500     2.7330     0.5250 C.3   1 <1>  -0.2400 
 13 C        3.8320    -1.3240     0.3240 C.ar  1 <1>  -0.1500 
 14 C        4.9730     0.4790    -0.7560 C.ar  1 <1>  -0.1500 
 15 C        2.3250     5.9160     0.4040 C.3   1 <1>  -0.1790 
 16 C        5.0080    -0.7510    -0.1240 C.ar  1 <1>  -0.1500 
 17 H        1.7170    -1.1190     0.4880 H     1 <1>   0.1500 
 18 H        3.7510     2.0850    -1.4300 H     1 <1>   0.1500 
 19 H       -0.6130     2.0990    -1.9100 H     1 <1>   0.4000 
 20 H       -0.4380     5.1580     0.5490 H     1 <1>   0.0800 
 21 H       -0.0590     5.3110    -1.1660 H     1 <1>   0.0800 
 22 H       -0.8690     2.8360     1.5240 H     1 <1>   0.0800 
 23 H       -1.4710     1.6980     0.3440 H     1 <1>   0.0800 
 24 H       -2.1600     3.2990     0.4460 H     1 <1>   0.0800 
 25 H        3.8530    -2.2830     0.8130 H     1 <1>   0.1500 
 26 H        5.8840     0.9290    -1.1090 H     1 <1>   0.1500 
 27 H        2.2810     6.6090    -0.4150 H     1 <1>   0.0800 
 28 H        3.3550     5.6820     0.6060 H     1 <1>   0.0800 
 29 H        1.8940     6.3690     1.2780 H     1 <1>   0.0800 
 30 H        5.9460    -1.2600     0.0160 H     1 <1>   0.1500 
@<TRIPOS>BOND
  1   1   2  2   
  2   2   3  am  
  3   2   4  1   
  4   3   5  1   
  5   3   6  1   
  6   4   7  ar  
  7   4   8  ar  
  8   5   9  2   
  9   6  10  1   
 10   6  11  1   
 11   6  12  1   
 12   7  13  ar  
 13   7  17  1   
 14   8  14  ar  
 15   8  18  1   
 16   9  11  1   
 17   9  15  1   
 18  10  19  1   
 19  11  20  1   
 20  11  21  1   
 21  12  22  1   
 22  12  23  1   
 23  12  24  1   
 24  13  16  ar  
 25  13  25  1   
 26  14  16  ar  
 27  14  26  1   
 28  15  27  1   
 29  15  28  1   
 30  15  29  1   
 31  16  30  1   
@<TRIPOS>SUBSTRUCTURE
  1 ****   3 GROUP 4 **** **** 0

# MOE 2024.06 (io_trps.svl 2023.06)
