@<TRIPOS>MOLECULE
NONAME
45 47 1 0 0 
SMALL
USER_CHARGES


@<TRIPOS>ATOM
  1 S       -0.1680     1.3890    -1.2140 S.o2  1 <1>   1.5000 
  2 O       -0.2030    -0.0580    -1.1850 O.2   1 <1>  -0.6500 
  3 O       -0.1790     2.0630    -2.4940 O.2   1 <1>  -0.6500 
  4 N       -1.5300     1.9190    -0.3560 N.am  1 <1>  -0.8490 
  5 C        1.2320     1.9750    -0.2280 C.2   1 <1>  -0.0220 
  6 C       -1.7300     1.1720     0.8990 C.3   1 <1>   0.1960 
  7 C       -2.7450     1.8440    -1.1830 C.3   1 <1>   0.1960 
  8 S        1.1790     3.6210     0.4030 S.3   1 <1>  -0.0800 
  9 C        2.3930     1.3950     0.1420 C.2   1 <1>  -0.1500 
 10 C       -2.9140     1.7270     1.7060 C.3   1 <1>   0.1400 
 11 C       -3.9820     2.3930    -0.4500 C.3   1 <1>   0.1400 
 12 C        2.7520     3.4510     1.1600 C.2   1 <1>  -0.1100 
 13 C        3.2530     2.2250     0.9290 C.2   1 <1>  -0.1500 
 14 N       -4.1630     1.7430     0.8860 N.am  1 <1>  -0.6600 
 15 C       -5.3560     1.2830     1.3880 C.2   1 <1>   0.5690 
 16 O       -5.4190     0.7710     2.4820 O.2   1 <1>  -0.5700 
 17 C       -6.6540     1.3930     0.5970 C.3   1 <1>   0.0440 
 18 C       -7.0790     2.8440     0.3540 C.ar  1 <1>  -0.1430 
 19 C       -7.3530     3.3350    -0.9230 C.ar  1 <1>   0.0830 
 20 C       -7.1950     3.6900     1.4470 C.ar  1 <1>  -0.1500 
 21 O       -7.2330     2.4830    -1.9760 O.3   1 <1>  -0.3630 
 22 C       -7.7320     4.6660    -1.0820 C.ar  1 <1>  -0.1500 
 23 C       -7.5710     5.0100     1.2830 C.ar  1 <1>  -0.1500 
 24 C       -7.6450     2.8460    -3.2760 C.3   1 <1>   0.0400 
 25 C       -7.8390     5.4990     0.0170 C.ar  1 <1>  -0.1500 
 26 H       -0.8430     1.2380     1.5050 H     1 <1>   0.0800 
 27 H       -1.9110     0.1300     0.6890 H     1 <1>   0.0800 
 28 H       -2.9290     0.8230    -1.4730 H     1 <1>   0.0800 
 29 H       -2.6060     2.4210    -2.0830 H     1 <1>   0.0800 
 30 H        2.6850     0.3900    -0.1160 H     1 <1>   0.1500 
 31 H       -2.6890     2.7300     2.0220 H     1 <1>   0.0800 
 32 H       -3.0490     1.1250     2.5880 H     1 <1>   0.0800 
 33 H       -4.8390     2.2310    -1.0750 H     1 <1>   0.0800 
 34 H       -3.8700     3.4540    -0.3110 H     1 <1>   0.0800 
 35 H        3.1370     4.2970     1.7010 H     1 <1>   0.1500 
 36 H        4.2040     1.8620     1.2810 H     1 <1>   0.1500 
 37 H       -7.4330     0.9040     1.1510 H     1 <1>   0.0800 
 38 H       -6.5350     0.8470    -0.3180 H     1 <1>   0.0800 
 39 H       -6.9900     3.3210     2.4390 H     1 <1>   0.1500 
 40 H       -7.9480     5.0760    -2.0490 H     1 <1>   0.1500 
 41 H       -7.6540     5.6560     2.1400 H     1 <1>   0.1500 
 42 H       -7.5200     1.9920    -3.9170 H     1 <1>   0.0800 
 43 H       -7.0310     3.6570    -3.6240 H     1 <1>   0.0800 
 44 H       -8.6820     3.1300    -3.2460 H     1 <1>   0.0800 
 45 H       -8.1310     6.5270    -0.1100 H     1 <1>   0.1500 
@<TRIPOS>BOND
  1   1   2  2   
  2   1   3  2   
  3   1   4  am  
  4   1   5  1   
  5   4   6  1   
  6   4   7  1   
  7   5   8  1   
  8   5   9  2   
  9   6  10  1   
 10   6  26  1   
 11   6  27  1   
 12   7  11  1   
 13   7  28  1   
 14   7  29  1   
 15   8  12  1   
 16   9  13  1   
 17   9  30  1   
 18  10  14  1   
 19  10  31  1   
 20  10  32  1   
 21  11  14  1   
 22  11  33  1   
 23  11  34  1   
 24  12  13  2   
 25  12  35  1   
 26  13  36  1   
 27  14  15  am  
 28  15  16  2   
 29  15  17  1   
 30  17  18  1   
 31  17  37  1   
 32  17  38  1   
 33  18  19  ar  
 34  18  20  ar  
 35  19  21  1   
 36  19  22  ar  
 37  20  23  ar  
 38  20  39  1   
 39  21  24  1   
 40  22  25  ar  
 41  22  40  1   
 42  23  25  ar  
 43  23  41  1   
 44  24  42  1   
 45  24  43  1   
 46  24  44  1   
 47  25  45  1   
@<TRIPOS>SUBSTRUCTURE
  1 ****  11 GROUP 4 **** **** 0

# MOE 2024.06 (io_trps.svl 2023.06)
