@<TRIPOS>MOLECULE
NONAME
36 36 1 0 0 
SMALL
USER_CHARGES


@<TRIPOS>ATOM
  1 BR       0.7430    -0.7950     1.1630 Br    1 <1>  -0.1110 
  2 C       -0.6260    -1.9930     0.5240 C.ar  1 <1>   0.1110 
  3 C       -0.3190    -2.9050    -0.4750 C.ar  1 <1>  -0.1440 
  4 C       -1.8800    -1.9070     1.0940 C.ar  1 <1>  -0.1500 
  5 C       -1.3190    -3.7680    -0.9000 C.ar  1 <1>  -0.1500 
  6 C        1.0640    -2.9660    -1.0800 C.3   1 <1>   0.4870 
  7 C       -2.8730    -2.7640     0.6530 C.ar  1 <1>   0.0820 
  8 C       -2.5840    -3.7180    -0.3340 C.ar  1 <1>   0.0820 
  9 N        1.9260    -3.6920    -0.1210 N.4   1 <1>  -0.9060 
 10 O       -4.1000    -2.6290     1.2050 O.3   1 <1>  -0.3620 
 11 O       -3.4790    -4.6290    -0.7930 O.3   1 <1>  -0.3620 
 12 C        3.3310    -3.8260    -0.6000 C.3   1 <1>   0.3430 
 13 C       -5.0760    -2.0160     0.3910 C.3   1 <1>   0.0400 
 14 C       -4.2010    -5.3990     0.1450 C.3   1 <1>   0.1200 
 15 C        4.2140    -4.5440     0.4280 C.3   1 <1>   0.1200 
 16 C       -4.6760    -6.6680    -0.5540 C.3   1 <1>  -0.2400 
 17 O        5.4840    -4.6270    -0.1090 O.3   1 <1>  -0.6800 
 18 H       -2.0920    -1.1860     1.8630 H     1 <1>   0.1500 
 19 H       -1.1440    -4.4970    -1.6730 H     1 <1>   0.1500 
 20 H        1.4380    -1.9680    -1.2460 H     1 <1>   0.0800 
 21 H        1.0300    -3.4850    -2.0240 H     1 <1>   0.0800 
 22 H        1.5040    -4.6120     0.0550 H     1 <1>   0.4500 
 23 H        1.8970    -3.1750     0.7680 H     1 <1>   0.4500 
 24 H        3.7480    -2.8490    -0.7850 H     1 <1>   0.0800 
 25 H        3.3510    -4.3870    -1.5210 H     1 <1>   0.0800 
 26 H       -5.2050    -2.5950    -0.5070 H     1 <1>   0.0800 
 27 H       -5.9990    -1.9800     0.9410 H     1 <1>   0.0800 
 28 H       -4.7520    -1.0190     0.1500 H     1 <1>   0.0800 
 29 H       -3.5540    -5.6360     0.9720 H     1 <1>   0.0800 
 30 H       -5.0400    -4.8250     0.4930 H     1 <1>   0.0800 
 31 H        3.8660    -5.5450     0.6140 H     1 <1>   0.0800 
 32 H        4.2770    -3.9870     1.3470 H     1 <1>   0.0800 
 33 H       -3.8350    -7.2360    -0.9070 H     1 <1>   0.0800 
 34 H       -5.3150    -6.4170    -1.3820 H     1 <1>   0.0800 
 35 H       -5.2340    -7.2750     0.1360 H     1 <1>   0.0800 
 36 H        6.1130    -5.0710     0.5020 H     1 <1>   0.4000 
@<TRIPOS>BOND
  1   1   2  1   
  2   2   3  ar  
  3   2   4  ar  
  4   3   5  ar  
  5   3   6  1   
  6   4   7  ar  
  7   4  18  1   
  8   5   8  ar  
  9   5  19  1   
 10   6   9  1   
 11   6  20  1   
 12   6  21  1   
 13   7   8  ar  
 14   7  10  1   
 15   8  11  1   
 16   9  12  1   
 17   9  22  1   
 18   9  23  1   
 19  10  13  1   
 20  11  14  1   
 21  12  15  1   
 22  12  24  1   
 23  12  25  1   
 24  13  26  1   
 25  13  27  1   
 26  13  28  1   
 27  14  16  1   
 28  14  29  1   
 29  14  30  1   
 30  15  17  1   
 31  15  31  1   
 32  15  32  1   
 33  16  33  1   
 34  16  34  1   
 35  16  35  1   
 36  17  36  1   
@<TRIPOS>SUBSTRUCTURE
  1 ****   3 GROUP 4 **** **** 0

# MOE 2024.06 (io_trps.svl 2023.06)
