@<TRIPOS>MOLECULE
Structure2242
27 27 1 0 0 
SMALL
USER_CHARGES


@<TRIPOS>ATOM
  1 N       -0.1290    -0.0030     0.3610 N.4   1 <1>  -0.9060 
  2 C       -0.7940    -1.2300    -0.1460 C.3   1 <1>   0.3430 
  3 C       -0.7500     1.2310    -0.1810 C.3   1 <1>   0.3430 
  4 C       -2.2630    -1.2270     0.2760 C.3   1 <1>  -0.1600 
  5 C       -2.2180     1.2920     0.2410 C.3   1 <1>  -0.1600 
  6 C       -3.0160     0.0400    -0.1850 C.3   1 <1>  -0.0800 
  7 C       -4.4740     0.0730     0.3510 C.3   1 <1>  -0.0800 
  8 C       -5.2810    -1.1620    -0.0820 C.3   1 <1>  -0.2400 
  9 C       -5.2370     1.3240    -0.1170 C.3   1 <1>  -0.2400 
 10 H        0.8710    -0.0240     0.1260 H     1 <1>   0.4500 
 11 H       -0.2030     0.0120     1.3850 H     1 <1>   0.4500 
 12 H       -0.3060    -2.1080     0.2480 H     1 <1>   0.0800 
 13 H       -0.7300    -1.2620    -1.2230 H     1 <1>   0.0800 
 14 H       -0.6860     1.2310    -1.2580 H     1 <1>   0.0800 
 15 H       -0.2320     2.1020     0.1890 H     1 <1>   0.0800 
 16 H       -2.3270    -1.3270     1.3460 H     1 <1>   0.0800 
 17 H       -2.7190    -2.1000    -0.1550 H     1 <1>   0.0800 
 18 H       -2.6440     2.1680    -0.2150 H     1 <1>   0.0800 
 19 H       -2.2780     1.4240     1.3070 H     1 <1>   0.0800 
 20 H       -3.0620     0.0260    -1.2620 H     1 <1>   0.0800 
 21 H       -4.4510     0.0880     1.4290 H     1 <1>   0.0800 
 22 H       -5.2670    -1.2730    -1.1520 H     1 <1>   0.0800 
 23 H       -6.3070    -1.0670     0.2310 H     1 <1>   0.0800 
 24 H       -4.8990    -2.0600     0.3690 H     1 <1>   0.0800 
 25 H       -5.2190     1.4040    -1.1900 H     1 <1>   0.0800 
 26 H       -4.8240     2.2200     0.3090 H     1 <1>   0.0800 
 27 H       -6.2650     1.2740     0.1980 H     1 <1>   0.0800 
@<TRIPOS>BOND
  1   1   2  1   
  2   1   3  1   
  3   1  10  1   
  4   1  11  1   
  5   2   4  1   
  6   2  12  1   
  7   2  13  1   
  8   3   5  1   
  9   3  14  1   
 10   3  15  1   
 11   4   6  1   
 12   4  16  1   
 13   4  17  1   
 14   5   6  1   
 15   5  18  1   
 16   5  19  1   
 17   6   7  1   
 18   6  20  1   
 19   7   8  1   
 20   7   9  1   
 21   7  21  1   
 22   8  22  1   
 23   8  23  1   
 24   8  24  1   
 25   9  25  1   
 26   9  26  1   
 27   9  27  1   
@<TRIPOS>SUBSTRUCTURE
  1 ****   6 GROUP 4 **** **** 0

# MOE 2024.06 (io_trps.svl 2023.06)
