@<TRIPOS>MOLECULE
NONAME
40 41 1 0 0 
SMALL
USER_CHARGES


@<TRIPOS>ATOM
  1 O       -1.6770     2.0520     2.1310 O.3   1 <1>  -0.3630 
  2 C       -0.8120     2.5590     1.2130 C.ar  1 <1>   0.0830 
  3 C       -2.4810     0.9170     1.8890 C.3   1 <1>   0.1200 
  4 C       -0.6080     2.0180    -0.0540 C.ar  1 <1>  -0.1500 
  5 C       -0.1040     3.6870     1.5960 C.ar  1 <1>  -0.1500 
  6 C       -3.7030     1.3180     1.0550 C.3   1 <1>  -0.1600 
  7 C        0.2970     2.6130    -0.9280 C.ar  1 <1>   0.0830 
  8 C        0.8000     4.2770     0.7320 C.ar  1 <1>  -0.1500 
  9 C       -4.5700     0.0980     0.7510 C.3   1 <1>   0.1200 
 10 O        0.5460     2.1570    -2.1820 O.3   1 <1>  -0.3630 
 11 C        0.9980     3.7390    -0.5270 C.ar  1 <1>  -0.1500 
 12 O       -5.6200     0.5070    -0.0920 O.3   1 <1>  -0.3630 
 13 C       -0.1940     1.0940    -2.7390 C.3   1 <1>   0.0400 
 14 C       -6.5180    -0.3830    -0.5830 C.ar  1 <1>   0.0830 
 15 C       -6.5330    -1.7360    -0.2510 C.ar  1 <1>  -0.1500 
 16 C       -7.4650     0.1110    -1.4650 C.ar  1 <1>  -0.1500 
 17 C       -7.4830    -2.5820    -0.8020 C.ar  1 <1>  -0.1430 
 18 C       -8.4150    -0.7290    -2.0150 C.ar  1 <1>  -0.1500 
 19 C       -8.4230    -2.0730    -1.6840 C.ar  1 <1>  -0.1500 
 20 C       -7.5050    -4.0570    -0.4430 C.3   1 <1>  -0.0970 
 21 H       -2.7980     0.5470     2.8480 H     1 <1>   0.0800 
 22 H       -1.8850     0.1600     1.4120 H     1 <1>   0.0800 
 23 H       -1.1460     1.1460    -0.3590 H     1 <1>   0.1500 
 24 H       -0.2660     4.0990     2.5760 H     1 <1>   0.1500 
 25 H       -3.3880     1.7580     0.1270 H     1 <1>   0.0800 
 26 H       -4.2850     2.0360     1.6050 H     1 <1>   0.0800 
 27 H        1.3470     5.1520     1.0370 H     1 <1>   0.1500 
 28 H       -4.9970    -0.3060     1.6530 H     1 <1>   0.0800 
 29 H       -4.0000    -0.6560     0.2350 H     1 <1>   0.0800 
 30 H        1.6970     4.1900    -1.2080 H     1 <1>   0.1500 
 31 H        0.1440     0.9460    -3.7490 H     1 <1>   0.0800 
 32 H       -1.2380     1.3570    -2.7380 H     1 <1>   0.0800 
 33 H       -0.0180     0.2040    -2.1620 H     1 <1>   0.0800 
 34 H       -5.8160    -2.1440     0.4340 H     1 <1>   0.1500 
 35 H       -7.4500     1.1560    -1.7160 H     1 <1>   0.1500 
 36 H       -9.1480    -0.3380    -2.7000 H     1 <1>   0.1500 
 37 H       -9.1670    -2.7200    -2.1150 H     1 <1>   0.1500 
 38 H       -7.7660    -4.6460    -1.3050 H     1 <1>   0.0800 
 39 H       -8.2330    -4.2320     0.3290 H     1 <1>   0.0800 
 40 H       -6.5420    -4.3790    -0.0920 H     1 <1>   0.0800 
@<TRIPOS>BOND
  1   1   2  1   
  2   1   3  1   
  3   2   4  ar  
  4   2   5  ar  
  5   3   6  1   
  6   3  21  1   
  7   3  22  1   
  8   4   7  ar  
  9   4  23  1   
 10   5   8  ar  
 11   5  24  1   
 12   6   9  1   
 13   6  25  1   
 14   6  26  1   
 15   7  10  1   
 16   7  11  ar  
 17   8  11  ar  
 18   8  27  1   
 19   9  12  1   
 20   9  28  1   
 21   9  29  1   
 22  10  13  1   
 23  11  30  1   
 24  12  14  1   
 25  13  31  1   
 26  13  32  1   
 27  13  33  1   
 28  14  15  ar  
 29  14  16  ar  
 30  15  17  ar  
 31  15  34  1   
 32  16  18  ar  
 33  16  35  1   
 34  17  19  ar  
 35  17  20  1   
 36  18  19  ar  
 37  18  36  1   
 38  19  37  1   
 39  20  38  1   
 40  20  39  1   
 41  20  40  1   
@<TRIPOS>SUBSTRUCTURE
  1 ****   6 GROUP 4 **** **** 0

# MOE 2024.06 (io_trps.svl 2023.06)
