@<TRIPOS>MOLECULE
NONAME
51 52 1 0 0 
SMALL
USER_CHARGES


@<TRIPOS>ATOM
  1 O       -4.4290    11.1550     1.8130 O.2   1 <1>  -0.5700 
  2 C       -4.6600    11.9050     0.9010 C.2   1 <1>   0.6590 
  3 O       -3.7270    12.6630     0.3460 O.3   1 <1>  -0.4300 
  4 C       -6.0590    12.0500     0.3260 C.3   1 <1>  -0.0190 
  5 C       -2.3880    12.6290     0.7880 C.3   1 <1>   0.1200 
  6 C       -7.0590    11.2870     1.2150 C.3   1 <1>   0.3430 
  7 C       -6.1480    11.5850    -1.1410 C.3   1 <1>  -0.1600 
  8 C       -1.5870    13.6120    -0.0600 C.3   1 <1>  -0.2400 
  9 N       -8.2840    10.8320     0.4690 N.4   1 <1>  -0.9590 
 10 C       -7.5760    11.7720    -1.6950 C.3   1 <1>  -0.1600 
 11 C       -8.6760    11.7620    -0.6250 C.3   1 <1>   0.3430 
 12 C       -9.3880    10.4520     1.3960 C.3   1 <1>   0.3430 
 13 C      -10.4300     9.5440     0.7250 C.3   1 <1>  -0.0990 
 14 C       -9.8340     8.2380     0.2350 C.2   1 <1>   0.5690 
 15 O       -8.7560     8.2800    -0.3070 O.2   1 <1>  -0.5700 
 16 N      -10.5510     7.0900     0.4120 N.am  1 <1>  -0.5470 
 17 C      -10.2260     5.7630     0.0840 C.ar  1 <1>   0.1170 
 18 C       -8.9150     5.3010     0.0120 C.ar  1 <1>  -0.1500 
 19 C      -11.2570     4.8630    -0.1600 C.ar  1 <1>  -0.1500 
 20 C       -8.6470     3.9810    -0.3010 C.ar  1 <1>  -0.1500 
 21 C      -10.9940     3.5410    -0.4730 C.ar  1 <1>  -0.1500 
 22 C       -9.6790     3.0920    -0.5460 C.ar  1 <1>   0.0820 
 23 O       -9.3280     1.8140    -0.8470 O.3   1 <1>  -0.3620 
 24 C      -10.3070     0.8420    -1.1410 C.3   1 <1>   0.0400 
 25 H       -6.3010    13.0960     0.3700 H     1 <1>   0.0800 
 26 H       -2.0140    11.6260     0.6720 H     1 <1>   0.0800 
 27 H       -2.3630    12.9070     1.8280 H     1 <1>   0.0800 
 28 H       -7.3400    11.9220     2.0390 H     1 <1>   0.0800 
 29 H       -6.5730    10.4160     1.6270 H     1 <1>   0.0800 
 30 H       -5.8790    10.5420    -1.1930 H     1 <1>   0.0800 
 31 H       -5.4470    12.1290    -1.7520 H     1 <1>   0.0800 
 32 H       -1.6280    13.3290    -1.0970 H     1 <1>   0.0800 
 33 H       -0.5590    13.6060     0.2550 H     1 <1>   0.0800 
 34 H       -1.9730    14.6080     0.0580 H     1 <1>   0.0800 
 35 H       -8.0230     9.9400    -0.0100 H     1 <1>   0.4500 
 36 H       -7.7770    10.9980    -2.4170 H     1 <1>   0.0800 
 37 H       -7.6360    12.7090    -2.2220 H     1 <1>   0.0800 
 38 H       -8.8010    12.7550    -0.2230 H     1 <1>   0.0800 
 39 H       -9.6070    11.4570    -1.0740 H     1 <1>   0.0800 
 40 H       -9.8680    11.3420     1.7720 H     1 <1>   0.0800 
 41 H       -8.9720     9.9200     2.2380 H     1 <1>   0.0800 
 42 H      -10.8970    10.0500    -0.0980 H     1 <1>   0.0800 
 43 H      -11.1960     9.3290     1.4470 H     1 <1>   0.0800 
 44 H      -11.4960     7.1940     0.7810 H     1 <1>   0.3700 
 45 H       -8.0930     5.9650     0.2020 H     1 <1>   0.1500 
 46 H      -12.2780     5.1940    -0.1110 H     1 <1>   0.1500 
 47 H       -7.6320     3.6300    -0.3580 H     1 <1>   0.1500 
 48 H      -11.8190     2.8790    -0.6570 H     1 <1>   0.1500 
 49 H       -9.8030    -0.0830    -1.3590 H     1 <1>   0.0800 
 50 H      -10.8690     1.1620    -2.0000 H     1 <1>   0.0800 
 51 H      -10.9450     0.7180    -0.2840 H     1 <1>   0.0800 
@<TRIPOS>BOND
  1   1   2  2   
  2   2   3  1   
  3   2   4  1   
  4   3   5  1   
  5   4   6  1   
  6   4   7  1   
  7   4  25  1   
  8   5   8  1   
  9   5  26  1   
 10   5  27  1   
 11   6   9  1   
 12   6  28  1   
 13   6  29  1   
 14   7  10  1   
 15   7  30  1   
 16   7  31  1   
 17   8  32  1   
 18   8  33  1   
 19   8  34  1   
 20   9  11  1   
 21   9  12  1   
 22   9  35  1   
 23  10  11  1   
 24  10  36  1   
 25  10  37  1   
 26  11  38  1   
 27  11  39  1   
 28  12  13  1   
 29  12  40  1   
 30  12  41  1   
 31  13  14  1   
 32  13  42  1   
 33  13  43  1   
 34  14  15  2   
 35  14  16  am  
 36  16  17  1   
 37  16  44  1   
 38  17  18  ar  
 39  17  19  ar  
 40  18  20  ar  
 41  18  45  1   
 42  19  21  ar  
 43  19  46  1   
 44  20  22  ar  
 45  20  47  1   
 46  21  22  ar  
 47  21  48  1   
 48  22  23  1   
 49  23  24  1   
 50  24  49  1   
 51  24  50  1   
 52  24  51  1   
@<TRIPOS>SUBSTRUCTURE
  1 ****  15 GROUP 4 **** **** 0

# MOE 2024.06 (io_trps.svl 2023.06)
