@<TRIPOS>MOLECULE
NONAME
35 36 1 0 0 
SMALL
USER_CHARGES


@<TRIPOS>ATOM
  1 F        1.8750    -1.1650    -1.6590 F     1 <1>  -0.1900 
  2 C        1.6700    -1.6280    -0.4550 C.ar  1 <1>   0.1900 
  3 C        2.7570    -1.9320     0.3650 C.ar  1 <1>   0.0860 
  4 C        0.3550    -1.7980    -0.0650 C.ar  1 <1>  -0.1500 
  5 C        4.1380    -1.7390    -0.0360 C.2   1 <1>   0.5440 
  6 C        2.4480    -2.4500     1.6260 C.ar  1 <1>  -0.1500 
  7 C        0.0880    -2.3010     1.1950 C.ar  1 <1>  -0.1500 
  8 O        5.0090    -2.4980     0.3490 O.2   1 <1>  -0.5700 
  9 N        4.5630    -0.6540    -0.7650 N.am  1 <1>  -0.6600 
 10 C        1.1380    -2.6290     2.0370 C.ar  1 <1>  -0.1500 
 11 C        5.6770    -0.7840    -1.7580 C.3   1 <1>   0.1400 
 12 C        4.2460     0.7270    -0.3330 C.3   1 <1>   0.1400 
 13 C        7.0750    -0.8260    -1.1020 C.3   1 <1>   0.3430 
 14 C        5.1600     1.1260     0.8340 C.3   1 <1>  -0.1600 
 15 N        7.0390    -0.4380     0.3440 N.4   1 <1>  -0.9590 
 16 C        6.6640     0.9880     0.5630 C.3   1 <1>   0.3430 
 17 C        8.2880    -0.8290     1.0550 C.3   1 <1>   0.2630 
 18 H       -0.4450    -1.5430    -0.7380 H     1 <1>   0.1500 
 19 H        3.2490    -2.7210     2.2920 H     1 <1>   0.1500 
 20 H       -0.9300    -2.4420     1.5190 H     1 <1>   0.1500 
 21 H        0.9310    -3.0290     3.0160 H     1 <1>   0.1500 
 22 H        5.6330     0.0320    -2.4580 H     1 <1>   0.0800 
 23 H        5.5360    -1.6890    -2.3240 H     1 <1>   0.0800 
 24 H        3.2160     0.7830    -0.0220 H     1 <1>   0.0800 
 25 H        4.3720     1.4050    -1.1610 H     1 <1>   0.0800 
 26 H        7.7550    -0.1930    -1.6480 H     1 <1>   0.0800 
 27 H        7.4380    -1.8380    -1.1810 H     1 <1>   0.0800 
 28 H        4.8990     0.5550     1.7070 H     1 <1>   0.0800 
 29 H        4.9580     2.1560     1.0690 H     1 <1>   0.0800 
 30 H        6.2550    -1.0250     0.7060 H     1 <1>   0.4500 
 31 H        7.1970     1.3700     1.4190 H     1 <1>   0.0800 
 32 H        6.9420     1.5810    -0.2930 H     1 <1>   0.0800 
 33 H        9.1300    -0.2770     0.6700 H     1 <1>   0.0800 
 34 H        8.4730    -1.8840     0.9250 H     1 <1>   0.0800 
 35 H        8.1940    -0.6280     2.1100 H     1 <1>   0.0800 
@<TRIPOS>BOND
  1   1   2  1   
  2   2   3  ar  
  3   2   4  ar  
  4   3   5  1   
  5   3   6  ar  
  6   4   7  ar  
  7   4  18  1   
  8   5   8  2   
  9   5   9  am  
 10   6  10  ar  
 11   6  19  1   
 12   7  10  ar  
 13   7  20  1   
 14   9  11  1   
 15   9  12  1   
 16  10  21  1   
 17  11  13  1   
 18  11  22  1   
 19  11  23  1   
 20  12  14  1   
 21  12  24  1   
 22  12  25  1   
 23  13  15  1   
 24  13  26  1   
 25  13  27  1   
 26  14  16  1   
 27  14  28  1   
 28  14  29  1   
 29  15  16  1   
 30  15  17  1   
 31  15  30  1   
 32  16  31  1   
 33  16  32  1   
 34  17  33  1   
 35  17  34  1   
 36  17  35  1   
@<TRIPOS>SUBSTRUCTURE
  1 ****   5 GROUP 4 **** **** 0

# MOE 2024.06 (io_trps.svl 2023.06)
