@<TRIPOS>MOLECULE
NONAME
44 47 1 0 0 
SMALL
USER_CHARGES


@<TRIPOS>ATOM
  1 N       -0.0820     0.1160     0.7910 N.4   1 <1>  -0.9590 
  2 C       -1.4510     0.0320     0.2380 C.3   1 <1>   0.3430 
  3 C        1.0430    -0.5450     0.1090 C.3   1 <1>   0.3430 
  4 C        0.2170     1.0260     1.9050 C.3   1 <1>   0.3430 
  5 C       -1.5400     1.1890    -0.8150 C.3   1 <1>   0.1100 
  6 C        1.8170     0.6070    -0.5960 C.3   1 <1>   0.0000 
  7 C        0.9630     2.1950     1.2180 C.3   1 <1>  -0.0800 
  8 N       -0.2790     2.0320    -0.9840 N.3   1 <1>  -0.8100 
  9 C        2.2270     1.6300     0.5210 C.3   1 <1>   0.4230 
 10 C        0.8750     1.3280    -1.6190 C.3   1 <1>   0.1100 
 11 C        3.0220    -0.0110    -1.3640 C.3   1 <1>  -0.0170 
 12 C        0.0560     2.9110     0.1750 C.3   1 <1>   0.1100 
 13 N        3.0890     2.7340     0.0140 N.4   1 <1>  -0.8530 
 14 C        4.3380     0.1060    -0.6090 C.ar  1 <1>  -0.1430 
 15 C        5.3430     0.9260    -1.1060 C.ar  1 <1>  -0.1500 
 16 C        4.5470    -0.5820     0.5780 C.ar  1 <1>  -0.1500 
 17 C        6.5170     1.0990    -0.3960 C.ar  1 <1>  -0.1500 
 18 C        5.7220    -0.4080     1.2860 C.ar  1 <1>  -0.1500 
 19 C        6.7030     0.4390     0.8040 C.ar  1 <1>  -0.1500 
 20 H        0.0220     0.9000     0.1590 H     1 <1>   0.4500 
 21 H       -2.1900     0.1680     1.0120 H     1 <1>   0.0800 
 22 H       -1.6190    -0.9230    -0.2340 H     1 <1>   0.0800 
 23 H        0.6780    -1.2580    -0.6150 H     1 <1>   0.0800 
 24 H        1.6650    -1.0620     0.8230 H     1 <1>   0.0800 
 25 H       -0.6930     1.3700     2.3730 H     1 <1>   0.0800 
 26 H        0.8320     0.5350     2.6450 H     1 <1>   0.0800 
 27 H       -2.3590     1.8360    -0.5450 H     1 <1>   0.0800 
 28 H       -1.8060     0.7630    -1.7700 H     1 <1>   0.0800 
 29 H        1.2480     2.8950     1.9840 H     1 <1>   0.0800 
 30 H        2.7950     1.0940     1.2660 H     1 <1>   0.0800 
 31 H        1.4390     2.0620    -2.1730 H     1 <1>   0.0800 
 32 H        0.5050     0.6220    -2.3470 H     1 <1>   0.0800 
 33 H        3.1390     0.4760    -2.3180 H     1 <1>   0.0800 
 34 H        2.8440    -1.0500    -1.5910 H     1 <1>   0.0800 
 35 H        0.5530     3.7900    -0.2000 H     1 <1>   0.0800 
 36 H       -0.8550     3.2550     0.6420 H     1 <1>   0.0800 
 37 H        2.6630     3.2560    -0.7610 H     1 <1>   0.4500 
 38 H        3.9820     2.3310    -0.3180 H     1 <1>   0.4500 
 39 H        3.3440     3.4010     0.7530 H     1 <1>   0.4500 
 40 H        5.2390     1.4290    -2.0550 H     1 <1>   0.1500 
 41 H        3.8180    -1.2710     0.9670 H     1 <1>   0.1500 
 42 H        7.3000     1.7330    -0.7820 H     1 <1>   0.1500 
 43 H        5.8880    -0.9410     2.2080 H     1 <1>   0.1500 
 44 H        7.6210     0.5690     1.3550 H     1 <1>   0.1500 
@<TRIPOS>BOND
  1   1   2  1   
  2   1   3  1   
  3   1   4  1   
  4   1  20  1   
  5   2   5  1   
  6   2  21  1   
  7   2  22  1   
  8   3   6  1   
  9   3  23  1   
 10   3  24  1   
 11   4   7  1   
 12   4  25  1   
 13   4  26  1   
 14   5   8  1   
 15   5  27  1   
 16   5  28  1   
 17   6   9  1   
 18   6  10  1   
 19   6  11  1   
 20   7   9  1   
 21   7  12  1   
 22   7  29  1   
 23   8  10  1   
 24   8  12  1   
 25   9  13  1   
 26   9  30  1   
 27  10  31  1   
 28  10  32  1   
 29  11  14  1   
 30  11  33  1   
 31  11  34  1   
 32  12  35  1   
 33  12  36  1   
 34  13  37  1   
 35  13  38  1   
 36  13  39  1   
 37  14  15  ar  
 38  14  16  ar  
 39  15  17  ar  
 40  15  40  1   
 41  16  18  ar  
 42  16  41  1   
 43  17  19  ar  
 44  17  42  1   
 45  18  19  ar  
 46  18  43  1   
 47  19  44  1   
@<TRIPOS>SUBSTRUCTURE
  1 ****   6 GROUP 4 **** **** 0

# MOE 2024.06 (io_trps.svl 2023.06)
