@<TRIPOS>MOLECULE
NONAME
38 40 1 0 0 
SMALL
USER_CHARGES


@<TRIPOS>ATOM
  1 O        0.4670    -0.9220     1.8700 O.2   1 <1>  -0.5700 
  2 C        0.3950    -1.9110     1.1760 C.2   1 <1>   0.7060 
  3 O        1.4720    -2.2740     0.4910 O.3   1 <1>  -0.4300 
  4 C       -0.7710    -2.7020     1.0540 C.2   1 <1>  -0.1360 
  5 C        1.6010    -3.6020     0.0290 C.3   1 <1>   0.5600 
  6 C       -0.8010    -3.7860     0.2480 C.2   1 <1>   0.0480 
  7 O        0.3360    -4.0990    -0.3970 O.3   1 <1>  -0.3570 
  8 C        2.1350    -4.4760     1.1850 C.3   1 <1>  -0.1600 
  9 C        2.5300    -3.5940    -1.1990 C.3   1 <1>  -0.1600 
 10 C       -1.9310    -4.6510    -0.0020 C.ar  1 <1>   0.0280 
 11 C        2.9910    -5.6450     0.6750 C.3   1 <1>  -0.1600 
 12 C        4.0030    -3.7910    -0.8100 C.3   1 <1>  -0.1600 
 13 C       -1.7540    -5.9830    -0.3820 C.ar  1 <1>  -0.1500 
 14 C       -3.2440    -4.1960     0.1280 C.ar  1 <1>  -0.1500 
 15 C        4.2240    -5.1430    -0.1020 C.3   1 <1>  -0.1600 
 16 C       -2.8300    -6.8170    -0.6130 C.ar  1 <1>  -0.1500 
 17 C       -4.3280    -5.0250    -0.1000 C.ar  1 <1>  -0.1500 
 18 C       -4.1260    -6.3500    -0.4730 C.ar  1 <1>   0.0820 
 19 O       -5.1260    -7.2280    -0.7140 O.3   1 <1>  -0.3630 
 20 C       -6.4830    -6.8560    -0.6150 C.3   1 <1>   0.0400 
 21 H       -1.6140    -2.3800     1.6310 H     1 <1>   0.1500 
 22 H        1.3180    -4.8520     1.7740 H     1 <1>   0.0800 
 23 H        2.7540    -3.8710     1.8240 H     1 <1>   0.0800 
 24 H        2.4080    -2.6720    -1.7380 H     1 <1>   0.0800 
 25 H        2.2510    -4.4010    -1.8540 H     1 <1>   0.0800 
 26 H        2.3870    -6.2590     0.0270 H     1 <1>   0.0800 
 27 H        3.3100    -6.2590     1.5000 H     1 <1>   0.0800 
 28 H        4.2940    -2.9910    -0.1500 H     1 <1>   0.0800 
 29 H        4.6290    -3.7330    -1.6840 H     1 <1>   0.0800 
 30 H       -0.7580    -6.3710    -0.4980 H     1 <1>   0.1500 
 31 H       -3.4260    -3.1740     0.4060 H     1 <1>   0.1500 
 32 H        4.4940    -5.8880    -0.8310 H     1 <1>   0.0800 
 33 H        5.0560    -5.0410     0.5730 H     1 <1>   0.0800 
 34 H       -2.6750    -7.8400    -0.9040 H     1 <1>   0.1500 
 35 H       -5.3180    -4.6270     0.0140 H     1 <1>   0.1500 
 36 H       -7.0830    -7.7150    -0.8540 H     1 <1>   0.0800 
 37 H       -6.6800    -6.0650    -1.3170 H     1 <1>   0.0800 
 38 H       -6.6850    -6.5380     0.3930 H     1 <1>   0.0800 
@<TRIPOS>BOND
  1   1   2  2   
  2   2   3  1   
  3   2   4  1   
  4   3   5  1   
  5   4   6  2   
  6   4  21  1   
  7   5   7  1   
  8   5   8  1   
  9   5   9  1   
 10   6   7  1   
 11   6  10  1   
 12   8  11  1   
 13   8  22  1   
 14   8  23  1   
 15   9  12  1   
 16   9  24  1   
 17   9  25  1   
 18  10  13  ar  
 19  10  14  ar  
 20  11  15  1   
 21  11  26  1   
 22  11  27  1   
 23  12  15  1   
 24  12  28  1   
 25  12  29  1   
 26  13  16  ar  
 27  13  30  1   
 28  14  17  ar  
 29  14  31  1   
 30  15  32  1   
 31  15  33  1   
 32  16  18  ar  
 33  16  34  1   
 34  17  18  ar  
 35  17  35  1   
 36  18  19  1   
 37  19  20  1   
 38  20  36  1   
 39  20  37  1   
 40  20  38  1   
@<TRIPOS>SUBSTRUCTURE
  1 ****   6 GROUP 4 **** **** 0

# MOE 2024.06 (io_trps.svl 2023.06)
