@<TRIPOS>MOLECULE
NONAME
48 48 1 0 0 
SMALL
USER_CHARGES


@<TRIPOS>ATOM
  1 O        3.0830    -1.6440     1.7550 O.co2 1 <1>  -0.9000 
  2 C        3.7870    -0.6670     1.5030 C.2   1 <1>   0.9060 
  3 O        4.8730    -0.4610     2.0560 O.co2 1 <1>  -0.9000 
  4 C        3.3270     0.3000     0.4400 C.3   1 <1>  -0.2660 
  5 C        3.7830    -0.1110    -0.9790 C.3   1 <1>  -0.0990 
  6 C        5.2510     0.1350    -1.3000 C.2   1 <1>   0.5690 
  7 O        5.5450     0.4810    -2.4210 O.2   1 <1>  -0.5700 
  8 N        6.1810    -0.0370    -0.3350 N.am  1 <1>  -0.7300 
  9 C        7.6210     0.2090    -0.4340 C.3   1 <1>   0.2200 
 10 C        8.3650    -1.0850    -0.0670 C.3   1 <1>  -0.1600 
 11 C        7.9610     1.4060     0.4680 C.3   1 <1>  -0.1600 
 12 C        9.8570    -1.0480    -0.4690 C.3   1 <1>  -0.1600 
 13 C        7.8070     2.7370    -0.2890 C.3   1 <1>  -0.1600 
 14 C       10.8060    -0.8350     0.7240 C.3   1 <1>  -0.1600 
 15 C        8.3600     3.9520     0.4760 C.3   1 <1>  -0.1600 
 16 C       12.1550    -0.2050     0.3170 C.3   1 <1>  -0.1600 
 17 C        9.8450     4.2860     0.2070 C.3   1 <1>  -0.1600 
 18 C       12.2900     1.2610     0.7680 C.3   1 <1>  -0.1600 
 19 C       10.8650     3.3620     0.8960 C.3   1 <1>  -0.1600 
 20 C       11.4070     2.2500    -0.0190 C.3   1 <1>  -0.1600 
 21 H        3.6940     1.2790     0.6820 H     1 <1>   0.0800 
 22 H        2.2550     0.3220     0.4780 H     1 <1>   0.0800 
 23 H        3.1990     0.4370    -1.6950 H     1 <1>   0.0800 
 24 H        3.5780    -1.1560    -1.1260 H     1 <1>   0.0800 
 25 H        5.8480    -0.2660     0.6260 H     1 <1>   0.3700 
 26 H        7.8560     0.4480    -1.4580 H     1 <1>   0.0800 
 27 H        7.9000    -1.8880    -0.6120 H     1 <1>   0.0800 
 28 H        8.2460    -1.2960     0.9820 H     1 <1>   0.0800 
 29 H        8.9610     1.3180     0.8220 H     1 <1>   0.0800 
 30 H        7.3290     1.3970     1.3410 H     1 <1>   0.0800 
 31 H       10.0050    -0.2890    -1.2160 H     1 <1>   0.0800 
 32 H       10.1130    -1.9850    -0.9330 H     1 <1>   0.0800 
 33 H        6.7560     2.8860    -0.4690 H     1 <1>   0.0800 
 34 H        8.2860     2.6760    -1.2510 H     1 <1>   0.0800 
 35 H       10.9890    -1.7960     1.1740 H     1 <1>   0.0800 
 36 H       10.3400    -0.2350     1.4840 H     1 <1>   0.0800 
 37 H        8.1850     3.8350     1.5320 H     1 <1>   0.0800 
 38 H        7.7860     4.8060     0.1620 H     1 <1>   0.0800 
 39 H       12.3200    -0.2870    -0.7440 H     1 <1>   0.0800 
 40 H       12.9390    -0.7650     0.7990 H     1 <1>   0.0800 
 41 H       10.0110     5.2790     0.5870 H     1 <1>   0.0800 
 42 H       10.0310     4.3280    -0.8530 H     1 <1>   0.0800 
 43 H       13.3170     1.5670     0.6610 H     1 <1>   0.0800 
 44 H       12.0630     1.3100     1.8190 H     1 <1>   0.0800 
 45 H       10.4170     2.9370     1.7790 H     1 <1>   0.0800 
 46 H       11.7020     3.9560     1.2220 H     1 <1>   0.0800 
 47 H       10.5910     1.7400    -0.4870 H     1 <1>   0.0800 
 48 H       11.9870     2.6870    -0.8130 H     1 <1>   0.0800 
@<TRIPOS>BOND
  1   1   2  ar  
  2   2   3  ar  
  3   2   4  1   
  4   4   5  1   
  5   4  21  1   
  6   4  22  1   
  7   5   6  1   
  8   5  23  1   
  9   5  24  1   
 10   6   7  2   
 11   6   8  am  
 12   8   9  1   
 13   8  25  1   
 14   9  10  1   
 15   9  11  1   
 16   9  26  1   
 17  10  12  1   
 18  10  27  1   
 19  10  28  1   
 20  11  13  1   
 21  11  29  1   
 22  11  30  1   
 23  12  14  1   
 24  12  31  1   
 25  12  32  1   
 26  13  15  1   
 27  13  33  1   
 28  13  34  1   
 29  14  16  1   
 30  14  35  1   
 31  14  36  1   
 32  15  17  1   
 33  15  37  1   
 34  15  38  1   
 35  16  18  1   
 36  16  39  1   
 37  16  40  1   
 38  17  19  1   
 39  17  41  1   
 40  17  42  1   
 41  18  20  1   
 42  18  43  1   
 43  18  44  1   
 44  19  20  1   
 45  19  45  1   
 46  19  46  1   
 47  20  47  1   
 48  20  48  1   
@<TRIPOS>SUBSTRUCTURE
  1 ****   9 GROUP 4 **** **** 0

# MOE 2024.06 (io_trps.svl 2023.06)
