@<TRIPOS>MOLECULE
NONAME
45 46 1 0 0 
SMALL
USER_CHARGES


@<TRIPOS>ATOM
  1 O       -0.9870    -1.6600    -2.1120 O.2   1 <1>  -0.5700 
  2 C       -0.9060    -2.2100    -1.0300 C.2   1 <1>   0.7800 
  3 O        0.2610    -2.7230    -0.6370 O.3   1 <1>  -0.4300 
  4 N       -1.9730    -2.3330    -0.1820 N.am  1 <1>  -0.6600 
  5 C        1.4020    -2.6340    -1.4590 C.3   1 <1>   0.1200 
  6 C       -1.9110    -3.0430     1.1310 C.3   1 <1>   0.1400 
  7 C       -3.3370    -1.8540    -0.5540 C.3   1 <1>   0.1400 
  8 C        2.5610    -3.3130    -0.7340 C.3   1 <1>  -0.2400 
  9 C       -2.9250    -4.1950     1.1750 C.3   1 <1>   0.1400 
 10 C       -4.3600    -2.9990    -0.4960 C.3   1 <1>   0.1400 
 11 N       -4.2960    -3.7160     0.8170 N.am  1 <1>  -0.6600 
 12 C       -5.3910    -3.9500     1.6250 C.2   1 <1>   0.5440 
 13 O       -5.2150    -4.4670     2.7140 O.2   1 <1>  -0.5700 
 14 C       -6.7370    -3.5710     1.2490 C.ar  1 <1>   0.0860 
 15 C       -7.3920    -4.1230     0.1440 C.ar  1 <1>   0.0820 
 16 C       -7.4290    -2.6320     2.0140 C.ar  1 <1>  -0.1500 
 17 O       -6.7500    -5.0410    -0.6130 O.3   1 <1>  -0.3630 
 18 C       -8.6890    -3.7300    -0.1980 C.ar  1 <1>   0.0820 
 19 C       -8.7120    -2.2400     1.6880 C.ar  1 <1>  -0.1500 
 20 C       -6.9820    -6.3900    -0.2810 C.3   1 <1>   0.0400 
 21 O       -9.2630    -4.3020    -1.2950 O.3   1 <1>  -0.3630 
 22 C       -9.3430    -2.7840     0.5830 C.ar  1 <1>  -0.1500 
 23 C      -10.5500    -3.9310    -1.7370 C.3   1 <1>   0.0400 
 24 H        1.6130    -1.5930    -1.6370 H     1 <1>   0.0800 
 25 H        1.1880    -3.1260    -2.3930 H     1 <1>   0.0800 
 26 H       -2.1390    -2.3460     1.9190 H     1 <1>   0.0800 
 27 H       -0.9260    -3.4340     1.3120 H     1 <1>   0.0800 
 28 H       -3.3340    -1.4350    -1.5450 H     1 <1>   0.0800 
 29 H       -3.6340    -1.0790     0.1300 H     1 <1>   0.0800 
 30 H        2.7540    -2.8170     0.2000 H     1 <1>   0.0800 
 31 H        3.4470    -3.2600    -1.3400 H     1 <1>   0.0800 
 32 H        2.3290    -4.3470    -0.5540 H     1 <1>   0.0800 
 33 H       -2.9160    -4.6330     2.1580 H     1 <1>   0.0800 
 34 H       -2.6270    -4.9560     0.4760 H     1 <1>   0.0800 
 35 H       -4.1550    -3.7000    -1.2870 H     1 <1>   0.0800 
 36 H       -5.3400    -2.5940    -0.6650 H     1 <1>   0.0800 
 37 H       -6.9420    -2.2140     2.8790 H     1 <1>   0.1500 
 38 H       -9.2230    -1.5120     2.2950 H     1 <1>   0.1500 
 39 H       -6.4150    -7.0050    -0.9560 H     1 <1>   0.0800 
 40 H       -8.0320    -6.5980    -0.3860 H     1 <1>   0.0800 
 41 H       -6.6620    -6.5600     0.7320 H     1 <1>   0.0800 
 42 H      -10.3400    -2.4580     0.3540 H     1 <1>   0.1500 
 43 H      -10.7740    -4.4990    -2.6220 H     1 <1>   0.0800 
 44 H      -10.5510    -2.8810    -1.9690 H     1 <1>   0.0800 
 45 H      -11.2640    -4.1600    -0.9660 H     1 <1>   0.0800 
@<TRIPOS>BOND
  1   1   2  2   
  2   2   3  1   
  3   2   4  am  
  4   3   5  1   
  5   4   6  1   
  6   4   7  1   
  7   5   8  1   
  8   5  24  1   
  9   5  25  1   
 10   6   9  1   
 11   6  26  1   
 12   6  27  1   
 13   7  10  1   
 14   7  28  1   
 15   7  29  1   
 16   8  30  1   
 17   8  31  1   
 18   8  32  1   
 19   9  11  1   
 20   9  33  1   
 21   9  34  1   
 22  10  11  1   
 23  10  35  1   
 24  10  36  1   
 25  11  12  am  
 26  12  13  2   
 27  12  14  1   
 28  14  15  ar  
 29  14  16  ar  
 30  15  17  1   
 31  15  18  ar  
 32  16  19  ar  
 33  16  37  1   
 34  17  20  1   
 35  18  21  1   
 36  18  22  ar  
 37  19  22  ar  
 38  19  38  1   
 39  20  39  1   
 40  20  40  1   
 41  20  41  1   
 42  21  23  1   
 43  22  42  1   
 44  23  43  1   
 45  23  44  1   
 46  23  45  1   
@<TRIPOS>SUBSTRUCTURE
  1 ****  10 GROUP 4 **** **** 0

# MOE 2024.06 (io_trps.svl 2023.06)
