@<TRIPOS>MOLECULE
NONAME
46 48 1 0 0 
SMALL
USER_CHARGES


@<TRIPOS>ATOM
  1 CL       2.6320     1.2560    -1.3290 Cl    1 <1>  -0.1770 
  2 C        3.4660    -0.0860    -0.5910 C.ar  1 <1>   0.1770 
  3 C        4.4320     0.1570     0.3660 C.ar  1 <1>  -0.1500 
  4 C        3.1510    -1.3750    -0.9720 C.ar  1 <1>  -0.1500 
  5 C        5.0920    -0.9130     0.9470 C.ar  1 <1>  -0.1500 
  6 C        3.8180    -2.4360    -0.3820 C.ar  1 <1>  -0.1500 
  7 C        4.8000    -2.2260     0.5830 C.ar  1 <1>  -0.0090 
  8 S        5.6670    -3.6270     1.3450 S.o2  1 <1>   1.4470 
  9 O        4.7180    -4.4250     2.0910 O.2   1 <1>  -0.6500 
 10 O        6.8790    -3.1730     1.9960 O.2   1 <1>  -0.6500 
 11 N        6.1530    -4.5530     0.0110 N.am  1 <1>  -0.8490 
 12 C        7.2430    -3.9310    -0.7740 C.3   1 <1>   0.1960 
 13 C        6.3780    -5.9600     0.3850 C.3   1 <1>   0.1960 
 14 C        8.6110    -4.5470    -0.4510 C.3   1 <1>  -0.0190 
 15 C        7.2290    -6.6920    -0.6590 C.3   1 <1>  -0.1600 
 16 C        9.7150    -3.7830    -1.1630 C.2   1 <1>   0.5690 
 17 C        8.6220    -6.0500    -0.8120 C.3   1 <1>  -0.1600 
 18 O        9.5630    -3.4440    -2.3110 O.2   1 <1>  -0.5700 
 19 N       10.8520    -3.4990    -0.4860 N.am  1 <1>  -0.7300 
 20 C       12.0110    -2.8030    -1.0650 C.3   1 <1>   0.2840 
 21 C       13.2460    -3.2420    -0.3030 C.ar  1 <1>  -0.1430 
 22 C       13.9710    -4.3560    -0.6760 C.ar  1 <1>  -0.1500 
 23 C       13.7040    -2.5560     0.8040 C.ar  1 <1>  -0.1500 
 24 C       15.0890    -4.7200     0.0560 C.ar  1 <1>   0.1600 
 25 C       14.8350    -3.0060     1.4670 C.ar  1 <1>   0.1600 
 26 N       15.5370    -4.0720     1.1190 N.ar  1 <1>  -0.6200 
 27 H        4.6600     1.1690     0.6490 H     1 <1>   0.1500 
 28 H        2.3940    -1.5430    -1.7180 H     1 <1>   0.1500 
 29 H        5.8450    -0.7270     1.6960 H     1 <1>   0.1500 
 30 H        3.5760    -3.4450    -0.6730 H     1 <1>   0.1500 
 31 H        7.2720    -2.8660    -0.6080 H     1 <1>   0.0800 
 32 H        7.0380    -4.0820    -1.8210 H     1 <1>   0.0800 
 33 H        5.4250    -6.4520     0.4940 H     1 <1>   0.0800 
 34 H        6.8830    -6.0080     1.3370 H     1 <1>   0.0800 
 35 H        8.7700    -4.4400     0.6070 H     1 <1>   0.0800 
 36 H        6.7070    -6.6630    -1.6000 H     1 <1>   0.0800 
 37 H        7.3350    -7.7250    -0.3810 H     1 <1>   0.0800 
 38 H        9.3300    -6.5520    -0.1760 H     1 <1>   0.0800 
 39 H        8.9470    -6.1810    -1.8310 H     1 <1>   0.0800 
 40 H       10.9830    -3.8100     0.4780 H     1 <1>   0.3700 
 41 H       11.8720    -1.7390    -0.9760 H     1 <1>   0.0800 
 42 H       12.1040    -3.0490    -2.1100 H     1 <1>   0.0800 
 43 H       13.6760    -4.9440    -1.5260 H     1 <1>   0.1500 
 44 H       13.1940    -1.6790     1.1590 H     1 <1>   0.1500 
 45 H       15.6440    -5.5920    -0.2490 H     1 <1>   0.1500 
 46 H       15.1790    -2.4600     2.3290 H     1 <1>   0.1500 
@<TRIPOS>BOND
  1   1   2  1   
  2   2   3  ar  
  3   2   4  ar  
  4   3   5  ar  
  5   3  27  1   
  6   4   6  ar  
  7   4  28  1   
  8   5   7  ar  
  9   5  29  1   
 10   6   7  ar  
 11   6  30  1   
 12   7   8  1   
 13   8   9  2   
 14   8  10  2   
 15   8  11  am  
 16  11  12  1   
 17  11  13  1   
 18  12  14  1   
 19  12  31  1   
 20  12  32  1   
 21  13  15  1   
 22  13  33  1   
 23  13  34  1   
 24  14  16  1   
 25  14  17  1   
 26  14  35  1   
 27  15  17  1   
 28  15  36  1   
 29  15  37  1   
 30  16  18  2   
 31  16  19  am  
 32  17  38  1   
 33  17  39  1   
 34  19  20  1   
 35  19  40  1   
 36  20  21  1   
 37  20  41  1   
 38  20  42  1   
 39  21  22  ar  
 40  21  23  ar  
 41  22  24  ar  
 42  22  43  1   
 43  23  25  ar  
 44  23  44  1   
 45  24  26  ar  
 46  24  45  1   
 47  25  26  ar  
 48  25  46  1   
@<TRIPOS>SUBSTRUCTURE
  1 ****  14 GROUP 4 **** **** 0

# MOE 2024.06 (io_trps.svl 2023.06)
