@<TRIPOS>MOLECULE
NONAME
37 38 1 0 0 
SMALL
USER_CHARGES


@<TRIPOS>ATOM
  1 CL      -1.0760     0.0910     2.1020 Cl    1 <1>  -0.1770 
  2 C       -2.3070    -0.7390     1.1890 C.ar  1 <1>   0.1770 
  3 C       -2.3940    -0.5360    -0.1750 C.ar  1 <1>  -0.1500 
  4 C       -3.1790    -1.5890     1.8420 C.ar  1 <1>  -0.1500 
  5 C       -3.3750    -1.1930    -0.8980 C.ar  1 <1>  -0.1500 
  6 C       -4.1590    -2.2450     1.1160 C.ar  1 <1>  -0.1500 
  7 C       -4.2660    -2.0450    -0.2560 C.ar  1 <1>  -0.1430 
  8 C       -5.3540    -2.7490    -1.0450 C.3   1 <1>   0.4870 
  9 N       -6.6530    -2.1080    -0.7170 N.4   1 <1>  -0.9590 
 10 C       -7.8240    -2.9140    -1.1210 C.3   1 <1>   0.3430 
 11 C       -6.7550    -0.7060    -1.1760 C.3   1 <1>   0.3430 
 12 C       -8.3790    -3.5950     0.1260 C.3   1 <1>  -0.1600 
 13 C       -7.1570     0.1630     0.0150 C.3   1 <1>  -0.1600 
 14 C       -9.1950    -2.6730     1.0530 C.3   1 <1>  -0.1600 
 15 C       -8.5020    -0.1960     0.6780 C.3   1 <1>  -0.1600 
 16 C       -8.4840    -1.4250     1.6150 C.3   1 <1>  -0.1600 
 17 H       -1.6960     0.1270    -0.6570 H     1 <1>   0.1500 
 18 H       -3.0820    -1.7320     2.9040 H     1 <1>   0.1500 
 19 H       -3.4290    -1.0300    -1.9620 H     1 <1>   0.1500 
 20 H       -4.8280    -2.9120     1.6360 H     1 <1>   0.1500 
 21 H       -5.3740    -3.7900    -0.7660 H     1 <1>   0.0800 
 22 H       -5.1560    -2.6800    -2.1020 H     1 <1>   0.0800 
 23 H       -6.7000    -2.0420     0.3070 H     1 <1>   0.4500 
 24 H       -7.5360    -3.6520    -1.8520 H     1 <1>   0.0800 
 25 H       -8.5890    -2.2870    -1.5520 H     1 <1>   0.0800 
 26 H       -7.4870    -0.6170    -1.9630 H     1 <1>   0.0800 
 27 H       -5.8060    -0.3640    -1.5550 H     1 <1>   0.0800 
 28 H       -7.5860    -4.0710     0.6770 H     1 <1>   0.0800 
 29 H       -9.0380    -4.3810    -0.2010 H     1 <1>   0.0800 
 30 H       -7.2310     1.1740    -0.3480 H     1 <1>   0.0800 
 31 H       -6.3680     0.1640     0.7490 H     1 <1>   0.0800 
 32 H       -9.5080    -3.2710     1.8930 H     1 <1>   0.0800 
 33 H      -10.1010    -2.3710     0.5520 H     1 <1>   0.0800 
 34 H       -9.2720    -0.2910    -0.0690 H     1 <1>   0.0800 
 35 H       -8.7800     0.6520     1.2830 H     1 <1>   0.0800 
 36 H       -7.4920    -1.6570     1.9600 H     1 <1>   0.0800 
 37 H       -9.0370    -1.1410     2.4960 H     1 <1>   0.0800 
@<TRIPOS>BOND
  1   1   2  1   
  2   2   3  ar  
  3   2   4  ar  
  4   3   5  ar  
  5   3  17  1   
  6   4   6  ar  
  7   4  18  1   
  8   5   7  ar  
  9   5  19  1   
 10   6   7  ar  
 11   6  20  1   
 12   7   8  1   
 13   8   9  1   
 14   8  21  1   
 15   8  22  1   
 16   9  10  1   
 17   9  11  1   
 18   9  23  1   
 19  10  12  1   
 20  10  24  1   
 21  10  25  1   
 22  11  13  1   
 23  11  26  1   
 24  11  27  1   
 25  12  14  1   
 26  12  28  1   
 27  12  29  1   
 28  13  15  1   
 29  13  30  1   
 30  13  31  1   
 31  14  16  1   
 32  14  32  1   
 33  14  33  1   
 34  15  16  1   
 35  15  34  1   
 36  15  35  1   
 37  16  36  1   
 38  16  37  1   
@<TRIPOS>SUBSTRUCTURE
  1 ****   7 GROUP 4 **** **** 0

# MOE 2024.06 (io_trps.svl 2023.06)
