@<TRIPOS>MOLECULE
NONAME
32 33 1 0 0 
SMALL
USER_CHARGES


@<TRIPOS>ATOM
  1 I       -0.7830    -0.6610    -0.0590 I     1 <1>  -0.0810 
  2 C        1.2650    -1.2250    -0.0510 C.ar  1 <1>   0.0810 
  3 C        1.8270    -1.7150    -1.2140 C.ar  1 <1>  -0.1500 
  4 C        1.9880    -1.0930     1.1190 C.ar  1 <1>  -0.1500 
  5 C        3.1620    -2.0760    -1.1980 C.ar  1 <1>  -0.1500 
  6 C        3.3220    -1.4620     1.1130 C.ar  1 <1>  -0.1500 
  7 C        3.9420    -1.9520    -0.0430 C.ar  1 <1>   0.0860 
  8 C        5.3490    -2.3200    -0.0520 C.2   1 <1>   0.5440 
  9 O        5.7850    -3.1150    -0.8630 O.2   1 <1>  -0.5700 
 10 N        6.2590    -1.7420     0.8030 N.am  1 <1>  -0.6600 
 11 C        7.4950    -2.5020     1.1530 C.3   1 <1>   0.1400 
 12 C        6.4720    -0.2690     0.7390 C.3   1 <1>   0.1400 
 13 C        8.6070    -2.1910     0.1340 C.3   1 <1>   0.3430 
 14 C        7.6050     0.0580    -0.2590 C.3   1 <1>   0.3430 
 15 N        8.8750    -0.7080     0.0300 N.4   1 <1>  -0.9590 
 16 C        9.9060    -0.4380    -1.0170 C.3   1 <1>   0.2630 
 17 H        1.2360    -1.8140    -2.1090 H     1 <1>   0.1500 
 18 H        1.5190    -0.7170     2.0110 H     1 <1>   0.1500 
 19 H        3.6130    -2.4670    -2.0950 H     1 <1>   0.1500 
 20 H        3.8900    -1.3750     2.0220 H     1 <1>   0.1500 
 21 H        7.2850    -3.5590     1.1390 H     1 <1>   0.0800 
 22 H        7.8130    -2.2440     2.1480 H     1 <1>   0.0800 
 23 H        6.7210     0.1030     1.7190 H     1 <1>   0.0800 
 24 H        5.5680     0.2220     0.4210 H     1 <1>   0.0800 
 25 H        8.2940    -2.5740    -0.8250 H     1 <1>   0.0800 
 26 H        9.5060    -2.7110     0.4210 H     1 <1>   0.0800 
 27 H        7.8030     1.1170    -0.2350 H     1 <1>   0.0800 
 28 H        7.2580    -0.1900    -1.2490 H     1 <1>   0.0800 
 29 H        9.2350    -0.3920     0.9410 H     1 <1>   0.4500 
 30 H        9.5550    -0.7680    -1.9820 H     1 <1>   0.0800 
 31 H       10.8200    -0.9610    -0.7870 H     1 <1>   0.0800 
 32 H       10.1200     0.6180    -1.0700 H     1 <1>   0.0800 
@<TRIPOS>BOND
  1   1   2  1   
  2   2   3  ar  
  3   2   4  ar  
  4   3   5  ar  
  5   3  17  1   
  6   4   6  ar  
  7   4  18  1   
  8   5   7  ar  
  9   5  19  1   
 10   6   7  ar  
 11   6  20  1   
 12   7   8  1   
 13   8   9  2   
 14   8  10  am  
 15  10  11  1   
 16  10  12  1   
 17  11  13  1   
 18  11  21  1   
 19  11  22  1   
 20  12  14  1   
 21  12  23  1   
 22  12  24  1   
 23  13  15  1   
 24  13  25  1   
 25  13  26  1   
 26  14  15  1   
 27  14  27  1   
 28  14  28  1   
 29  15  16  1   
 30  15  29  1   
 31  16  30  1   
 32  16  31  1   
 33  16  32  1   
@<TRIPOS>SUBSTRUCTURE
  1 ****   8 GROUP 4 **** **** 0

# MOE 2024.06 (io_trps.svl 2023.06)
