@<TRIPOS>MOLECULE
NONAME
59 61 1 0 0 
SMALL
USER_CHARGES


@<TRIPOS>ATOM
  1 O       -2.7280     0.1040     1.2210 O.3   1 <1>  -0.5600 
  2 C       -2.5600    -0.2390    -0.1210 C.3   1 <1>   0.2800 
  3 C       -3.8480    -0.4010     1.8890 C.3   1 <1>   0.1200 
  4 C       -3.7050     0.3760    -0.9580 C.3   1 <1>  -0.1600 
  5 C       -2.4750    -1.7670    -0.2650 C.3   1 <1>  -0.2400 
  6 C       -1.2150     0.3620    -0.5340 C.3   1 <1>  -0.2400 
  7 C       -5.1380    -0.1940     1.0780 C.3   1 <1>  -0.1600 
  8 C       -5.0140     0.7010    -0.1820 C.3   1 <1>   0.1440 
  9 C       -6.2360     0.4000    -1.0950 C.ar  1 <1>  -0.1440 
 10 C       -5.0050     2.2050     0.2310 C.3   1 <1>  -0.1600 
 11 C       -7.2130     1.3410    -1.4240 C.ar  1 <1>  -0.1500 
 12 C       -6.3910    -0.8810    -1.6230 C.ar  1 <1>  -0.1500 
 13 C       -3.8150     2.6470     1.0790 C.3   1 <1>   0.3430 
 14 C       -8.2830     1.0160    -2.2400 C.ar  1 <1>  -0.1500 
 15 C       -7.4580    -1.2110    -2.4390 C.ar  1 <1>  -0.1500 
 16 N       -3.8390     4.1180     1.2720 N.4   1 <1>  -0.9060 
 17 C       -8.4080    -0.2600    -2.7500 C.ar  1 <1>  -0.1500 
 18 C       -2.7090     4.5840     2.1150 C.3   1 <1>   0.4860 
 19 C       -1.4090     4.2140     1.4290 C.ar  1 <1>  -0.1440 
 20 C       -1.0240     4.8630     0.2660 C.ar  1 <1>  -0.1500 
 21 C       -0.6010     3.2120     1.9460 C.ar  1 <1>  -0.1500 
 22 C        0.1400     4.5220    -0.4000 C.ar  1 <1>   0.0820 
 23 C        0.5720     2.8630     1.3010 C.ar  1 <1>  -0.1500 
 24 O        0.3600     5.2450    -1.5350 O.3   1 <1>  -0.3630 
 25 C        0.9480     3.5010     0.1290 C.ar  1 <1>   0.0820 
 26 C        1.5750     5.2010    -2.2510 C.3   1 <1>   0.0400 
 27 O        2.0940     3.0830    -0.4490 O.3   1 <1>  -0.5320 
 28 H       -3.9130     0.1090     2.8340 H     1 <1>   0.0800 
 29 H       -3.6840    -1.4460     2.0920 H     1 <1>   0.0800 
 30 H       -3.8990    -0.2990    -1.7700 H     1 <1>   0.0800 
 31 H       -3.3590     1.2680    -1.4480 H     1 <1>   0.0800 
 32 H       -3.4230    -2.2370    -0.0820 H     1 <1>   0.0800 
 33 H       -1.7420    -2.1650     0.4140 H     1 <1>   0.0800 
 34 H       -2.1780    -2.0240    -1.2660 H     1 <1>   0.0800 
 35 H       -1.2240     1.4300    -0.4330 H     1 <1>   0.0800 
 36 H       -1.0020     0.1250    -1.5610 H     1 <1>   0.0800 
 37 H       -0.4260    -0.0400     0.0750 H     1 <1>   0.0800 
 38 H       -5.9110     0.1810     1.7240 H     1 <1>   0.0800 
 39 H       -5.4650    -1.1760     0.7930 H     1 <1>   0.0800 
 40 H       -5.9050     2.4150     0.7820 H     1 <1>   0.0800 
 41 H       -5.0050     2.7940    -0.6690 H     1 <1>   0.0800 
 42 H       -7.1860     2.3500    -1.0640 H     1 <1>   0.1500 
 43 H       -5.6750    -1.6540    -1.4060 H     1 <1>   0.1500 
 44 H       -2.8990     2.3630     0.5840 H     1 <1>   0.0800 
 45 H       -3.8420     2.1480     2.0330 H     1 <1>   0.0800 
 46 H       -9.0240     1.7590    -2.4800 H     1 <1>   0.1500 
 47 H       -7.5490    -2.2090    -2.8310 H     1 <1>   0.1500 
 48 H       -4.7330     4.4100     1.6780 H     1 <1>   0.4500 
 49 H       -3.7440     4.5610     0.3510 H     1 <1>   0.4500 
 50 H       -9.2400    -0.5120    -3.3850 H     1 <1>   0.1500 
 51 H       -2.7540     4.1220     3.0880 H     1 <1>   0.0800 
 52 H       -2.7540     5.6540     2.2420 H     1 <1>   0.0800 
 53 H       -1.6180     5.6560    -0.1530 H     1 <1>   0.1500 
 54 H       -0.8700     2.6890     2.8490 H     1 <1>   0.1500 
 55 H        1.1860     2.0840     1.7150 H     1 <1>   0.1500 
 56 H        1.5350     5.9410    -3.0280 H     1 <1>   0.0800 
 57 H        1.6890     4.2230    -2.6840 H     1 <1>   0.0800 
 58 H        2.3860     5.4190    -1.5780 H     1 <1>   0.0800 
 59 H        2.5480     2.3850     0.0540 H     1 <1>   0.4500 
@<TRIPOS>BOND
  1   1   2  1   
  2   1   3  1   
  3   2   4  1   
  4   2   5  1   
  5   2   6  1   
  6   3   7  1   
  7   3  28  1   
  8   3  29  1   
  9   4   8  1   
 10   4  30  1   
 11   4  31  1   
 12   5  32  1   
 13   5  33  1   
 14   5  34  1   
 15   6  35  1   
 16   6  36  1   
 17   6  37  1   
 18   7   8  1   
 19   7  38  1   
 20   7  39  1   
 21   8   9  1   
 22   8  10  1   
 23   9  11  ar  
 24   9  12  ar  
 25  10  13  1   
 26  10  40  1   
 27  10  41  1   
 28  11  14  ar  
 29  11  42  1   
 30  12  15  ar  
 31  12  43  1   
 32  13  16  1   
 33  13  44  1   
 34  13  45  1   
 35  14  17  ar  
 36  14  46  1   
 37  15  17  ar  
 38  15  47  1   
 39  16  18  1   
 40  16  48  1   
 41  16  49  1   
 42  17  50  1   
 43  18  19  1   
 44  18  51  1   
 45  18  52  1   
 46  19  20  ar  
 47  19  21  ar  
 48  20  22  ar  
 49  20  53  1   
 50  21  23  ar  
 51  21  54  1   
 52  22  24  1   
 53  22  25  ar  
 54  23  25  ar  
 55  23  55  1   
 56  24  26  1   
 57  25  27  1   
 58  26  56  1   
 59  26  57  1   
 60  26  58  1   
 61  27  59  1   
@<TRIPOS>SUBSTRUCTURE
  1 ****  13 GROUP 4 **** **** 0

# MOE 2024.06 (io_trps.svl 2023.06)
