@<TRIPOS>MOLECULE
NONAME
46 48 1 0 0 
SMALL
USER_CHARGES


@<TRIPOS>ATOM
  1 S        0.1410    -0.5090     1.3870 S.o2  1 <1>   1.4470 
  2 O        0.0490    -1.9220     1.6860 O.2   1 <1>  -0.6500 
  3 O        0.1330     0.4460     2.4740 O.2   1 <1>  -0.6500 
  4 N       -1.1610    -0.1160     0.3770 N.am  1 <1>  -0.8490 
  5 C        1.5800    -0.2380     0.3140 C.ar  1 <1>  -0.0090 
  6 C       -1.2590     1.3290     0.1370 C.3   1 <1>   0.1960 
  7 C       -2.4220    -0.6440     0.9060 C.3   1 <1>   0.1960 
  8 C        2.3630     0.9020     0.4320 C.ar  1 <1>  -0.1500 
  9 C        1.9140    -1.1570    -0.6720 C.ar  1 <1>  -0.1500 
 10 C       -2.3470     1.6220    -0.8990 C.3   1 <1>  -0.1600 
 11 C       -3.5590    -0.4120    -0.0940 C.3   1 <1>  -0.1600 
 12 C        3.4590     1.1490    -0.3920 C.ar  1 <1>   0.0860 
 13 C        2.9930    -0.9430    -1.5100 C.ar  1 <1>  -0.1500 
 14 C       -3.7060     1.0740    -0.4450 C.3   1 <1>  -0.0800 
 15 C        4.2480     2.3530    -0.2250 C.2   1 <1>   0.5440 
 16 C        3.7560     0.2000    -1.3700 C.ar  1 <1>  -0.1500 
 17 C       -4.7690     1.2780    -1.5300 C.3   1 <1>  -0.2400 
 18 O        3.7120     3.3960     0.0850 O.2   1 <1>  -0.5700 
 19 N        5.6050     2.2890    -0.4020 N.am  1 <1>  -0.5470 
 20 C        6.6170     3.2200    -0.3600 C.ar  1 <1>   0.4270 
 21 N        7.8110     2.6570    -0.4620 N.ar  1 <1>  -0.6200 
 22 C        6.4270     4.5960    -0.2370 C.ar  1 <1>  -0.1500 
 23 C        8.8460     3.4810    -0.4330 C.ar  1 <1>   0.1600 
 24 C        7.5120     5.4410    -0.2090 C.ar  1 <1>  -0.1500 
 25 C        8.7570     4.8560    -0.3100 C.ar  1 <1>  -0.1500 
 26 H       -0.3200     1.7040    -0.2330 H     1 <1>   0.0800 
 27 H       -1.4860     1.8420     1.0580 H     1 <1>   0.0800 
 28 H       -2.6510    -0.1690     1.8460 H     1 <1>   0.0800 
 29 H       -2.3310    -1.7040     1.0790 H     1 <1>   0.0800 
 30 H        2.1180     1.6290     1.1900 H     1 <1>   0.1500 
 31 H        1.3170    -2.0480    -0.7850 H     1 <1>   0.1500 
 32 H       -2.0610     1.1760    -1.8350 H     1 <1>   0.0800 
 33 H       -2.4160     2.6850    -1.0470 H     1 <1>   0.0800 
 34 H       -4.4780    -0.7790     0.3270 H     1 <1>   0.0800 
 35 H       -3.3530    -0.9830    -0.9830 H     1 <1>   0.0800 
 36 H        3.2340    -1.6670    -2.2710 H     1 <1>   0.1500 
 37 H       -4.0140     1.6070     0.4400 H     1 <1>   0.0800 
 38 H        4.5850     0.3610    -2.0380 H     1 <1>   0.1500 
 39 H       -4.4960     0.7580    -2.4320 H     1 <1>   0.0800 
 40 H       -4.8750     2.3240    -1.7560 H     1 <1>   0.0800 
 41 H       -5.7210     0.9060    -1.1950 H     1 <1>   0.0800 
 42 H        5.9950     1.3590    -0.5200 H     1 <1>   0.3700 
 43 H        5.4380     5.0050    -0.1640 H     1 <1>   0.1500 
 44 H        9.8230     3.0360    -0.5120 H     1 <1>   0.1500 
 45 H        7.3940     6.5070    -0.1130 H     1 <1>   0.1500 
 46 H        9.6470     5.4590    -0.2950 H     1 <1>   0.1500 
@<TRIPOS>BOND
  1   1   2  2   
  2   1   3  2   
  3   1   4  am  
  4   1   5  1   
  5   4   6  1   
  6   4   7  1   
  7   5   8  ar  
  8   5   9  ar  
  9   6  10  1   
 10   6  26  1   
 11   6  27  1   
 12   7  11  1   
 13   7  28  1   
 14   7  29  1   
 15   8  12  ar  
 16   8  30  1   
 17   9  13  ar  
 18   9  31  1   
 19  10  14  1   
 20  10  32  1   
 21  10  33  1   
 22  11  14  1   
 23  11  34  1   
 24  11  35  1   
 25  12  15  1   
 26  12  16  ar  
 27  13  16  ar  
 28  13  36  1   
 29  14  17  1   
 30  14  37  1   
 31  15  18  2   
 32  15  19  am  
 33  16  38  1   
 34  17  39  1   
 35  17  40  1   
 36  17  41  1   
 37  19  20  1   
 38  19  42  1   
 39  20  21  ar  
 40  20  22  ar  
 41  21  23  ar  
 42  22  24  ar  
 43  22  43  1   
 44  23  25  ar  
 45  23  44  1   
 46  24  25  ar  
 47  24  45  1   
 48  25  46  1   
@<TRIPOS>SUBSTRUCTURE
  1 ****   8 GROUP 4 **** **** 0

# MOE 2024.06 (io_trps.svl 2023.06)
