@<TRIPOS>MOLECULE
NONAME
44 45 1 0 0 
SMALL
USER_CHARGES


@<TRIPOS>ATOM
  1 CL      -0.1780     1.6630    -1.4730 Cl    1 <1>  -0.1770 
  2 C       -1.8020     1.8610    -0.8650 C.ar  1 <1>   0.1770 
  3 C       -2.0780     2.6820     0.2180 C.ar  1 <1>  -0.0090 
  4 C       -2.8020     1.1650    -1.5180 C.ar  1 <1>  -0.1500 
  5 S       -0.7690     3.6000     1.0640 S.o2  1 <1>   1.4470 
  6 C       -3.4040     2.7820     0.6220 C.ar  1 <1>  -0.1500 
  7 C       -4.1120     1.2830    -1.0930 C.ar  1 <1>  -0.1500 
  8 O        0.2940     2.6940     1.4380 O.2   1 <1>  -0.6500 
  9 O       -1.3570     4.4300     2.0940 O.2   1 <1>  -0.6500 
 10 N       -0.1920     4.6530    -0.1330 N.am  1 <1>  -0.8490 
 11 C       -4.4440     2.0950    -0.0080 C.ar  1 <1>   0.0860 
 12 C       -1.0860     5.7950    -0.3510 C.3   1 <1>   0.1960 
 13 C        1.1770     5.0940     0.1440 C.3   1 <1>   0.1960 
 14 C       -5.8130     2.2360     0.4530 C.2   1 <1>   0.5440 
 15 C       -0.6210     6.6060    -1.5640 C.3   1 <1>  -0.1600 
 16 C        1.7260     5.8980    -1.0410 C.3   1 <1>  -0.1600 
 17 O       -6.1990     3.2860     0.9230 O.2   1 <1>  -0.5700 
 18 N       -6.6920     1.1920     0.3700 N.am  1 <1>  -0.7300 
 19 C        0.8230     7.0880    -1.3850 C.3   1 <1>  -0.1600 
 20 C       -8.0840     1.2120     0.8960 C.3   1 <1>   0.1400 
 21 C       -8.9990     2.0200    -0.0250 C.3   1 <1>   0.1200 
 22 O      -10.3180     1.8180     0.3780 O.3   1 <1>  -0.5600 
 23 C      -11.2410     2.5800    -0.3300 C.3   1 <1>   0.0400 
 24 H       -2.5500     0.5390    -2.3560 H     1 <1>   0.1500 
 25 H       -3.6520     3.4170     1.4590 H     1 <1>   0.1500 
 26 H       -4.8850     0.7480    -1.6160 H     1 <1>   0.1500 
 27 H       -1.1000     6.4250     0.5240 H     1 <1>   0.0800 
 28 H       -2.0900     5.4450    -0.5290 H     1 <1>   0.0800 
 29 H        1.8140     4.2380     0.2960 H     1 <1>   0.0800 
 30 H        1.1940     5.6920     1.0410 H     1 <1>   0.0800 
 31 H       -1.2710     7.4520    -1.6990 H     1 <1>   0.0800 
 32 H       -0.6940     5.9890    -2.4430 H     1 <1>   0.0800 
 33 H        1.8030     5.2430    -1.8920 H     1 <1>   0.0800 
 34 H        2.7150     6.2480    -0.8060 H     1 <1>   0.0800 
 35 H       -6.3520     0.2740     0.0800 H     1 <1>   0.3700 
 36 H        0.8640     7.8110    -0.5880 H     1 <1>   0.0800 
 37 H        1.1680     7.5640    -2.2880 H     1 <1>   0.0800 
 38 H       -8.0880     1.6580     1.8760 H     1 <1>   0.0800 
 39 H       -8.4500     0.2030     0.9680 H     1 <1>   0.0800 
 40 H       -8.9020     1.6850    -1.0420 H     1 <1>   0.0800 
 41 H       -8.7650     3.0680     0.0510 H     1 <1>   0.0800 
 42 H      -12.2230     2.3520     0.0470 H     1 <1>   0.0800 
 43 H      -11.1850     2.3280    -1.3750 H     1 <1>   0.0800 
 44 H      -11.0290     3.6250    -0.1790 H     1 <1>   0.0800 
@<TRIPOS>BOND
  1   1   2  1   
  2   2   3  ar  
  3   2   4  ar  
  4   3   5  1   
  5   3   6  ar  
  6   4   7  ar  
  7   4  24  1   
  8   5   8  2   
  9   5   9  2   
 10   5  10  am  
 11   6  11  ar  
 12   6  25  1   
 13   7  11  ar  
 14   7  26  1   
 15  10  12  1   
 16  10  13  1   
 17  11  14  1   
 18  12  15  1   
 19  12  27  1   
 20  12  28  1   
 21  13  16  1   
 22  13  29  1   
 23  13  30  1   
 24  14  17  2   
 25  14  18  am  
 26  15  19  1   
 27  15  31  1   
 28  15  32  1   
 29  16  19  1   
 30  16  33  1   
 31  16  34  1   
 32  18  20  1   
 33  18  35  1   
 34  19  36  1   
 35  19  37  1   
 36  20  21  1   
 37  20  38  1   
 38  20  39  1   
 39  21  22  1   
 40  21  40  1   
 41  21  41  1   
 42  22  23  1   
 43  23  42  1   
 44  23  43  1   
 45  23  44  1   
@<TRIPOS>SUBSTRUCTURE
  1 ****   6 GROUP 4 **** **** 0

# MOE 2024.06 (io_trps.svl 2023.06)
