@<TRIPOS>MOLECULE
NONAME
54 56 1 0 0 
SMALL
USER_CHARGES


@<TRIPOS>ATOM
  1 O        0.1440     0.3290    -0.0700 O.2   1 <1>  -0.5700 
  2 C       -1.0440     0.4250     0.1480 C.2   1 <1>   0.5690 
  3 N       -1.9140    -0.6290     0.2150 N.am  1 <1>  -0.4770 
  4 C       -1.8220     1.7540     0.3220 C.3   1 <1>   0.4850 
  5 C       -3.2200    -0.1640     0.3640 C.ar  1 <1>   0.1170 
  6 C       -1.4970    -2.0470     0.1150 C.3   1 <1>   0.1400 
  7 O       -1.7560     2.5720    -0.8040 O.3   1 <1>  -0.6800 
  8 C       -3.2430     1.2180     0.4100 C.ar  1 <1>  -0.1430 
  9 C       -1.4610     2.5720     1.5650 C.3   1 <1>  -0.0990 
 10 C       -4.4040    -0.8830     0.4490 C.ar  1 <1>  -0.1500 
 11 C       -1.3180    -2.4760    -1.3490 C.3   1 <1>  -0.1600 
 12 C       -4.4370     1.9070     0.5270 C.ar  1 <1>  -0.1500 
 13 C        0.0360     2.7330     1.7560 C.2   1 <1>   0.4230 
 14 C       -5.6030    -0.1990     0.5720 C.ar  1 <1>  -0.1500 
 15 C       -2.6130    -2.4240    -2.1720 C.3   1 <1>  -0.2400 
 16 C       -5.6200     1.1880     0.6090 C.ar  1 <1>  -0.1500 
 17 O        0.5070     2.1310     2.6880 O.2   1 <1>  -0.5700 
 18 C        0.8380     3.5700     0.8840 C.ar  1 <1>   0.0860 
 19 C        0.3240     4.6320     0.1390 C.ar  1 <1>  -0.1500 
 20 C        2.2070     3.3390     0.7660 C.ar  1 <1>  -0.1500 
 21 C        1.1300     5.4090    -0.6710 C.ar  1 <1>  -0.1500 
 22 C        3.0170     4.1140    -0.0420 C.ar  1 <1>  -0.1500 
 23 C        2.4950     5.1700    -0.7820 C.ar  1 <1>  -0.1430 
 24 C        3.3540     6.0640    -1.7030 C.3   1 <1>   0.1430 
 25 C        2.8380     5.9620    -3.1460 C.3   1 <1>  -0.2400 
 26 C        4.8410     5.6690    -1.7130 C.3   1 <1>  -0.2400 
 27 C        3.2660     7.5230    -1.2300 C.3   1 <1>  -0.2400 
 28 H       -2.2220    -2.6750     0.6020 H     1 <1>   0.0800 
 29 H       -0.5590    -2.1640     0.6320 H     1 <1>   0.0800 
 30 H       -1.9020     2.0190    -1.5960 H     1 <1>   0.4000 
 31 H       -1.8400     2.0470     2.4240 H     1 <1>   0.0800 
 32 H       -1.9510     3.5260     1.5430 H     1 <1>   0.0800 
 33 H       -4.3930    -1.9560     0.4160 H     1 <1>   0.1500 
 34 H       -0.9450    -3.4850    -1.3600 H     1 <1>   0.0800 
 35 H       -0.5690    -1.8540    -1.8080 H     1 <1>   0.0800 
 36 H       -4.4490     2.9830     0.5530 H     1 <1>   0.1500 
 37 H       -6.5280    -0.7460     0.6380 H     1 <1>   0.1500 
 38 H       -3.3710    -3.0410    -1.7240 H     1 <1>   0.0800 
 39 H       -2.4270    -2.7810    -3.1690 H     1 <1>   0.0800 
 40 H       -2.9810    -1.4150    -2.2400 H     1 <1>   0.0800 
 41 H       -6.5580     1.7090     0.7010 H     1 <1>   0.1500 
 42 H       -0.7240     4.8630     0.1830 H     1 <1>   0.1500 
 43 H        2.6410     2.5270     1.3230 H     1 <1>   0.1500 
 44 H        0.6760     6.2110    -1.2240 H     1 <1>   0.1500 
 45 H        4.0610     3.8670    -0.0770 H     1 <1>   0.1500 
 46 H        2.8640     4.9380    -3.4720 H     1 <1>   0.0800 
 47 H        3.4460     6.5500    -3.8100 H     1 <1>   0.0800 
 48 H        1.8250     6.3130    -3.2210 H     1 <1>   0.0800 
 49 H        5.2600     5.7500    -0.7260 H     1 <1>   0.0800 
 50 H        5.4000     6.3150    -2.3660 H     1 <1>   0.0800 
 51 H        4.9600     4.6590    -2.0630 H     1 <1>   0.0800 
 52 H        3.8870     8.1570    -1.8370 H     1 <1>   0.0800 
 53 H        2.2580     7.8900    -1.2890 H     1 <1>   0.0800 
 54 H        3.5930     7.5990    -0.2090 H     1 <1>   0.0800 
@<TRIPOS>BOND
  1   1   2  2   
  2   2   3  am  
  3   2   4  1   
  4   3   5  1   
  5   3   6  1   
  6   4   7  1   
  7   4   8  1   
  8   4   9  1   
  9   5   8  ar  
 10   5  10  ar  
 11   6  11  1   
 12   6  28  1   
 13   6  29  1   
 14   7  30  1   
 15   8  12  ar  
 16   9  13  1   
 17   9  31  1   
 18   9  32  1   
 19  10  14  ar  
 20  10  33  1   
 21  11  15  1   
 22  11  34  1   
 23  11  35  1   
 24  12  16  ar  
 25  12  36  1   
 26  13  17  2   
 27  13  18  1   
 28  14  16  ar  
 29  14  37  1   
 30  15  38  1   
 31  15  39  1   
 32  15  40  1   
 33  16  41  1   
 34  18  19  ar  
 35  18  20  ar  
 36  19  21  ar  
 37  19  42  1   
 38  20  22  ar  
 39  20  43  1   
 40  21  23  ar  
 41  21  44  1   
 42  22  23  ar  
 43  22  45  1   
 44  23  24  1   
 45  24  25  1   
 46  24  26  1   
 47  24  27  1   
 48  25  46  1   
 49  25  47  1   
 50  25  48  1   
 51  26  49  1   
 52  26  50  1   
 53  26  51  1   
 54  27  52  1   
 55  27  53  1   
 56  27  54  1   
@<TRIPOS>SUBSTRUCTURE
  1 ****   4 GROUP 4 **** **** 0

# MOE 2024.06 (io_trps.svl 2023.06)
