@<TRIPOS>MOLECULE
NONAME
41 42 1 0 0 
SMALL
USER_CHARGES


@<TRIPOS>ATOM
  1 O        1.4480    -0.6810    -0.7520 O.2   1 <1>  -0.5700 
  2 C        0.8980    -1.7600    -0.7350 C.2   1 <1>   0.5690 
  3 N        1.5360    -2.8570    -1.2080 N.am  1 <1>  -0.4300 
  4 C       -0.5190    -1.9400    -0.1420 C.3   1 <1>   0.0610 
  5 N        0.9360    -4.1900    -1.1330 N.am  1 <1>  -0.4300 
  6 C       -0.6210    -3.3250     0.5850 C.3   1 <1>  -0.0190 
  7 C       -1.5290    -1.8790    -1.3120 C.3   1 <1>  -0.0220 
  8 C       -0.8370    -0.8000     0.8610 C.3   1 <1>  -0.2400 
  9 C       -0.1000    -4.4640    -0.3050 C.2   1 <1>   0.5690 
 10 C       -2.0480    -3.5970     1.1200 C.3   1 <1>  -0.0220 
 11 C       -2.8850    -2.4610    -0.9520 C.2   1 <1>  -0.2880 
 12 O       -0.5810    -5.5750    -0.2800 O.2   1 <1>  -0.5700 
 13 C       -3.1360    -3.2180     0.1220 C.2   1 <1>  -0.2760 
 14 C       -4.5040    -3.7920     0.5010 C.3   1 <1>  -0.0220 
 15 C       -5.6570    -3.5010    -0.4730 C.3   1 <1>  -0.0220 
 16 C       -6.1990    -2.0770    -0.6510 C.2   1 <1>  -0.2880 
 17 C       -5.9650    -0.8810    -0.0890 C.2   1 <1>  -0.2760 
 18 C       -6.7260     0.3490    -0.5640 C.3   1 <1>  -0.1020 
 19 C       -4.9930    -0.5070     1.0220 C.3   1 <1>  -0.1020 
 20 H        2.5540    -2.7760    -1.3140 H     1 <1>   0.3700 
 21 H        1.0710    -4.8430    -1.9140 H     1 <1>   0.3700 
 22 H        0.0360    -3.3060     1.4350 H     1 <1>   0.0800 
 23 H       -1.6520    -0.8560    -1.6230 H     1 <1>   0.0800 
 24 H       -1.1550    -2.4270    -2.1590 H     1 <1>   0.0800 
 25 H       -1.8460    -0.8640     1.2260 H     1 <1>   0.0800 
 26 H       -0.7260     0.1590     0.3860 H     1 <1>   0.0800 
 27 H       -0.1620    -0.8350     1.6970 H     1 <1>   0.0800 
 28 H       -2.2060    -3.0320     2.0210 H     1 <1>   0.0800 
 29 H       -2.1410    -4.6350     1.3900 H     1 <1>   0.0800 
 30 H       -3.6410    -2.1890    -1.6700 H     1 <1>   0.1500 
 31 H       -4.3980    -4.8620     0.5470 H     1 <1>   0.0800 
 32 H       -4.7890    -3.4730     1.4860 H     1 <1>   0.0800 
 33 H       -6.4880    -4.1130    -0.1700 H     1 <1>   0.0800 
 34 H       -5.3560    -3.8600    -1.4420 H     1 <1>   0.0800 
 35 H       -6.9400    -2.1240    -1.4300 H     1 <1>   0.1500 
 36 H       -6.0390     1.0880    -0.9360 H     1 <1>   0.0800 
 37 H       -7.2890     0.7740     0.2480 H     1 <1>   0.0800 
 38 H       -7.4130     0.1010    -1.3540 H     1 <1>   0.0800 
 39 H       -4.4800    -1.3480     1.4310 H     1 <1>   0.0800 
 40 H       -5.5220    -0.0290     1.8260 H     1 <1>   0.0800 
 41 H       -4.2540     0.1750     0.6430 H     1 <1>   0.0800 
@<TRIPOS>BOND
  1   1   2  2   
  2   2   3  am  
  3   2   4  1   
  4   3   5  1   
  5   3  20  1   
  6   4   6  1   
  7   4   7  1   
  8   4   8  1   
  9   5   9  am  
 10   5  21  1   
 11   6   9  1   
 12   6  10  1   
 13   6  22  1   
 14   7  11  1   
 15   7  23  1   
 16   7  24  1   
 17   8  25  1   
 18   8  26  1   
 19   8  27  1   
 20   9  12  2   
 21  10  13  1   
 22  10  28  1   
 23  10  29  1   
 24  11  13  2   
 25  11  30  1   
 26  13  14  1   
 27  14  15  1   
 28  14  31  1   
 29  14  32  1   
 30  15  16  1   
 31  15  33  1   
 32  15  34  1   
 33  16  17  2   
 34  16  35  1   
 35  17  18  1   
 36  17  19  1   
 37  18  36  1   
 38  18  37  1   
 39  18  38  1   
 40  19  39  1   
 41  19  40  1   
 42  19  41  1   
@<TRIPOS>SUBSTRUCTURE
  1 ****  11 GROUP 4 **** **** 0

# MOE 2024.06 (io_trps.svl 2023.06)
