@<TRIPOS>MOLECULE
NONAME
36 39 1 0 0 
SMALL
USER_CHARGES


@<TRIPOS>ATOM
  1 CL      -0.1440     1.4900    -2.5790 Cl    1 <1>  -0.1770 
  2 C        1.1850     1.8090    -1.4850 C.ar  1 <1>   0.1770 
  3 C        1.0040     2.6690    -0.4080 C.ar  1 <1>   0.1170 
  4 C        2.3980     1.1920    -1.7160 C.ar  1 <1>  -0.1500 
  5 N       -0.2340     3.2930    -0.1750 N.am  1 <1>  -0.2370 
  6 C        2.0780     2.8960     0.4440 C.ar  1 <1>  -0.1500 
  7 C        3.4590     1.4290    -0.8570 C.ar  1 <1>  -0.1500 
  8 C       -1.3180     2.6900     0.4320 C.2   1 <1>   0.5690 
  9 C       -0.6280     4.5180    -0.6810 C.2   1 <1>   0.5690 
 10 C        3.3110     2.2810     0.2360 C.ar  1 <1>  -0.1440 
 11 O       -1.3320     1.7310     1.1610 O.2   1 <1>  -0.5700 
 12 C       -2.5350     3.4310    -0.0150 C.3   1 <1>  -0.0190 
 13 O       -0.0300     5.2300    -1.4430 O.2   1 <1>  -0.5700 
 14 C       -1.9510     4.8380    -0.0550 C.3   1 <1>  -0.0190 
 15 C        4.4870     2.5460     1.1920 C.3   1 <1>   1.1640 
 16 C       -3.9510     3.7220     0.5080 C.3   1 <1>   0.4180 
 17 C       -3.2350     5.6600    -0.1370 C.3   1 <1>   0.3380 
 18 F        4.0910     2.8020     2.4330 F     1 <1>  -0.3400 
 19 F        5.2080     3.5900     0.8080 F     1 <1>  -0.3400 
 20 F        5.3260     1.5210     1.2740 F     1 <1>  -0.3400 
 21 O       -3.8330     5.0390     0.9630 O.3   1 <1>  -0.5600 
 22 C       -4.7350     4.0490    -0.7480 C.2   1 <1>  -0.2880 
 23 C       -4.5570     2.7550     1.5440 C.3   1 <1>   0.1200 
 24 C       -4.2480     5.2120    -1.1780 C.2   1 <1>  -0.2880 
 25 O       -3.6750     2.4900     2.5970 O.3   1 <1>  -0.6800 
 26 H        2.5100     0.5330    -2.5600 H     1 <1>   0.1500 
 27 H        1.9400     3.5630     1.2790 H     1 <1>   0.1500 
 28 H        4.4030     0.9420    -1.0480 H     1 <1>   0.1500 
 29 H       -2.6640     3.0500    -1.0170 H     1 <1>   0.0800 
 30 H       -1.6060     5.1130     0.9320 H     1 <1>   0.0800 
 31 H       -3.1540     6.7200     0.0370 H     1 <1>   0.0800 
 32 H       -5.4800     3.3800    -1.1420 H     1 <1>   0.1500 
 33 H       -4.7950     1.8170     1.0760 H     1 <1>   0.0800 
 34 H       -5.4560     3.1790     1.9550 H     1 <1>   0.0800 
 35 H       -4.4590     5.8130    -2.0460 H     1 <1>   0.1500 
 36 H       -2.8720     2.0080     2.2860 H     1 <1>   0.4000 
@<TRIPOS>BOND
  1   1   2  1   
  2   2   3  ar  
  3   2   4  ar  
  4   3   5  1   
  5   3   6  ar  
  6   4   7  ar  
  7   4  26  1   
  8   5   8  am  
  9   5   9  am  
 10   6  10  ar  
 11   6  27  1   
 12   7  10  ar  
 13   7  28  1   
 14   8  11  2   
 15   8  12  1   
 16   9  13  2   
 17   9  14  1   
 18  10  15  1   
 19  12  14  1   
 20  12  16  1   
 21  12  29  1   
 22  14  17  1   
 23  14  30  1   
 24  15  18  1   
 25  15  19  1   
 26  15  20  1   
 27  16  21  1   
 28  16  22  1   
 29  16  23  1   
 30  17  21  1   
 31  17  24  1   
 32  17  31  1   
 33  22  24  2   
 34  22  32  1   
 35  23  25  1   
 36  23  33  1   
 37  23  34  1   
 38  24  35  1   
 39  25  36  1   
@<TRIPOS>SUBSTRUCTURE
  1 ****   5 GROUP 4 **** **** 0

# MOE 2024.06 (io_trps.svl 2023.06)
