@<TRIPOS>MOLECULE
NONAME
36 36 1 0 0 
SMALL
USER_CHARGES


@<TRIPOS>ATOM
  1 S       -0.1070     0.1260     1.5420 S.o2  1 <1>   1.3330 
  2 O       -1.0440    -0.2160     2.5820 O.2   1 <1>  -0.6500 
  3 O        0.4480     1.4540     1.4630 O.2   1 <1>  -0.6500 
  4 N        1.2050    -0.9480     1.7880 N.am  1 <1>  -0.7570 
  5 C       -0.7480    -0.3990    -0.0500 C.3   1 <1>  -0.0550 
  6 C        2.3280    -1.0050     0.9730 C.ar  1 <1>   0.1990 
  7 C       -1.9650     0.4110    -0.5240 C.3   1 <1>  -0.1600 
  8 C        2.6220    -2.1590     0.2450 C.ar  1 <1>  -0.1430 
  9 C        3.1780     0.0910     0.8750 C.ar  1 <1>  -0.1500 
 10 C       -2.4610    -0.0800    -1.8890 C.3   1 <1>  -0.1600 
 11 C        3.7410    -2.1870    -0.5710 C.ar  1 <1>  -0.1500 
 12 C        1.7330    -3.3930     0.3330 C.3   1 <1>  -0.0970 
 13 C        4.2940     0.0580     0.0600 C.ar  1 <1>  -0.1500 
 14 C       -3.6730     0.7310    -2.3540 C.3   1 <1>  -0.2400 
 15 C        4.5800    -1.0890    -0.6730 C.ar  1 <1>   0.0830 
 16 O        5.6510    -1.2130    -1.5020 O.3   1 <1>  -0.3620 
 17 C        6.5630    -0.1500    -1.6690 C.3   1 <1>   0.0400 
 18 H        1.3800    -1.0110     2.7860 H     1 <1>   0.4200 
 19 H       -1.0240    -1.4340     0.0130 H     1 <1>   0.0800 
 20 H        0.0320    -0.3120    -0.7820 H     1 <1>   0.0800 
 21 H       -1.6920     1.4510    -0.5910 H     1 <1>   0.0800 
 22 H       -2.7550     0.3210     0.2040 H     1 <1>   0.0800 
 23 H        2.9610     0.9810     1.4400 H     1 <1>   0.1500 
 24 H       -2.7370    -1.1200    -1.8240 H     1 <1>   0.0800 
 25 H       -1.6740     0.0130    -2.6180 H     1 <1>   0.0800 
 26 H        3.9830    -3.0640    -1.1430 H     1 <1>   0.1500 
 27 H        0.7670    -3.1830    -0.0860 H     1 <1>   0.0800 
 28 H        1.6100    -3.6860     1.3600 H     1 <1>   0.0800 
 29 H        2.1650    -4.2190    -0.2040 H     1 <1>   0.0800 
 30 H        4.9210     0.9270     0.0100 H     1 <1>   0.1500 
 31 H       -4.4830     0.6360    -1.6520 H     1 <1>   0.0800 
 32 H       -4.0090     0.3740    -3.3120 H     1 <1>   0.0800 
 33 H       -3.4170     1.7720    -2.4480 H     1 <1>   0.0800 
 34 H        7.3220    -0.4670    -2.3620 H     1 <1>   0.0800 
 35 H        7.0090     0.0800    -0.7180 H     1 <1>   0.0800 
 36 H        6.0380     0.7010    -2.0660 H     1 <1>   0.0800 
@<TRIPOS>BOND
  1   1   2  2   
  2   1   3  2   
  3   1   4  am  
  4   1   5  1   
  5   4   6  1   
  6   4  18  1   
  7   5   7  1   
  8   5  19  1   
  9   5  20  1   
 10   6   8  ar  
 11   6   9  ar  
 12   7  10  1   
 13   7  21  1   
 14   7  22  1   
 15   8  11  ar  
 16   8  12  1   
 17   9  13  ar  
 18   9  23  1   
 19  10  14  1   
 20  10  24  1   
 21  10  25  1   
 22  11  15  ar  
 23  11  26  1   
 24  12  27  1   
 25  12  28  1   
 26  12  29  1   
 27  13  15  ar  
 28  13  30  1   
 29  14  31  1   
 30  14  32  1   
 31  14  33  1   
 32  15  16  1   
 33  16  17  1   
 34  17  34  1   
 35  17  35  1   
 36  17  36  1   
@<TRIPOS>SUBSTRUCTURE
  1 ****   6 GROUP 4 **** **** 0

# MOE 2024.06 (io_trps.svl 2023.06)
