@<TRIPOS>MOLECULE
NONAME
53 55 1 0 0 
SMALL
USER_CHARGES


@<TRIPOS>ATOM
  1 O        0.1000    -0.1880    -0.0470 O.2   1 <1>  -0.5700 
  2 C        0.7720    -1.1900    -0.2320 C.2   1 <1>   0.4690 
  3 C        0.1730    -2.4920    -0.3630 C.2   1 <1>  -0.0140 
  4 C        2.2040    -1.1040    -0.3170 C.ar  1 <1>   0.0860 
  5 C       -1.2700    -2.5950    -0.3240 C.ar  1 <1>   0.0280 
  6 C        0.9840    -3.5780    -0.5220 C.2   1 <1>  -0.0610 
  7 C        2.9410    -2.2760    -0.4950 C.ar  1 <1>   0.0830 
  8 C        2.9100     0.0990    -0.2320 C.ar  1 <1>  -0.1500 
  9 C       -1.9790    -2.3570     0.8510 C.ar  1 <1>  -0.1500 
 10 C       -1.9930    -2.9430    -1.4620 C.ar  1 <1>  -0.1500 
 11 O        2.3090    -3.4620    -0.5860 O.3   1 <1>  -0.1590 
 12 C        0.5260    -5.0240    -0.6370 C.3   1 <1>  -0.1020 
 13 C        4.3220    -2.2490    -0.5800 C.ar  1 <1>  -0.1500 
 14 C        4.2920     0.1490    -0.3160 C.ar  1 <1>  -0.1430 
 15 C       -3.3560    -2.4740     0.8970 C.ar  1 <1>  -0.1500 
 16 C       -3.3690    -3.0640    -1.4240 C.ar  1 <1>  -0.1500 
 17 C        5.0040    -1.0430    -0.4870 C.ar  1 <1>   0.0830 
 18 C        5.0760     1.4650    -0.2290 C.3   1 <1>  -0.0170 
 19 C       -4.0630    -2.8330    -0.2470 C.ar  1 <1>   0.0830 
 20 O        6.3530    -0.9630    -0.5540 O.3   1 <1>  -0.3630 
 21 C        4.2320     2.7400    -0.1080 C.3   1 <1>  -0.2400 
 22 O       -5.4100    -2.9730    -0.2910 O.3   1 <1>  -0.3630 
 23 C        7.1800    -2.1100    -0.6820 C.3   1 <1>   0.1810 
 24 C       -6.2120    -2.7000     0.8350 C.3   1 <1>   0.0400 
 25 C        8.6610    -1.7390    -0.6680 C.2   1 <1>   0.6590 
 26 O        9.3500    -1.9860    -1.6220 O.2   1 <1>  -0.5700 
 27 O        9.2040    -1.1880     0.4160 O.3   1 <1>  -0.4300 
 28 C        8.4890    -0.6960     1.5260 C.3   1 <1>   0.1200 
 29 C        9.5030    -0.2280     2.5640 C.3   1 <1>  -0.2400 
 30 H        2.3300     0.9950    -0.0980 H     1 <1>   0.1500 
 31 H       -1.4380    -2.0710     1.7360 H     1 <1>   0.1500 
 32 H       -1.4690    -3.1200    -2.3840 H     1 <1>   0.1500 
 33 H        0.7850    -5.4120    -1.6060 H     1 <1>   0.0800 
 34 H       -0.5350    -5.1220    -0.5010 H     1 <1>   0.0800 
 35 H        1.0150    -5.6190     0.1130 H     1 <1>   0.0800 
 36 H        4.8300    -3.1820    -0.7200 H     1 <1>   0.1500 
 37 H       -3.8580    -2.2810     1.8250 H     1 <1>   0.1500 
 38 H       -3.9190    -3.3340    -2.3070 H     1 <1>   0.1500 
 39 H        5.6910     1.5520    -1.1080 H     1 <1>   0.0800 
 40 H        5.7350     1.4130     0.6200 H     1 <1>   0.0800 
 41 H        3.5780     2.8390    -0.9560 H     1 <1>   0.0800 
 42 H        4.8760     3.6000    -0.0730 H     1 <1>   0.0800 
 43 H        3.6450     2.7200     0.7930 H     1 <1>   0.0800 
 44 H        6.9470    -2.5870    -1.6160 H     1 <1>   0.0800 
 45 H        6.9710    -2.7780     0.1320 H     1 <1>   0.0800 
 46 H       -7.2400    -2.8560     0.5600 H     1 <1>   0.0800 
 47 H       -6.0640    -1.6760     1.1290 H     1 <1>   0.0800 
 48 H       -5.9400    -3.3730     1.6290 H     1 <1>   0.0800 
 49 H        7.8730    -1.4830     1.9250 H     1 <1>   0.0800 
 50 H        7.8750     0.1270     1.2000 H     1 <1>   0.0800 
 51 H       10.1230    -1.0500     2.8740 H     1 <1>   0.0800 
 52 H        8.9900     0.1600     3.4260 H     1 <1>   0.0800 
 53 H       10.1200     0.5510     2.1530 H     1 <1>   0.0800 
@<TRIPOS>BOND
  1   1   2  2   
  2   2   3  1   
  3   2   4  1   
  4   3   5  1   
  5   3   6  2   
  6   4   7  ar  
  7   4   8  ar  
  8   5   9  ar  
  9   5  10  ar  
 10   6  11  1   
 11   6  12  1   
 12   7  11  1   
 13   7  13  ar  
 14   8  14  ar  
 15   8  30  1   
 16   9  15  ar  
 17   9  31  1   
 18  10  16  ar  
 19  10  32  1   
 20  12  33  1   
 21  12  34  1   
 22  12  35  1   
 23  13  17  ar  
 24  13  36  1   
 25  14  17  ar  
 26  14  18  1   
 27  15  19  ar  
 28  15  37  1   
 29  16  19  ar  
 30  16  38  1   
 31  17  20  1   
 32  18  21  1   
 33  18  39  1   
 34  18  40  1   
 35  19  22  1   
 36  20  23  1   
 37  21  41  1   
 38  21  42  1   
 39  21  43  1   
 40  22  24  1   
 41  23  25  1   
 42  23  44  1   
 43  23  45  1   
 44  24  46  1   
 45  24  47  1   
 46  24  48  1   
 47  25  26  2   
 48  25  27  1   
 49  27  28  1   
 50  28  29  1   
 51  28  49  1   
 52  28  50  1   
 53  29  51  1   
 54  29  52  1   
 55  29  53  1   
@<TRIPOS>SUBSTRUCTURE
  1 ****   4 GROUP 4 **** **** 0

# MOE 2024.06 (io_trps.svl 2023.06)
