@<TRIPOS>MOLECULE
NONAME
32 32 1 0 0 
SMALL
USER_CHARGES


@<TRIPOS>ATOM
  1 CL      -0.3890    -0.3440     1.8110 Cl    1 <1>  -0.1770 
  2 C       -1.7660    -0.7070     0.7950 C.ar  1 <1>   0.1770 
  3 C       -3.0200    -0.1970     1.1040 C.ar  1 <1>  -0.1440 
  4 C       -1.5490    -1.5110    -0.3070 C.ar  1 <1>  -0.1500 
  5 C       -4.0970    -0.5120     0.2660 C.ar  1 <1>   0.1790 
  6 C       -3.1710     0.6860     2.3450 C.3   1 <1>  -0.0960 
  7 C       -2.6100    -1.8240    -1.1330 C.ar  1 <1>  -0.1500 
  8 N       -5.3750    -0.0180     0.5530 N.2   1 <1>  -0.1790 
  9 C       -3.8680    -1.3290    -0.8440 C.ar  1 <1>  -0.1500 
 10 N       -6.2770    -0.0280    -0.2960 N.2   1 <1>  -0.2460 
 11 C       -7.5750     0.4990     0.1110 C.3   1 <1>   0.4570 
 12 S       -8.7990    -0.8070    -0.2340 S.3   1 <1>  -0.4600 
 13 C       -7.9610     1.7800    -0.6330 C.2   1 <1>   0.4480 
 14 C      -10.3280    -0.1370     0.4710 C.3   1 <1>   0.0700 
 15 O       -8.4180     2.7240    -0.0550 O.2   1 <1>  -0.5700 
 16 C       -7.7740     1.8240    -2.1390 C.3   1 <1>  -0.1790 
 17 C      -11.4230    -1.1790     0.2660 C.3   1 <1>  -0.2400 
 18 H       -0.5610    -1.8840    -0.5110 H     1 <1>   0.1500 
 19 H       -2.9190     0.1210     3.2240 H     1 <1>   0.0800 
 20 H       -4.1660     1.0670     2.4700 H     1 <1>   0.0800 
 21 H       -2.5040     1.5270     2.2760 H     1 <1>   0.0800 
 22 H       -2.4590    -2.4520    -1.9950 H     1 <1>   0.1500 
 23 H       -4.6840    -1.5900    -1.4940 H     1 <1>   0.1500 
 24 H       -7.5960     0.6750     1.1720 H     1 <1>   0.0800 
 25 H      -10.5560     0.7820    -0.0430 H     1 <1>   0.0800 
 26 H      -10.1520     0.0540     1.5150 H     1 <1>   0.0800 
 27 H       -6.7280     1.7820    -2.3810 H     1 <1>   0.0800 
 28 H       -8.1820     2.7380    -2.5290 H     1 <1>   0.0800 
 29 H       -8.2780     0.9940    -2.5980 H     1 <1>   0.0800 
 30 H      -11.5580    -1.3740    -0.7830 H     1 <1>   0.0800 
 31 H      -12.3520    -0.8220     0.6720 H     1 <1>   0.0800 
 32 H      -11.1590    -2.0970     0.7620 H     1 <1>   0.0800 
@<TRIPOS>BOND
  1   1   2  1   
  2   2   3  ar  
  3   2   4  ar  
  4   3   5  ar  
  5   3   6  1   
  6   4   7  ar  
  7   4  18  1   
  8   5   8  1   
  9   5   9  ar  
 10   6  19  1   
 11   6  20  1   
 12   6  21  1   
 13   7   9  ar  
 14   7  22  1   
 15   8  10  2   
 16   9  23  1   
 17  10  11  1   
 18  11  12  1   
 19  11  13  1   
 20  11  24  1   
 21  12  14  1   
 22  13  15  2   
 23  13  16  1   
 24  14  17  1   
 25  14  25  1   
 26  14  26  1   
 27  16  27  1   
 28  16  28  1   
 29  16  29  1   
 30  17  30  1   
 31  17  31  1   
 32  17  32  1   
@<TRIPOS>SUBSTRUCTURE
  1 ****   8 GROUP 4 **** **** 0

# MOE 2024.06 (io_trps.svl 2023.06)
