@<TRIPOS>MOLECULE
NONAME
44 46 1 0 0 
SMALL
USER_CHARGES


@<TRIPOS>ATOM
  1 O        0.4390     0.3390     1.5130 O.2   1 <1>  -0.5700 
  2 C        0.6230     1.4760     1.1520 C.2   1 <1>   0.5690 
  3 N       -0.3090     2.3170     0.6540 N.am  1 <1>  -0.6600 
  4 C        1.9720     2.1350     1.2050 C.3   1 <1>  -0.0990 
  5 C       -1.7260     1.9410     0.4100 C.3   1 <1>   0.2200 
  6 C        0.2660     3.6340     0.3100 C.3   1 <1>   0.1400 
  7 C        1.6420     3.6250     0.9930 C.3   1 <1>  -0.0190 
  8 C       -2.0920     2.0800    -1.0660 C.3   1 <1>  -0.1600 
  9 C       -2.6850     2.8860     1.1330 C.3   1 <1>  -0.1600 
 10 C        2.6970     4.4100     0.2280 C.2   1 <1>   0.5690 
 11 C       -2.6220     3.5040    -1.2520 C.3   1 <1>  -0.1600 
 12 C       -3.1020     3.9680     0.1280 C.3   1 <1>  -0.1600 
 13 O        2.3550     5.2410    -0.5790 O.2   1 <1>  -0.5700 
 14 N        4.0050     4.1700     0.4860 N.am  1 <1>  -0.7300 
 15 C        5.1590     4.7930    -0.2020 C.3   1 <1>   0.1400 
 16 C        6.1970     3.7160    -0.5560 C.3   1 <1>   0.2000 
 17 O        6.4420     2.9000     0.5480 O.3   1 <1>  -0.5600 
 18 C        7.5660     4.2610    -0.9350 C.3   1 <1>  -0.1600 
 19 C        7.6820     2.2780     0.4220 C.3   1 <1>   0.1200 
 20 C        8.4950     3.1180    -0.5620 C.3   1 <1>  -0.1600 
 21 H        2.5710     1.7430     0.4030 H     1 <1>   0.0800 
 22 H        2.4500     1.9560     2.1500 H     1 <1>   0.0800 
 23 H       -1.8790     0.9260     0.7400 H     1 <1>   0.0800 
 24 H       -0.3410     4.4420     0.6790 H     1 <1>   0.0800 
 25 H        0.3630     3.7070    -0.7600 H     1 <1>   0.0800 
 26 H        1.5250     4.0900     1.9540 H     1 <1>   0.0800 
 27 H       -2.8880     1.3880    -1.2790 H     1 <1>   0.0800 
 28 H       -1.2630     1.8550    -1.7130 H     1 <1>   0.0800 
 29 H       -2.2470     3.2960     2.0260 H     1 <1>   0.0800 
 30 H       -3.5590     2.3250     1.4130 H     1 <1>   0.0800 
 31 H       -3.4180     3.5300    -1.9760 H     1 <1>   0.0800 
 32 H       -1.8290     4.1460    -1.5930 H     1 <1>   0.0800 
 33 H       -2.6490     4.9120     0.3780 H     1 <1>   0.0800 
 34 H       -4.1720     4.0900     0.1370 H     1 <1>   0.0800 
 35 H        4.2970     3.4310     1.1350 H     1 <1>   0.3700 
 36 H        5.6030     5.5210     0.4540 H     1 <1>   0.0800 
 37 H        4.8340     5.2970    -1.0960 H     1 <1>   0.0800 
 38 H        5.8180     3.0870    -1.3440 H     1 <1>   0.0800 
 39 H        7.7930     5.1290    -0.3410 H     1 <1>   0.0800 
 40 H        7.6210     4.5180    -1.9780 H     1 <1>   0.0800 
 41 H        7.5230     1.2800     0.0490 H     1 <1>   0.0800 
 42 H        8.1410     2.2390     1.3950 H     1 <1>   0.0800 
 43 H        9.4060     3.4730    -0.1130 H     1 <1>   0.0800 
 44 H        8.7390     2.5230    -1.4240 H     1 <1>   0.0800 
@<TRIPOS>BOND
  1   1   2  2   
  2   2   3  am  
  3   2   4  1   
  4   3   5  1   
  5   3   6  1   
  6   4   7  1   
  7   4  21  1   
  8   4  22  1   
  9   5   8  1   
 10   5   9  1   
 11   5  23  1   
 12   6   7  1   
 13   6  24  1   
 14   6  25  1   
 15   7  10  1   
 16   7  26  1   
 17   8  11  1   
 18   8  27  1   
 19   8  28  1   
 20   9  12  1   
 21   9  29  1   
 22   9  30  1   
 23  10  13  2   
 24  10  14  am  
 25  11  12  1   
 26  11  31  1   
 27  11  32  1   
 28  12  33  1   
 29  12  34  1   
 30  14  15  1   
 31  14  35  1   
 32  15  16  1   
 33  15  36  1   
 34  15  37  1   
 35  16  17  1   
 36  16  18  1   
 37  16  38  1   
 38  17  19  1   
 39  18  20  1   
 40  18  39  1   
 41  18  40  1   
 42  19  20  1   
 43  19  41  1   
 44  19  42  1   
 45  20  43  1   
 46  20  44  1   
@<TRIPOS>SUBSTRUCTURE
  1 ****   7 GROUP 4 **** **** 0

# MOE 2024.06 (io_trps.svl 2023.06)
