@<TRIPOS>MOLECULE
NONAME
42 43 1 0 0 
SMALL
USER_CHARGES


@<TRIPOS>ATOM
  1 BR       0.6820     0.0080    -1.1830 Br    1 <1>  -0.1110 
  2 C        2.0670     1.1600    -0.4970 C.ar  1 <1>   0.1110 
  3 C        2.9120     1.7900    -1.3910 C.ar  1 <1>  -0.1500 
  4 C        2.1790     1.3250     0.8700 C.ar  1 <1>  -0.1500 
  5 C        3.9120     2.6180    -0.9050 C.ar  1 <1>  -0.1440 
  6 C        3.1770     2.1540     1.3490 C.ar  1 <1>  -0.1500 
  7 C        4.0460     2.8020     0.4760 C.ar  1 <1>   0.1000 
  8 C        4.8550     3.3080    -1.8810 C.3   1 <1>  -0.0960 
  9 N        5.0370     3.6220     0.9930 N.pl3 1 <1>  -0.8690 
 10 C        6.2140     2.9310     1.5590 C.3   1 <1>   0.3530 
 11 C        7.4600     3.6490     1.0620 C.ar  1 <1>  -0.1430 
 12 C        8.3640     3.0320     0.2030 C.ar  1 <1>   0.0830 
 13 C        7.6890     4.9520     1.4770 C.ar  1 <1>  -0.1500 
 14 O        8.0950     1.7540    -0.1840 O.3   1 <1>  -0.3630 
 15 C        9.4910     3.7260    -0.2300 C.ar  1 <1>  -0.1500 
 16 C        8.8100     5.6530     1.0470 C.ar  1 <1>   0.0830 
 17 C        8.9110     1.0630    -1.1030 C.3   1 <1>   0.0400 
 18 C        9.7200     5.0330     0.1880 C.ar  1 <1>   0.0830 
 19 O        9.0640     6.9400     1.4330 O.3   1 <1>  -0.3630 
 20 O       10.8110     5.7500    -0.2120 O.3   1 <1>  -0.3630 
 21 C        8.1700     7.6530     2.2570 C.3   1 <1>   0.0400 
 22 C       11.8300     5.1870    -1.0070 C.3   1 <1>   0.0400 
 23 H        2.7830     1.6270    -2.4450 H     1 <1>   0.1500 
 24 H        1.5030     0.8220     1.5360 H     1 <1>   0.1500 
 25 H        3.2890     2.3130     2.4050 H     1 <1>   0.1500 
 26 H        4.6350     3.0270    -2.8950 H     1 <1>   0.0800 
 27 H        5.8720     3.0300    -1.6660 H     1 <1>   0.0800 
 28 H        4.7570     4.3750    -1.7940 H     1 <1>   0.0800 
 29 H        5.3890     4.2710     0.2830 H     1 <1>   0.4000 
 30 H        6.2080     1.8940     1.2710 H     1 <1>   0.0800 
 31 H        6.1700     2.9800     2.6330 H     1 <1>   0.0800 
 32 H        6.9740     5.4050     2.1370 H     1 <1>   0.1500 
 33 H       10.1860     3.2520    -0.8880 H     1 <1>   0.1500 
 34 H        8.4790     0.0930    -1.2690 H     1 <1>   0.0800 
 35 H        9.8960     0.9570    -0.6850 H     1 <1>   0.0800 
 36 H        8.9390     1.6120    -2.0280 H     1 <1>   0.0800 
 37 H        8.5710     8.6400     2.4050 H     1 <1>   0.0800 
 38 H        8.0880     7.1480     3.2030 H     1 <1>   0.0800 
 39 H        7.2160     7.7170     1.7650 H     1 <1>   0.0800 
 40 H       12.5880     5.9350    -1.1520 H     1 <1>   0.0800 
 41 H       11.4140     4.9010    -1.9560 H     1 <1>   0.0800 
 42 H       12.2460     4.3400    -0.4920 H     1 <1>   0.0800 
@<TRIPOS>BOND
  1   1   2  1   
  2   2   3  ar  
  3   2   4  ar  
  4   3   5  ar  
  5   3  23  1   
  6   4   6  ar  
  7   4  24  1   
  8   5   7  ar  
  9   5   8  1   
 10   6   7  ar  
 11   6  25  1   
 12   7   9  1   
 13   8  26  1   
 14   8  27  1   
 15   8  28  1   
 16   9  10  1   
 17   9  29  1   
 18  10  11  1   
 19  10  30  1   
 20  10  31  1   
 21  11  12  ar  
 22  11  13  ar  
 23  12  14  1   
 24  12  15  ar  
 25  13  16  ar  
 26  13  32  1   
 27  14  17  1   
 28  15  18  ar  
 29  15  33  1   
 30  16  18  ar  
 31  16  19  1   
 32  17  34  1   
 33  17  35  1   
 34  17  36  1   
 35  18  20  1   
 36  19  21  1   
 37  20  22  1   
 38  21  37  1   
 39  21  38  1   
 40  21  39  1   
 41  22  40  1   
 42  22  41  1   
 43  22  42  1   
@<TRIPOS>SUBSTRUCTURE
  1 ****  11 GROUP 4 **** **** 0

# MOE 2024.06 (io_trps.svl 2023.06)
