@<TRIPOS>MOLECULE
NONAME
49 51 1 0 0 
SMALL
USER_CHARGES


@<TRIPOS>ATOM
  1 F        1.1540    -1.4040    -1.4850 F     1 <1>  -0.1900 
  2 C        0.3520    -1.8270    -0.5370 C.ar  1 <1>   0.1900 
  3 C        0.8790    -2.3490     0.6530 C.ar  1 <1>   0.1000 
  4 C       -1.0050    -1.7390    -0.7830 C.ar  1 <1>  -0.1500 
  5 N        2.2440    -2.4680     0.9650 N.pl3 1 <1>  -0.8380 
  6 C       -0.0440    -2.7880     1.5960 C.ar  1 <1>  -0.1500 
  7 C       -1.8930    -2.1870     0.1810 C.ar  1 <1>  -0.1500 
  8 C        3.2120    -1.3650     0.6760 C.3   1 <1>   0.2090 
  9 C        2.8570    -3.8290     0.9990 C.3   1 <1>   0.2090 
 10 C       -1.4080    -2.7110     1.3680 C.ar  1 <1>  -0.1500 
 11 C        4.1700    -1.7040    -0.4870 C.3   1 <1>   0.1100 
 12 C        3.7900    -4.0650    -0.2030 C.3   1 <1>   0.1100 
 13 N        4.8320    -3.0170    -0.3190 N.3   1 <1>  -0.8100 
 14 C        5.7370    -3.2990    -1.4730 C.3   1 <1>   0.1710 
 15 C        6.7250    -4.4460    -1.2370 C.2   1 <1>   0.5690 
 16 O        7.1950    -5.0160    -2.1920 O.2   1 <1>  -0.5700 
 17 N        7.0330    -4.7410     0.0530 N.am  1 <1>  -0.7300 
 18 C        8.0400    -5.6480     0.6360 C.3   1 <1>   0.3640 
 19 C        9.3520    -4.8950     0.8330 C.ar  1 <1>  -0.1430 
 20 C        8.2250    -6.9330    -0.1710 C.3   1 <1>  -0.2400 
 21 C        9.8790    -4.7350     2.1070 C.ar  1 <1>  -0.1500 
 22 C       10.0380    -4.3580    -0.2490 C.ar  1 <1>  -0.1500 
 23 C       11.0680    -4.0520     2.2970 C.ar  1 <1>  -0.1500 
 24 C       11.2270    -3.6750    -0.0620 C.ar  1 <1>  -0.1500 
 25 C       11.7430    -3.5210     1.2120 C.ar  1 <1>  -0.1500 
 26 H       -1.3590    -1.3300    -1.7110 H     1 <1>   0.1500 
 27 H        0.3230    -3.1880     2.5240 H     1 <1>   0.1500 
 28 H       -2.9540    -2.1280     0.0080 H     1 <1>   0.1500 
 29 H        3.7950    -1.1810     1.5610 H     1 <1>   0.0800 
 30 H        2.6750    -0.4610     0.4480 H     1 <1>   0.0800 
 31 H        2.0820    -4.5750     0.9970 H     1 <1>   0.0800 
 32 H        3.4200    -3.9350     1.9090 H     1 <1>   0.0800 
 33 H       -2.0960    -3.0580     2.1200 H     1 <1>   0.1500 
 34 H        4.9180    -0.9330    -0.5440 H     1 <1>   0.0800 
 35 H        3.6170    -1.6940    -1.4090 H     1 <1>   0.0800 
 36 H        3.1920    -4.0880    -1.0990 H     1 <1>   0.0800 
 37 H        4.2540    -5.0290    -0.0910 H     1 <1>   0.0800 
 38 H        6.3260    -2.4240    -1.6810 H     1 <1>   0.0800 
 39 H        5.1550    -3.5180    -2.3520 H     1 <1>   0.0800 
 40 H        6.5810    -4.1230     0.7320 H     1 <1>   0.3700 
 41 H        7.6710    -5.9400     1.6040 H     1 <1>   0.0800 
 42 H        8.6940    -6.7330    -1.1160 H     1 <1>   0.0800 
 43 H        7.2760    -7.4070    -0.3370 H     1 <1>   0.0800 
 44 H        8.8590    -7.6080     0.3750 H     1 <1>   0.0800 
 45 H        9.3680    -5.1410     2.9620 H     1 <1>   0.1500 
 46 H        9.6430    -4.4720    -1.2450 H     1 <1>   0.1500 
 47 H       11.4690    -3.9330     3.2880 H     1 <1>   0.1500 
 48 H       11.7480    -3.2650    -0.9090 H     1 <1>   0.1500 
 49 H       12.6670    -2.9900     1.3580 H     1 <1>   0.1500 
@<TRIPOS>BOND
  1   1   2  1   
  2   2   3  ar  
  3   2   4  ar  
  4   3   5  1   
  5   3   6  ar  
  6   4   7  ar  
  7   4  26  1   
  8   5   8  1   
  9   5   9  1   
 10   6  10  ar  
 11   6  27  1   
 12   7  10  ar  
 13   7  28  1   
 14   8  11  1   
 15   8  29  1   
 16   8  30  1   
 17   9  12  1   
 18   9  31  1   
 19   9  32  1   
 20  10  33  1   
 21  11  13  1   
 22  11  34  1   
 23  11  35  1   
 24  12  13  1   
 25  12  36  1   
 26  12  37  1   
 27  13  14  1   
 28  14  15  1   
 29  14  38  1   
 30  14  39  1   
 31  15  16  2   
 32  15  17  am  
 33  17  18  1   
 34  17  40  1   
 35  18  19  1   
 36  18  20  1   
 37  18  41  1   
 38  19  21  ar  
 39  19  22  ar  
 40  20  42  1   
 41  20  43  1   
 42  20  44  1   
 43  21  23  ar  
 44  21  45  1   
 45  22  24  ar  
 46  22  46  1   
 47  23  25  ar  
 48  23  47  1   
 49  24  25  ar  
 50  24  48  1   
 51  25  49  1   
@<TRIPOS>SUBSTRUCTURE
  1 ****  13 GROUP 4 **** **** 0

# MOE 2024.06 (io_trps.svl 2023.06)
