@<TRIPOS>MOLECULE
NONAME
45 46 1 0 0 
SMALL
USER_CHARGES


@<TRIPOS>ATOM
  1 O        0.1310    -0.3220    -0.8580 O.2   1 <1>  -0.5700 
  2 C       -0.0450    -1.3290    -0.2130 C.2   1 <1>   0.5690 
  3 N       -1.2680    -1.7210     0.2710 N.am  1 <1>  -0.5470 
  4 C        1.1970    -2.1960     0.0620 C.3   1 <1>   0.4040 
  5 C       -2.5250    -1.0970     0.1700 C.ar  1 <1>   0.1170 
  6 N        2.4980    -1.4410    -0.0970 N.4   1 <1>  -0.9590 
  7 C       -3.6640    -1.8820     0.3140 C.ar  1 <1>  -0.1500 
  8 C       -2.6880     0.2680    -0.0490 C.ar  1 <1>  -0.1500 
  9 C        3.6860    -2.3360    -0.2690 C.3   1 <1>   0.3430 
 10 C        2.6990    -0.4130     0.9610 C.3   1 <1>   0.3430 
 11 C       -4.9260    -1.3220     0.2370 C.ar  1 <1>  -0.1500 
 12 C       -3.9490     0.8330    -0.1290 C.ar  1 <1>  -0.1500 
 13 C        5.0200    -1.5710    -0.1350 C.3   1 <1>  -0.0800 
 14 C        3.8030     0.5570     0.5210 C.3   1 <1>  -0.1600 
 15 C       -5.0800     0.0360     0.0150 C.ar  1 <1>   0.0830 
 16 C        4.8580    -0.0670    -0.4130 C.3   1 <1>  -0.1600 
 17 C        6.0810    -2.1730    -1.0660 C.3   1 <1>  -0.2400 
 18 O       -6.3540     0.5030    -0.0480 O.3   1 <1>  -0.3620 
 19 C       -6.6170     1.8640    -0.2980 C.3   1 <1>   0.1200 
 20 C       -8.1300     2.0550    -0.3210 C.3   1 <1>  -0.2400 
 21 H       -1.3230    -2.6280     0.7330 H     1 <1>   0.3700 
 22 H        1.1770    -3.0160    -0.6350 H     1 <1>   0.0800 
 23 H        1.1320    -2.5980     1.0580 H     1 <1>   0.0800 
 24 H        2.3840    -0.8880    -0.9650 H     1 <1>   0.4500 
 25 H       -3.5770    -2.9390     0.4840 H     1 <1>   0.1500 
 26 H       -1.8330     0.9090    -0.1580 H     1 <1>   0.1500 
 27 H        3.6410    -2.7900    -1.2460 H     1 <1>   0.0800 
 28 H        3.6670    -3.1250     0.4640 H     1 <1>   0.0800 
 29 H        2.9870    -0.8950     1.8810 H     1 <1>   0.0800 
 30 H        1.7880     0.1400     1.1340 H     1 <1>   0.0800 
 31 H       -5.8040    -1.9330     0.3470 H     1 <1>   0.1500 
 32 H       -4.0290     1.8890    -0.3010 H     1 <1>   0.1500 
 33 H        5.3700    -1.6910     0.8770 H     1 <1>   0.0800 
 34 H        4.2860     0.9300     1.4080 H     1 <1>   0.0800 
 35 H        3.3550     1.4050     0.0320 H     1 <1>   0.0800 
 36 H        4.5540     0.0730    -1.4370 H     1 <1>   0.0800 
 37 H        5.7990     0.4430    -0.2840 H     1 <1>   0.0800 
 38 H        5.7910    -2.0750    -2.0980 H     1 <1>   0.0800 
 39 H        6.2310    -3.2170    -0.8480 H     1 <1>   0.0800 
 40 H        7.0230    -1.6690    -0.9320 H     1 <1>   0.0800 
 41 H       -6.1860     2.1250    -1.2490 H     1 <1>   0.0800 
 42 H       -6.1720     2.4470     0.4890 H     1 <1>   0.0800 
 43 H       -8.5660     1.4550    -1.0990 H     1 <1>   0.0800 
 44 H       -8.3640     3.0870    -0.5100 H     1 <1>   0.0800 
 45 H       -8.5520     1.7750     0.6280 H     1 <1>   0.0800 
@<TRIPOS>BOND
  1   1   2  2   
  2   2   3  am  
  3   2   4  1   
  4   3   5  1   
  5   3  21  1   
  6   4   6  1   
  7   4  22  1   
  8   4  23  1   
  9   5   7  ar  
 10   5   8  ar  
 11   6   9  1   
 12   6  10  1   
 13   6  24  1   
 14   7  11  ar  
 15   7  25  1   
 16   8  12  ar  
 17   8  26  1   
 18   9  13  1   
 19   9  27  1   
 20   9  28  1   
 21  10  14  1   
 22  10  29  1   
 23  10  30  1   
 24  11  15  ar  
 25  11  31  1   
 26  12  15  ar  
 27  12  32  1   
 28  13  16  1   
 29  13  17  1   
 30  13  33  1   
 31  14  16  1   
 32  14  34  1   
 33  14  35  1   
 34  15  18  1   
 35  16  36  1   
 36  16  37  1   
 37  17  38  1   
 38  17  39  1   
 39  17  40  1   
 40  18  19  1   
 41  19  20  1   
 42  19  41  1   
 43  19  42  1   
 44  20  43  1   
 45  20  44  1   
 46  20  45  1   
@<TRIPOS>SUBSTRUCTURE
  1 ****   2 GROUP 4 **** **** 0

# MOE 2024.06 (io_trps.svl 2023.06)
