@<TRIPOS>MOLECULE
NONAME
38 39 1 0 0 
SMALL
USER_CHARGES


@<TRIPOS>ATOM
  1 O       -1.0330    -0.0540    -1.6590 O.2   1 <1>  -0.5700 
  2 C       -2.0130    -0.1790    -0.9720 C.2   1 <1>   0.5690 
  3 N       -2.2750    -1.1910    -0.0950 N.am  1 <1>  -0.4200 
  4 C       -3.1280     0.8280    -0.9960 C.3   1 <1>  -0.0990 
  5 C       -1.5350    -2.3110     0.2100 C.2   1 <1>   0.5690 
  6 C       -3.5790    -0.9620     0.5610 C.3   1 <1>   0.1400 
  7 C       -3.9210     0.5100     0.2780 C.3   1 <1>   0.0640 
  8 O       -1.9280    -3.1140     1.0190 O.2   1 <1>  -0.5700 
  9 C       -0.2040    -2.5790    -0.4560 C.3   1 <1>  -0.1790 
 10 C       -5.4210     0.8140     0.1890 C.ar  1 <1>  -0.1440 
 11 C       -5.8840     1.8800    -0.5740 C.ar  1 <1>  -0.1500 
 12 C       -6.3490     0.0520     0.8900 C.ar  1 <1>  -0.1500 
 13 C       -7.2350     2.1650    -0.6570 C.ar  1 <1>  -0.1500 
 14 C       -7.7000     0.3350     0.8080 C.ar  1 <1>  -0.1500 
 15 C       -8.1570     1.3880     0.0360 C.ar  1 <1>   0.0820 
 16 O       -9.5000     1.5860     0.0150 O.3   1 <1>  -0.3630 
 17 C      -10.1170     2.6540    -0.6680 C.3   1 <1>   0.2000 
 18 C      -10.0010     3.9200     0.1830 C.3   1 <1>  -0.2400 
 19 C      -11.5780     2.2650    -0.8780 C.3   1 <1>  -0.2400 
 20 H       -3.7170     0.6580    -1.8790 H     1 <1>   0.0800 
 21 H       -2.7430     1.8310    -0.9920 H     1 <1>   0.0800 
 22 H       -3.5180    -1.1540     1.6190 H     1 <1>   0.0800 
 23 H       -4.3050    -1.6190     0.1140 H     1 <1>   0.0800 
 24 H       -3.5130     1.0950     1.0850 H     1 <1>   0.0800 
 25 H        0.4790    -1.7790    -0.2420 H     1 <1>   0.0800 
 26 H       -0.3370    -2.6590    -1.5190 H     1 <1>   0.0800 
 27 H        0.2120    -3.4990    -0.0890 H     1 <1>   0.0800 
 28 H       -5.1980     2.5090    -1.1140 H     1 <1>   0.1500 
 29 H       -6.0430    -0.7690     1.5130 H     1 <1>   0.1500 
 30 H       -7.5480     2.9950    -1.2610 H     1 <1>   0.1500 
 31 H       -8.4140    -0.2600     1.3480 H     1 <1>   0.1500 
 32 H       -9.6450     2.7750    -1.6280 H     1 <1>   0.0800 
 33 H      -10.4710     3.7690     1.1390 H     1 <1>   0.0800 
 34 H      -10.4880     4.7400    -0.3120 H     1 <1>   0.0800 
 35 H       -8.9710     4.1830     0.3360 H     1 <1>   0.0800 
 36 H      -12.0630     2.1040     0.0690 H     1 <1>   0.0800 
 37 H      -11.6360     1.3660    -1.4640 H     1 <1>   0.0800 
 38 H      -12.0960     3.0470    -1.4020 H     1 <1>   0.0800 
@<TRIPOS>BOND
  1   1   2  2   
  2   2   3  am  
  3   2   4  1   
  4   3   5  am  
  5   3   6  1   
  6   4   7  1   
  7   4  20  1   
  8   4  21  1   
  9   5   8  2   
 10   5   9  1   
 11   6   7  1   
 12   6  22  1   
 13   6  23  1   
 14   7  10  1   
 15   7  24  1   
 16   9  25  1   
 17   9  26  1   
 18   9  27  1   
 19  10  11  ar  
 20  10  12  ar  
 21  11  13  ar  
 22  11  28  1   
 23  12  14  ar  
 24  12  29  1   
 25  13  15  ar  
 26  13  30  1   
 27  14  15  ar  
 28  14  31  1   
 29  15  16  1   
 30  16  17  1   
 31  17  18  1   
 32  17  19  1   
 33  17  32  1   
 34  18  33  1   
 35  18  34  1   
 36  18  35  1   
 37  19  36  1   
 38  19  37  1   
 39  19  38  1   
@<TRIPOS>SUBSTRUCTURE
  1 ****  10 GROUP 4 **** **** 0

# MOE 2024.06 (io_trps.svl 2023.06)
