@<TRIPOS>MOLECULE
NONAME
28 28 1 0 0 
SMALL
USER_CHARGES


@<TRIPOS>ATOM
  1 S        0.1280    -0.2630    -0.0470 S.3   1 <1>  -0.0800 
  2 C        1.2630     1.1000    -0.0020 C.2   1 <1>  -0.0450 
  3 C       -1.2840     0.7760    -0.0140 C.2   1 <1>   0.1040 
  4 C        0.5310     2.2540     0.0350 C.2   1 <1>  -0.1810 
  5 C        2.6690     0.7960    -0.0110 C.2   1 <1>   0.8050 
  6 N       -2.5750     0.2530    -0.0320 N.am  1 <1>  -0.4940 
  7 C       -0.8760     2.0650     0.0280 C.2   1 <1>  -0.1500 
  8 C        1.0770     3.6730     0.0820 C.3   1 <1>  -0.0590 
  9 O        3.5420     1.6450     0.0170 O.2   1 <1>  -0.5700 
 10 O        3.0410    -0.4880    -0.0530 O.3   1 <1>  -0.4300 
 11 C       -3.0390    -1.0340    -0.0740 C.2   1 <1>   0.5690 
 12 C        4.3970    -0.8720    -0.0650 C.3   1 <1>   0.1200 
 13 O       -2.3460    -2.0170    -0.1060 O.2   1 <1>  -0.5700 
 14 C       -4.5370    -1.2190    -0.0810 C.3   1 <1>  -0.1790 
 15 C        4.4530    -2.3960    -0.1140 C.3   1 <1>  -0.2400 
 16 H       -3.3100     0.9550    -0.0100 H     1 <1>   0.3700 
 17 H       -1.5450     2.9060     0.0560 H     1 <1>   0.1500 
 18 H        2.1500     3.6900     0.0830 H     1 <1>   0.0800 
 19 H        0.7330     4.1670     0.9730 H     1 <1>   0.0800 
 20 H        0.7330     4.2250    -0.7740 H     1 <1>   0.0800 
 21 H        4.8660    -0.4970     0.8290 H     1 <1>   0.0800 
 22 H        4.8670    -0.4400    -0.9320 H     1 <1>   0.0800 
 23 H       -4.9600    -0.7430    -0.9450 H     1 <1>   0.0800 
 24 H       -4.9610    -0.8000     0.8110 H     1 <1>   0.0800 
 25 H       -4.7710    -2.2680    -0.1160 H     1 <1>   0.0800 
 26 H        3.9680    -2.8120     0.7500 H     1 <1>   0.0800 
 27 H        5.4770    -2.7220    -0.1240 H     1 <1>   0.0800 
 28 H        3.9690    -2.7550    -1.0050 H     1 <1>   0.0800 
@<TRIPOS>BOND
  1   1   2  1   
  2   1   3  1   
  3   2   4  2   
  4   2   5  1   
  5   3   6  1   
  6   3   7  2   
  7   4   7  1   
  8   4   8  1   
  9   5   9  2   
 10   5  10  1   
 11   6  11  am  
 12   6  16  1   
 13   7  17  1   
 14   8  18  1   
 15   8  19  1   
 16   8  20  1   
 17  10  12  1   
 18  11  13  2   
 19  11  14  1   
 20  12  15  1   
 21  12  21  1   
 22  12  22  1   
 23  14  23  1   
 24  14  24  1   
 25  14  25  1   
 26  15  26  1   
 27  15  27  1   
 28  15  28  1   
@<TRIPOS>SUBSTRUCTURE
  1 ****   1 GROUP 4 **** **** 0

# MOE 2024.06 (io_trps.svl 2023.06)
