@<TRIPOS>MOLECULE
NONAME
26 26 1 0 0 
SMALL
USER_CHARGES


@<TRIPOS>ATOM
  1 CL      -0.0470    -0.1620    -0.1040 Cl    1 <1>  -0.1770 
  2 C        1.5600    -0.8280     0.0330 C.ar  1 <1>   0.1770 
  3 C        1.9240    -1.4830     1.1960 C.ar  1 <1>  -0.1500 
  4 C        2.4410    -0.6890    -1.0250 C.ar  1 <1>  -0.1500 
  5 C        3.2010    -2.0110     1.3010 C.ar  1 <1>  -0.1500 
  6 C        3.7180    -1.2170    -0.9210 C.ar  1 <1>  -0.1500 
  7 C        4.0870    -1.8730     0.2460 C.ar  1 <1>   0.1020 
  8 S        5.7270    -2.5840     0.4690 S.3   1 <1>  -0.3320 
  9 C        6.6980    -2.1800    -1.0650 C.3   1 <1>   0.1310 
 10 C        8.1180    -2.7220    -0.9740 C.2   1 <1>   0.5690 
 11 O        8.4580    -3.5740    -1.7560 O.2   1 <1>  -0.5700 
 12 N        9.0150    -2.2560    -0.0690 N.am  1 <1>  -0.7300 
 13 C        8.8320    -1.2500     0.9950 C.3   1 <1>   0.1400 
 14 C       10.0030    -0.2770     0.9450 C.3   1 <1>  -0.2400 
 15 H        1.2190    -1.5780     2.0020 H     1 <1>   0.1500 
 16 H        2.1250    -0.1760    -1.9160 H     1 <1>   0.1500 
 17 H        3.5090    -2.5260     2.1940 H     1 <1>   0.1500 
 18 H        4.3960    -1.1090    -1.7460 H     1 <1>   0.1500 
 19 H        6.7110    -1.1130    -1.1720 H     1 <1>   0.0800 
 20 H        6.1850    -2.6340    -1.8920 H     1 <1>   0.0800 
 21 H        9.9290    -2.7130    -0.0930 H     1 <1>   0.3700 
 22 H        8.8010    -1.7460     1.9510 H     1 <1>   0.0800 
 23 H        7.9080    -0.7150     0.8580 H     1 <1>   0.0800 
 24 H       10.9300    -0.7950     1.1150 H     1 <1>   0.0800 
 25 H        9.8850     0.4690     1.7100 H     1 <1>   0.0800 
 26 H       10.0370     0.2170    -0.0100 H     1 <1>   0.0800 
@<TRIPOS>BOND
  1   1   2  1   
  2   2   3  ar  
  3   2   4  ar  
  4   3   5  ar  
  5   3  15  1   
  6   4   6  ar  
  7   4  16  1   
  8   5   7  ar  
  9   5  17  1   
 10   6   7  ar  
 11   6  18  1   
 12   7   8  1   
 13   8   9  1   
 14   9  10  1   
 15   9  19  1   
 16   9  20  1   
 17  10  11  2   
 18  10  12  am  
 19  12  13  1   
 20  12  21  1   
 21  13  14  1   
 22  13  22  1   
 23  13  23  1   
 24  14  24  1   
 25  14  25  1   
 26  14  26  1   
@<TRIPOS>SUBSTRUCTURE
  1 ****   8 GROUP 4 **** **** 0

# MOE 2024.06 (io_trps.svl 2023.06)
