@<TRIPOS>MOLECULE
NONAME
44 45 1 0 0 
SMALL
USER_CHARGES


@<TRIPOS>ATOM
  1 O        0.0180    -1.7630    -0.5690 O.3   1 <1>  -0.3630 
  2 C       -1.2400    -1.8010    -0.0530 C.ar  1 <1>   0.0830 
  3 C        1.1460    -1.5610     0.2460 C.3   1 <1>   0.1200 
  4 C       -2.2940    -2.0080    -0.9400 C.ar  1 <1>  -0.1440 
  5 C       -1.5060    -1.6440     1.3060 C.ar  1 <1>  -0.1500 
  6 C        2.3780    -1.5770    -0.6620 C.3   1 <1>  -0.1600 
  7 C       -3.5940    -2.0550    -0.4620 C.ar  1 <1>  -0.1500 
  8 C       -2.0330    -2.1830    -2.4290 C.3   1 <1>  -0.0960 
  9 C       -2.8080    -1.6930     1.7720 C.ar  1 <1>  -0.1500 
 10 C        3.6760    -1.3690     0.1310 C.3   1 <1>  -0.1600 
 11 C       -3.8520    -1.8980     0.8890 C.ar  1 <1>  -0.1500 
 12 C        4.8840    -1.3840    -0.8100 C.3   1 <1>   0.3430 
 13 N        6.1360    -1.0780    -0.0650 N.4   1 <1>  -0.9590 
 14 C        7.2260    -0.7020    -1.0150 C.3   1 <1>   0.3430 
 15 C        6.5600    -2.2020     0.8250 C.3   1 <1>   0.3430 
 16 C        8.4590    -0.2450    -0.2320 C.3   1 <1>  -0.1600 
 17 C        7.7780    -1.7800     1.6470 C.3   1 <1>  -0.1600 
 18 C        8.9370    -1.3190     0.7530 C.3   1 <1>  -0.1600 
 19 H        1.1860    -2.3580     0.9680 H     1 <1>   0.0800 
 20 H        1.0400    -0.6100     0.7390 H     1 <1>   0.0800 
 21 H       -0.7200    -1.4830     2.0170 H     1 <1>   0.1500 
 22 H        2.2690    -0.7950    -1.3960 H     1 <1>   0.0800 
 23 H        2.4110    -2.5240    -1.1740 H     1 <1>   0.0800 
 24 H       -4.4150    -2.2140    -1.1380 H     1 <1>   0.1500 
 25 H       -1.5410    -1.3090    -2.8170 H     1 <1>   0.0800 
 26 H       -2.9500    -2.3290    -2.9710 H     1 <1>   0.0800 
 27 H       -1.3990    -3.0360    -2.5890 H     1 <1>   0.0800 
 28 H       -3.0100    -1.5710     2.8220 H     1 <1>   0.1500 
 29 H        3.7610    -2.1540     0.8610 H     1 <1>   0.0800 
 30 H        3.6250    -0.4210     0.6380 H     1 <1>   0.0800 
 31 H       -4.8640    -1.9360     1.2510 H     1 <1>   0.1500 
 32 H        4.7300    -0.6400    -1.5760 H     1 <1>   0.0800 
 33 H        4.9630    -2.3460    -1.2910 H     1 <1>   0.0800 
 34 H        5.9650    -0.2590     0.5330 H     1 <1>   0.4500 
 35 H        6.8970     0.0960    -1.6600 H     1 <1>   0.0800 
 36 H        7.4850    -1.5510    -1.6280 H     1 <1>   0.0800 
 37 H        6.8100    -3.0650     0.2290 H     1 <1>   0.0800 
 38 H        5.7590    -2.4730     1.4930 H     1 <1>   0.0800 
 39 H        8.2310     0.6640     0.2960 H     1 <1>   0.0800 
 40 H        9.2520    -0.0220    -0.9250 H     1 <1>   0.0800 
 41 H        8.1030    -2.6120     2.2470 H     1 <1>   0.0800 
 42 H        7.4980    -0.9890     2.3220 H     1 <1>   0.0800 
 43 H        9.7370    -0.9290     1.3610 H     1 <1>   0.0800 
 44 H        9.3250    -2.1620     0.2050 H     1 <1>   0.0800 
@<TRIPOS>BOND
  1   1   2  1   
  2   1   3  1   
  3   2   4  ar  
  4   2   5  ar  
  5   3   6  1   
  6   3  19  1   
  7   3  20  1   
  8   4   7  ar  
  9   4   8  1   
 10   5   9  ar  
 11   5  21  1   
 12   6  10  1   
 13   6  22  1   
 14   6  23  1   
 15   7  11  ar  
 16   7  24  1   
 17   8  25  1   
 18   8  26  1   
 19   8  27  1   
 20   9  11  ar  
 21   9  28  1   
 22  10  12  1   
 23  10  29  1   
 24  10  30  1   
 25  11  31  1   
 26  12  13  1   
 27  12  32  1   
 28  12  33  1   
 29  13  14  1   
 30  13  15  1   
 31  13  34  1   
 32  14  16  1   
 33  14  35  1   
 34  14  36  1   
 35  15  17  1   
 36  15  37  1   
 37  15  38  1   
 38  16  18  1   
 39  16  39  1   
 40  16  40  1   
 41  17  18  1   
 42  17  41  1   
 43  17  42  1   
 44  18  43  1   
 45  18  44  1   
@<TRIPOS>SUBSTRUCTURE
  1 ****   6 GROUP 4 **** **** 0

# MOE 2024.06 (io_trps.svl 2023.06)
