@<TRIPOS>MOLECULE
NONAME
41 42 1 0 0 
SMALL
USER_CHARGES


@<TRIPOS>ATOM
  1 O       -0.0690     0.1500    -1.0880 O.2   1 <1>  -0.5700 
  2 C       -0.0870     1.0320    -0.2530 C.2   1 <1>   0.6900 
  3 N       -1.2490     1.5140     0.2710 N.am  1 <1>  -0.5470 
  4 N        1.0670     1.5870     0.1900 N.am  1 <1>  -0.7300 
  5 C       -2.5810     1.0960     0.1080 C.ar  1 <1>   0.1170 
  6 C        2.4120     1.2090    -0.2720 C.3   1 <1>   0.2200 
  7 C       -3.6200     2.0170     0.2610 C.ar  1 <1>  -0.1430 
  8 C       -2.8990    -0.2280    -0.1800 C.ar  1 <1>  -0.1500 
  9 C        3.1180     0.4270     0.8400 C.3   1 <1>  -0.1600 
 10 C        3.1860     2.4820    -0.6350 C.3   1 <1>  -0.1600 
 11 C       -4.9350     1.6010     0.1220 C.ar  1 <1>  -0.1500 
 12 C       -3.3440     3.4830     0.5720 C.3   1 <1>  -0.0970 
 13 C       -4.2110    -0.6370    -0.3200 C.ar  1 <1>  -0.1500 
 14 C        4.5680     0.1000     0.4540 C.3   1 <1>  -0.1600 
 15 C        4.6360     2.1580    -1.0240 C.3   1 <1>  -0.1600 
 16 C       -5.2420     0.2820    -0.1680 C.ar  1 <1>   0.0830 
 17 C        5.3460     1.3710     0.0870 C.3   1 <1>  -0.1600 
 18 O       -6.5610    -0.0280    -0.2870 O.3   1 <1>  -0.3630 
 19 C       -6.9660    -1.3360    -0.6250 C.3   1 <1>   0.0400 
 20 H       -1.1440     2.3950     0.7560 H     1 <1>   0.3700 
 21 H        1.0500     2.1850     1.0090 H     1 <1>   0.3700 
 22 H        2.3370     0.5850    -1.1480 H     1 <1>   0.0800 
 23 H       -2.1110    -0.9500    -0.2950 H     1 <1>   0.1500 
 24 H        2.5840    -0.4890     1.0200 H     1 <1>   0.0800 
 25 H        3.1200     1.0070     1.7460 H     1 <1>   0.0800 
 26 H        3.1920     3.1530     0.2050 H     1 <1>   0.0800 
 27 H        2.6980     2.9690    -1.4610 H     1 <1>   0.0800 
 28 H       -5.7470     2.2950     0.2350 H     1 <1>   0.1500 
 29 H       -2.6870     3.9000    -0.1700 H     1 <1>   0.0800 
 30 H       -2.8910     3.5750     1.5430 H     1 <1>   0.0800 
 31 H       -4.2550     4.0540     0.5700 H     1 <1>   0.0800 
 32 H       -4.4060    -1.6680    -0.5450 H     1 <1>   0.1500 
 33 H        4.5680    -0.5730    -0.3870 H     1 <1>   0.0800 
 34 H        5.0560    -0.3990     1.2740 H     1 <1>   0.0800 
 35 H        5.1710     3.0710    -1.2180 H     1 <1>   0.0800 
 36 H        4.6390     1.5750    -1.9290 H     1 <1>   0.0800 
 37 H        6.3370     1.1050    -0.2380 H     1 <1>   0.0800 
 38 H        5.4420     1.9950     0.9600 H     1 <1>   0.0800 
 39 H       -8.0390    -1.3490    -0.6810 H     1 <1>   0.0800 
 40 H       -6.6310    -2.0130     0.1410 H     1 <1>   0.0800 
 41 H       -6.5460    -1.5950    -1.5810 H     1 <1>   0.0800 
@<TRIPOS>BOND
  1   1   2  2   
  2   2   3  am  
  3   2   4  am  
  4   3   5  1   
  5   3  20  1   
  6   4   6  1   
  7   4  21  1   
  8   5   7  ar  
  9   5   8  ar  
 10   6   9  1   
 11   6  10  1   
 12   6  22  1   
 13   7  11  ar  
 14   7  12  1   
 15   8  13  ar  
 16   8  23  1   
 17   9  14  1   
 18   9  24  1   
 19   9  25  1   
 20  10  15  1   
 21  10  26  1   
 22  10  27  1   
 23  11  16  ar  
 24  11  28  1   
 25  12  29  1   
 26  12  30  1   
 27  12  31  1   
 28  13  16  ar  
 29  13  32  1   
 30  14  17  1   
 31  14  33  1   
 32  14  34  1   
 33  15  17  1   
 34  15  35  1   
 35  15  36  1   
 36  16  18  1   
 37  17  37  1   
 38  17  38  1   
 39  18  19  1   
 40  19  39  1   
 41  19  40  1   
 42  19  41  1   
@<TRIPOS>SUBSTRUCTURE
  1 ****   3 GROUP 4 **** **** 0

# MOE 2024.06 (io_trps.svl 2023.06)
