@<TRIPOS>MOLECULE
NONAME
47 49 1 0 0 
SMALL
USER_CHARGES


@<TRIPOS>ATOM
  1 O        0.1800     0.3110     1.9920 O.2   1 <1>  -0.5700 
  2 C       -0.0190     1.2500     1.2610 C.2   1 <1>   0.5690 
  3 N        0.8960     1.6890     0.3670 N.am  1 <1>  -0.7300 
  4 C       -1.3510     1.9540     1.3280 C.3   1 <1>  -0.0990 
  5 C        2.2700     1.1890     0.2420 C.3   1 <1>   0.2200 
  6 C       -2.3280     1.3310     0.3330 C.3   1 <1>   0.2000 
  7 C        3.1440     2.2290    -0.4790 C.3   1 <1>  -0.1600 
  8 C        2.2330    -0.1170    -0.5490 C.3   1 <1>  -0.2400 
  9 O       -3.5160     2.1010     0.3680 O.3   1 <1>  -0.3630 
 10 C       -2.6480    -0.1460     0.6360 C.3   1 <1>   0.1200 
 11 C        3.2720     3.5910     0.2330 C.3   1 <1>  -0.0170 
 12 C       -4.6230     1.5600    -0.2010 C.ar  1 <1>   0.0820 
 13 O       -3.6440    -0.6290    -0.2470 O.3   1 <1>  -0.3630 
 14 C        1.9790     4.3970     0.2350 C.ar  1 <1>  -0.1440 
 15 C       -4.6810     0.2010    -0.5200 C.ar  1 <1>   0.0820 
 16 C       -5.7050     2.3790    -0.4700 C.ar  1 <1>  -0.1500 
 17 C        1.3550     4.7130     1.4330 C.ar  1 <1>  -0.1500 
 18 C        1.4040     4.8110    -0.9570 C.ar  1 <1>  -0.1500 
 19 C       -5.8140    -0.3190    -1.1210 C.ar  1 <1>  -0.1500 
 20 C       -6.8400     1.8530    -1.0660 C.ar  1 <1>  -0.1500 
 21 C        0.1690     5.4260     1.4390 C.ar  1 <1>  -0.1500 
 22 C        0.2150     5.5190    -0.9530 C.ar  1 <1>  -0.1500 
 23 C       -6.8930     0.5070    -1.3940 C.ar  1 <1>  -0.1500 
 24 C       -0.4050     5.8260     0.2460 C.ar  1 <1>  -0.1500 
 25 H        0.7560     2.6090    -0.0660 H     1 <1>   0.3700 
 26 H       -1.2140     2.9920     1.0930 H     1 <1>   0.0800 
 27 H       -1.7400     1.8730     2.3260 H     1 <1>   0.0800 
 28 H        2.6650     0.9990     1.2270 H     1 <1>   0.0800 
 29 H       -1.9250     1.4070    -0.6630 H     1 <1>   0.0800 
 30 H        2.7780     2.3730    -1.4800 H     1 <1>   0.0800 
 31 H        4.1340     1.8170    -0.5670 H     1 <1>   0.0800 
 32 H        1.8090     0.0410    -1.5250 H     1 <1>   0.0800 
 33 H        1.6450    -0.8480    -0.0230 H     1 <1>   0.0800 
 34 H        3.2270    -0.5090    -0.6620 H     1 <1>   0.0800 
 35 H       -3.0120    -0.2530     1.6430 H     1 <1>   0.0800 
 36 H       -1.7760    -0.7630     0.5140 H     1 <1>   0.0800 
 37 H        4.0270     4.1740    -0.2670 H     1 <1>   0.0800 
 38 H        3.6110     3.4320     1.2420 H     1 <1>   0.0800 
 39 H       -5.6530     3.4220    -0.2150 H     1 <1>   0.1500 
 40 H        1.7870     4.4020     2.3690 H     1 <1>   0.1500 
 41 H        1.8800     4.5860    -1.8960 H     1 <1>   0.1500 
 42 H       -5.8470    -1.3640    -1.3680 H     1 <1>   0.1500 
 43 H       -7.6810     2.4910    -1.2770 H     1 <1>   0.1500 
 44 H       -0.3080     5.6690     2.3730 H     1 <1>   0.1500 
 45 H       -0.2280     5.8350    -1.8820 H     1 <1>   0.1500 
 46 H       -7.7750     0.1010    -1.8590 H     1 <1>   0.1500 
 47 H       -1.3290     6.3780     0.2490 H     1 <1>   0.1500 
@<TRIPOS>BOND
  1   1   2  2   
  2   2   3  am  
  3   2   4  1   
  4   3   5  1   
  5   3  25  1   
  6   4   6  1   
  7   4  26  1   
  8   4  27  1   
  9   5   7  1   
 10   5   8  1   
 11   5  28  1   
 12   6   9  1   
 13   6  10  1   
 14   6  29  1   
 15   7  11  1   
 16   7  30  1   
 17   7  31  1   
 18   8  32  1   
 19   8  33  1   
 20   8  34  1   
 21   9  12  1   
 22  10  13  1   
 23  10  35  1   
 24  10  36  1   
 25  11  14  1   
 26  11  37  1   
 27  11  38  1   
 28  12  15  ar  
 29  12  16  ar  
 30  13  15  1   
 31  14  17  ar  
 32  14  18  ar  
 33  15  19  ar  
 34  16  20  ar  
 35  16  39  1   
 36  17  21  ar  
 37  17  40  1   
 38  18  22  ar  
 39  18  41  1   
 40  19  23  ar  
 41  19  42  1   
 42  20  23  ar  
 43  20  43  1   
 44  21  24  ar  
 45  21  44  1   
 46  22  24  ar  
 47  22  45  1   
 48  23  46  1   
 49  24  47  1   
@<TRIPOS>SUBSTRUCTURE
  1 ****   4 GROUP 4 **** **** 0

# MOE 2024.06 (io_trps.svl 2023.06)
