@<TRIPOS>MOLECULE
NONAME
43 44 1 0 0 
SMALL
USER_CHARGES


@<TRIPOS>ATOM
  1 N        0.0690    -0.0530     0.7800 N.4   1 <1>  -0.9590 
  2 C        1.2720     0.8400     0.7040 C.3   1 <1>   0.4230 
  3 C       -0.2690    -0.7420    -0.5290 C.3   1 <1>   0.3430 
  4 C       -1.1190     0.6840     1.3600 C.3   1 <1>   0.3430 
  5 C        1.1510     1.9220    -0.3830 C.3   1 <1>  -0.1600 
  6 C        2.5370    -0.0020     0.4970 C.3   1 <1>  -0.1600 
  7 C       -1.5630    -1.6030    -0.4600 C.3   1 <1>   0.3430 
  8 C       -2.4130    -0.1790     1.4270 C.3   1 <1>   0.3430 
  9 C        2.3960     2.8220    -0.3820 C.3   1 <1>  -0.1600 
 10 C        3.7860     0.8930     0.4970 C.3   1 <1>  -0.1600 
 11 N       -2.7510    -0.8630     0.1200 N.4   1 <1>  -0.9590 
 12 C        3.6840     2.0020    -0.5620 C.3   1 <1>  -0.0800 
 13 C       -3.9330    -1.7610     0.2980 C.3   1 <1>   0.3430 
 14 C        4.9100     2.9180    -0.4910 C.3   1 <1>  -0.2400 
 15 C       -4.5020    -2.1370    -1.0650 C.3   1 <1>  -0.2400 
 16 H        0.3450    -0.7830     1.4550 H     1 <1>   0.4500 
 17 H        1.3830     1.3460     1.6510 H     1 <1>   0.0800 
 18 H        0.5520    -1.3720    -0.8310 H     1 <1>   0.0800 
 19 H       -0.4020    -0.0020    -1.3000 H     1 <1>   0.0800 
 20 H       -1.3270     1.5560     0.7610 H     1 <1>   0.0800 
 21 H       -0.8790     1.0310     2.3530 H     1 <1>   0.0800 
 22 H        0.2920     2.5440    -0.2110 H     1 <1>   0.0800 
 23 H        1.0720     1.4800    -1.3600 H     1 <1>   0.0800 
 24 H        2.5020    -0.5220    -0.4430 H     1 <1>   0.0800 
 25 H        2.6380    -0.7230     1.2900 H     1 <1>   0.0800 
 26 H       -1.3590    -2.4770     0.1380 H     1 <1>   0.0800 
 27 H       -1.8000    -1.9480    -1.4540 H     1 <1>   0.0800 
 28 H       -3.2360     0.4510     1.7280 H     1 <1>   0.0800 
 29 H       -2.2850    -0.9230     2.1960 H     1 <1>   0.0800 
 30 H        2.4460     3.3700     0.5450 H     1 <1>   0.0800 
 31 H        2.3180     3.5430    -1.1790 H     1 <1>   0.0800 
 32 H        4.6580     0.2900     0.3000 H     1 <1>   0.0800 
 33 H        3.9140     1.3360     1.4710 H     1 <1>   0.0800 
 34 H       -3.0520    -0.1440    -0.5580 H     1 <1>   0.4500 
 35 H        3.6690     1.5460    -1.5390 H     1 <1>   0.0800 
 36 H       -4.7000    -1.2500     0.8600 H     1 <1>   0.0800 
 37 H       -3.6560    -2.6520     0.8410 H     1 <1>   0.0800 
 38 H        4.9750     3.4020     0.4680 H     1 <1>   0.0800 
 39 H        4.8570     3.6760    -1.2520 H     1 <1>   0.0800 
 40 H        5.8110     2.3510    -0.6480 H     1 <1>   0.0800 
 41 H       -4.7720    -1.2620    -1.6290 H     1 <1>   0.0800 
 42 H       -5.3970    -2.7180    -0.9200 H     1 <1>   0.0800 
 43 H       -3.8190    -2.7430    -1.6320 H     1 <1>   0.0800 
@<TRIPOS>BOND
  1   1   2  1   
  2   1   3  1   
  3   1   4  1   
  4   1  16  1   
  5   2   5  1   
  6   2   6  1   
  7   2  17  1   
  8   3   7  1   
  9   3  18  1   
 10   3  19  1   
 11   4   8  1   
 12   4  20  1   
 13   4  21  1   
 14   5   9  1   
 15   5  22  1   
 16   5  23  1   
 17   6  10  1   
 18   6  24  1   
 19   6  25  1   
 20   7  11  1   
 21   7  26  1   
 22   7  27  1   
 23   8  11  1   
 24   8  28  1   
 25   8  29  1   
 26   9  12  1   
 27   9  30  1   
 28   9  31  1   
 29  10  12  1   
 30  10  32  1   
 31  10  33  1   
 32  11  13  1   
 33  11  34  1   
 34  12  14  1   
 35  12  35  1   
 36  13  15  1   
 37  13  36  1   
 38  13  37  1   
 39  14  38  1   
 40  14  39  1   
 41  14  40  1   
 42  15  41  1   
 43  15  42  1   
 44  15  43  1   
@<TRIPOS>SUBSTRUCTURE
  1 ****   1 GROUP 4 **** **** 0

# MOE 2024.06 (io_trps.svl 2023.06)
