@<TRIPOS>MOLECULE
NONAME
42 44 1 0 0 
SMALL
USER_CHARGES


@<TRIPOS>ATOM
  1 O       -0.7030     1.0550     2.5430 O.2   1 <1>  -0.5700 
  2 C       -0.9970     1.8710     1.7020 C.2   1 <1>   0.4950 
  3 C       -0.0330     2.6740     1.0100 C.2   1 <1>   0.0290 
  4 C       -2.4840     2.0000     1.4270 C.3   1 <1>  -0.0990 
  5 C       -0.5030     3.6360     0.0490 C.2   1 <1>   0.4950 
  6 C        1.3070     2.4970     1.2890 C.2   1 <1>  -0.0500 
  7 C       -2.7530     2.4970     0.0080 C.3   1 <1>   0.0640 
  8 O        0.2060     4.3800    -0.5920 O.2   1 <1>  -0.5700 
  9 C       -1.9870     3.7960    -0.2310 C.3   1 <1>  -0.0990 
 10 N        2.3380     3.1690     0.7270 N.pl3 1 <1>  -0.8690 
 11 C       -4.2480     2.6740    -0.2470 C.ar  1 <1>  -0.1430 
 12 C        3.7740     3.0040     1.0050 C.3   1 <1>   0.2890 
 13 C       -4.8680     1.9250    -1.2370 C.ar  1 <1>  -0.1500 
 14 C       -5.0090     3.5710     0.4920 C.ar  1 <1>  -0.1500 
 15 C        4.3440     4.3530     1.4170 C.3   1 <1>  -0.1600 
 16 C        4.4890     2.7030    -0.3050 C.3   1 <1>  -0.1600 
 17 C       -6.2220     2.0690    -1.4860 C.ar  1 <1>  -0.1500 
 18 C       -6.3630     3.7160     0.2440 C.ar  1 <1>  -0.1500 
 19 C        4.5910     5.1190     0.1110 C.3   1 <1>  -0.1600 
 20 C        4.6850     4.0580    -0.9950 C.3   1 <1>  -0.1600 
 21 C       -6.9710     2.9650    -0.7450 C.ar  1 <1>  -0.1500 
 22 H       -2.9040     2.6700     2.1530 H     1 <1>   0.0800 
 23 H       -2.9510     1.0390     1.5570 H     1 <1>   0.0800 
 24 H        1.5810     1.7540     2.0250 H     1 <1>   0.1500 
 25 H       -2.3730     1.7580    -0.6790 H     1 <1>   0.0800 
 26 H       -2.1210     4.0980    -1.2550 H     1 <1>   0.0800 
 27 H       -2.3640     4.5840     0.3940 H     1 <1>   0.0800 
 28 H        2.1410     3.8950     0.0160 H     1 <1>   0.4000 
 29 H        3.9310     2.2410     1.7500 H     1 <1>   0.0800 
 30 H       -4.3050     1.2220    -1.8260 H     1 <1>   0.1500 
 31 H       -4.5610     4.1670     1.2660 H     1 <1>   0.1500 
 32 H        5.2860     4.1890     1.9100 H     1 <1>   0.0800 
 33 H        3.6880     4.8800     2.0880 H     1 <1>   0.0800 
 34 H        3.9390     2.0050    -0.9120 H     1 <1>   0.0800 
 35 H        5.4520     2.2820    -0.0780 H     1 <1>   0.0800 
 36 H       -6.6940     1.4840    -2.2560 H     1 <1>   0.1500 
 37 H       -6.9450     4.4140     0.8210 H     1 <1>   0.1500 
 38 H        5.4900     5.7080     0.1720 H     1 <1>   0.0800 
 39 H        3.7590     5.7720    -0.0890 H     1 <1>   0.0800 
 40 H        3.8980     4.2180    -1.7120 H     1 <1>   0.0800 
 41 H        5.6330     4.0990    -1.5030 H     1 <1>   0.0800 
 42 H       -8.0240     3.0780    -0.9380 H     1 <1>   0.1500 
@<TRIPOS>BOND
  1   1   2  2   
  2   2   3  1   
  3   2   4  1   
  4   3   5  1   
  5   3   6  2   
  6   4   7  1   
  7   4  22  1   
  8   4  23  1   
  9   5   8  2   
 10   5   9  1   
 11   6  10  1   
 12   6  24  1   
 13   7   9  1   
 14   7  11  1   
 15   7  25  1   
 16   9  26  1   
 17   9  27  1   
 18  10  12  1   
 19  10  28  1   
 20  11  13  ar  
 21  11  14  ar  
 22  12  15  1   
 23  12  16  1   
 24  12  29  1   
 25  13  17  ar  
 26  13  30  1   
 27  14  18  ar  
 28  14  31  1   
 29  15  19  1   
 30  15  32  1   
 31  15  33  1   
 32  16  20  1   
 33  16  34  1   
 34  16  35  1   
 35  17  21  ar  
 36  17  36  1   
 37  18  21  ar  
 38  18  37  1   
 39  19  20  1   
 40  19  38  1   
 41  19  39  1   
 42  20  40  1   
 43  20  41  1   
 44  21  42  1   
@<TRIPOS>SUBSTRUCTURE
  1 ****   5 GROUP 4 **** **** 0

# MOE 2024.06 (io_trps.svl 2023.06)
