@<TRIPOS>MOLECULE
NONAME
58 61 1 0 0 
SMALL
USER_CHARGES


@<TRIPOS>ATOM
  1 O        1.2230    -0.4230    -0.3560 O.2   1 <1>  -0.5700 
  2 C        1.7340     0.6880    -0.2880 C.2   1 <1>   0.5440 
  3 N        2.9680     0.9330    -0.8740 N.am  1 <1>  -0.2980 
  4 C        1.0930     1.7790     0.3890 C.ar  1 <1>   0.0860 
  5 N        3.6230     2.1290    -0.8290 N.2   1 <1>  -0.5120 
  6 C        3.6590    -0.1610    -1.5950 C.3   1 <1>   0.0600 
  7 C        1.7590     3.0130     0.4230 C.ar  1 <1>   0.0860 
  8 C       -0.1600     1.6540     0.9990 C.ar  1 <1>  -0.1500 
  9 C        3.0590     3.1150    -0.2010 C.2   1 <1>   0.2780 
 10 C        1.1210     4.0890     1.0590 C.ar  1 <1>  -0.1500 
 11 C       -0.7590     2.7240     1.6250 C.ar  1 <1>  -0.1500 
 12 C        3.7690     4.3700    -0.1290 C.ar  1 <1>   0.0860 
 13 C       -0.1140     3.9500     1.6520 C.ar  1 <1>  -0.1500 
 14 C        3.8810     5.1960    -1.2440 C.ar  1 <1>  -0.1500 
 15 C        4.3580     4.8020     1.0560 C.ar  1 <1>  -0.1500 
 16 C        4.5300     6.4190    -1.1880 C.ar  1 <1>  -0.1430 
 17 C        5.0050     6.0200     1.1270 C.ar  1 <1>  -0.1500 
 18 C        5.0890     6.8430     0.0140 C.ar  1 <1>  -0.1430 
 19 C        4.6180     7.2620    -2.4530 C.3   1 <1>  -0.0970 
 20 C        5.8070     8.1770     0.1560 C.3   1 <1>   0.2840 
 21 N        7.2330     7.9680    -0.1230 N.am  1 <1>  -0.7300 
 22 C        8.2090     8.5420     0.6020 C.2   1 <1>   0.6900 
 23 O        9.1560     7.8740     0.9480 O.2   1 <1>  -0.5700 
 24 N        8.1570     9.8370     0.9690 N.am  1 <1>  -0.7300 
 25 C        7.6700    10.9350     0.1210 C.3   1 <1>   0.2200 
 26 C        8.8620    11.7980    -0.3060 C.3   1 <1>  -0.1600 
 27 C        6.6460    11.7580     0.9090 C.3   1 <1>  -0.1600 
 28 C        8.3990    13.0160    -1.1180 C.3   1 <1>  -0.1600 
 29 C        6.1750    12.9770     0.1020 C.3   1 <1>  -0.1600 
 30 C        7.3640    13.8410    -0.3400 C.3   1 <1>  -0.1600 
 31 H        3.0370    -0.5040    -2.4030 H     1 <1>   0.0800 
 32 H        3.8430    -0.9750    -0.9180 H     1 <1>   0.0800 
 33 H        4.5940     0.1920    -1.9910 H     1 <1>   0.0800 
 34 H       -0.6590     0.7000     0.9710 H     1 <1>   0.1500 
 35 H        1.5950     5.0540     1.0890 H     1 <1>   0.1500 
 36 H       -1.7240     2.6130     2.0900 H     1 <1>   0.1500 
 37 H       -0.5850     4.7890     2.1370 H     1 <1>   0.1500 
 38 H        3.4480     4.8560    -2.1680 H     1 <1>   0.1500 
 39 H        4.3070     4.1710     1.9260 H     1 <1>   0.1500 
 40 H        5.4540     6.3260     2.0580 H     1 <1>   0.1500 
 41 H        4.2720     6.7110    -3.3090 H     1 <1>   0.0800 
 42 H        5.6370     7.5530    -2.6360 H     1 <1>   0.0800 
 43 H        4.0120     8.1450    -2.3520 H     1 <1>   0.0800 
 44 H        5.6850     8.5560     1.1570 H     1 <1>   0.0800 
 45 H        5.4090     8.9060    -0.5270 H     1 <1>   0.0800 
 46 H        7.4380     6.9940    -0.3500 H     1 <1>   0.3700 
 47 H        8.9330    10.1020     1.5740 H     1 <1>   0.3700 
 48 H        7.2010    10.5330    -0.7620 H     1 <1>   0.0800 
 49 H        9.5340    11.2070    -0.9030 H     1 <1>   0.0800 
 50 H        9.3910    12.1410     0.5660 H     1 <1>   0.0800 
 51 H        7.0910    12.0970     1.8280 H     1 <1>   0.0800 
 52 H        5.7980    11.1430     1.1510 H     1 <1>   0.0800 
 53 H        7.9650    12.6830    -2.0450 H     1 <1>   0.0800 
 54 H        9.2480    13.6340    -1.3560 H     1 <1>   0.0800 
 55 H        5.5030    13.5680     0.7000 H     1 <1>   0.0800 
 56 H        5.6360    12.6430    -0.7680 H     1 <1>   0.0800 
 57 H        7.0130    14.6510    -0.9550 H     1 <1>   0.0800 
 58 H        7.8340    14.2710     0.5290 H     1 <1>   0.0800 
@<TRIPOS>BOND
  1   1   2  2   
  2   2   3  am  
  3   2   4  1   
  4   3   5  1   
  5   3   6  1   
  6   4   7  ar  
  7   4   8  ar  
  8   5   9  2   
  9   6  31  1   
 10   6  32  1   
 11   6  33  1   
 12   7   9  1   
 13   7  10  ar  
 14   8  11  ar  
 15   8  34  1   
 16   9  12  1   
 17  10  13  ar  
 18  10  35  1   
 19  11  13  ar  
 20  11  36  1   
 21  12  14  ar  
 22  12  15  ar  
 23  13  37  1   
 24  14  16  ar  
 25  14  38  1   
 26  15  17  ar  
 27  15  39  1   
 28  16  18  ar  
 29  16  19  1   
 30  17  18  ar  
 31  17  40  1   
 32  18  20  1   
 33  19  41  1   
 34  19  42  1   
 35  19  43  1   
 36  20  21  1   
 37  20  44  1   
 38  20  45  1   
 39  21  22  am  
 40  21  46  1   
 41  22  23  2   
 42  22  24  am  
 43  24  25  1   
 44  24  47  1   
 45  25  26  1   
 46  25  27  1   
 47  25  48  1   
 48  26  28  1   
 49  26  49  1   
 50  26  50  1   
 51  27  29  1   
 52  27  51  1   
 53  27  52  1   
 54  28  30  1   
 55  28  53  1   
 56  28  54  1   
 57  29  30  1   
 58  29  55  1   
 59  29  56  1   
 60  30  57  1   
 61  30  58  1   
@<TRIPOS>SUBSTRUCTURE
  1 ****  18 GROUP 4 **** **** 0

# MOE 2024.06 (io_trps.svl 2023.06)
