@<TRIPOS>MOLECULE
NONAME
36 36 1 0 0 
SMALL
USER_CHARGES


@<TRIPOS>ATOM
  1 S        0.1730    -0.0070     0.7460 S.o2  1 <1>   1.4470 
  2 O        0.6060    -0.0640     2.1240 O.2   1 <1>  -0.6500 
  3 O        0.1620     1.2520     0.0380 O.2   1 <1>  -0.6500 
  4 N        1.2420    -0.9450    -0.1430 N.am  1 <1>  -0.9140 
  5 C       -1.4060    -0.8750     0.5440 C.ar  1 <1>  -0.0090 
  6 C        2.6270    -0.7000     0.2100 C.3   1 <1>   0.1960 
  7 C       -2.5070    -0.2500    -0.0280 C.ar  1 <1>  -0.1500 
  8 C       -1.5510    -2.1930     0.9570 C.ar  1 <1>  -0.1500 
  9 C        3.5210    -1.4880    -0.7450 C.3   1 <1>  -0.1600 
 10 C       -3.7160    -0.9080    -0.1900 C.ar  1 <1>  -0.1430 
 11 C       -2.7490    -2.8670     0.8040 C.ar  1 <1>  -0.1500 
 12 C        5.0050    -1.2820    -0.4200 C.3   1 <1>  -0.2400 
 13 C       -3.8430    -2.2280     0.2280 C.ar  1 <1>   0.0830 
 14 C       -4.8950    -0.1810    -0.8230 C.3   1 <1>  -0.0970 
 15 O       -5.0450    -2.8350     0.0500 O.3   1 <1>  -0.3630 
 16 C       -5.2780    -4.1630     0.4560 C.3   1 <1>   0.1200 
 17 C       -6.7230    -4.5140     0.1150 C.3   1 <1>  -0.2400 
 18 H        1.1170    -0.6050    -1.0930 H     1 <1>   0.4200 
 19 H        2.8050    -1.0210     1.2240 H     1 <1>   0.0800 
 20 H        2.8460     0.3540     0.1390 H     1 <1>   0.0800 
 21 H       -2.4120     0.7730    -0.3520 H     1 <1>   0.1500 
 22 H       -0.7100    -2.6960     1.4040 H     1 <1>   0.1500 
 23 H        3.3380    -1.1710    -1.7570 H     1 <1>   0.0800 
 24 H        3.2860    -2.5360    -0.6650 H     1 <1>   0.0800 
 25 H       -2.8100    -3.8850     1.1400 H     1 <1>   0.1500 
 26 H        5.2710    -0.2430    -0.5090 H     1 <1>   0.0800 
 27 H        5.6130    -1.8500    -1.1030 H     1 <1>   0.0800 
 28 H        5.2200    -1.6120     0.5820 H     1 <1>   0.0800 
 29 H       -4.6360     0.8270    -1.0900 H     1 <1>   0.0800 
 30 H       -5.7180    -0.1530    -0.1310 H     1 <1>   0.0800 
 31 H       -5.2100    -0.7020    -1.7090 H     1 <1>   0.0800 
 32 H       -5.1110    -4.2290     1.5170 H     1 <1>   0.0800 
 33 H       -4.5950    -4.8060    -0.0730 H     1 <1>   0.0800 
 34 H       -7.3960    -3.8550     0.6340 H     1 <1>   0.0800 
 35 H       -6.9330    -5.5250     0.4130 H     1 <1>   0.0800 
 36 H       -6.8840    -4.4280    -0.9450 H     1 <1>   0.0800 
@<TRIPOS>BOND
  1   1   2  2   
  2   1   3  2   
  3   1   4  am  
  4   1   5  1   
  5   4   6  1   
  6   4  18  1   
  7   5   7  ar  
  8   5   8  ar  
  9   6   9  1   
 10   6  19  1   
 11   6  20  1   
 12   7  10  ar  
 13   7  21  1   
 14   8  11  ar  
 15   8  22  1   
 16   9  12  1   
 17   9  23  1   
 18   9  24  1   
 19  10  13  ar  
 20  10  14  1   
 21  11  13  ar  
 22  11  25  1   
 23  12  26  1   
 24  12  27  1   
 25  12  28  1   
 26  13  15  1   
 27  14  29  1   
 28  14  30  1   
 29  14  31  1   
 30  15  16  1   
 31  16  17  1   
 32  16  32  1   
 33  16  33  1   
 34  17  34  1   
 35  17  35  1   
 36  17  36  1   
@<TRIPOS>SUBSTRUCTURE
  1 ****   5 GROUP 4 **** **** 0

# MOE 2024.06 (io_trps.svl 2023.06)
