@<TRIPOS>MOLECULE
Structure2009
30 29 1 0 0 
SMALL
USER_CHARGES


@<TRIPOS>ATOM
  1 O        0.2620     0.6680    -1.0850 O.2   1 <1>  -0.5700 
  2 C        0.1550     1.2570    -0.0300 C.2   1 <1>   0.7800 
  3 O       -1.0210     1.6400     0.4610 O.3   1 <1>  -0.4300 
  4 N        1.2280     1.5720     0.7220 N.am  1 <1>  -0.7300 
  5 C       -2.2910     1.4410    -0.1220 C.3   1 <1>   0.2800 
  6 C        2.6450     1.3920     0.3130 C.3   1 <1>   0.2010 
  7 C       -2.5880    -0.0580    -0.2470 C.3   1 <1>  -0.2400 
  8 C       -3.2830     2.0730     0.8550 C.3   1 <1>  -0.2400 
  9 C       -2.3750     2.1680    -1.4700 C.3   1 <1>  -0.2400 
 10 C        3.5330     2.5420     0.7880 C.2   1 <1>   0.4480 
 11 O        3.2330     3.2330     1.7180 O.2   1 <1>  -0.5700 
 12 C        4.8280     2.7770     0.0240 C.3   1 <1>  -0.0990 
 13 C        5.8370     1.6300     0.1900 C.3   1 <1>  -0.2400 
 14 H        1.0830     2.1690     1.5400 H     1 <1>   0.3700 
 15 H        2.6990     1.3190    -0.7590 H     1 <1>   0.0800 
 16 H        3.0120     0.4730     0.7330 H     1 <1>   0.0800 
 17 H       -1.9530    -0.5200    -0.9790 H     1 <1>   0.0800 
 18 H       -3.6050    -0.2050    -0.5610 H     1 <1>   0.0800 
 19 H       -2.4500    -0.5460     0.7010 H     1 <1>   0.0800 
 20 H       -3.2190     1.5910     1.8140 H     1 <1>   0.0800 
 21 H       -4.2880     1.9680     0.4880 H     1 <1>   0.0800 
 22 H       -3.0730     3.1200     0.9740 H     1 <1>   0.0800 
 23 H       -1.7400     1.7040    -2.2010 H     1 <1>   0.0800 
 24 H       -2.0920     3.1990    -1.3570 H     1 <1>   0.0800 
 25 H       -3.3820     2.1300    -1.8440 H     1 <1>   0.0800 
 26 H        5.2720     3.6880     0.3860 H     1 <1>   0.0800 
 27 H        4.6010     2.9170    -1.0170 H     1 <1>   0.0800 
 28 H        6.0640     1.4840     1.2330 H     1 <1>   0.0800 
 29 H        6.7500     1.8680    -0.3260 H     1 <1>   0.0800 
 30 H        5.4480     0.7120    -0.2130 H     1 <1>   0.0800 
@<TRIPOS>BOND
  1   1   2  2   
  2   2   3  1   
  3   2   4  am  
  4   3   5  1   
  5   4   6  1   
  6   4  14  1   
  7   5   7  1   
  8   5   8  1   
  9   5   9  1   
 10   6  10  1   
 11   6  15  1   
 12   6  16  1   
 13   7  17  1   
 14   7  18  1   
 15   7  19  1   
 16   8  20  1   
 17   8  21  1   
 18   8  22  1   
 19   9  23  1   
 20   9  24  1   
 21   9  25  1   
 22  10  11  2   
 23  10  12  1   
 24  12  13  1   
 25  12  26  1   
 26  12  27  1   
 27  13  28  1   
 28  13  29  1   
 29  13  30  1   
@<TRIPOS>SUBSTRUCTURE
  1 ****   4 GROUP 4 **** **** 0

# MOE 2024.06 (io_trps.svl 2023.06)
