@<TRIPOS>MOLECULE
NONAME
53 56 1 0 0 
SMALL
USER_CHARGES


@<TRIPOS>ATOM
  1 S       -0.7750    -0.5600    -0.2640 S.3   1 <1>  -0.3320 
  2 C       -2.2980     0.3440    -0.0670 C.ar  1 <1>   0.7220 
  3 C       -1.2020    -1.9070    -1.4640 C.3   1 <1>   0.2110 
  4 N       -3.2590     0.0760    -0.8860 N.ar  1 <1>  -0.6200 
  5 N       -2.2720     1.2420     0.9320 N.ar  1 <1>  -0.6200 
  6 C       -1.8690    -3.0590    -0.7300 C.2   1 <1>   0.5690 
  7 C        0.1060    -2.5050    -1.9850 C.3   1 <1>  -0.0990 
  8 C       -4.4060     0.7530    -0.6850 C.ar  1 <1>   0.3100 
  9 C       -3.3600     1.9080     1.1230 C.ar  1 <1>   0.1660 
 10 O       -3.0150    -3.0440    -0.3550 O.2   1 <1>  -0.5700 
 11 N       -1.0020    -4.1100    -0.6150 N.am  1 <1>  -0.2370 
 12 C        0.1550    -3.8440    -1.2930 C.2   1 <1>   0.5690 
 13 C       -4.5150     1.7140     0.3330 C.ar  1 <1>   0.0000 
 14 C       -5.5130     0.4930    -1.5050 C.ar  1 <1>  -0.1500 
 15 C       -3.3600     2.9280     2.2470 C.3   1 <1>  -0.0970 
 16 C       -1.2510    -5.2890     0.1160 C.ar  1 <1>   0.1170 
 17 O        1.1170    -4.5610    -1.3770 O.2   1 <1>  -0.5700 
 18 C       -5.7420     2.3920     0.4850 C.ar  1 <1>  -0.1500 
 19 C       -6.6980     1.1610    -1.3390 C.ar  1 <1>  -0.1500 
 20 C       -2.0390    -6.3210    -0.3960 C.ar  1 <1>  -0.1440 
 21 C       -0.6960    -5.4260     1.3820 C.ar  1 <1>  -0.1500 
 22 C       -6.8150     2.1290    -0.3270 C.ar  1 <1>   0.0830 
 23 C       -2.2540    -7.4600     0.3650 C.ar  1 <1>  -0.1500 
 24 C       -2.6720    -6.2230    -1.7780 C.3   1 <1>  -0.0970 
 25 C       -0.9160    -6.5650     2.1330 C.ar  1 <1>  -0.1500 
 26 O       -7.9510     2.8310    -0.1010 O.3   1 <1>  -0.3630 
 27 C       -1.6960    -7.5900     1.6270 C.ar  1 <1>  -0.1440 
 28 C       -9.1230     2.6080    -0.8490 C.3   1 <1>   0.1200 
 29 C       -1.9440    -8.8440     2.4460 C.3   1 <1>  -0.0970 
 30 C      -10.2040     3.5470    -0.3230 C.3   1 <1>  -0.2400 
 31 H       -1.8160    -1.5010    -2.2480 H     1 <1>   0.0800 
 32 H        0.9670    -1.9130    -1.7340 H     1 <1>   0.0800 
 33 H        0.0610    -2.6590    -3.0470 H     1 <1>   0.0800 
 34 H       -5.4020    -0.2540    -2.2690 H     1 <1>   0.1500 
 35 H       -2.4020     2.9460     2.7370 H     1 <1>   0.0800 
 36 H       -4.1090     2.6730     2.9740 H     1 <1>   0.0800 
 37 H       -3.5590     3.9080     1.8540 H     1 <1>   0.0800 
 38 H       -5.8510     3.1330     1.2540 H     1 <1>   0.1500 
 39 H       -7.5240     0.9350    -1.9860 H     1 <1>   0.1500 
 40 H       -0.0860    -4.6370     1.7820 H     1 <1>   0.1500 
 41 H       -2.8620    -8.2570    -0.0230 H     1 <1>   0.1500 
 42 H       -1.9190    -6.0160    -2.5160 H     1 <1>   0.0800 
 43 H       -3.4060    -5.4370    -1.7880 H     1 <1>   0.0800 
 44 H       -3.1600    -7.1430    -2.0440 H     1 <1>   0.0800 
 45 H       -0.4770    -6.6490     3.1110 H     1 <1>   0.1500 
 46 H       -9.4180     1.5810    -0.7240 H     1 <1>   0.0800 
 47 H       -8.9120     2.8150    -1.8840 H     1 <1>   0.0800 
 48 H       -2.8720    -8.7500     2.9810 H     1 <1>   0.0800 
 49 H       -1.1490    -8.9970     3.1530 H     1 <1>   0.0800 
 50 H       -1.9970    -9.7050     1.8040 H     1 <1>   0.0800 
 51 H      -10.3960     3.3440     0.7160 H     1 <1>   0.0800 
 52 H      -11.1140     3.4010    -0.8750 H     1 <1>   0.0800 
 53 H       -9.8920     4.5700    -0.4370 H     1 <1>   0.0800 
@<TRIPOS>BOND
  1   1   2  1   
  2   1   3  1   
  3   2   4  ar  
  4   2   5  ar  
  5   3   6  1   
  6   3   7  1   
  7   3  31  1   
  8   4   8  ar  
  9   5   9  ar  
 10   6  10  2   
 11   6  11  am  
 12   7  12  1   
 13   7  32  1   
 14   7  33  1   
 15   8  13  ar  
 16   8  14  ar  
 17   9  13  ar  
 18   9  15  1   
 19  11  12  am  
 20  11  16  1   
 21  12  17  2   
 22  13  18  ar  
 23  14  19  ar  
 24  14  34  1   
 25  15  35  1   
 26  15  36  1   
 27  15  37  1   
 28  16  20  ar  
 29  16  21  ar  
 30  18  22  ar  
 31  18  38  1   
 32  19  22  ar  
 33  19  39  1   
 34  20  23  ar  
 35  20  24  1   
 36  21  25  ar  
 37  21  40  1   
 38  22  26  1   
 39  23  27  ar  
 40  23  41  1   
 41  24  42  1   
 42  24  43  1   
 43  24  44  1   
 44  25  27  ar  
 45  25  45  1   
 46  26  28  1   
 47  27  29  1   
 48  28  30  1   
 49  28  46  1   
 50  28  47  1   
 51  29  48  1   
 52  29  49  1   
 53  29  50  1   
 54  30  51  1   
 55  30  52  1   
 56  30  53  1   
@<TRIPOS>SUBSTRUCTURE
  1 ****  10 GROUP 4 **** **** 0

# MOE 2024.06 (io_trps.svl 2023.06)
