@<TRIPOS>MOLECULE
NONAME
50 52 1 0 0 
SMALL
USER_CHARGES


@<TRIPOS>ATOM
  1 CL       1.4290    -1.0260     3.6700 Cl    1 <1>  -0.1770 
  2 C        2.4350    -1.5780     2.3570 C.ar  1 <1>   0.1770 
  3 C        3.7770    -1.8130     2.5810 C.ar  1 <1>  -0.1500 
  4 C        1.8770    -1.7730     1.1090 C.ar  1 <1>  -0.1500 
  5 C        4.5690    -2.2550     1.5340 C.ar  1 <1>  -0.1500 
  6 C        2.6810    -2.2150     0.0710 C.ar  1 <1>  -0.1500 
  7 C        4.0380    -2.4670     0.2650 C.ar  1 <1>  -0.0090 
  8 S        5.0870    -3.0840    -1.0850 S.o2  1 <1>   1.4470 
  9 O        4.3390    -3.1090    -2.3220 O.2   1 <1>  -0.6500 
 10 O        6.3530    -2.3930    -1.0140 O.2   1 <1>  -0.6500 
 11 N        5.3390    -4.7080    -0.6590 N.am  1 <1>  -0.8490 
 12 C        6.3860    -5.3190    -1.5300 C.3   1 <1>   0.2570 
 13 C        4.0950    -5.4890    -0.7360 C.3   1 <1>   0.1960 
 14 C        7.8470    -4.8820    -1.3130 C.2   1 <1>   0.5690 
 15 C        4.1460    -6.6930     0.2090 C.3   1 <1>  -0.0170 
 16 O        8.5010    -4.6330    -2.3000 O.2   1 <1>  -0.5700 
 17 N        8.4090    -4.8420    -0.0620 N.am  1 <1>  -0.6600 
 18 C        2.7810    -7.3570     0.2690 C.ar  1 <1>  -0.1430 
 19 C        9.7750    -4.3260     0.1670 C.3   1 <1>   0.1400 
 20 C        7.7410    -5.1660     1.2150 C.3   1 <1>   0.1400 
 21 C        2.4720    -8.4090    -0.5800 C.ar  1 <1>  -0.1500 
 22 C        1.8290    -6.9080     1.1720 C.ar  1 <1>  -0.1500 
 23 C        9.8710    -4.1350     1.6770 C.3   1 <1>  -0.1600 
 24 C        8.8530    -5.1130     2.2550 C.3   1 <1>  -0.1600 
 25 C        1.2240    -9.0050    -0.5260 C.ar  1 <1>  -0.1500 
 26 C        0.5810    -7.5040     1.2260 C.ar  1 <1>  -0.1500 
 27 C        0.2780    -8.5530     0.3770 C.ar  1 <1>  -0.1500 
 28 H        4.1920    -1.6490     3.5600 H     1 <1>   0.1500 
 29 H        0.8300    -1.5810     0.9550 H     1 <1>   0.1500 
 30 H        5.6190    -2.4350     1.7000 H     1 <1>   0.1500 
 31 H        2.2480    -2.3660    -0.9050 H     1 <1>   0.1500 
 32 H        6.1400    -5.1290    -2.5610 H     1 <1>   0.0800 
 33 H        6.3830    -6.3850    -1.4010 H     1 <1>   0.0800 
 34 H        3.9050    -5.8070    -1.7490 H     1 <1>   0.0800 
 35 H        3.2600    -4.8820    -0.4310 H     1 <1>   0.0800 
 36 H        4.4220    -6.3620     1.1940 H     1 <1>   0.0800 
 37 H        4.8760    -7.4070    -0.1240 H     1 <1>   0.0800 
 38 H        9.9260    -3.4010    -0.3640 H     1 <1>   0.0800 
 39 H       10.4870    -5.0580    -0.1730 H     1 <1>   0.0800 
 40 H        7.2760    -6.1360     1.1760 H     1 <1>   0.0800 
 41 H        7.0020    -4.4120     1.4240 H     1 <1>   0.0800 
 42 H        3.1970    -8.7710    -1.2860 H     1 <1>   0.1500 
 43 H        2.0520    -6.0930     1.8390 H     1 <1>   0.1500 
 44 H        9.5870    -3.1250     1.9160 H     1 <1>   0.0800 
 45 H       10.8680    -4.3140     2.0380 H     1 <1>   0.0800 
 46 H        9.2950    -6.0900     2.3450 H     1 <1>   0.0800 
 47 H        8.4870    -4.8040     3.2180 H     1 <1>   0.0800 
 48 H        0.9870    -9.8220    -1.1850 H     1 <1>   0.1500 
 49 H       -0.1540    -7.1520     1.9290 H     1 <1>   0.1500 
 50 H       -0.6920    -9.0170     0.4190 H     1 <1>   0.1500 
@<TRIPOS>BOND
  1   1   2  1   
  2   2   3  ar  
  3   2   4  ar  
  4   3   5  ar  
  5   3  28  1   
  6   4   6  ar  
  7   4  29  1   
  8   5   7  ar  
  9   5  30  1   
 10   6   7  ar  
 11   6  31  1   
 12   7   8  1   
 13   8   9  2   
 14   8  10  2   
 15   8  11  am  
 16  11  12  1   
 17  11  13  1   
 18  12  14  1   
 19  12  32  1   
 20  12  33  1   
 21  13  15  1   
 22  13  34  1   
 23  13  35  1   
 24  14  16  2   
 25  14  17  am  
 26  15  18  1   
 27  15  36  1   
 28  15  37  1   
 29  17  19  1   
 30  17  20  1   
 31  18  21  ar  
 32  18  22  ar  
 33  19  23  1   
 34  19  38  1   
 35  19  39  1   
 36  20  24  1   
 37  20  40  1   
 38  20  41  1   
 39  21  25  ar  
 40  21  42  1   
 41  22  26  ar  
 42  22  43  1   
 43  23  24  1   
 44  23  44  1   
 45  23  45  1   
 46  24  46  1   
 47  24  47  1   
 48  25  27  ar  
 49  25  48  1   
 50  26  27  ar  
 51  26  49  1   
 52  27  50  1   
@<TRIPOS>SUBSTRUCTURE
  1 ****  11 GROUP 4 **** **** 0

# MOE 2024.06 (io_trps.svl 2023.06)
