@<TRIPOS>MOLECULE
NONAME
34 35 1 0 0 
SMALL
USER_CHARGES


@<TRIPOS>ATOM
  1 BR       0.4920    -0.2460     1.4000 Br    1 <1>  -0.1110 
  2 C       -1.1570    -0.6650     0.4980 C.ar  1 <1>   0.1110 
  3 C       -1.5670    -1.9800     0.3180 C.ar  1 <1>  -0.0090 
  4 C       -1.8900     0.4150     0.0450 C.ar  1 <1>  -0.1500 
  5 S       -0.6250    -3.4040     0.9190 S.o2  1 <1>   1.2040 
  6 C       -2.7670    -2.1640    -0.3620 C.ar  1 <1>  -0.1500 
  7 C       -3.0800     0.1870    -0.6190 C.ar  1 <1>  -0.1500 
  8 O       -1.3610    -4.6020     0.5830 O.2   1 <1>  -0.6500 
  9 O       -0.2290    -3.1970     2.2920 O.2   1 <1>  -0.6500 
 10 C        0.8440    -3.4120    -0.0950 C.3   1 <1>  -0.1350 
 11 C       -3.5390    -1.1070    -0.8380 C.ar  1 <1>  -0.0090 
 12 S       -5.1170    -1.4010    -1.6910 S.o2  1 <1>   1.4470 
 13 O       -5.3340    -0.3380    -2.6480 O.2   1 <1>  -0.6500 
 14 O       -5.1940    -2.7780    -2.1260 O.2   1 <1>  -0.6500 
 15 N       -6.2620    -1.2010    -0.4580 N.am  1 <1>  -0.8490 
 16 C       -6.3010    -2.3380     0.4800 C.3   1 <1>   0.1960 
 17 C       -7.6100    -0.9870    -1.0090 C.3   1 <1>   0.1960 
 18 C       -7.3670    -2.1190     1.5690 C.3   1 <1>   0.1200 
 19 C       -8.6520    -0.8120     0.1120 C.3   1 <1>   0.1200 
 20 O       -8.6220    -1.9020     0.9890 O.3   1 <1>  -0.5600 
 21 H       -1.5350     1.4180     0.2100 H     1 <1>   0.1500 
 22 H       -3.1220    -3.1700    -0.5290 H     1 <1>   0.1500 
 23 H       -3.6640     1.0210    -0.9740 H     1 <1>   0.1500 
 24 H        0.5830    -3.4750    -1.1330 H     1 <1>   0.0800 
 25 H        1.4490    -4.2630     0.1530 H     1 <1>   0.0800 
 26 H        1.4280    -2.5280     0.0650 H     1 <1>   0.0800 
 27 H       -5.3410    -2.4540     0.9510 H     1 <1>   0.0800 
 28 H       -6.5290    -3.2510    -0.0460 H     1 <1>   0.0800 
 29 H       -7.8940    -1.8220    -1.6290 H     1 <1>   0.0800 
 30 H       -7.6140    -0.1020    -1.6230 H     1 <1>   0.0800 
 31 H       -7.1160    -1.2690     2.1790 H     1 <1>   0.0800 
 32 H       -7.4420    -2.9890     2.1970 H     1 <1>   0.0800 
 33 H       -9.6410    -0.7530    -0.3060 H     1 <1>   0.0800 
 34 H       -8.4560     0.0860     0.6710 H     1 <1>   0.0800 
@<TRIPOS>BOND
  1   1   2  1   
  2   2   3  ar  
  3   2   4  ar  
  4   3   5  1   
  5   3   6  ar  
  6   4   7  ar  
  7   4  21  1   
  8   5   8  2   
  9   5   9  2   
 10   5  10  1   
 11   6  11  ar  
 12   6  22  1   
 13   7  11  ar  
 14   7  23  1   
 15  10  24  1   
 16  10  25  1   
 17  10  26  1   
 18  11  12  1   
 19  12  13  2   
 20  12  14  2   
 21  12  15  am  
 22  15  16  1   
 23  15  17  1   
 24  16  18  1   
 25  16  27  1   
 26  16  28  1   
 27  17  19  1   
 28  17  29  1   
 29  17  30  1   
 30  18  20  1   
 31  18  31  1   
 32  18  32  1   
 33  19  20  1   
 34  19  33  1   
 35  19  34  1   
@<TRIPOS>SUBSTRUCTURE
  1 ****  11 GROUP 4 **** **** 0

# MOE 2024.06 (io_trps.svl 2023.06)
