@<TRIPOS>MOLECULE
NONAME
45 46 1 0 0 
SMALL
USER_CHARGES


@<TRIPOS>ATOM
  1 O       -0.1710     0.6710    -1.3600 O.2   1 <1>  -0.5700 
  2 C       -0.1920     1.3320    -0.3380 C.2   1 <1>   0.6900 
  3 N       -1.3800     1.6930     0.2370 N.am  1 <1>  -0.6600 
  4 N        0.9670     1.7070     0.2530 N.am  1 <1>  -0.7300 
  5 C       -1.5680     2.9750     0.9820 C.3   1 <1>   0.1400 
  6 C       -2.6610     1.0720    -0.2110 C.3   1 <1>   0.1400 
  7 C        2.3150     1.3720    -0.2440 C.3   1 <1>   0.1400 
  8 C       -2.4030     3.9630     0.1530 C.3   1 <1>   0.1400 
  9 C       -3.4950     2.0630    -1.0380 C.3   1 <1>   0.1400 
 10 C        3.2620     2.5320     0.0620 C.3   1 <1>  -0.1600 
 11 N       -3.6950     3.3450    -0.2870 N.am  1 <1>  -0.6600 
 12 C        4.6800     2.2380    -0.4440 C.3   1 <1>  -0.1600 
 13 C       -4.9050     3.9070     0.0630 C.2   1 <1>   0.5690 
 14 C        5.6270     3.4020    -0.1390 C.3   1 <1>  -0.2400 
 15 O       -4.9460     4.7910     0.8930 O.2   1 <1>  -0.5700 
 16 C       -6.2400     3.4070    -0.5440 C.3   1 <1>   0.2610 
 17 O       -7.0530     4.4590    -0.9990 O.3   1 <1>  -0.5600 
 18 C       -7.1000     2.6300     0.4640 C.3   1 <1>  -0.1600 
 19 C       -8.0210     4.7590    -0.0530 C.3   1 <1>   0.1200 
 20 C       -8.4040     3.4110     0.5340 C.3   1 <1>  -0.1600 
 21 H        0.9070     2.0170     1.2190 H     1 <1>   0.3700 
 22 H       -0.6210     3.4290     1.2090 H     1 <1>   0.0800 
 23 H       -2.0740     2.7760     1.9100 H     1 <1>   0.0800 
 24 H       -3.2230     0.7680     0.6550 H     1 <1>   0.0800 
 25 H       -2.4660     0.1900    -0.7980 H     1 <1>   0.0800 
 26 H        2.2780     1.1970    -1.3070 H     1 <1>   0.0800 
 27 H        2.6570     0.4720     0.2380 H     1 <1>   0.0800 
 28 H       -1.8420     4.2550    -0.7170 H     1 <1>   0.0800 
 29 H       -2.5810     4.8500     0.7350 H     1 <1>   0.0800 
 30 H       -4.4300     1.5950    -1.2780 H     1 <1>   0.0800 
 31 H       -2.9790     2.2690    -1.9610 H     1 <1>   0.0800 
 32 H        3.2920     2.6980     1.1250 H     1 <1>   0.0800 
 33 H        2.8920     3.4210    -0.4180 H     1 <1>   0.0800 
 34 H        4.6570     2.0710    -1.5080 H     1 <1>   0.0800 
 35 H        5.0550     1.3440     0.0260 H     1 <1>   0.0800 
 36 H        5.2830     4.3020    -0.6170 H     1 <1>   0.0800 
 37 H        6.6140     3.1780    -0.5030 H     1 <1>   0.0800 
 38 H        5.6860     3.5720     0.9220 H     1 <1>   0.0800 
 39 H       -6.0490     2.8040    -1.4080 H     1 <1>   0.0800 
 40 H       -6.6190     2.6160     1.4270 H     1 <1>   0.0800 
 41 H       -7.2600     1.6170     0.1410 H     1 <1>   0.0800 
 42 H       -8.8460     5.2580    -0.5320 H     1 <1>   0.0800 
 43 H       -7.5750     5.3990     0.6900 H     1 <1>   0.0800 
 44 H       -8.7790     3.5060     1.5370 H     1 <1>   0.0800 
 45 H       -9.1530     2.9540    -0.0880 H     1 <1>   0.0800 
@<TRIPOS>BOND
  1   1   2  2   
  2   2   3  am  
  3   2   4  am  
  4   3   5  1   
  5   3   6  1   
  6   4   7  1   
  7   4  21  1   
  8   5   8  1   
  9   5  22  1   
 10   5  23  1   
 11   6   9  1   
 12   6  24  1   
 13   6  25  1   
 14   7  10  1   
 15   7  26  1   
 16   7  27  1   
 17   8  11  1   
 18   8  28  1   
 19   8  29  1   
 20   9  11  1   
 21   9  30  1   
 22   9  31  1   
 23  10  12  1   
 24  10  32  1   
 25  10  33  1   
 26  11  13  am  
 27  12  14  1   
 28  12  34  1   
 29  12  35  1   
 30  13  15  2   
 31  13  16  1   
 32  14  36  1   
 33  14  37  1   
 34  14  38  1   
 35  16  17  1   
 36  16  18  1   
 37  16  39  1   
 38  17  19  1   
 39  18  20  1   
 40  18  40  1   
 41  18  41  1   
 42  19  20  1   
 43  19  42  1   
 44  19  43  1   
 45  20  44  1   
 46  20  45  1   
@<TRIPOS>SUBSTRUCTURE
  1 ****   8 GROUP 4 **** **** 0

# MOE 2024.06 (io_trps.svl 2023.06)
