@<TRIPOS>MOLECULE
NONAME
37 38 1 0 0 
SMALL
USER_CHARGES


@<TRIPOS>ATOM
  1 O        0.4390    -5.2990     0.1400 O.3   1 <1>  -0.3630 
  2 C        1.6400    -5.9140     0.0100 C.ar  1 <1>   0.0820 
  3 C       -0.7690    -5.9710    -0.1050 C.3   1 <1>   0.1200 
  4 C        2.7620    -5.1740     0.2720 C.ar  1 <1>  -0.1500 
  5 C        1.7770    -7.2610    -0.3780 C.ar  1 <1>  -0.1500 
  6 C       -1.8990    -4.9700     0.1370 C.3   1 <1>  -0.1600 
  7 C        4.0540    -5.7210     0.1650 C.ar  1 <1>   0.0000 
  8 C        3.0220    -7.8170    -0.4890 C.ar  1 <1>  -0.1500 
  9 C       -3.2590    -5.6170    -0.1160 C.3   1 <1>   0.3430 
 10 C        4.1880    -7.0710    -0.2230 C.ar  1 <1>   0.0000 
 11 C        5.2200    -4.9740     0.4310 C.ar  1 <1>  -0.1500 
 12 N       -4.3590    -4.6660     0.2210 N.4   1 <1>  -0.9590 
 13 C        5.4820    -7.6200    -0.3310 C.ar  1 <1>  -0.1500 
 14 C        6.4630    -5.5330     0.3190 C.ar  1 <1>  -0.1500 
 15 C       -5.6680    -5.3850     0.3030 C.3   1 <1>   0.2630 
 16 C       -4.4520    -3.5310    -0.7530 C.3   1 <1>   0.2630 
 17 C        6.5960    -6.8720    -0.0670 C.ar  1 <1>  -0.1500 
 18 H       -0.8330    -6.8060     0.5730 H     1 <1>   0.0800 
 19 H       -0.7610    -6.3130    -1.1260 H     1 <1>   0.0800 
 20 H        2.6620    -4.1460     0.5680 H     1 <1>   0.1500 
 21 H        0.9160    -7.8640    -0.5890 H     1 <1>   0.1500 
 22 H       -1.7520    -4.1370    -0.5250 H     1 <1>   0.0800 
 23 H       -1.8400    -4.6350     1.1580 H     1 <1>   0.0800 
 24 H        3.1330    -8.8450    -0.7840 H     1 <1>   0.1500 
 25 H       -3.3440    -6.4970     0.5020 H     1 <1>   0.0800 
 26 H       -3.3360    -5.9210    -1.1480 H     1 <1>   0.0800 
 27 H        5.1130    -3.9460     0.7270 H     1 <1>   0.1500 
 28 H       -4.1540    -4.2720     1.1540 H     1 <1>   0.4500 
 29 H        5.5780    -8.6490    -0.6270 H     1 <1>   0.1500 
 30 H        7.3490    -4.9580     0.5230 H     1 <1>   0.1500 
 31 H       -5.9200    -5.8160    -0.6530 H     1 <1>   0.0800 
 32 H       -6.4530    -4.7020     0.5890 H     1 <1>   0.0800 
 33 H       -5.6190    -6.1740     1.0360 H     1 <1>   0.0800 
 34 H       -4.6350    -3.9040    -1.7480 H     1 <1>   0.0800 
 35 H       -3.5360    -2.9630    -0.7600 H     1 <1>   0.0800 
 36 H       -5.2580    -2.8690    -0.4800 H     1 <1>   0.0800 
 37 H        7.5810    -7.2970    -0.1510 H     1 <1>   0.1500 
@<TRIPOS>BOND
  1   1   2  1   
  2   1   3  1   
  3   2   4  ar  
  4   2   5  ar  
  5   3   6  1   
  6   3  18  1   
  7   3  19  1   
  8   4   7  ar  
  9   4  20  1   
 10   5   8  ar  
 11   5  21  1   
 12   6   9  1   
 13   6  22  1   
 14   6  23  1   
 15   7  10  ar  
 16   7  11  ar  
 17   8  10  ar  
 18   8  24  1   
 19   9  12  1   
 20   9  25  1   
 21   9  26  1   
 22  10  13  ar  
 23  11  14  ar  
 24  11  27  1   
 25  12  15  1   
 26  12  16  1   
 27  12  28  1   
 28  13  17  ar  
 29  13  29  1   
 30  14  17  ar  
 31  14  30  1   
 32  15  31  1   
 33  15  32  1   
 34  15  33  1   
 35  16  34  1   
 36  16  35  1   
 37  16  36  1   
 38  17  37  1   
@<TRIPOS>SUBSTRUCTURE
  1 ****   2 GROUP 4 **** **** 0

# MOE 2024.06 (io_trps.svl 2023.06)
