@<TRIPOS>MOLECULE
NONAME
33 33 1 0 0 
SMALL
USER_CHARGES


@<TRIPOS>ATOM
  1 O       -0.4280    -2.3060    -1.4880 O.2   1 <1>  -0.5700 
  2 C       -0.2120    -2.0600    -0.3280 C.2   1 <1>   0.5690 
  3 N       -1.0980    -1.4390     0.5090 N.am  1 <1>  -0.5470 
  4 C        1.1270    -2.4510     0.2370 C.3   1 <1>  -0.0380 
  5 C       -2.4100    -0.9820     0.3090 C.ar  1 <1>   0.1170 
  6 C        1.7550    -1.2370     0.8710 C.2   1 <1>   0.4480 
  7 C       -2.9360    -0.0640     1.2090 C.ar  1 <1>  -0.1500 
  8 C       -3.2180    -1.4120    -0.7370 C.ar  1 <1>  -0.1500 
  9 O        1.4410    -0.9000     1.9720 O.2   1 <1>  -0.5700 
 10 C        2.7620    -0.4550     0.0580 C.3   1 <1>  -0.1790 
 11 C       -4.2260     0.4140     1.0670 C.ar  1 <1>  -0.1500 
 12 C       -4.5080    -0.9340    -0.8800 C.ar  1 <1>  -0.1500 
 13 C       -5.0280    -0.0150     0.0190 C.ar  1 <1>  -0.1430 
 14 C       -6.4540     0.5010    -0.1550 C.3   1 <1>   0.0630 
 15 C       -6.4630     2.0160    -0.3830 C.3   1 <1>  -0.2400 
 16 C       -7.3230     0.1270     1.0500 C.3   1 <1>  -0.2400 
 17 H       -0.7000    -1.1900     1.4200 H     1 <1>   0.3700 
 18 H        1.7580    -2.8410    -0.5400 H     1 <1>   0.0800 
 19 H        0.9850    -3.2130     0.9790 H     1 <1>   0.0800 
 20 H       -2.3320     0.2850     2.0270 H     1 <1>   0.1500 
 21 H       -2.8460    -2.1270    -1.4470 H     1 <1>   0.1500 
 22 H        3.6150    -1.0690    -0.1620 H     1 <1>   0.0800 
 23 H        3.0880     0.4050     0.6150 H     1 <1>   0.0800 
 24 H        2.3130    -0.1240    -0.8600 H     1 <1>   0.0800 
 25 H       -4.6040     1.1260     1.7790 H     1 <1>   0.1500 
 26 H       -5.1060    -1.2860    -1.7020 H     1 <1>   0.1500 
 27 H       -6.8850     0.0370    -1.0260 H     1 <1>   0.0800 
 28 H       -6.0880     2.5360     0.4790 H     1 <1>   0.0800 
 29 H       -7.4630     2.3570    -0.5830 H     1 <1>   0.0800 
 30 H       -5.8430     2.2610    -1.2270 H     1 <1>   0.0800 
 31 H       -6.9660     0.6060     1.9430 H     1 <1>   0.0800 
 32 H       -7.3000    -0.9380     1.1990 H     1 <1>   0.0800 
 33 H       -8.3420     0.4270     0.8820 H     1 <1>   0.0800 
@<TRIPOS>BOND
  1   1   2  2   
  2   2   3  am  
  3   2   4  1   
  4   3   5  1   
  5   3  17  1   
  6   4   6  1   
  7   4  18  1   
  8   4  19  1   
  9   5   7  ar  
 10   5   8  ar  
 11   6   9  2   
 12   6  10  1   
 13   7  11  ar  
 14   7  20  1   
 15   8  12  ar  
 16   8  21  1   
 17  10  22  1   
 18  10  23  1   
 19  10  24  1   
 20  11  13  ar  
 21  11  25  1   
 22  12  13  ar  
 23  12  26  1   
 24  13  14  1   
 25  14  15  1   
 26  14  16  1   
 27  14  27  1   
 28  15  28  1   
 29  15  29  1   
 30  15  30  1   
 31  16  31  1   
 32  16  32  1   
 33  16  33  1   
@<TRIPOS>SUBSTRUCTURE
  1 ****   5 GROUP 4 **** **** 0

# MOE 2024.06 (io_trps.svl 2023.06)
