@<TRIPOS>MOLECULE
NONAME
32 33 1 0 0 
SMALL
USER_CHARGES


@<TRIPOS>ATOM
  1 O        2.0320     0.0050     1.8860 O.3   1 <1>  -0.6800 
  2 C        1.4570     0.3770     0.6730 C.3   1 <1>   0.2000 
  3 C        2.4790     0.0380    -0.4290 C.3   1 <1>   0.3430 
  4 C        1.1860     1.8940     0.7310 C.3   1 <1>  -0.1600 
  5 N        3.7510     0.7320    -0.0670 N.4   1 <1>  -0.9590 
  6 C        2.1950     2.7230    -0.0980 C.3   1 <1>  -0.1600 
  7 C        3.6510     2.2280    -0.0310 C.3   1 <1>   0.3430 
  8 C        4.9470     0.2290    -0.7880 C.3   1 <1>   0.4860 
  9 C        6.1860     0.8340    -0.1580 C.ar  1 <1>  -0.1440 
 10 C        6.6010     0.4280     1.1030 C.ar  1 <1>  -0.1500 
 11 C        6.9100     1.8060    -0.8350 C.ar  1 <1>  -0.1500 
 12 C        7.7220     0.9950     1.6830 C.ar  1 <1>  -0.1500 
 13 C        8.0310     2.3710    -0.2530 C.ar  1 <1>  -0.1500 
 14 C        8.4360     1.9680     1.0060 C.ar  1 <1>  -0.1500 
 15 H        1.3850     0.1000     2.6180 H     1 <1>   0.4000 
 16 H        0.5440    -0.1820     0.5430 H     1 <1>   0.0800 
 17 H        2.1220     0.3700    -1.3890 H     1 <1>   0.0800 
 18 H        2.6230    -1.0300    -0.4590 H     1 <1>   0.0800 
 19 H        1.1890     2.2360     1.7520 H     1 <1>   0.0800 
 20 H        0.2010     2.0850     0.3400 H     1 <1>   0.0800 
 21 H        3.8640     0.4620     0.9260 H     1 <1>   0.4500 
 22 H        2.1600     3.7520     0.2170 H     1 <1>   0.0800 
 23 H        1.8910     2.7120    -1.1310 H     1 <1>   0.0800 
 24 H        4.2020     2.6550    -0.8530 H     1 <1>   0.0800 
 25 H        4.1050     2.5820     0.8820 H     1 <1>   0.0800 
 26 H        4.8950     0.5000    -1.8290 H     1 <1>   0.0800 
 27 H        5.0000    -0.8450    -0.7150 H     1 <1>   0.0800 
 28 H        6.0660    -0.3310     1.6470 H     1 <1>   0.1500 
 29 H        6.6170     2.1320    -1.8190 H     1 <1>   0.1500 
 30 H        8.0450     0.6800     2.6610 H     1 <1>   0.1500 
 31 H        8.5940     3.1240    -0.7790 H     1 <1>   0.1500 
 32 H        9.3090     2.4070     1.4580 H     1 <1>   0.1500 
@<TRIPOS>BOND
  1   1   2  1   
  2   1  15  1   
  3   2   3  1   
  4   2   4  1   
  5   2  16  1   
  6   3   5  1   
  7   3  17  1   
  8   3  18  1   
  9   4   6  1   
 10   4  19  1   
 11   4  20  1   
 12   5   7  1   
 13   5   8  1   
 14   5  21  1   
 15   6   7  1   
 16   6  22  1   
 17   6  23  1   
 18   7  24  1   
 19   7  25  1   
 20   8   9  1   
 21   8  26  1   
 22   8  27  1   
 23   9  10  ar  
 24   9  11  ar  
 25  10  12  ar  
 26  10  28  1   
 27  11  13  ar  
 28  11  29  1   
 29  12  14  ar  
 30  12  30  1   
 31  13  14  ar  
 32  13  31  1   
 33  14  32  1   
@<TRIPOS>SUBSTRUCTURE
  1 ****   5 GROUP 4 **** **** 0

# MOE 2024.06 (io_trps.svl 2023.06)
