@<TRIPOS>MOLECULE
NONAME
31 32 1 0 0 
SMALL
USER_CHARGES


@<TRIPOS>ATOM
  1 O       -0.9470    -0.4090     1.4180 O.2   1 <1>  -0.5700 
  2 C       -1.9050     0.1940     1.0200 C.2   1 <1>   0.6590 
  3 O       -3.1200    -0.3100     0.9650 O.3   1 <1>  -0.4300 
  4 C       -1.8840     1.6160     0.5480 C.3   1 <1>  -0.0990 
  5 C       -4.0720     0.5860     0.4360 C.3   1 <1>   0.2800 
  6 C       -3.3780     1.9570     0.5660 C.3   1 <1>  -0.0190 
  7 C       -4.3410     0.1390    -1.0170 C.3   1 <1>  -0.1600 
  8 C       -5.3600     0.4830     1.2870 C.3   1 <1>  -0.1600 
  9 C       -3.8290     2.9710    -0.4700 C.2   1 <1>   0.6590 
 10 C       -4.8470    -1.3150    -1.1120 C.3   1 <1>  -0.1600 
 11 C       -6.3690    -0.5750     0.7920 C.3   1 <1>  -0.1600 
 12 O       -3.1590     3.2550    -1.4290 O.2   1 <1>  -0.5700 
 13 O       -5.0160     3.5210    -0.2530 O.3   1 <1>  -0.4300 
 14 C       -5.6740    -1.7580     0.1090 C.3   1 <1>  -0.1600 
 15 C       -5.5670     4.4730    -1.1410 C.3   1 <1>   0.0400 
 16 H       -1.4680     1.6390    -0.4430 H     1 <1>   0.0800 
 17 H       -1.3120     2.2400     1.2090 H     1 <1>   0.0800 
 18 H       -3.6090     2.3630     1.5350 H     1 <1>   0.0800 
 19 H       -3.4590     0.2550    -1.6220 H     1 <1>   0.0800 
 20 H       -5.0980     0.7800    -1.4360 H     1 <1>   0.0800 
 21 H       -5.8690     1.4300     1.2880 H     1 <1>   0.0800 
 22 H       -5.0850     0.2690     2.3050 H     1 <1>   0.0800 
 23 H       -4.0050    -1.9800    -1.2090 H     1 <1>   0.0800 
 24 H       -5.4410    -1.4160    -2.0050 H     1 <1>   0.0800 
 25 H       -7.0420    -0.1200     0.0840 H     1 <1>   0.0800 
 26 H       -6.9600    -0.9250     1.6210 H     1 <1>   0.0800 
 27 H       -5.0210    -2.2300     0.8240 H     1 <1>   0.0800 
 28 H       -6.4020    -2.4910    -0.1930 H     1 <1>   0.0800 
 29 H       -6.5280     4.7760    -0.7640 H     1 <1>   0.0800 
 30 H       -5.6750     4.0220    -2.1120 H     1 <1>   0.0800 
 31 H       -4.9070     5.3210    -1.1970 H     1 <1>   0.0800 
@<TRIPOS>BOND
  1   1   2  2   
  2   2   3  1   
  3   2   4  1   
  4   3   5  1   
  5   4   6  1   
  6   4  16  1   
  7   4  17  1   
  8   5   6  1   
  9   5   7  1   
 10   5   8  1   
 11   6   9  1   
 12   6  18  1   
 13   7  10  1   
 14   7  19  1   
 15   7  20  1   
 16   8  11  1   
 17   8  21  1   
 18   8  22  1   
 19   9  12  2   
 20   9  13  1   
 21  10  14  1   
 22  10  23  1   
 23  10  24  1   
 24  11  14  1   
 25  11  25  1   
 26  11  26  1   
 27  13  15  1   
 28  14  27  1   
 29  14  28  1   
 30  15  29  1   
 31  15  30  1   
 32  15  31  1   
@<TRIPOS>SUBSTRUCTURE
  1 ****   5 GROUP 4 **** **** 0

# MOE 2024.06 (io_trps.svl 2023.06)
