@<TRIPOS>MOLECULE
NONAME
39 40 1 0 0 
SMALL
USER_CHARGES


@<TRIPOS>ATOM
  1 BR       0.3100    -0.1080     1.9700 Br    1 <1>  -0.1110 
  2 C        0.3670    -1.7460     0.9630 C.ar  1 <1>   0.1110 
  3 C        1.4090    -2.6260     1.1830 C.ar  1 <1>  -0.1500 
  4 C       -0.6340    -1.9980     0.0450 C.ar  1 <1>  -0.1500 
  5 C        1.4540    -3.8060     0.4560 C.ar  1 <1>  -0.1440 
  6 C       -0.5840    -3.1780    -0.6780 C.ar  1 <1>  -0.1500 
  7 C        0.4550    -4.0740    -0.4720 C.ar  1 <1>  -0.1500 
  8 C        2.5930    -4.7850     0.6740 C.3   1 <1>   0.2840 
  9 N        3.7780    -4.2570    -0.0200 N.am  1 <1>  -0.7300 
 10 C        5.0480    -4.3750     0.4360 C.2   1 <1>   0.5690 
 11 O        5.3020    -5.0190     1.4250 O.2   1 <1>  -0.5700 
 12 C        6.1600    -3.6590    -0.3320 C.3   1 <1>  -0.0190 
 13 C        7.5480    -4.2920    -0.1060 C.3   1 <1>  -0.1600 
 14 C        6.2000    -2.1630     0.0320 C.3   1 <1>  -0.1600 
 15 C        8.6450    -3.5350    -0.8590 C.3   1 <1>   0.1400 
 16 C        7.3120    -1.4260    -0.7190 C.3   1 <1>   0.1400 
 17 N        8.6150    -2.0990    -0.4660 N.am  1 <1>  -0.6600 
 18 C        9.6580    -1.4170     0.1090 C.2   1 <1>   0.5690 
 19 O        9.5890    -0.2430     0.3830 O.2   1 <1>  -0.5700 
 20 C       10.9570    -2.1200     0.4290 C.3   1 <1>  -0.1790 
 21 H        2.1700    -2.3890     1.9060 H     1 <1>   0.1500 
 22 H       -1.4310    -1.2900    -0.0980 H     1 <1>   0.1500 
 23 H       -1.3520    -3.4000    -1.3990 H     1 <1>   0.1500 
 24 H        0.4800    -4.9870    -1.0430 H     1 <1>   0.1500 
 25 H        2.3450    -5.7540     0.2750 H     1 <1>   0.0800 
 26 H        2.7960    -4.8920     1.7270 H     1 <1>   0.0800 
 27 H        3.5640    -3.6700    -0.8260 H     1 <1>   0.3700 
 28 H        5.9300    -3.7440    -1.3790 H     1 <1>   0.0800 
 29 H        7.5330    -5.3180    -0.4300 H     1 <1>   0.0800 
 30 H        7.7850    -4.2870     0.9450 H     1 <1>   0.0800 
 31 H        6.3670    -2.0520     1.0910 H     1 <1>   0.0800 
 32 H        5.2560    -1.7020    -0.1980 H     1 <1>   0.0800 
 33 H        8.4770    -3.6090    -1.9200 H     1 <1>   0.0800 
 34 H        9.5980    -3.9830    -0.6450 H     1 <1>   0.0800 
 35 H        7.3430    -0.3990    -0.3950 H     1 <1>   0.0800 
 36 H        7.1140    -1.4330    -1.7770 H     1 <1>   0.0800 
 37 H       11.4070    -2.4830    -0.4750 H     1 <1>   0.0800 
 38 H       10.7750    -2.9340     1.1040 H     1 <1>   0.0800 
 39 H       11.6350    -1.4300     0.8980 H     1 <1>   0.0800 
@<TRIPOS>BOND
  1   1   2  1   
  2   2   3  ar  
  3   2   4  ar  
  4   3   5  ar  
  5   3  21  1   
  6   4   6  ar  
  7   4  22  1   
  8   5   7  ar  
  9   5   8  1   
 10   6   7  ar  
 11   6  23  1   
 12   7  24  1   
 13   8   9  1   
 14   8  25  1   
 15   8  26  1   
 16   9  10  am  
 17   9  27  1   
 18  10  11  2   
 19  10  12  1   
 20  12  13  1   
 21  12  14  1   
 22  12  28  1   
 23  13  15  1   
 24  13  29  1   
 25  13  30  1   
 26  14  16  1   
 27  14  31  1   
 28  14  32  1   
 29  15  17  1   
 30  15  33  1   
 31  15  34  1   
 32  16  17  1   
 33  16  35  1   
 34  16  36  1   
 35  17  18  am  
 36  18  19  2   
 37  18  20  1   
 38  20  37  1   
 39  20  38  1   
 40  20  39  1   
@<TRIPOS>SUBSTRUCTURE
  1 ****  10 GROUP 4 **** **** 0

# MOE 2024.06 (io_trps.svl 2023.06)
