@<TRIPOS>MOLECULE
NONAME
41 43 1 0 0 
SMALL
USER_CHARGES


@<TRIPOS>ATOM
  1 CL       0.8610     0.6620    -2.1360 Cl    1 <1>  -0.1770 
  2 C        2.3630     1.0900    -1.3550 C.ar  1 <1>   0.1770 
  3 C        2.3590     1.4410    -0.0180 C.ar  1 <1>  -0.1500 
  4 C        3.5370     1.0720    -2.0840 C.ar  1 <1>  -0.1500 
  5 C        3.5520     1.7790     0.5970 C.ar  1 <1>  -0.1500 
  6 C        4.7250     1.4110    -1.4600 C.ar  1 <1>  -0.1500 
  7 C        4.7510     1.7670    -0.1140 C.ar  1 <1>   0.1170 
  8 N        5.9860     2.1010     0.4600 N.am  1 <1>  -0.5470 
  9 C        6.3930     2.3580     1.7390 C.2   1 <1>   0.5690 
 10 O        5.6710     2.3350     2.7070 O.2   1 <1>  -0.5700 
 11 C        7.8750     2.6940     1.9170 C.3   1 <1>   0.1710 
 12 N        8.7370     2.2090     0.7970 N.3   1 <1>  -0.8100 
 13 C       10.0450     2.9030     0.8030 C.3   1 <1>   0.1100 
 14 C        8.9710     0.7460     0.9070 C.3   1 <1>   0.1100 
 15 C       10.9590     2.4410    -0.3480 C.3   1 <1>   0.2090 
 16 C        9.8490     0.2010    -0.2350 C.3   1 <1>   0.2090 
 17 N       11.1380     0.9540    -0.3380 N.pl3 1 <1>  -0.8380 
 18 C       12.3410     0.3430    -0.6330 C.ar  1 <1>   0.7200 
 19 N       13.4100     1.1300    -0.7630 N.ar  1 <1>  -0.6200 
 20 N       12.3350    -0.9830    -0.7670 N.ar  1 <1>  -0.6200 
 21 C       14.5440     0.5380    -1.0440 C.ar  1 <1>   0.1600 
 22 C       13.4830    -1.5490    -1.0490 C.ar  1 <1>   0.1600 
 23 C       14.6370    -0.8230    -1.2000 C.ar  1 <1>  -0.1500 
 24 H        1.4340     1.4500     0.5310 H     1 <1>   0.1500 
 25 H        3.5150     0.7960    -3.1230 H     1 <1>   0.1500 
 26 H        3.5400     2.0540     1.6360 H     1 <1>   0.1500 
 27 H        5.6400     1.3990    -2.0240 H     1 <1>   0.1500 
 28 H        6.7900     2.1240    -0.1770 H     1 <1>   0.3700 
 29 H        8.2170     2.2870     2.8530 H     1 <1>   0.0800 
 30 H        7.9450     3.7650     1.9810 H     1 <1>   0.0800 
 31 H       10.5520     2.7220     1.7360 H     1 <1>   0.0800 
 32 H        9.8880     3.9630     0.7080 H     1 <1>   0.0800 
 33 H        8.0300     0.2230     0.8920 H     1 <1>   0.0800 
 34 H        9.4570     0.5220     1.8420 H     1 <1>   0.0800 
 35 H       11.9030     2.9470    -0.2520 H     1 <1>   0.0800 
 36 H       10.5230     2.7340    -1.2860 H     1 <1>   0.0800 
 37 H        9.3180     0.2880    -1.1660 H     1 <1>   0.0800 
 38 H       10.0250    -0.8440    -0.0530 H     1 <1>   0.0800 
 39 H       15.4210     1.1530    -1.1530 H     1 <1>   0.1500 
 40 H       13.5030    -2.6200    -1.1620 H     1 <1>   0.1500 
 41 H       15.5710    -1.2970    -1.4310 H     1 <1>   0.1500 
@<TRIPOS>BOND
  1   1   2  1   
  2   2   3  ar  
  3   2   4  ar  
  4   3   5  ar  
  5   3  24  1   
  6   4   6  ar  
  7   4  25  1   
  8   5   7  ar  
  9   5  26  1   
 10   6   7  ar  
 11   6  27  1   
 12   7   8  1   
 13   8   9  am  
 14   8  28  1   
 15   9  10  2   
 16   9  11  1   
 17  11  12  1   
 18  11  29  1   
 19  11  30  1   
 20  12  13  1   
 21  12  14  1   
 22  13  15  1   
 23  13  31  1   
 24  13  32  1   
 25  14  16  1   
 26  14  33  1   
 27  14  34  1   
 28  15  17  1   
 29  15  35  1   
 30  15  36  1   
 31  16  17  1   
 32  16  37  1   
 33  16  38  1   
 34  17  18  1   
 35  18  19  ar  
 36  18  20  ar  
 37  19  21  ar  
 38  20  22  ar  
 39  21  23  ar  
 40  21  39  1   
 41  22  23  ar  
 42  22  40  1   
 43  23  41  1   
@<TRIPOS>SUBSTRUCTURE
  1 ****  14 GROUP 4 **** **** 0

# MOE 2024.06 (io_trps.svl 2023.06)
