@<TRIPOS>MOLECULE
NONAME
28 28 1 0 0 
SMALL
USER_CHARGES


@<TRIPOS>ATOM
  1 O        0.0970    -3.7670    -0.0110 O.3   1 <1>  -0.3630 
  2 C        1.4560    -3.7340    -0.0280 C.ar  1 <1>   0.0830 
  3 C       -0.6110    -4.9790    -0.0070 C.3   1 <1>   0.1200 
  4 C        2.0700    -2.4850    -0.0330 C.ar  1 <1>  -0.1440 
  5 C        2.2420    -4.8850    -0.0390 C.ar  1 <1>  -0.1500 
  6 C       -2.0990    -4.6240     0.0100 C.3   1 <1>   0.3430 
  7 C        3.4530    -2.4020    -0.0500 C.ar  1 <1>  -0.1500 
  8 C        1.2450    -1.2060    -0.0200 C.3   1 <1>  -0.0960 
  9 C        3.6210    -4.7870    -0.0560 C.ar  1 <1>  -0.1500 
 10 N       -2.9650    -5.8400     0.0150 N.4   1 <1>  -0.8530 
 11 C        4.2340    -3.5460    -0.0630 C.ar  1 <1>  -0.1430 
 12 C        5.7480    -3.4360    -0.0800 C.3   1 <1>  -0.0970 
 13 H       -0.3280    -5.5250     0.8770 H     1 <1>   0.0800 
 14 H       -0.3470    -5.5190    -0.9000 H     1 <1>   0.0800 
 15 H        1.8130    -5.8670    -0.0340 H     1 <1>   0.1500 
 16 H       -2.3190    -4.0260    -0.8610 H     1 <1>   0.0800 
 17 H       -2.3000    -4.0310     0.8880 H     1 <1>   0.0800 
 18 H        3.9320    -1.4390    -0.0530 H     1 <1>   0.1500 
 19 H        0.6110    -1.1720    -0.8870 H     1 <1>   0.0800 
 20 H        1.8770    -0.3370    -0.0260 H     1 <1>   0.0800 
 21 H        0.6320    -1.1760     0.8630 H     1 <1>   0.0800 
 22 H        4.2200    -5.6810    -0.0630 H     1 <1>   0.1500 
 23 H       -2.8070    -6.4140    -0.8220 H     1 <1>   0.4500 
 24 H       -3.9570    -5.5740     0.0270 H     1 <1>   0.4500 
 25 H       -2.7890    -6.4190     0.8450 H     1 <1>   0.4500 
 26 H        6.0540    -2.5770    -0.6490 H     1 <1>   0.0800 
 27 H        6.1860    -4.3110    -0.5260 H     1 <1>   0.0800 
 28 H        6.1160    -3.3370     0.9250 H     1 <1>   0.0800 
@<TRIPOS>BOND
  1   1   2  1   
  2   1   3  1   
  3   2   4  ar  
  4   2   5  ar  
  5   3   6  1   
  6   3  13  1   
  7   3  14  1   
  8   4   7  ar  
  9   4   8  1   
 10   5   9  ar  
 11   5  15  1   
 12   6  10  1   
 13   6  16  1   
 14   6  17  1   
 15   7  11  ar  
 16   7  18  1   
 17   8  19  1   
 18   8  20  1   
 19   8  21  1   
 20   9  11  ar  
 21   9  22  1   
 22  10  23  1   
 23  10  24  1   
 24  10  25  1   
 25  11  12  1   
 26  12  26  1   
 27  12  27  1   
 28  12  28  1   
@<TRIPOS>SUBSTRUCTURE
  1 ****   2 GROUP 4 **** **** 0

# MOE 2024.06 (io_trps.svl 2023.06)
