@<TRIPOS>MOLECULE
22203
51 52 1 0 0 
SMALL
USER_CHARGES


@<TRIPOS>ATOM
  1 CL      -7.2230    -0.3070     3.2130 Cl    1 <1>  -0.1770 
  2 C       -5.9950     0.3440     2.1570 C.ar  1 <1>   0.1770 
  3 C       -6.0020     0.0010     0.8200 C.ar  1 <1>  -0.1500 
  4 C       -5.0430     1.2020     2.6780 C.ar  1 <1>  -0.1500 
  5 C       -5.0410     0.5410    -0.0180 C.ar  1 <1>   0.0830 
  6 C       -4.0750     1.7290     1.8390 C.ar  1 <1>  -0.1500 
  7 O       -5.0720     0.2030    -1.3250 O.3   1 <1>  -0.3630 
  8 C       -4.0720     1.3980     0.4940 C.ar  1 <1>  -0.1500 
  9 C       -5.1180     1.2290    -2.3090 C.3   1 <1>   0.1810 
 10 C       -6.5420     1.4430    -2.8260 C.2   1 <1>   0.5690 
 11 O       -6.8170     1.0480    -3.9320 O.2   1 <1>  -0.5700 
 12 N       -7.5070     2.0580    -2.0860 N.am  1 <1>  -0.5470 
 13 C       -7.4710     2.6140    -0.7980 C.ar  1 <1>   0.1170 
 14 C       -8.4030     2.2170     0.1650 C.ar  1 <1>   0.0830 
 15 C       -6.5210     3.5660    -0.4640 C.ar  1 <1>  -0.1500 
 16 O       -9.3410     1.3010    -0.2050 O.3   1 <1>  -0.3630 
 17 C       -8.3360     2.7540     1.4460 C.ar  1 <1>  -0.1500 
 18 C       -6.4300     4.0980     0.8140 C.ar  1 <1>  -0.0090 
 19 C      -10.1380     0.6430     0.7560 C.3   1 <1>   0.0400 
 20 C       -7.3550     3.6780     1.7620 C.ar  1 <1>  -0.1500 
 21 S       -5.1380     5.3050     1.2080 S.o2  1 <1>   1.4470 
 22 O       -3.8610     4.7680     0.7880 O.2   1 <1>  -0.6500 
 23 O       -5.2940     5.7850     2.5650 O.2   1 <1>  -0.6500 
 24 N       -5.5180     6.6010     0.1790 N.am  1 <1>  -0.8490 
 25 C       -6.6990     7.3370     0.6290 C.3   1 <1>   0.1960 
 26 C       -4.3700     7.4820    -0.0520 C.3   1 <1>   0.1960 
 27 C       -7.3520     8.0410    -0.5580 C.3   1 <1>  -0.2400 
 28 C       -3.7740     7.1550    -1.4160 C.3   1 <1>  -0.2400 
 29 H       -6.7470    -0.6650     0.4280 H     1 <1>   0.1500 
 30 H       -5.0600     1.4520     3.7240 H     1 <1>   0.1500 
 31 H       -3.3240     2.3980     2.2280 H     1 <1>   0.1500 
 32 H       -3.3110     1.8060    -0.1480 H     1 <1>   0.1500 
 33 H       -4.5010     0.9060    -3.1270 H     1 <1>   0.0800 
 34 H       -4.7110     2.1380    -1.9160 H     1 <1>   0.0800 
 35 H       -8.4460     1.8800    -2.4450 H     1 <1>   0.3700 
 36 H       -5.8290     3.9110    -1.2110 H     1 <1>   0.1500 
 37 H       -9.0320     2.4640     2.2100 H     1 <1>   0.1500 
 38 H      -10.7230    -0.1040     0.2500 H     1 <1>   0.0800 
 39 H      -10.7900     1.3600     1.2220 H     1 <1>   0.0800 
 40 H       -9.4980     0.1740     1.4820 H     1 <1>   0.0800 
 41 H       -7.3060     4.0760     2.7620 H     1 <1>   0.1500 
 42 H       -6.4330     8.0420     1.4010 H     1 <1>   0.0800 
 43 H       -7.4210     6.6530     1.0450 H     1 <1>   0.0800 
 44 H       -3.6270     7.3580     0.7210 H     1 <1>   0.0800 
 45 H       -4.6690     8.5170    -0.0470 H     1 <1>   0.0800 
 46 H       -6.7050     8.7910    -0.9740 H     1 <1>   0.0800 
 47 H       -8.2590     8.5210    -0.2370 H     1 <1>   0.0800 
 48 H       -7.6000     7.3230    -1.3200 H     1 <1>   0.0800 
 49 H       -3.4170     6.1420    -1.4390 H     1 <1>   0.0800 
 50 H       -2.9450     7.8100    -1.6150 H     1 <1>   0.0800 
 51 H       -4.5120     7.2920    -2.1850 H     1 <1>   0.0800 
@<TRIPOS>BOND
  1   1   2  1   
  2   2   3  ar  
  3   2   4  ar  
  4   3   5  ar  
  5   3  29  1   
  6   4   6  ar  
  7   4  30  1   
  8   5   7  1   
  9   5   8  ar  
 10   6   8  ar  
 11   6  31  1   
 12   7   9  1   
 13   8  32  1   
 14   9  10  1   
 15   9  33  1   
 16   9  34  1   
 17  10  11  2   
 18  10  12  am  
 19  12  13  1   
 20  12  35  1   
 21  13  14  ar  
 22  13  15  ar  
 23  14  16  1   
 24  14  17  ar  
 25  15  18  ar  
 26  15  36  1   
 27  16  19  1   
 28  17  20  ar  
 29  17  37  1   
 30  18  20  ar  
 31  18  21  1   
 32  19  38  1   
 33  19  39  1   
 34  19  40  1   
 35  20  41  1   
 36  21  22  2   
 37  21  23  2   
 38  21  24  am  
 39  24  25  1   
 40  24  26  1   
 41  25  27  1   
 42  25  42  1   
 43  25  43  1   
 44  26  28  1   
 45  26  44  1   
 46  26  45  1   
 47  27  46  1   
 48  27  47  1   
 49  27  48  1   
 50  28  49  1   
 51  28  50  1   
 52  28  51  1   
@<TRIPOS>SUBSTRUCTURE
  1 ****  15 GROUP 4 **** **** 0

# MOE 2024.06 (io_trps.svl 2023.06)
