@<TRIPOS>MOLECULE
NONAME
53 54 1 0 0 
SMALL
USER_CHARGES


@<TRIPOS>ATOM
  1 O       -0.0640     0.2870     0.2970 O.2   1 <1>  -0.5700 
  2 C       -1.0930     0.7990    -0.0830 C.2   1 <1>   0.4950 
  3 C       -1.1530     2.1380    -0.5790 C.2   1 <1>   0.0290 
  4 C       -2.3630    -0.0110     0.1110 C.3   1 <1>   0.0420 
  5 C       -2.3350     2.8560    -0.5910 C.2   1 <1>  -0.0380 
  6 C        0.1090     2.6760    -0.9720 C.2   1 <1>   0.4950 
  7 C       -2.1470    -1.4070    -0.4420 C.2   1 <1>   0.6590 
  8 C       -3.6450     0.6850    -0.4230 C.3   1 <1>   0.0000 
  9 N       -2.5280     4.1460    -1.0290 N.pl3 1 <1>  -0.5690 
 10 C       -3.5880     2.1730    -0.0330 C.3   1 <1>  -0.0220 
 11 O        0.4700     2.7650    -2.1230 O.2   1 <1>  -0.5700 
 12 C        1.0610     3.1780     0.1060 C.3   1 <1>  -0.0990 
 13 O       -1.7110    -1.6130    -1.5460 O.2   1 <1>  -0.5700 
 14 O       -2.4940    -2.4030     0.3680 O.3   1 <1>  -0.4300 
 15 C       -3.7910     0.5780    -1.9580 C.3   1 <1>  -0.2400 
 16 C       -4.8960     0.0490     0.2110 C.3   1 <1>  -0.2400 
 17 C       -3.4860     5.0170    -0.4770 C.ar  1 <1>   0.1000 
 18 C       -1.7870     4.7010    -2.1980 C.3   1 <1>   0.1290 
 19 C        1.0020     4.7050     0.2650 C.3   1 <1>  -0.1600 
 20 C       -2.3350    -3.7540    -0.0130 C.3   1 <1>   0.0400 
 21 C       -3.3250     5.4980     0.8160 C.ar  1 <1>  -0.1500 
 22 C       -4.6070     5.4040    -1.2010 C.ar  1 <1>  -0.1500 
 23 C        1.9420     5.1870     1.3740 C.3   1 <1>  -0.2400 
 24 C       -4.2590     6.3520     1.3730 C.ar  1 <1>  -0.1500 
 25 C       -5.5450     6.2580    -0.6480 C.ar  1 <1>  -0.1500 
 26 C       -5.3710     6.7330     0.6410 C.ar  1 <1>  -0.1500 
 27 H       -2.4660    -0.1120     1.1750 H     1 <1>   0.0800 
 28 H       -4.4760     2.6480    -0.4110 H     1 <1>   0.0800 
 29 H       -3.5970     2.2870     1.0370 H     1 <1>   0.0800 
 30 H        2.0580     2.8790    -0.1600 H     1 <1>   0.0800 
 31 H        0.8190     2.7110     1.0430 H     1 <1>   0.0800 
 32 H       -2.9040     0.9180    -2.4650 H     1 <1>   0.0800 
 33 H       -4.6180     1.1750    -2.3020 H     1 <1>   0.0800 
 34 H       -3.9760    -0.4380    -2.2630 H     1 <1>   0.0800 
 35 H       -4.8660     0.1250     1.2840 H     1 <1>   0.0800 
 36 H       -4.9710    -0.9930    -0.0500 H     1 <1>   0.0800 
 37 H       -5.7870     0.5430    -0.1350 H     1 <1>   0.0800 
 38 H       -0.8500     5.1170    -1.8770 H     1 <1>   0.0800 
 39 H       -2.3590     5.4780    -2.6730 H     1 <1>   0.0800 
 40 H       -1.6080     3.9250    -2.9210 H     1 <1>   0.0800 
 41 H       -0.0060     5.0050     0.4980 H     1 <1>   0.0800 
 42 H        1.2820     5.1700    -0.6650 H     1 <1>   0.0800 
 43 H       -2.9220    -3.9380    -0.8960 H     1 <1>   0.0800 
 44 H       -2.6720    -4.3790     0.7950 H     1 <1>   0.0800 
 45 H       -1.2940    -3.9370    -0.2160 H     1 <1>   0.0800 
 46 H       -2.4600     5.2000     1.3790 H     1 <1>   0.1500 
 47 H       -4.7430     5.0270    -2.1980 H     1 <1>   0.1500 
 48 H        1.6680     4.7510     2.3180 H     1 <1>   0.0800 
 49 H        1.8860     6.2580     1.4630 H     1 <1>   0.0800 
 50 H        2.9580     4.9170     1.1480 H     1 <1>   0.0800 
 51 H       -4.1230     6.7210     2.3750 H     1 <1>   0.1500 
 52 H       -6.4090     6.5520    -1.2170 H     1 <1>   0.1500 
 53 H       -6.0990     7.3980     1.0730 H     1 <1>   0.1500 
@<TRIPOS>BOND
  1   1   2  2   
  2   2   3  1   
  3   2   4  1   
  4   3   5  2   
  5   3   6  1   
  6   4   7  1   
  7   4   8  1   
  8   4  27  1   
  9   5   9  1   
 10   5  10  1   
 11   6  11  2   
 12   6  12  1   
 13   7  13  2   
 14   7  14  1   
 15   8  10  1   
 16   8  15  1   
 17   8  16  1   
 18   9  17  1   
 19   9  18  1   
 20  10  28  1   
 21  10  29  1   
 22  12  19  1   
 23  12  30  1   
 24  12  31  1   
 25  14  20  1   
 26  15  32  1   
 27  15  33  1   
 28  15  34  1   
 29  16  35  1   
 30  16  36  1   
 31  16  37  1   
 32  17  21  ar  
 33  17  22  ar  
 34  18  38  1   
 35  18  39  1   
 36  18  40  1   
 37  19  23  1   
 38  19  41  1   
 39  19  42  1   
 40  20  43  1   
 41  20  44  1   
 42  20  45  1   
 43  21  24  ar  
 44  21  46  1   
 45  22  25  ar  
 46  22  47  1   
 47  23  48  1   
 48  23  49  1   
 49  23  50  1   
 50  24  26  ar  
 51  24  51  1   
 52  25  26  ar  
 53  25  52  1   
 54  26  53  1   
@<TRIPOS>SUBSTRUCTURE
  1 ****   5 GROUP 4 **** **** 0

# MOE 2024.06 (io_trps.svl 2023.06)
