@<TRIPOS>MOLECULE
NONAME
39 41 1 0 0 
SMALL
USER_CHARGES


@<TRIPOS>ATOM
  1 O       -0.0120     0.6720    -0.0290 O.2   1 <1>  -0.5700 
  2 C       -0.1140     1.8880    -0.0440 C.2   1 <1>   0.7150 
  3 N        1.0210     2.6350    -0.3100 N.am  1 <1>  -0.6600 
  4 C       -1.4180     2.4680     0.2200 C.2   1 <1>   0.0550 
  5 C        1.1900     4.0620     0.0870 C.3   1 <1>   0.1400 
  6 C        2.1950     2.0420    -1.0110 C.3   1 <1>   0.1400 
  7 O       -1.7460     3.7000    -0.2020 O.3   1 <1>  -0.2800 
  8 C       -2.4850     1.9230     0.8580 C.2   1 <1>  -0.1500 
  9 C        2.4600     4.2300     0.9290 C.3   1 <1>  -0.1600 
 10 C        3.4540     2.1930    -0.1520 C.3   1 <1>  -0.1600 
 11 C       -3.0020     3.9550     0.1710 C.ar  1 <1>   0.1400 
 12 C       -3.5230     2.8680     0.8440 C.ar  1 <1>   0.0000 
 13 C        3.7010     3.6610     0.2250 C.3   1 <1>  -0.0800 
 14 C       -3.7470     5.1170    -0.0450 C.ar  1 <1>   0.0820 
 15 C       -4.8330     2.9130     1.3240 C.ar  1 <1>  -0.1500 
 16 C        4.9370     3.7880     1.1210 C.3   1 <1>  -0.2400 
 17 O       -3.1540     6.1440    -0.7130 O.3   1 <1>  -0.3630 
 18 C       -5.0490     5.1510     0.4380 C.ar  1 <1>  -0.1500 
 19 C       -5.5840     4.0520     1.1170 C.ar  1 <1>  -0.1500 
 20 C       -3.8610     7.3280    -1.0030 C.3   1 <1>   0.0400 
 21 H        0.3550     4.4010     0.6710 H     1 <1>   0.0800 
 22 H        1.2500     4.6680    -0.8010 H     1 <1>   0.0800 
 23 H        2.3320     2.5520    -1.9490 H     1 <1>   0.0800 
 24 H        2.0280     1.0000    -1.2240 H     1 <1>   0.0800 
 25 H       -2.5500     0.9450     1.2990 H     1 <1>   0.1500 
 26 H        2.3130     3.7310     1.8710 H     1 <1>   0.0800 
 27 H        2.6060     5.2760     1.1330 H     1 <1>   0.0800 
 28 H        4.2970     1.8100    -0.6990 H     1 <1>   0.0800 
 29 H        3.3370     1.5950     0.7350 H     1 <1>   0.0800 
 30 H        3.8730     4.2240    -0.6780 H     1 <1>   0.0800 
 31 H       -5.2360     2.0640     1.8460 H     1 <1>   0.1500 
 32 H        4.8030     3.2350     2.0340 H     1 <1>   0.0800 
 33 H        5.1160     4.8200     1.3660 H     1 <1>   0.0800 
 34 H        5.8060     3.4060     0.6140 H     1 <1>   0.0800 
 35 H       -5.6720     6.0140     0.3040 H     1 <1>   0.1500 
 36 H       -6.5960     4.1020     1.4820 H     1 <1>   0.1500 
 37 H       -3.2050     7.9840    -1.5460 H     1 <1>   0.0800 
 38 H       -4.1600     7.7930    -0.0800 H     1 <1>   0.0800 
 39 H       -4.7160     7.0840    -1.6090 H     1 <1>   0.0800 
@<TRIPOS>BOND
  1   1   2  2   
  2   2   3  am  
  3   2   4  1   
  4   3   5  1   
  5   3   6  1   
  6   4   7  1   
  7   4   8  2   
  8   5   9  1   
  9   5  21  1   
 10   5  22  1   
 11   6  10  1   
 12   6  23  1   
 13   6  24  1   
 14   7  11  1   
 15   8  12  1   
 16   8  25  1   
 17   9  13  1   
 18   9  26  1   
 19   9  27  1   
 20  10  13  1   
 21  10  28  1   
 22  10  29  1   
 23  11  12  ar  
 24  11  14  ar  
 25  12  15  ar  
 26  13  16  1   
 27  13  30  1   
 28  14  17  1   
 29  14  18  ar  
 30  15  19  ar  
 31  15  31  1   
 32  16  32  1   
 33  16  33  1   
 34  16  34  1   
 35  17  20  1   
 36  18  19  ar  
 37  18  35  1   
 38  19  36  1   
 39  20  37  1   
 40  20  38  1   
 41  20  39  1   
@<TRIPOS>SUBSTRUCTURE
  1 ****   7 GROUP 4 **** **** 0

# MOE 2024.06 (io_trps.svl 2023.06)
