@<TRIPOS>MOLECULE
NONAME
48 50 1 0 0 
SMALL
USER_CHARGES


@<TRIPOS>ATOM
  1 O       -0.3820    -0.8550    -0.8760 O.3   1 <1>  -0.3630 
  2 C       -1.6130    -1.3890    -0.6300 C.ar  1 <1>   0.0830 
  3 C        0.6870    -0.9120     0.0410 C.3   1 <1>   0.0400 
  4 C       -2.0900    -1.9030     0.5880 C.ar  1 <1>   0.0830 
  5 C       -2.4530    -1.4070    -1.7310 C.ar  1 <1>  -0.1500 
  6 O       -1.3480    -1.9340     1.7160 O.3   1 <1>  -0.5330 
  7 C       -3.3800    -2.4060     0.6690 C.ar  1 <1>  -0.1500 
  8 C       -3.7380    -1.9100    -1.6460 C.ar  1 <1>  -0.1500 
  9 C       -4.2140    -2.4040    -0.4410 C.ar  1 <1>  -0.1430 
 10 C       -5.6350    -2.9250    -0.3480 C.3   1 <1>   0.4860 
 11 N       -6.4820    -1.8920     0.3100 N.4   1 <1>  -0.9590 
 12 C       -7.8790    -2.3960     0.5720 C.3   1 <1>   0.3430 
 13 C       -6.5150    -0.6020    -0.4780 C.3   1 <1>   0.3430 
 14 C       -8.7670    -1.3500     1.2780 C.3   1 <1>   0.2090 
 15 C       -7.3810     0.4870     0.1890 C.3   1 <1>   0.2090 
 16 N       -8.7240    -0.0340     0.5810 N.pl3 1 <1>  -0.8380 
 17 C       -9.8190     0.3110    -0.2100 C.ar  1 <1>   0.1000 
 18 C      -10.8070     1.1700     0.2730 C.ar  1 <1>  -0.1430 
 19 C       -9.9440    -0.2040    -1.4960 C.ar  1 <1>  -0.1500 
 20 C      -11.8900     1.4940    -0.5270 C.ar  1 <1>  -0.1500 
 21 C      -10.7090     1.7620     1.6730 C.3   1 <1>  -0.0970 
 22 C      -11.0270     0.1230    -2.2900 C.ar  1 <1>  -0.1500 
 23 C      -12.0030     0.9740    -1.8040 C.ar  1 <1>  -0.1500 
 24 H        1.5620    -0.5140    -0.4390 H     1 <1>   0.0800 
 25 H        0.8560    -1.9380     0.3180 H     1 <1>   0.0800 
 26 H        0.4410    -0.3170     0.9020 H     1 <1>   0.0800 
 27 H       -2.0820    -1.0210    -2.6650 H     1 <1>   0.1500 
 28 H       -1.7600    -2.4050     2.4600 H     1 <1>   0.4500 
 29 H       -3.7280    -2.8000     1.6070 H     1 <1>   0.1500 
 30 H       -4.3500    -1.9100    -2.5320 H     1 <1>   0.1500 
 31 H       -5.6430    -3.8360     0.2290 H     1 <1>   0.0800 
 32 H       -6.0110    -3.1430    -1.3340 H     1 <1>   0.0800 
 33 H       -6.0460    -1.6670     1.2120 H     1 <1>   0.4500 
 34 H       -7.8430    -3.2860     1.1790 H     1 <1>   0.0800 
 35 H       -8.3510    -2.6530    -0.3620 H     1 <1>   0.0800 
 36 H       -6.9140    -0.7900    -1.4600 H     1 <1>   0.0800 
 37 H       -5.5150    -0.2180    -0.6000 H     1 <1>   0.0800 
 38 H       -8.4420    -1.2190     2.2950 H     1 <1>   0.0800 
 39 H       -9.7840    -1.7050     1.3060 H     1 <1>   0.0800 
 40 H       -7.5030     1.3130    -0.4920 H     1 <1>   0.0800 
 41 H       -6.8820     0.8630     1.0650 H     1 <1>   0.0800 
 42 H       -9.1960    -0.8650    -1.8820 H     1 <1>   0.1500 
 43 H      -12.6560     2.1550    -0.1620 H     1 <1>   0.1500 
 44 H      -10.7270     0.9740     2.4030 H     1 <1>   0.0800 
 45 H      -11.5250     2.4320     1.8700 H     1 <1>   0.0800 
 46 H       -9.7880     2.3060     1.7740 H     1 <1>   0.0800 
 47 H      -11.1170    -0.2790    -3.2840 H     1 <1>   0.1500 
 48 H      -12.8490     1.2330    -2.4170 H     1 <1>   0.1500 
@<TRIPOS>BOND
  1   1   2  1   
  2   1   3  1   
  3   2   4  ar  
  4   2   5  ar  
  5   3  24  1   
  6   3  25  1   
  7   3  26  1   
  8   4   6  1   
  9   4   7  ar  
 10   5   8  ar  
 11   5  27  1   
 12   6  28  1   
 13   7   9  ar  
 14   7  29  1   
 15   8   9  ar  
 16   8  30  1   
 17   9  10  1   
 18  10  11  1   
 19  10  31  1   
 20  10  32  1   
 21  11  12  1   
 22  11  13  1   
 23  11  33  1   
 24  12  14  1   
 25  12  34  1   
 26  12  35  1   
 27  13  15  1   
 28  13  36  1   
 29  13  37  1   
 30  14  16  1   
 31  14  38  1   
 32  14  39  1   
 33  15  16  1   
 34  15  40  1   
 35  15  41  1   
 36  16  17  1   
 37  17  18  ar  
 38  17  19  ar  
 39  18  20  ar  
 40  18  21  1   
 41  19  22  ar  
 42  19  42  1   
 43  20  23  ar  
 44  20  43  1   
 45  21  44  1   
 46  21  45  1   
 47  21  46  1   
 48  22  23  ar  
 49  22  47  1   
 50  23  48  1   
@<TRIPOS>SUBSTRUCTURE
  1 ****  13 GROUP 4 **** **** 0

# MOE 2024.06 (io_trps.svl 2023.06)
