@<TRIPOS>MOLECULE
NONAME
50 53 1 0 0 
SMALL
USER_CHARGES


@<TRIPOS>ATOM
  1 O        5.5370    -5.2380    -3.1760 O.2   1 <1>  -0.5700 
  2 C        5.2320    -4.4610    -2.2910 C.2   1 <1>   0.7060 
  3 O        5.7080    -3.2240    -2.3720 O.3   1 <1>  -0.2330 
  4 C        4.4110    -4.8000    -1.1660 C.2   1 <1>  -0.1240 
  5 C        5.4000    -2.2550    -1.4860 C.ar  1 <1>   0.0820 
  6 C        4.1060    -3.8750    -0.2160 C.2   1 <1>  -0.1670 
  7 C        3.9370    -6.2550    -1.1110 C.3   1 <1>  -0.0220 
  8 C        4.5580    -2.5040    -0.3860 C.ar  1 <1>   0.0280 
  9 C        5.9500    -1.0090    -1.7350 C.ar  1 <1>  -0.1500 
 10 C        3.3070    -4.2830     1.0270 C.3   1 <1>  -0.0220 
 11 C        2.8180    -6.4780    -0.0930 C.3   1 <1>  -0.1600 
 12 C        4.2430    -1.3820     0.4200 C.ar  1 <1>   0.0830 
 13 C        5.6670     0.0560    -0.9100 C.ar  1 <1>  -0.1430 
 14 C        3.1780    -5.7970     1.2240 C.3   1 <1>  -0.1600 
 15 O        3.3600    -1.5240     1.4440 O.3   1 <1>  -0.3630 
 16 C        4.8150    -0.1390     0.1600 C.ar  1 <1>  -0.1500 
 17 C        6.2650     1.4280    -1.1650 C.3   1 <1>  -0.0970 
 18 C        2.8160    -0.4460     2.1950 C.3   1 <1>   0.1810 
 19 C        1.9300     0.4610     1.3450 C.2   1 <1>   0.4230 
 20 O        2.2040     1.6370     1.3540 O.2   1 <1>  -0.5700 
 21 C        0.8190    -0.0830     0.5910 C.ar  1 <1>   0.0860 
 22 C        0.1540     0.7110    -0.3470 C.ar  1 <1>  -0.1500 
 23 C        0.3470    -1.3920     0.7490 C.ar  1 <1>  -0.1500 
 24 C       -0.9110     0.2320    -1.0850 C.ar  1 <1>  -0.1500 
 25 C       -0.7170    -1.8810     0.0130 C.ar  1 <1>  -0.1500 
 26 C       -1.3570    -1.0670    -0.9150 C.ar  1 <1>   0.0830 
 27 O       -2.4030    -1.4630    -1.6730 O.3   1 <1>  -0.3630 
 28 C       -2.9370    -2.7650    -1.5870 C.3   1 <1>   0.0400 
 29 H        4.7790    -6.8780    -0.8630 H     1 <1>   0.0800 
 30 H        3.5820    -6.5600    -2.0810 H     1 <1>   0.0800 
 31 H        6.5980    -0.8860    -2.5840 H     1 <1>   0.1500 
 32 H        2.3230    -3.8590     0.9520 H     1 <1>   0.0800 
 33 H        3.7840    -3.8900     1.9070 H     1 <1>   0.0800 
 34 H        2.6730    -7.5330     0.0600 H     1 <1>   0.0800 
 35 H        1.8990    -6.0640    -0.4730 H     1 <1>   0.0800 
 36 H        2.4260    -6.0020     1.9650 H     1 <1>   0.0800 
 37 H        4.1140    -6.1900     1.5830 H     1 <1>   0.0800 
 38 H        4.6110     0.7140     0.7780 H     1 <1>   0.1500 
 39 H        6.7850     1.4530    -2.1050 H     1 <1>   0.0800 
 40 H        6.9580     1.6760    -0.3810 H     1 <1>   0.0800 
 41 H        5.4860     2.1690    -1.1870 H     1 <1>   0.0800 
 42 H        3.6260     0.1100     2.6310 H     1 <1>   0.0800 
 43 H        2.2340    -0.8680     2.9920 H     1 <1>   0.0800 
 44 H        0.4820     1.7260    -0.4990 H     1 <1>   0.1500 
 45 H        0.8120    -2.0500     1.4590 H     1 <1>   0.1500 
 46 H       -1.4060     0.8640    -1.8020 H     1 <1>   0.1500 
 47 H       -1.0370    -2.8930     0.1720 H     1 <1>   0.1500 
 48 H       -3.7510    -2.8390    -2.2860 H     1 <1>   0.0800 
 49 H       -3.2980    -2.9290    -0.5870 H     1 <1>   0.0800 
 50 H       -2.1700    -3.4750    -1.8430 H     1 <1>   0.0800 
@<TRIPOS>BOND
  1   1   2  2   
  2   2   3  1   
  3   2   4  1   
  4   3   5  1   
  5   4   6  2   
  6   4   7  1   
  7   5   8  ar  
  8   5   9  ar  
  9   6   8  1   
 10   6  10  1   
 11   7  11  1   
 12   7  29  1   
 13   7  30  1   
 14   8  12  ar  
 15   9  13  ar  
 16   9  31  1   
 17  10  14  1   
 18  10  32  1   
 19  10  33  1   
 20  11  14  1   
 21  11  34  1   
 22  11  35  1   
 23  12  15  1   
 24  12  16  ar  
 25  13  16  ar  
 26  13  17  1   
 27  14  36  1   
 28  14  37  1   
 29  15  18  1   
 30  16  38  1   
 31  17  39  1   
 32  17  40  1   
 33  17  41  1   
 34  18  19  1   
 35  18  42  1   
 36  18  43  1   
 37  19  20  2   
 38  19  21  1   
 39  21  22  ar  
 40  21  23  ar  
 41  22  24  ar  
 42  22  44  1   
 43  23  25  ar  
 44  23  45  1   
 45  24  26  ar  
 46  24  46  1   
 47  25  26  ar  
 48  25  47  1   
 49  26  27  1   
 50  27  28  1   
 51  28  48  1   
 52  28  49  1   
 53  28  50  1   
@<TRIPOS>SUBSTRUCTURE
  1 ****  12 GROUP 4 **** **** 0

# MOE 2024.06 (io_trps.svl 2023.06)
