@<TRIPOS>MOLECULE
NONAME
43 45 1 0 0 
SMALL
USER_CHARGES


@<TRIPOS>ATOM
  1 S        0.2550     0.1910     1.5210 S.o2  1 <1>   1.4470 
  2 O        0.1130     0.5230     2.9200 O.2   1 <1>  -0.6500 
  3 O        0.6330    -1.1610     1.1770 O.2   1 <1>  -0.6500 
  4 N        1.4960     1.1890     0.9820 N.am  1 <1>  -0.9140 
  5 C       -1.1980     0.8120     0.5740 C.ar  1 <1>  -0.0090 
  6 C        1.7630     1.1520    -0.4440 C.3   1 <1>   0.2760 
  7 C       -1.7650     2.0620     0.8760 C.ar  1 <1>  -0.1430 
  8 C       -1.7640     0.0970    -0.4960 C.ar  1 <1>  -0.1430 
  9 C        2.6660    -0.0220    -0.8860 C.3   1 <1>  -0.0800 
 10 C        2.5860     2.3810    -0.8650 C.3   1 <1>  -0.1600 
 11 C       -2.8250     2.5630     0.1360 C.ar  1 <1>  -0.1500 
 12 C       -1.2850     2.9450     2.0270 C.3   1 <1>  -0.0970 
 13 C       -2.8230     0.6190    -1.2210 C.ar  1 <1>  -0.1500 
 14 C       -1.2780    -1.2810    -0.9360 C.3   1 <1>  -0.0970 
 15 C        3.2330     0.5230    -2.1880 C.3   1 <1>  -0.1600 
 16 C        3.9430    -0.0890    -0.0250 C.3   1 <1>  -0.1600 
 17 C        3.8220     1.7700    -1.5500 C.3   1 <1>  -0.0800 
 18 C       -3.3580     1.8520    -0.9170 C.ar  1 <1>  -0.1430 
 19 C        4.7240     1.1610    -0.4650 C.3   1 <1>  -0.1600 
 20 C       -4.5200     2.4110    -1.7180 C.3   1 <1>  -0.0970 
 21 H        1.2290     2.1260     1.2540 H     1 <1>   0.4200 
 22 H        0.8460     1.1410    -1.0110 H     1 <1>   0.0800 
 23 H        2.1530    -0.9620    -0.9850 H     1 <1>   0.0800 
 24 H        2.8670     3.0050    -0.0340 H     1 <1>   0.0800 
 25 H        2.0280     2.9630    -1.5760 H     1 <1>   0.0800 
 26 H       -3.2530     3.5200     0.3810 H     1 <1>   0.1500 
 27 H       -0.2250     3.1080     1.9850 H     1 <1>   0.0800 
 28 H       -1.5330     2.4870     2.9680 H     1 <1>   0.0800 
 29 H       -1.7580     3.9100     2.0030 H     1 <1>   0.0800 
 30 H       -3.2480     0.0610    -2.0380 H     1 <1>   0.1500 
 31 H       -1.3840    -1.9870    -0.1320 H     1 <1>   0.0800 
 32 H       -0.2490    -1.2420    -1.2400 H     1 <1>   0.0800 
 33 H       -1.8470    -1.6540    -1.7690 H     1 <1>   0.0800 
 34 H        2.4730     0.7450    -2.9180 H     1 <1>   0.0800 
 35 H        3.9840    -0.1190    -2.6180 H     1 <1>   0.0800 
 36 H        4.5010    -0.9790    -0.2610 H     1 <1>   0.0800 
 37 H        3.7310    -0.0880     1.0310 H     1 <1>   0.0800 
 38 H        4.3330     2.4390    -2.2220 H     1 <1>   0.0800 
 39 H        5.6750     0.8770    -0.8800 H     1 <1>   0.0800 
 40 H        4.8850     1.8400     0.3550 H     1 <1>   0.0800 
 41 H       -4.4830     3.4850    -1.7370 H     1 <1>   0.0800 
 42 H       -5.4490     2.1030    -1.2730 H     1 <1>   0.0800 
 43 H       -4.4850     2.0540    -2.7320 H     1 <1>   0.0800 
@<TRIPOS>BOND
  1   1   2  2   
  2   1   3  2   
  3   1   4  am  
  4   1   5  1   
  5   4   6  1   
  6   4  21  1   
  7   5   7  ar  
  8   5   8  ar  
  9   6   9  1   
 10   6  10  1   
 11   6  22  1   
 12   7  11  ar  
 13   7  12  1   
 14   8  13  ar  
 15   8  14  1   
 16   9  15  1   
 17   9  16  1   
 18   9  23  1   
 19  10  17  1   
 20  10  24  1   
 21  10  25  1   
 22  11  18  ar  
 23  11  26  1   
 24  12  27  1   
 25  12  28  1   
 26  12  29  1   
 27  13  18  ar  
 28  13  30  1   
 29  14  31  1   
 30  14  32  1   
 31  14  33  1   
 32  15  17  1   
 33  15  34  1   
 34  15  35  1   
 35  16  19  1   
 36  16  36  1   
 37  16  37  1   
 38  17  19  1   
 39  17  38  1   
 40  18  20  1   
 41  19  39  1   
 42  19  40  1   
 43  20  41  1   
 44  20  42  1   
 45  20  43  1   
@<TRIPOS>SUBSTRUCTURE
  1 ****   5 GROUP 4 **** **** 0

# MOE 2024.06 (io_trps.svl 2023.06)
