@<TRIPOS>MOLECULE
NONAME
36 37 1 0 0 
SMALL
USER_CHARGES


@<TRIPOS>ATOM
  1 O        0.1220     0.6170     1.6950 O.2   1 <1>  -0.5700 
  2 C        1.0550     1.1860     1.1510 C.2   1 <1>   0.6300 
  3 N        2.2320     0.4880     1.1840 N.am  1 <1>  -0.7300 
  4 C        0.9540     2.4920     0.5230 C.2   1 <1>   0.3890 
  5 C        3.5040     0.9210     0.5820 C.3   1 <1>   0.1400 
  6 N       -0.1220     3.2080     0.5170 N.2   1 <1>  -0.4920 
  7 C        2.2430     3.0100    -0.1430 C.3   1 <1>  -0.0990 
  8 C        3.2040     1.8840    -0.5680 C.3   1 <1>  -0.1600 
  9 N       -0.1810     4.4490    -0.0510 N.pl3 1 <1>  -0.4580 
 10 C       -1.3390     5.2420    -0.1470 C.ar  1 <1>   0.1000 
 11 C       -2.5380     4.8010    -0.7260 C.ar  1 <1>   0.0830 
 12 C       -1.2870     6.5420     0.3370 C.ar  1 <1>  -0.1500 
 13 O       -2.6560     3.5580    -1.2560 O.3   1 <1>  -0.3630 
 14 C       -3.6330     5.6440    -0.8090 C.ar  1 <1>  -0.1500 
 15 C       -2.3790     7.3900     0.2590 C.ar  1 <1>   0.0830 
 16 C       -3.1760     2.5810    -0.3820 C.3   1 <1>   0.0400 
 17 C       -3.5620     6.9360    -0.3180 C.ar  1 <1>  -0.1500 
 18 O       -2.2170     8.6420     0.7640 O.3   1 <1>  -0.3620 
 19 C       -3.2780     9.5700     0.7580 C.3   1 <1>   0.0400 
 20 H        2.2040    -0.4030     1.6860 H     1 <1>   0.3700 
 21 H        4.1050     1.4080     1.3330 H     1 <1>   0.0800 
 22 H        4.0420     0.0630     0.2120 H     1 <1>   0.0800 
 23 H        2.0060     3.5780    -1.0230 H     1 <1>   0.0800 
 24 H        2.7400     3.6600     0.5550 H     1 <1>   0.0800 
 25 H        4.1250     2.3070    -0.9290 H     1 <1>   0.0800 
 26 H        2.7640     1.3280    -1.3780 H     1 <1>   0.0800 
 27 H        0.6740     4.8910    -0.4040 H     1 <1>   0.4000 
 28 H       -0.3840     6.9040     0.7920 H     1 <1>   0.1500 
 29 H       -4.5370     5.2840    -1.2650 H     1 <1>   0.1500 
 30 H       -3.0740     1.6200    -0.8520 H     1 <1>   0.0800 
 31 H       -4.2120     2.7970    -0.1940 H     1 <1>   0.0800 
 32 H       -2.6200     2.5970     0.5390 H     1 <1>   0.0800 
 33 H       -4.4270     7.5660    -0.3970 H     1 <1>   0.1500 
 34 H       -2.9280    10.4790     1.2130 H     1 <1>   0.0800 
 35 H       -4.0970     9.1680     1.3280 H     1 <1>   0.0800 
 36 H       -3.5700     9.7600    -0.2590 H     1 <1>   0.0800 
@<TRIPOS>BOND
  1   1   2  2   
  2   2   3  am  
  3   2   4  1   
  4   3   5  1   
  5   3  20  1   
  6   4   6  2   
  7   4   7  1   
  8   5   8  1   
  9   5  21  1   
 10   5  22  1   
 11   6   9  1   
 12   7   8  1   
 13   7  23  1   
 14   7  24  1   
 15   8  25  1   
 16   8  26  1   
 17   9  10  1   
 18   9  27  1   
 19  10  11  ar  
 20  10  12  ar  
 21  11  13  1   
 22  11  14  ar  
 23  12  15  ar  
 24  12  28  1   
 25  13  16  1   
 26  14  17  ar  
 27  14  29  1   
 28  15  17  ar  
 29  15  18  1   
 30  16  30  1   
 31  16  31  1   
 32  16  32  1   
 33  17  33  1   
 34  18  19  1   
 35  19  34  1   
 36  19  35  1   
 37  19  36  1   
@<TRIPOS>SUBSTRUCTURE
  1 ****   9 GROUP 4 **** **** 0

# MOE 2024.06 (io_trps.svl 2023.06)
