@<TRIPOS>MOLECULE
NONAME
35 34 1 0 0 
SMALL
USER_CHARGES


@<TRIPOS>ATOM
  1 F       -0.6990     2.5800    -1.4760 F     1 <1>  -0.3400 
  2 C        0.3550     1.8490    -1.1400 C.3   1 <1>   1.0200 
  3 F       -0.1180     0.7630    -0.5410 F     1 <1>  -0.3400 
  4 F        0.8660     1.4190    -2.2860 F     1 <1>  -0.3400 
  5 C        1.3990     2.5960    -0.2960 C.3   1 <1>   0.2200 
  6 N        2.6930     1.8020    -0.0700 N.am  1 <1>  -0.7300 
  7 C        0.7340     3.0740     1.0030 C.3   1 <1>   1.0200 
  8 C        3.8630     2.0900    -0.6810 C.2   1 <1>   0.6900 
  9 F        1.5670     3.8000     1.7370 F     1 <1>  -0.3400 
 10 F       -0.3350     3.8380     0.8240 F     1 <1>  -0.3400 
 11 F        0.3530     2.0760     1.7910 F     1 <1>  -0.3400 
 12 O        3.9150     3.0630    -1.4080 O.2   1 <1>  -0.5700 
 13 N        4.9480     1.2790    -0.4870 N.am  1 <1>  -0.6600 
 14 C        6.2170     1.5360    -1.2240 C.3   1 <1>   0.1400 
 15 C        4.9420     0.0800     0.3920 C.3   1 <1>   0.1400 
 16 C        7.0630     2.6140    -0.5310 C.3   1 <1>  -0.1600 
 17 C        4.4240    -1.1330    -0.3870 C.3   1 <1>  -0.1600 
 18 C        7.5270     2.2340     0.8820 C.3   1 <1>  -0.2400 
 19 C        4.3570    -2.3790     0.5020 C.3   1 <1>  -0.2400 
 20 H        1.6410     3.4860    -0.8460 H     1 <1>   0.0800 
 21 H        2.6370     0.9220     0.4430 H     1 <1>   0.3700 
 22 H        5.9800     1.8650    -2.2230 H     1 <1>   0.0800 
 23 H        6.7820     0.6240    -1.3100 H     1 <1>   0.0800 
 24 H        4.3270     0.2620     1.2560 H     1 <1>   0.0800 
 25 H        5.9410    -0.1160     0.7440 H     1 <1>   0.0800 
 26 H        6.5000     3.5310    -0.4940 H     1 <1>   0.0800 
 27 H        7.9310     2.7990    -1.1390 H     1 <1>   0.0800 
 28 H        5.0800    -1.3280    -1.2170 H     1 <1>   0.0800 
 29 H        3.4430    -0.9250    -0.7750 H     1 <1>   0.0800 
 30 H        6.6820     2.1380     1.5410 H     1 <1>   0.0800 
 31 H        8.1710     3.0020     1.2730 H     1 <1>   0.0800 
 32 H        8.0700     1.3060     0.8660 H     1 <1>   0.0800 
 33 H        5.3330    -2.6230     0.8840 H     1 <1>   0.0800 
 34 H        3.9960    -3.2170    -0.0680 H     1 <1>   0.0800 
 35 H        3.6900    -2.2190     1.3310 H     1 <1>   0.0800 
@<TRIPOS>BOND
  1   1   2  1   
  2   2   3  1   
  3   2   4  1   
  4   2   5  1   
  5   5   6  1   
  6   5   7  1   
  7   5  20  1   
  8   6   8  am  
  9   6  21  1   
 10   7   9  1   
 11   7  10  1   
 12   7  11  1   
 13   8  12  2   
 14   8  13  am  
 15  13  14  1   
 16  13  15  1   
 17  14  16  1   
 18  14  22  1   
 19  14  23  1   
 20  15  17  1   
 21  15  24  1   
 22  15  25  1   
 23  16  18  1   
 24  16  26  1   
 25  16  27  1   
 26  17  19  1   
 27  17  28  1   
 28  17  29  1   
 29  18  30  1   
 30  18  31  1   
 31  18  32  1   
 32  19  33  1   
 33  19  34  1   
 34  19  35  1   
@<TRIPOS>SUBSTRUCTURE
  1 ****   6 GROUP 4 **** **** 0

# MOE 2024.06 (io_trps.svl 2023.06)
