@<TRIPOS>MOLECULE
Structure2161
36 36 1 0 0 
SMALL
USER_CHARGES


@<TRIPOS>ATOM
  1 O        0.0850    -0.1020     0.1080 O.2   1 <1>  -0.5700 
  2 C        0.7510    -1.0960    -0.1050 C.2   1 <1>   0.7800 
  3 O        0.1630    -2.2610    -0.3760 O.3   1 <1>  -0.4300 
  4 N        2.1210    -1.0480    -0.1200 N.am  1 <1>  -0.6600 
  5 C       -1.2210    -2.5340    -0.4240 C.3   1 <1>   0.2800 
  6 C        3.0230    -2.2570    -0.3060 C.3   1 <1>   0.2810 
  7 C        2.8050     0.2770    -0.2460 C.3   1 <1>   0.1400 
  8 C       -1.3240    -4.0260    -0.7410 C.3   1 <1>  -0.2400 
  9 C       -1.8640    -2.2680     0.9430 C.3   1 <1>  -0.2400 
 10 C       -1.8800    -1.7320    -1.5520 C.3   1 <1>  -0.2400 
 11 C        2.5110    -3.6070     0.2220 C.2   1 <1>   0.6590 
 12 C        4.3970    -2.0270     0.3560 C.3   1 <1>   0.1200 
 13 C        4.1740     0.2900     0.4450 C.3   1 <1>   0.1200 
 14 O        2.3290    -3.8200     1.3970 O.2   1 <1>  -0.5700 
 15 O        2.3470    -4.5620    -0.6900 O.3   1 <1>  -0.4300 
 16 O        4.9430    -0.7880     0.0060 O.3   1 <1>  -0.5600 
 17 C        1.9710    -5.8760    -0.3340 C.3   1 <1>   0.0400 
 18 H        3.1900    -2.3740    -1.3610 H     1 <1>   0.0800 
 19 H        2.1960     1.0540     0.1830 H     1 <1>   0.0800 
 20 H        2.9380     0.5030    -1.2890 H     1 <1>   0.0800 
 21 H       -0.8200    -4.2470    -1.6640 H     1 <1>   0.0800 
 22 H       -2.3540    -4.3180    -0.8360 H     1 <1>   0.0800 
 23 H       -0.8820    -4.6020     0.0510 H     1 <1>   0.0800 
 24 H       -1.3200    -2.7790     1.7170 H     1 <1>   0.0800 
 25 H       -2.8780    -2.6220     0.9470 H     1 <1>   0.0800 
 26 H       -1.8870    -1.2170     1.1640 H     1 <1>   0.0800 
 27 H       -1.3610    -1.8950    -2.4790 H     1 <1>   0.0800 
 28 H       -1.8840    -0.6810    -1.3290 H     1 <1>   0.0800 
 29 H       -2.9020    -2.0410    -1.6730 H     1 <1>   0.0800 
 30 H        5.0880    -2.7880     0.0410 H     1 <1>   0.0800 
 31 H        4.3110    -2.0710     1.4290 H     1 <1>   0.0800 
 32 H        4.0630     0.2310     1.5140 H     1 <1>   0.0800 
 33 H        4.7040     1.1940     0.2010 H     1 <1>   0.0800 
 34 H        1.0610    -5.8380     0.2380 H     1 <1>   0.0800 
 35 H        2.7580    -6.3140     0.2550 H     1 <1>   0.0800 
 36 H        1.8200    -6.4440    -1.2340 H     1 <1>   0.0800 
@<TRIPOS>BOND
  1   1   2  2   
  2   2   3  1   
  3   2   4  am  
  4   3   5  1   
  5   4   6  1   
  6   4   7  1   
  7   5   8  1   
  8   5   9  1   
  9   5  10  1   
 10   6  11  1   
 11   6  12  1   
 12   6  18  1   
 13   7  13  1   
 14   7  19  1   
 15   7  20  1   
 16   8  21  1   
 17   8  22  1   
 18   8  23  1   
 19   9  24  1   
 20   9  25  1   
 21   9  26  1   
 22  10  27  1   
 23  10  28  1   
 24  10  29  1   
 25  11  14  2   
 26  11  15  1   
 27  12  16  1   
 28  12  30  1   
 29  12  31  1   
 30  13  16  1   
 31  13  32  1   
 32  13  33  1   
 33  15  17  1   
 34  17  34  1   
 35  17  35  1   
 36  17  36  1   
@<TRIPOS>SUBSTRUCTURE
  1 ****   4 GROUP 4 **** **** 0

# MOE 2024.06 (io_trps.svl 2023.06)
