@<TRIPOS>MOLECULE
NONAME
47 48 1 0 0 
SMALL
USER_CHARGES


@<TRIPOS>ATOM
  1 O        0.1590     0.5130    -0.5980 O.3   1 <1>  -0.5600 
  2 C        1.2610    -0.2550    -0.9760 C.3   1 <1>   0.1200 
  3 C        0.2330     1.0630     0.6830 C.3   1 <1>   0.1200 
  4 C        2.5390     0.6060    -0.9470 C.3   1 <1>   0.3430 
  5 C        1.4620     1.9860     0.7900 C.3   1 <1>   0.3430 
  6 N        2.7380     1.2760     0.3950 N.4   1 <1>  -0.9590 
  7 C        3.8890     2.2270     0.4200 C.3   1 <1>   0.3430 
  8 C        5.2340     1.4860     0.3530 C.3   1 <1>  -0.1600 
  9 C        6.4060     2.4680     0.4790 C.3   1 <1>   0.3430 
 10 N        7.6990     1.7330     0.4250 N.4   1 <1>  -0.9060 
 11 C        8.8880     2.6060     0.5630 C.3   1 <1>   0.4230 
 12 C        9.1450     3.3290    -0.7690 C.3   1 <1>  -0.1600 
 13 C       10.0460     1.7180     1.0310 C.3   1 <1>  -0.1600 
 14 C       10.1120     4.5100    -0.5960 C.3   1 <1>  -0.1600 
 15 C       11.3880     2.4470     1.2130 C.3   1 <1>  -0.1600 
 16 C       11.5990     4.1500    -0.7270 C.3   1 <1>  -0.1600 
 17 C       12.0480     2.8110    -0.1230 C.3   1 <1>  -0.1600 
 18 H        1.0790    -0.6170    -1.9730 H     1 <1>   0.0800 
 19 H        1.3390    -1.1020    -0.3150 H     1 <1>   0.0800 
 20 H        0.2740     0.2650     1.4040 H     1 <1>   0.0800 
 21 H       -0.6700     1.6260     0.8480 H     1 <1>   0.0800 
 22 H        2.4540     1.3530    -1.7200 H     1 <1>   0.0800 
 23 H        3.3850    -0.0190    -1.1810 H     1 <1>   0.0800 
 24 H        1.5390     2.3510     1.8010 H     1 <1>   0.0800 
 25 H        1.2990     2.8330     0.1440 H     1 <1>   0.0800 
 26 H        2.8800     0.5320     1.0920 H     1 <1>   0.4500 
 27 H        3.8500     2.7990     1.3350 H     1 <1>   0.0800 
 28 H        3.8040     2.9170    -0.4050 H     1 <1>   0.0800 
 29 H        5.3120     0.9700    -0.5880 H     1 <1>   0.0800 
 30 H        5.2820     0.7760     1.1590 H     1 <1>   0.0800 
 31 H        6.3360     3.0030     1.4140 H     1 <1>   0.0800 
 32 H        6.3640     3.1890    -0.3230 H     1 <1>   0.0800 
 33 H        7.8080     1.2180    -0.4570 H     1 <1>   0.4500 
 34 H        7.7510     1.0380     1.1800 H     1 <1>   0.4500 
 35 H        8.7020     3.3450     1.3270 H     1 <1>   0.0800 
 36 H        8.2250     3.7420    -1.1380 H     1 <1>   0.0800 
 37 H        9.5250     2.6500    -1.5140 H     1 <1>   0.0800 
 38 H       10.1910     0.9040     0.3420 H     1 <1>   0.0800 
 39 H        9.7860     1.2970     1.9870 H     1 <1>   0.0800 
 40 H        9.9440     4.9850     0.3560 H     1 <1>   0.0800 
 41 H        9.8950     5.2510    -1.3480 H     1 <1>   0.0800 
 42 H       12.0550     1.7770     1.7310 H     1 <1>   0.0800 
 43 H       11.2800     3.3210     1.8340 H     1 <1>   0.0800 
 44 H       12.1710     4.9410    -0.2710 H     1 <1>   0.0800 
 45 H       11.8650     4.1450    -1.7710 H     1 <1>   0.0800 
 46 H       11.8880     2.0200    -0.8370 H     1 <1>   0.0800 
 47 H       13.1130     2.8680     0.0280 H     1 <1>   0.0800 
@<TRIPOS>BOND
  1   1   2  1   
  2   1   3  1   
  3   2   4  1   
  4   2  18  1   
  5   2  19  1   
  6   3   5  1   
  7   3  20  1   
  8   3  21  1   
  9   4   6  1   
 10   4  22  1   
 11   4  23  1   
 12   5   6  1   
 13   5  24  1   
 14   5  25  1   
 15   6   7  1   
 16   6  26  1   
 17   7   8  1   
 18   7  27  1   
 19   7  28  1   
 20   8   9  1   
 21   8  29  1   
 22   8  30  1   
 23   9  10  1   
 24   9  31  1   
 25   9  32  1   
 26  10  11  1   
 27  10  33  1   
 28  10  34  1   
 29  11  12  1   
 30  11  13  1   
 31  11  35  1   
 32  12  14  1   
 33  12  36  1   
 34  12  37  1   
 35  13  15  1   
 36  13  38  1   
 37  13  39  1   
 38  14  16  1   
 39  14  40  1   
 40  14  41  1   
 41  15  17  1   
 42  15  42  1   
 43  15  43  1   
 44  16  17  1   
 45  16  44  1   
 46  16  45  1   
 47  17  46  1   
 48  17  47  1   
@<TRIPOS>SUBSTRUCTURE
  1 ****   9 GROUP 4 **** **** 0

# MOE 2024.06 (io_trps.svl 2023.06)
