@<TRIPOS>MOLECULE
NONAME
37 38 1 0 0 
SMALL
USER_CHARGES


@<TRIPOS>ATOM
  1 S       -0.1680    -0.0590    -0.7460 S.3   1 <1>  -0.2860 
  2 C        1.3330     0.9020    -0.5200 C.2   1 <1>   0.2420 
  3 C       -1.4160     1.2330    -1.2110 C.3   1 <1>   0.1310 
  4 N        1.3510     2.1780    -0.6570 N.2   1 <1>  -0.3380 
  5 N        2.5140     0.3700    -0.1970 N.pl3 1 <1>   0.0480 
  6 C       -2.7780     0.6010    -1.4050 C.2   1 <1>   0.6590 
  7 N        2.6050     2.5460    -0.4220 N.2   1 <1>  -0.3380 
  8 C        3.3070     1.4730    -0.1630 C.2   1 <1>   0.1860 
  9 C        2.7430    -1.0730     0.1190 C.3   1 <1>   0.1760 
 10 O       -3.2800     0.5000    -2.4950 O.2   1 <1>  -0.5700 
 11 O       -3.3920     0.1810    -0.3040 O.3   1 <1>  -0.4300 
 12 C        4.7210     1.5410     0.1110 C.2   1 <1>   0.1400 
 13 C        3.4340    -1.2760     1.4750 C.3   1 <1>  -0.2400 
 14 C        3.4620    -1.7970    -1.0260 C.3   1 <1>  -0.2400 
 15 C       -4.6610    -0.4270    -0.3580 C.3   1 <1>   0.1200 
 16 O        5.5480     0.5400    -0.1660 O.3   1 <1>  -0.2800 
 17 C        5.4480     2.5670     0.6300 C.2   1 <1>  -0.1500 
 18 C       -5.0740    -0.7870     1.0660 C.3   1 <1>  -0.2400 
 19 C        6.7720     0.8960     0.1670 C.2   1 <1>  -0.0100 
 20 C        6.7780     2.1470     0.6710 C.2   1 <1>  -0.1500 
 21 H       -1.0760     1.6910    -2.1210 H     1 <1>   0.0800 
 22 H       -1.4420     1.9560    -0.4180 H     1 <1>   0.0800 
 23 H        1.7780    -1.5380     0.2140 H     1 <1>   0.0800 
 24 H        4.4600    -0.9650     1.4560 H     1 <1>   0.0800 
 25 H        3.4160    -2.3200     1.7330 H     1 <1>   0.0800 
 26 H        2.9120    -0.7330     2.2430 H     1 <1>   0.0800 
 27 H        4.4630    -1.4350    -1.1610 H     1 <1>   0.0800 
 28 H        2.9160    -1.6690    -1.9440 H     1 <1>   0.0800 
 29 H        3.5160    -2.8490    -0.8130 H     1 <1>   0.0800 
 30 H       -4.5910    -1.3080    -0.9750 H     1 <1>   0.0800 
 31 H       -5.3550     0.2690    -0.7990 H     1 <1>   0.0800 
 32 H        5.0800     3.5270     0.9460 H     1 <1>   0.1500 
 33 H       -4.3650    -1.4730     1.4950 H     1 <1>   0.0800 
 34 H       -6.0410    -1.2550     1.0560 H     1 <1>   0.0800 
 35 H       -5.1280     0.1000     1.6720 H     1 <1>   0.0800 
 36 H        7.5790     0.2010     0.0120 H     1 <1>   0.1500 
 37 H        7.6110     2.7260     1.0310 H     1 <1>   0.1500 
@<TRIPOS>BOND
  1   1   2  1   
  2   1   3  1   
  3   2   4  2   
  4   2   5  1   
  5   3   6  1   
  6   3  21  1   
  7   3  22  1   
  8   4   7  1   
  9   5   8  1   
 10   5   9  1   
 11   6  10  2   
 12   6  11  1   
 13   7   8  2   
 14   8  12  1   
 15   9  13  1   
 16   9  14  1   
 17   9  23  1   
 18  11  15  1   
 19  12  16  1   
 20  12  17  2   
 21  13  24  1   
 22  13  25  1   
 23  13  26  1   
 24  14  27  1   
 25  14  28  1   
 26  14  29  1   
 27  15  18  1   
 28  15  30  1   
 29  15  31  1   
 30  16  19  1   
 31  17  20  1   
 32  17  32  1   
 33  18  33  1   
 34  18  34  1   
 35  18  35  1   
 36  19  20  2   
 37  19  36  1   
 38  20  37  1   
@<TRIPOS>SUBSTRUCTURE
  1 ****   2 GROUP 4 **** **** 0

# MOE 2024.06 (io_trps.svl 2023.06)
