@<TRIPOS>MOLECULE
NONAME
55 57 1 0 0 
SMALL
USER_CHARGES


@<TRIPOS>ATOM
  1 O        0.0270    -0.8510    -0.7710 O.2   1 <1>  -0.5700 
  2 C        0.5870    -1.8860    -0.5060 C.2   1 <1>   0.5690 
  3 N        1.9340    -2.0940    -0.4010 N.am  1 <1>  -0.4770 
  4 C       -0.1860    -3.1440    -0.2220 C.3   1 <1>  -0.0990 
  5 C        2.9830    -1.1650    -0.5540 C.ar  1 <1>   0.1170 
  6 C        2.2080    -3.5030    -0.0470 C.3   1 <1>   0.1400 
  7 C        0.8600    -4.0400     0.4540 C.3   1 <1>  -0.0190 
  8 C        2.8370     0.1580    -0.1480 C.ar  1 <1>  -0.1500 
  9 C        4.2020    -1.5500    -1.1070 C.ar  1 <1>  -0.1500 
 10 C        0.6530    -5.5180     0.1760 C.2   1 <1>   0.5690 
 11 C        3.8730     1.0650    -0.2810 C.ar  1 <1>  -0.1500 
 12 C        5.2420    -0.6470    -1.2410 C.ar  1 <1>  -0.1500 
 13 O        1.0620    -5.9790    -0.8610 O.2   1 <1>  -0.5700 
 14 N        0.0000    -6.2600     1.1120 N.am  1 <1>  -0.7300 
 15 C        5.0790     0.6630    -0.8260 C.ar  1 <1>  -0.1500 
 16 C       -0.3290    -7.7030     1.0670 C.3   1 <1>   0.2200 
 17 C        0.9390    -8.5570     1.0000 C.3   1 <1>  -0.1600 
 18 C       -1.2680    -8.0170    -0.0990 C.3   1 <1>  -0.1600 
 19 C        0.5910   -10.0530     0.9700 C.3   1 <1>  -0.1600 
 20 C       -1.6210    -9.5130    -0.1310 C.3   1 <1>  -0.1600 
 21 C       -0.3590   -10.4090    -0.2010 C.3   1 <1>  -0.0800 
 22 C       -0.6750   -11.9400    -0.3180 C.3   1 <1>   0.0000 
 23 C       -1.4210   -12.4930     0.9100 C.3   1 <1>  -0.2400 
 24 C       -1.5380   -12.2230    -1.5620 C.3   1 <1>  -0.2400 
 25 C        0.6240   -12.7520    -0.4860 C.3   1 <1>  -0.2400 
 26 H       -0.5170    -3.5620    -1.1550 H     1 <1>   0.0800 
 27 H       -1.0270    -2.9480     0.4170 H     1 <1>   0.0800 
 28 H        2.9650    -3.5670     0.7160 H     1 <1>   0.0800 
 29 H        2.5350    -4.0240    -0.9300 H     1 <1>   0.0800 
 30 H        0.8240    -3.8730     1.5150 H     1 <1>   0.0800 
 31 H        1.9040     0.4830     0.2760 H     1 <1>   0.1500 
 32 H        4.3430    -2.5590    -1.4450 H     1 <1>   0.1500 
 33 H        3.7380     2.0840     0.0380 H     1 <1>   0.1500 
 34 H        6.1770    -0.9610    -1.6700 H     1 <1>   0.1500 
 35 H       -0.3380    -5.7950     1.9550 H     1 <1>   0.3700 
 36 H        5.8860     1.3680    -0.9300 H     1 <1>   0.1500 
 37 H       -0.8440    -7.9500     1.9800 H     1 <1>   0.0800 
 38 H        1.5590    -8.3510     1.8540 H     1 <1>   0.0800 
 39 H        1.4940    -8.3170     0.1100 H     1 <1>   0.0800 
 40 H       -0.7950    -7.7560    -1.0300 H     1 <1>   0.0800 
 41 H       -2.1700    -7.4400    -0.0030 H     1 <1>   0.0800 
 42 H        0.1340   -10.3200     1.9070 H     1 <1>   0.0800 
 43 H        1.5130   -10.5970     0.8850 H     1 <1>   0.0800 
 44 H       -2.2470    -9.6780    -0.9880 H     1 <1>   0.0800 
 45 H       -2.1920    -9.7520     0.7480 H     1 <1>   0.0800 
 46 H        0.1590   -10.1360    -1.1060 H     1 <1>   0.0800 
 47 H       -1.6160   -13.5430     0.7860 H     1 <1>   0.0800 
 48 H       -2.3650   -11.9990     1.0450 H     1 <1>   0.0800 
 49 H       -0.8390   -12.3720     1.8050 H     1 <1>   0.0800 
 50 H       -2.5270   -11.8180    -1.4540 H     1 <1>   0.0800 
 51 H       -1.6430   -13.2820    -1.7200 H     1 <1>   0.0800 
 52 H       -1.0850   -11.7970    -2.4400 H     1 <1>   0.0800 
 53 H        0.4030   -13.7830    -0.7010 H     1 <1>   0.0800 
 54 H        1.2110   -12.3590    -1.2970 H     1 <1>   0.0800 
 55 H        1.2170   -12.7330     0.4090 H     1 <1>   0.0800 
@<TRIPOS>BOND
  1   1   2  2   
  2   2   3  am  
  3   2   4  1   
  4   3   5  1   
  5   3   6  1   
  6   4   7  1   
  7   4  26  1   
  8   4  27  1   
  9   5   8  ar  
 10   5   9  ar  
 11   6   7  1   
 12   6  28  1   
 13   6  29  1   
 14   7  10  1   
 15   7  30  1   
 16   8  11  ar  
 17   8  31  1   
 18   9  12  ar  
 19   9  32  1   
 20  10  13  2   
 21  10  14  am  
 22  11  15  ar  
 23  11  33  1   
 24  12  15  ar  
 25  12  34  1   
 26  14  16  1   
 27  14  35  1   
 28  15  36  1   
 29  16  17  1   
 30  16  18  1   
 31  16  37  1   
 32  17  19  1   
 33  17  38  1   
 34  17  39  1   
 35  18  20  1   
 36  18  40  1   
 37  18  41  1   
 38  19  21  1   
 39  19  42  1   
 40  19  43  1   
 41  20  21  1   
 42  20  44  1   
 43  20  45  1   
 44  21  22  1   
 45  21  46  1   
 46  22  23  1   
 47  22  24  1   
 48  22  25  1   
 49  23  47  1   
 50  23  48  1   
 51  23  49  1   
 52  24  50  1   
 53  24  51  1   
 54  24  52  1   
 55  25  53  1   
 56  25  54  1   
 57  25  55  1   
@<TRIPOS>SUBSTRUCTURE
  1 ****  10 GROUP 4 **** **** 0

# MOE 2024.06 (io_trps.svl 2023.06)
