@<TRIPOS>MOLECULE
NONAME
49 51 1 0 0 
SMALL
USER_CHARGES


@<TRIPOS>ATOM
  1 O       -2.1480    -5.2500     2.6880 O.2   1 <1>  -0.5700 
  2 C       -1.9810    -5.0390     1.5140 C.2   1 <1>   0.6590 
  3 O       -2.9720    -4.6300     0.7280 O.3   1 <1>  -0.4300 
  4 C       -0.6100    -5.1680     0.8460 C.3   1 <1>   0.1710 
  5 C       -4.2530    -4.3060     1.2100 C.3   1 <1>   0.2000 
  6 N       -0.0220    -3.8600     0.4480 N.3   1 <1>  -0.9000 
  7 C       -5.2170    -4.3500     0.0090 C.3   1 <1>  -0.1600 
  8 C       -4.2040    -2.9100     1.8700 C.3   1 <1>  -0.1600 
  9 C        1.1530    -3.9780    -0.4010 C.3   1 <1>   0.1900 
 10 C       -5.2320    -3.0510    -0.8160 C.3   1 <1>   0.4230 
 11 C       -4.3140    -1.7490     0.8680 C.3   1 <1>   0.4230 
 12 C        2.3660    -4.4300     0.4240 C.3   1 <1>  -0.1600 
 13 C        1.4040    -2.6070    -1.0340 C.3   1 <1>  -0.1600 
 14 N       -5.5750    -1.9640     0.1260 N.4   1 <1>  -0.9590 
 15 C       -3.8500    -2.6480    -1.3420 C.3   1 <1>  -0.1600 
 16 C       -3.2410    -1.7860    -0.2260 C.3   1 <1>  -0.1600 
 17 C        3.6460    -4.4330    -0.4250 C.3   1 <1>  -0.1600 
 18 C        2.6780    -2.6090    -1.8900 C.3   1 <1>  -0.1600 
 19 C       -6.0610    -0.7270    -0.5630 C.3   1 <1>   0.2630 
 20 C        3.8920    -3.0630    -1.0690 C.3   1 <1>  -0.1600 
 21 H       -0.7290    -5.7850    -0.0270 H     1 <1>   0.0800 
 22 H        0.0500    -5.6720     1.5280 H     1 <1>   0.0800 
 23 H       -4.5260    -5.0610     1.9320 H     1 <1>   0.0800 
 24 H        0.2580    -3.3490     1.2950 H     1 <1>   0.3600 
 25 H       -6.2130    -4.5300     0.3700 H     1 <1>   0.0800 
 26 H       -4.9630    -5.1830    -0.6230 H     1 <1>   0.0800 
 27 H       -3.3030    -2.8060     2.4490 H     1 <1>   0.0800 
 28 H       -5.0190    -2.8300     2.5660 H     1 <1>   0.0800 
 29 H        0.9630    -4.6890    -1.1900 H     1 <1>   0.0800 
 30 H       -5.9510    -3.1270    -1.6170 H     1 <1>   0.0800 
 31 H       -4.3130    -0.8050     1.3900 H     1 <1>   0.0800 
 32 H        2.2080    -5.4220     0.8040 H     1 <1>   0.0800 
 33 H        2.5040    -3.7620     1.2560 H     1 <1>   0.0800 
 34 H        1.5050    -1.8660    -0.2600 H     1 <1>   0.0800 
 35 H        0.5630    -2.3420    -1.6510 H     1 <1>   0.0800 
 36 H       -6.2930    -2.2990     0.7780 H     1 <1>   0.4500 
 37 H       -3.9570    -2.0700    -2.2430 H     1 <1>   0.0800 
 38 H       -3.2420    -3.5060    -1.5720 H     1 <1>   0.0800 
 39 H       -2.3110    -2.1860     0.1390 H     1 <1>   0.0800 
 40 H       -3.0510    -0.7900    -0.5840 H     1 <1>   0.0800 
 41 H        3.5600    -5.1780    -1.1980 H     1 <1>   0.0800 
 42 H        4.4880    -4.6960     0.1930 H     1 <1>   0.0800 
 43 H        2.8540    -1.6210    -2.2780 H     1 <1>   0.0800 
 44 H        2.5450    -3.2730    -2.7270 H     1 <1>   0.0800 
 45 H       -6.9640    -0.9370    -1.1130 H     1 <1>   0.0800 
 46 H       -5.3160    -0.3610    -1.2510 H     1 <1>   0.0800 
 47 H       -6.2700     0.0450     0.1590 H     1 <1>   0.0800 
 48 H        4.7590    -3.1140    -1.7060 H     1 <1>   0.0800 
 49 H        4.0920    -2.3370    -0.2990 H     1 <1>   0.0800 
@<TRIPOS>BOND
  1   1   2  2   
  2   2   3  1   
  3   2   4  1   
  4   3   5  1   
  5   4   6  1   
  6   4  21  1   
  7   4  22  1   
  8   5   7  1   
  9   5   8  1   
 10   5  23  1   
 11   6   9  1   
 12   6  24  1   
 13   7  10  1   
 14   7  25  1   
 15   7  26  1   
 16   8  11  1   
 17   8  27  1   
 18   8  28  1   
 19   9  12  1   
 20   9  13  1   
 21   9  29  1   
 22  10  14  1   
 23  10  15  1   
 24  10  30  1   
 25  11  14  1   
 26  11  16  1   
 27  11  31  1   
 28  12  17  1   
 29  12  32  1   
 30  12  33  1   
 31  13  18  1   
 32  13  34  1   
 33  13  35  1   
 34  14  19  1   
 35  14  36  1   
 36  15  16  1   
 37  15  37  1   
 38  15  38  1   
 39  16  39  1   
 40  16  40  1   
 41  17  20  1   
 42  17  41  1   
 43  17  42  1   
 44  18  20  1   
 45  18  43  1   
 46  18  44  1   
 47  19  45  1   
 48  19  46  1   
 49  19  47  1   
 50  20  48  1   
 51  20  49  1   
@<TRIPOS>SUBSTRUCTURE
  1 ****   6 GROUP 4 **** **** 0

# MOE 2024.06 (io_trps.svl 2023.06)
