@<TRIPOS>MOLECULE
NONAME
29 30 1 0 0 
SMALL
USER_CHARGES


@<TRIPOS>ATOM
  1 CL      -0.9840     0.0860    -0.9310 Cl    1 <1>  -0.1770 
  2 C       -0.4270     1.6940    -0.5490 C.ar  1 <1>   0.1770 
  3 C        0.8330     2.0850    -0.9600 C.ar  1 <1>  -0.1500 
  4 C       -1.2510     2.5490     0.1560 C.ar  1 <1>  -0.1500 
  5 C        1.2850     3.3620    -0.6580 C.ar  1 <1>  -0.1440 
  6 C       -0.8050     3.8240     0.4600 C.ar  1 <1>  -0.1500 
  7 C        0.4640     4.2360     0.0550 C.ar  1 <1>   0.0830 
  8 C        2.6600     3.8080    -1.1090 C.3   1 <1>   0.4870 
  9 O        0.9620     5.4710     0.3340 O.3   1 <1>  -0.3630 
 10 N        3.4340     4.1380     0.1000 N.4   1 <1>  -0.7990 
 11 C        0.1290     6.4950     0.8440 C.3   1 <1>   0.0400 
 12 C        4.7270     4.7610    -0.1820 C.3   1 <1>   0.2960 
 13 C        5.2900     5.6750     0.8490 C.3   1 <1>  -0.2000 
 14 C        4.7510     6.2290    -0.4380 C.3   1 <1>  -0.2000 
 15 H        1.4330     1.3820    -1.5120 H     1 <1>   0.1500 
 16 H       -2.2280     2.2160     0.4620 H     1 <1>   0.1500 
 17 H       -1.4610     4.4720     1.0120 H     1 <1>   0.1500 
 18 H        2.5640     4.6800    -1.7360 H     1 <1>   0.0800 
 19 H        3.1480     3.0260    -1.6680 H     1 <1>   0.0800 
 20 H        3.5320     3.3060     0.6880 H     1 <1>   0.4500 
 21 H        2.8370     4.7990     0.6220 H     1 <1>   0.4500 
 22 H        0.7000     7.4050     0.8960 H     1 <1>   0.0800 
 23 H       -0.2060     6.2220     1.8300 H     1 <1>   0.0800 
 24 H       -0.7090     6.6310     0.1820 H     1 <1>   0.0800 
 25 H        5.4110     4.1280    -0.7300 H     1 <1>   0.1000 
 26 H        6.3570     5.7060     0.9970 H     1 <1>   0.1000 
 27 H        4.7470     5.8700     1.7580 H     1 <1>   0.1000 
 28 H        3.8400     6.8010    -0.4050 H     1 <1>   0.1000 
 29 H        5.4610     6.6290    -1.1420 H     1 <1>   0.1000 
@<TRIPOS>BOND
  1   1   2  1   
  2   2   3  ar  
  3   2   4  ar  
  4   3   5  ar  
  5   3  15  1   
  6   4   6  ar  
  7   4  16  1   
  8   5   7  ar  
  9   5   8  1   
 10   6   7  ar  
 11   6  17  1   
 12   7   9  1   
 13   8  10  1   
 14   8  18  1   
 15   8  19  1   
 16   9  11  1   
 17  10  12  1   
 18  10  20  1   
 19  10  21  1   
 20  11  22  1   
 21  11  23  1   
 22  11  24  1   
 23  12  13  1   
 24  12  14  1   
 25  12  25  1   
 26  13  14  1   
 27  13  26  1   
 28  13  27  1   
 29  14  28  1   
 30  14  29  1   
@<TRIPOS>SUBSTRUCTURE
  1 ****   5 GROUP 4 **** **** 0

# MOE 2024.06 (io_trps.svl 2023.06)
