@<TRIPOS>MOLECULE
NONAME
47 50 1 0 0 
SMALL
USER_CHARGES


@<TRIPOS>ATOM
  1 S        0.4180     0.5300    -2.4360 S.3   1 <1>  -0.0800 
  2 C        0.1230    -0.8180    -1.3400 C.2   1 <1>   0.3250 
  3 C       -1.2350     0.4830    -2.9590 C.2   1 <1>  -0.1100 
  4 N       -1.0990    -1.2300    -1.3960 N.2   1 <1>  -0.5650 
  5 C        1.2030    -1.3210    -0.5170 C.ar  1 <1>   0.0530 
  6 C       -1.8590    -0.5040    -2.3010 C.2   1 <1>   0.0460 
  7 C        1.0750    -2.5510     0.1310 C.ar  1 <1>  -0.1500 
  8 C        2.3990    -0.6250    -0.3190 C.ar  1 <1>  -0.1500 
  9 C       -3.3250    -0.8940    -2.4320 C.3   1 <1>   0.5240 
 10 C        2.0790    -3.0600     0.9330 C.ar  1 <1>  -0.1500 
 11 C        3.4060    -1.1310     0.4830 C.ar  1 <1>  -0.1500 
 12 N       -3.8420    -1.1550    -1.0630 N.4   1 <1>  -0.9590 
 13 C        3.2530    -2.3520     1.1160 C.ar  1 <1>  -0.1430 
 14 C       -5.0890    -2.0040    -1.0460 C.3   1 <1>   0.3430 
 15 C       -3.9860     0.1220    -0.2660 C.3   1 <1>   0.3430 
 16 C        4.3590    -2.9080     1.9940 C.3   1 <1>  -0.0970 
 17 C       -5.6350    -2.2290     0.3800 C.3   1 <1>   0.2090 
 18 C       -4.5250    -0.1380     1.1540 C.3   1 <1>   0.2090 
 19 N       -5.7960    -0.9160     1.0680 N.pl3 1 <1>  -0.8380 
 20 C       -7.0070    -0.2670     0.9830 C.ar  1 <1>   0.7200 
 21 N       -6.9760     1.0230     0.6520 N.ar  1 <1>  -0.6200 
 22 N       -8.0900    -1.0040     1.1970 N.ar  1 <1>  -0.6200 
 23 C       -8.1410     1.6250     0.5910 C.ar  1 <1>   0.1600 
 24 C       -9.2390    -0.3750     1.1290 C.ar  1 <1>   0.1600 
 25 C       -9.3200     0.9620     0.8270 C.ar  1 <1>  -0.1500 
 26 H       -1.5440     1.2020    -3.6980 H     1 <1>   0.1500 
 27 H        0.1730    -3.1220     0.0020 H     1 <1>   0.1500 
 28 H        2.5590     0.3290    -0.7870 H     1 <1>   0.1500 
 29 H       -3.3860    -1.7940    -3.0210 H     1 <1>   0.0800 
 30 H       -3.8890    -0.1160    -2.9190 H     1 <1>   0.0800 
 31 H        1.9450    -4.0130     1.4140 H     1 <1>   0.1500 
 32 H        4.3150    -0.5700     0.6120 H     1 <1>   0.1500 
 33 H       -3.0660    -1.6770    -0.6210 H     1 <1>   0.4500 
 34 H       -4.8900    -2.9600    -1.5010 H     1 <1>   0.0800 
 35 H       -5.8620    -1.5180    -1.6190 H     1 <1>   0.0800 
 36 H       -4.6750     0.7860    -0.7630 H     1 <1>   0.0800 
 37 H       -3.0330     0.6200    -0.1940 H     1 <1>   0.0800 
 38 H        3.9480    -3.5280     2.7700 H     1 <1>   0.0800 
 39 H        4.9110    -2.1090     2.4550 H     1 <1>   0.0800 
 40 H        5.0330    -3.4970     1.3990 H     1 <1>   0.0800 
 41 H       -4.9570    -2.8470     0.9430 H     1 <1>   0.0800 
 42 H       -6.5750    -2.7530     0.3250 H     1 <1>   0.0800 
 43 H       -4.6900     0.7980     1.6620 H     1 <1>   0.0800 
 44 H       -3.8020    -0.6910     1.7280 H     1 <1>   0.0800 
 45 H       -8.1580     2.6750     0.3460 H     1 <1>   0.1500 
 46 H      -10.1370    -0.9400     1.3180 H     1 <1>   0.1500 
 47 H      -10.2670     1.4670     0.7780 H     1 <1>   0.1500 
@<TRIPOS>BOND
  1   1   2  1   
  2   1   3  1   
  3   2   4  2   
  4   2   5  1   
  5   3   6  2   
  6   3  26  1   
  7   4   6  1   
  8   5   7  ar  
  9   5   8  ar  
 10   6   9  1   
 11   7  10  ar  
 12   7  27  1   
 13   8  11  ar  
 14   8  28  1   
 15   9  12  1   
 16   9  29  1   
 17   9  30  1   
 18  10  13  ar  
 19  10  31  1   
 20  11  13  ar  
 21  11  32  1   
 22  12  14  1   
 23  12  15  1   
 24  12  33  1   
 25  13  16  1   
 26  14  17  1   
 27  14  34  1   
 28  14  35  1   
 29  15  18  1   
 30  15  36  1   
 31  15  37  1   
 32  16  38  1   
 33  16  39  1   
 34  16  40  1   
 35  17  19  1   
 36  17  41  1   
 37  17  42  1   
 38  18  19  1   
 39  18  43  1   
 40  18  44  1   
 41  19  20  1   
 42  20  21  ar  
 43  20  22  ar  
 44  21  23  ar  
 45  22  24  ar  
 46  23  25  ar  
 47  23  45  1   
 48  24  25  ar  
 49  24  46  1   
 50  25  47  1   
@<TRIPOS>SUBSTRUCTURE
  1 ****  12 GROUP 4 **** **** 0

# MOE 2024.06 (io_trps.svl 2023.06)
