@<TRIPOS>MOLECULE
NONAME
32 32 1 0 0 
SMALL
USER_CHARGES


@<TRIPOS>ATOM
  1 O        0.1440    -0.3000     0.8570 O.2   1 <1>  -0.5700 
  2 C        0.2590    -1.2820     0.1680 C.2   1 <1>   0.6590 
  3 O        1.4160    -1.6730    -0.3590 O.3   1 <1>  -0.2330 
  4 C       -0.9200    -2.1850    -0.1630 C.3   1 <1>  -0.0990 
  5 C        2.6250    -1.0560    -0.2530 C.ar  1 <1>   0.0830 
  6 C       -2.2640    -1.7110     0.4180 C.3   1 <1>  -0.1600 
  7 C        3.7640    -1.8480    -0.1160 C.ar  1 <1>   0.0830 
  8 C        2.7480     0.3260    -0.2990 C.ar  1 <1>  -0.1500 
  9 C       -3.4030    -2.6650     0.0430 C.3   1 <1>  -0.2400 
 10 O        3.5940    -3.1990    -0.0840 O.3   1 <1>  -0.3630 
 11 C        5.0120    -1.2400    -0.0140 C.ar  1 <1>  -0.1500 
 12 C        3.9950     0.9170    -0.1960 C.ar  1 <1>  -0.1500 
 13 C        4.6770    -4.0850     0.0860 C.3   1 <1>   0.1200 
 14 C        5.1410     0.1440    -0.0510 C.ar  1 <1>   0.0730 
 15 C        4.1240    -5.5060     0.0920 C.3   1 <1>  -0.2400 
 16 C        6.4320     0.7610     0.0570 C.1   1 <1>   0.4840 
 17 N        7.4620     1.2440     0.1410 N.1   1 <1>  -0.5570 
 18 H       -0.6970    -3.1670     0.2110 H     1 <1>   0.0800 
 19 H       -0.9980    -2.2470    -1.2330 H     1 <1>   0.0800 
 20 H       -2.4880    -0.7240     0.0480 H     1 <1>   0.0800 
 21 H       -2.1890    -1.6500     1.4910 H     1 <1>   0.0800 
 22 H        1.8760     0.9470    -0.4150 H     1 <1>   0.1500 
 23 H       -3.5120    -2.7220    -1.0260 H     1 <1>   0.0800 
 24 H       -4.3290    -2.3110     0.4610 H     1 <1>   0.0800 
 25 H       -3.2110    -3.6520     0.4260 H     1 <1>   0.0800 
 26 H        5.9040    -1.8280     0.0950 H     1 <1>   0.1500 
 27 H        4.0740     1.9910    -0.2280 H     1 <1>   0.1500 
 28 H        5.1580    -3.8610     1.0220 H     1 <1>   0.0800 
 29 H        5.3620    -3.9480    -0.7330 H     1 <1>   0.0800 
 30 H        3.4280    -5.6290     0.9020 H     1 <1>   0.0800 
 31 H        4.9270    -6.2100     0.2200 H     1 <1>   0.0800 
 32 H        3.6300    -5.7150    -0.8400 H     1 <1>   0.0800 
@<TRIPOS>BOND
  1   1   2  2   
  2   2   3  1   
  3   2   4  1   
  4   3   5  1   
  5   4   6  1   
  6   4  18  1   
  7   4  19  1   
  8   5   7  ar  
  9   5   8  ar  
 10   6   9  1   
 11   6  20  1   
 12   6  21  1   
 13   7  10  1   
 14   7  11  ar  
 15   8  12  ar  
 16   8  22  1   
 17   9  23  1   
 18   9  24  1   
 19   9  25  1   
 20  10  13  1   
 21  11  14  ar  
 22  11  26  1   
 23  12  14  ar  
 24  12  27  1   
 25  13  15  1   
 26  13  28  1   
 27  13  29  1   
 28  14  16  1   
 29  15  30  1   
 30  15  31  1   
 31  15  32  1   
 32  16  17  3   
@<TRIPOS>SUBSTRUCTURE
  1 ****   5 GROUP 4 **** **** 0

# MOE 2024.06 (io_trps.svl 2023.06)
