@<TRIPOS>MOLECULE
NONAME
34 35 1 0 0 
SMALL
USER_CHARGES


@<TRIPOS>ATOM
  1 O        0.1840    -0.9960     1.3420 O.3   1 <1>  -0.4300 
  2 C        0.0950    -1.5200     0.1230 C.2   1 <1>   0.5390 
  3 C        1.4090    -0.3140     1.4460 C.3   1 <1>   0.1200 
  4 N        1.0930    -1.3730    -0.6260 N.2   1 <1>  -0.6960 
  5 C       -1.1940    -2.2280    -0.2230 C.3   1 <1>  -0.0990 
  6 C        2.1190    -0.6360     0.1200 C.3   1 <1>   0.2460 
  7 C       -2.3800    -1.2580    -0.2480 C.3   1 <1>  -0.0170 
  8 C        3.3370    -1.5540     0.3530 C.3   1 <1>   0.1200 
  9 C        2.5330     0.6430    -0.6410 C.3   1 <1>   0.1200 
 10 C       -3.6540    -1.9970    -0.6230 C.ar  1 <1>  -0.1440 
 11 O        3.7910    -2.0550    -0.8580 O.3   1 <1>  -0.6800 
 12 O        1.4150     1.3960    -0.9810 O.3   1 <1>  -0.6800 
 13 C       -4.0360    -2.1030    -1.9510 C.ar  1 <1>  -0.1500 
 14 C       -4.4410    -2.5760     0.3600 C.ar  1 <1>  -0.1500 
 15 C       -5.1930    -2.7810    -2.2930 C.ar  1 <1>  -0.1500 
 16 C       -5.5990    -3.2540     0.0190 C.ar  1 <1>  -0.1500 
 17 C       -5.9750    -3.3570    -1.3080 C.ar  1 <1>  -0.1500 
 18 H        1.9420    -0.6770     2.3070 H     1 <1>   0.0800 
 19 H        1.2060     0.7370     1.5530 H     1 <1>   0.0800 
 20 H       -1.3690    -3.0010     0.5010 H     1 <1>   0.0800 
 21 H       -1.0880    -2.6900    -1.1880 H     1 <1>   0.0800 
 22 H       -2.1920    -0.4730    -0.9600 H     1 <1>   0.0800 
 23 H       -2.4980    -0.8010     0.7190 H     1 <1>   0.0800 
 24 H        3.0600    -2.3900     0.9720 H     1 <1>   0.0800 
 25 H        4.1450    -1.0220     0.8230 H     1 <1>   0.0800 
 26 H        3.0480     0.3850    -1.5510 H     1 <1>   0.0800 
 27 H        3.1810     1.2560    -0.0410 H     1 <1>   0.0800 
 28 H        3.0060    -2.3310    -1.3800 H     1 <1>   0.4000 
 29 H        0.7830     0.8050    -1.4410 H     1 <1>   0.4000 
 30 H       -3.4350    -1.6600    -2.7250 H     1 <1>   0.1500 
 31 H       -4.1570    -2.5020     1.3950 H     1 <1>   0.1500 
 32 H       -5.4850    -2.8600    -3.3260 H     1 <1>   0.1500 
 33 H       -6.2060    -3.7020     0.7870 H     1 <1>   0.1500 
 34 H       -6.8750    -3.8850    -1.5740 H     1 <1>   0.1500 
@<TRIPOS>BOND
  1   1   2  1   
  2   1   3  1   
  3   2   4  2   
  4   2   5  1   
  5   3   6  1   
  6   3  18  1   
  7   3  19  1   
  8   4   6  1   
  9   5   7  1   
 10   5  20  1   
 11   5  21  1   
 12   6   8  1   
 13   6   9  1   
 14   7  10  1   
 15   7  22  1   
 16   7  23  1   
 17   8  11  1   
 18   8  24  1   
 19   8  25  1   
 20   9  12  1   
 21   9  26  1   
 22   9  27  1   
 23  10  13  ar  
 24  10  14  ar  
 25  11  28  1   
 26  12  29  1   
 27  13  15  ar  
 28  13  30  1   
 29  14  16  ar  
 30  14  31  1   
 31  15  17  ar  
 32  15  32  1   
 33  16  17  ar  
 34  16  33  1   
 35  17  34  1   
@<TRIPOS>SUBSTRUCTURE
  1 ****   5 GROUP 4 **** **** 0

# MOE 2024.06 (io_trps.svl 2023.06)
