@<TRIPOS>MOLECULE
NONAME
32 33 1 0 0 
SMALL
USER_CHARGES


@<TRIPOS>ATOM
  1 CL      -0.6600    -0.0820     0.8330 Cl    1 <1>  -0.1770 
  2 C       -0.4470    -1.7650     0.3770 C.ar  1 <1>   0.1770 
  3 C       -1.5880    -2.5280     0.1400 C.ar  1 <1>   0.0820 
  4 C        0.8300    -2.3000     0.2610 C.ar  1 <1>  -0.1440 
  5 O       -2.8000    -1.9240     0.2770 O.3   1 <1>  -0.3630 
  6 C       -1.4460    -3.8650    -0.2240 C.ar  1 <1>  -0.1500 
  7 C        0.9330    -3.6370    -0.1040 C.ar  1 <1>   0.1770 
  8 C        2.0990    -1.4860     0.5140 C.3   1 <1>  -0.0960 
  9 C       -4.0090    -2.6160     0.0660 C.3   1 <1>   0.1200 
 10 C       -0.1850    -4.4260    -0.3470 C.ar  1 <1>  -0.1440 
 11 CL       2.5240    -4.3590    -0.2630 Cl    1 <1>  -0.1770 
 12 C       -5.1560    -1.6410     0.3160 C.3   1 <1>   0.0960 
 13 C       -0.0390    -5.8890    -0.7450 C.3   1 <1>  -0.0960 
 14 N       -6.4410    -2.3220     0.0890 N.pl3 1 <1>   0.0480 
 15 C       -7.1940    -2.3200    -1.0340 C.2   1 <1>   0.0360 
 16 C       -7.1120    -3.1110     0.9470 C.2   1 <1>  -0.3020 
 17 N       -8.2670    -3.0370    -0.9500 N.2   1 <1>  -0.5650 
 18 C       -8.2190    -3.5360     0.2990 C.2   1 <1>   0.0770 
 19 H       -2.3050    -4.4800    -0.4140 H     1 <1>   0.1500 
 20 H        1.8920    -0.4690     0.7900 H     1 <1>   0.0800 
 21 H        2.7060    -1.4710    -0.3730 H     1 <1>   0.0800 
 22 H        2.6670    -1.9340     1.3100 H     1 <1>   0.0800 
 23 H       -4.0550    -3.4390     0.7570 H     1 <1>   0.0800 
 24 H       -4.0250    -2.9670    -0.9510 H     1 <1>   0.0800 
 25 H       -5.0810    -0.8040    -0.3540 H     1 <1>   0.0800 
 26 H       -5.1250    -1.2890     1.3310 H     1 <1>   0.0800 
 27 H       -0.9980    -6.3500    -0.8980 H     1 <1>   0.0800 
 28 H        0.4780    -6.4300     0.0270 H     1 <1>   0.0800 
 29 H        0.5240    -5.9670    -1.6580 H     1 <1>   0.0800 
 30 H       -6.9090    -1.7670    -1.9130 H     1 <1>   0.1500 
 31 H       -6.7800    -3.3240     1.9470 H     1 <1>   0.1500 
 32 H       -8.9960    -4.1830     0.6710 H     1 <1>   0.1500 
@<TRIPOS>BOND
  1   1   2  1   
  2   2   3  ar  
  3   2   4  ar  
  4   3   5  1   
  5   3   6  ar  
  6   4   7  ar  
  7   4   8  1   
  8   5   9  1   
  9   6  10  ar  
 10   6  19  1   
 11   7  10  ar  
 12   7  11  1   
 13   8  20  1   
 14   8  21  1   
 15   8  22  1   
 16   9  12  1   
 17   9  23  1   
 18   9  24  1   
 19  10  13  1   
 20  12  14  1   
 21  12  25  1   
 22  12  26  1   
 23  13  27  1   
 24  13  28  1   
 25  13  29  1   
 26  14  15  1   
 27  14  16  1   
 28  15  17  2   
 29  15  30  1   
 30  16  18  2   
 31  16  31  1   
 32  17  18  1   
 33  18  32  1   
@<TRIPOS>SUBSTRUCTURE
  1 ****   5 GROUP 4 **** **** 0

# MOE 2024.06 (io_trps.svl 2023.06)
