@<TRIPOS>MOLECULE
NONAME
53 55 1 0 0 
SMALL
USER_CHARGES


@<TRIPOS>ATOM
  1 CL       2.2160    -1.7950     3.8880 Cl    1 <1>  -0.1770 
  2 C        3.2820    -1.1900     2.6440 C.ar  1 <1>   0.1770 
  3 C        4.0120    -2.0830     1.8820 C.ar  1 <1>  -0.1500 
  4 C        3.3810     0.1720     2.4350 C.ar  1 <1>  -0.1500 
  5 C        4.8560    -1.6000     0.8970 C.ar  1 <1>  -0.1500 
  6 C        4.2270     0.6470     1.4480 C.ar  1 <1>  -0.1500 
  7 C        4.9790    -0.2320     0.6690 C.ar  1 <1>   0.1170 
  8 N        5.8410     0.2070    -0.3440 N.am  1 <1>  -0.5470 
  9 C        6.5080     1.3790    -0.5030 C.2   1 <1>   0.7800 
 10 O        6.4780     2.3060     0.2840 O.2   1 <1>  -0.5700 
 11 O        7.2640     1.4650    -1.5970 O.3   1 <1>  -0.4300 
 12 C        7.9730     2.6400    -1.9500 C.3   1 <1>   0.1200 
 13 C        9.1320     2.8610    -0.9700 C.3   1 <1>   0.0960 
 14 N        9.8970     4.0840    -1.2910 N.pl3 1 <1>   0.3140 
 15 N       10.8750     3.9720    -2.1580 N.2   1 <1>  -0.4180 
 16 C        9.9180     5.3400    -0.8300 C.2   1 <1>   0.0060 
 17 N       11.4600     5.1060    -2.2200 N.2   1 <1>   0.0000 
 18 N       10.8880     5.9630    -1.3950 N.2   1 <1>  -0.3380 
 19 C        9.0120     6.0220     0.2300 C.3   1 <1>   0.6830 
 20 N        9.4920     5.7110     1.6300 N.4   1 <1>  -0.9590 
 21 C        9.0800     7.5720     0.1100 C.3   1 <1>  -0.1600 
 22 C        7.5160     5.6520     0.0900 C.3   1 <1>  -0.1600 
 23 C       10.9790     5.8950     1.7780 C.3   1 <1>   0.2630 
 24 C        9.1060     4.3790     2.2000 C.3   1 <1>   0.2630 
 25 C        8.4410     8.1350    -1.1750 C.3   1 <1>  -0.1600 
 26 C        6.8800     6.1600    -1.2170 C.3   1 <1>  -0.1600 
 27 C        6.9860     7.6830    -1.3140 C.3   1 <1>  -0.1600 
 28 H        3.9160    -3.1390     2.0630 H     1 <1>   0.1500 
 29 H        2.7990     0.8460     3.0390 H     1 <1>   0.1500 
 30 H        5.4250    -2.2950     0.3050 H     1 <1>   0.1500 
 31 H        4.2920     1.7070     1.2830 H     1 <1>   0.1500 
 32 H        6.0440    -0.4680    -1.0780 H     1 <1>   0.3700 
 33 H        7.2770     3.4590    -1.9450 H     1 <1>   0.0800 
 34 H        8.3520     2.5010    -2.9480 H     1 <1>   0.0800 
 35 H        9.8040     2.0240    -1.0410 H     1 <1>   0.0800 
 36 H        8.7820     2.9200     0.0360 H     1 <1>   0.0800 
 37 H        9.0400     6.4270     2.2120 H     1 <1>   0.4500 
 38 H       10.0970     7.9170     0.1410 H     1 <1>   0.0800 
 39 H        8.5630     8.0170     0.9420 H     1 <1>   0.0800 
 40 H        6.9670     6.0860     0.9070 H     1 <1>   0.0800 
 41 H        7.3680     4.5980     0.1400 H     1 <1>   0.0800 
 42 H       11.5110     5.1830     1.1670 H     1 <1>   0.0800 
 43 H       11.2760     5.7540     2.8050 H     1 <1>   0.0800 
 44 H       11.2750     6.8850     1.4730 H     1 <1>   0.0800 
 45 H        9.6300     3.5870     1.6920 H     1 <1>   0.0800 
 46 H        8.0440     4.2120     2.1130 H     1 <1>   0.0800 
 47 H        9.3670     4.3350     3.2450 H     1 <1>   0.0800 
 48 H        8.9990     7.8130    -2.0390 H     1 <1>   0.0800 
 49 H        8.4790     9.2110    -1.1560 H     1 <1>   0.0800 
 50 H        5.8410     5.8750    -1.2510 H     1 <1>   0.0800 
 51 H        7.3670     5.7240    -2.0720 H     1 <1>   0.0800 
 52 H        6.5970     8.0130    -2.2630 H     1 <1>   0.0800 
 53 H        6.3890     8.1400    -0.5430 H     1 <1>   0.0800 
@<TRIPOS>BOND
  1   1   2  1   
  2   2   3  ar  
  3   2   4  ar  
  4   3   5  ar  
  5   3  28  1   
  6   4   6  ar  
  7   4  29  1   
  8   5   7  ar  
  9   5  30  1   
 10   6   7  ar  
 11   6  31  1   
 12   7   8  1   
 13   8   9  am  
 14   8  32  1   
 15   9  10  2   
 16   9  11  1   
 17  11  12  1   
 18  12  13  1   
 19  12  33  1   
 20  12  34  1   
 21  13  14  1   
 22  13  35  1   
 23  13  36  1   
 24  14  15  1   
 25  14  16  1   
 26  15  17  2   
 27  16  18  2   
 28  16  19  1   
 29  17  18  1   
 30  19  20  1   
 31  19  21  1   
 32  19  22  1   
 33  20  23  1   
 34  20  24  1   
 35  20  37  1   
 36  21  25  1   
 37  21  38  1   
 38  21  39  1   
 39  22  26  1   
 40  22  40  1   
 41  22  41  1   
 42  23  42  1   
 43  23  43  1   
 44  23  44  1   
 45  24  45  1   
 46  24  46  1   
 47  24  47  1   
 48  25  27  1   
 49  25  48  1   
 50  25  49  1   
 51  26  27  1   
 52  26  50  1   
 53  26  51  1   
 54  27  52  1   
 55  27  53  1   
@<TRIPOS>SUBSTRUCTURE
  1 ****  10 GROUP 4 **** **** 0

# MOE 2024.06 (io_trps.svl 2023.06)
