@<TRIPOS>MOLECULE
NONAME
48 51 1 0 0 
SMALL
USER_CHARGES


@<TRIPOS>ATOM
  1 O       -0.5460    -0.7840    -2.2260 O.3   1 <1>  -0.0190 
  2 N       -1.6960    -0.4950    -1.7050 N.2   1 <1>  -0.4100 
  3 C        0.0080    -1.5830    -1.3520 C.2   1 <1>   0.2980 
  4 C       -1.7870    -1.1070    -0.5780 C.2   1 <1>   0.4620 
  5 N       -0.6910    -1.8290    -0.3190 N.2   1 <1>  -0.5650 
  6 C        1.4020    -2.1320    -1.6420 C.3   1 <1>   0.2900 
  7 C       -2.9210    -1.0470     0.3310 C.ar  1 <1>   0.0540 
  8 N        2.4500    -1.0860    -1.6800 N.3   1 <1>  -0.8100 
  9 C       -2.9470    -1.7700     1.5260 C.ar  1 <1>  -0.1500 
 10 C       -4.0370    -0.2570     0.0440 C.ar  1 <1>  -0.1500 
 11 C        2.5660    -0.3850    -0.3760 C.3   1 <1>   0.1100 
 12 C        3.7600    -1.6640    -2.0620 C.3   1 <1>   0.1100 
 13 C       -4.0260    -1.7100     2.3890 C.ar  1 <1>  -0.1500 
 14 C       -5.1200    -0.1910     0.9020 C.ar  1 <1>  -0.1500 
 15 C        3.6650     0.6940    -0.3880 C.3   1 <1>   0.2090 
 16 C        4.8800    -0.6070    -2.1000 C.3   1 <1>   0.2090 
 17 C       -5.1170    -0.9180     2.0780 C.ar  1 <1>  -0.1500 
 18 N        4.9740     0.1040    -0.7930 N.pl3 1 <1>  -0.8380 
 19 C        6.1840     0.7740    -0.5370 C.ar  1 <1>   0.1000 
 20 C        7.3900     0.0820    -0.3160 C.ar  1 <1>   0.0830 
 21 C        6.2300     2.1660    -0.5210 C.ar  1 <1>  -0.1500 
 22 O        7.4560    -1.2770    -0.3000 O.3   1 <1>  -0.3630 
 23 C        8.5740     0.7660    -0.1110 C.ar  1 <1>  -0.1500 
 24 C        7.4150     2.8480    -0.3030 C.ar  1 <1>  -0.1500 
 25 C        6.8360    -1.9060     0.7990 C.3   1 <1>   0.0400 
 26 C        8.5910     2.1500    -0.1000 C.ar  1 <1>  -0.1500 
 27 H        1.3690    -2.6320    -2.5940 H     1 <1>   0.0800 
 28 H        1.6490    -2.8600    -0.8900 H     1 <1>   0.0800 
 29 H       -2.1070    -2.3920     1.7840 H     1 <1>   0.1500 
 30 H       -4.0570     0.3160    -0.8660 H     1 <1>   0.1500 
 31 H        2.7900    -1.0930     0.4030 H     1 <1>   0.0800 
 32 H        1.6310     0.0920    -0.1350 H     1 <1>   0.0800 
 33 H        3.6820    -2.1130    -3.0370 H     1 <1>   0.0800 
 34 H        4.0430    -2.4300    -1.3600 H     1 <1>   0.0800 
 35 H       -4.0180    -2.2780     3.3020 H     1 <1>   0.1500 
 36 H       -5.9660     0.4270     0.6550 H     1 <1>   0.1500 
 37 H        3.7560     1.1260     0.5940 H     1 <1>   0.0800 
 38 H        3.3870     1.4690    -1.0800 H     1 <1>   0.0800 
 39 H        4.6750     0.1050    -2.8800 H     1 <1>   0.0800 
 40 H        5.8180    -1.0850    -2.3210 H     1 <1>   0.0800 
 41 H       -5.9580    -0.8690     2.7480 H     1 <1>   0.1500 
 42 H        5.3350     2.7300    -0.6930 H     1 <1>   0.1500 
 43 H        9.4810     0.2110     0.0420 H     1 <1>   0.1500 
 44 H        7.4220     3.9240    -0.2960 H     1 <1>   0.1500 
 45 H        7.0610    -2.9550     0.7560 H     1 <1>   0.0800 
 46 H        5.7730    -1.7560     0.7400 H     1 <1>   0.0800 
 47 H        7.2230    -1.4780     1.7060 H     1 <1>   0.0800 
 48 H        9.5140     2.6770     0.0640 H     1 <1>   0.1500 
@<TRIPOS>BOND
  1   1   2  1   
  2   1   3  1   
  3   2   4  2   
  4   3   5  2   
  5   3   6  1   
  6   4   5  1   
  7   4   7  1   
  8   6   8  1   
  9   6  27  1   
 10   6  28  1   
 11   7   9  ar  
 12   7  10  ar  
 13   8  11  1   
 14   8  12  1   
 15   9  13  ar  
 16   9  29  1   
 17  10  14  ar  
 18  10  30  1   
 19  11  15  1   
 20  11  31  1   
 21  11  32  1   
 22  12  16  1   
 23  12  33  1   
 24  12  34  1   
 25  13  17  ar  
 26  13  35  1   
 27  14  17  ar  
 28  14  36  1   
 29  15  18  1   
 30  15  37  1   
 31  15  38  1   
 32  16  18  1   
 33  16  39  1   
 34  16  40  1   
 35  17  41  1   
 36  18  19  1   
 37  19  20  ar  
 38  19  21  ar  
 39  20  22  1   
 40  20  23  ar  
 41  21  24  ar  
 42  21  42  1   
 43  22  25  1   
 44  23  26  ar  
 45  23  43  1   
 46  24  26  ar  
 47  24  44  1   
 48  25  45  1   
 49  25  46  1   
 50  25  47  1   
 51  26  48  1   
@<TRIPOS>SUBSTRUCTURE
  1 ****  11 GROUP 4 **** **** 0

# MOE 2024.06 (io_trps.svl 2023.06)
