@<TRIPOS>MOLECULE
NONAME
43 43 1 0 0 
SMALL
USER_CHARGES


@<TRIPOS>ATOM
  1 O       -0.1530    -1.1810     0.6910 O.3   1 <1>  -0.3630 
  2 C       -1.3660    -1.4580     0.1470 C.ar  1 <1>   0.0830 
  3 C        0.6730    -0.1520     0.1940 C.3   1 <1>   0.0400 
  4 C       -2.0690    -2.5440     0.6600 C.ar  1 <1>  -0.1440 
  5 C       -1.9190    -0.7090    -0.8870 C.ar  1 <1>  -0.1500 
  6 C       -3.3140    -2.8630     0.1440 C.ar  1 <1>  -0.1500 
  7 C       -1.4690    -3.3860     1.7790 C.3   1 <1>  -0.0960 
  8 C       -3.1630    -1.0320    -1.3950 C.ar  1 <1>  -0.1500 
  9 C       -3.8730    -2.1040    -0.8740 C.ar  1 <1>  -0.1440 
 10 C       -5.2510    -2.4390    -1.4020 C.3   1 <1>   0.4860 
 11 N       -6.2480    -2.0000    -0.3740 N.4   1 <1>  -0.9590 
 12 C       -7.5970    -2.6290    -0.6180 C.3   1 <1>   0.3430 
 13 C       -6.2740    -0.4960    -0.3070 C.3   1 <1>   0.2630 
 14 C       -8.6290    -2.4000     0.5270 C.3   1 <1>   0.3430 
 15 N       -9.9880    -3.0180     0.2870 N.4   1 <1>  -0.9590 
 16 C      -10.9510    -2.5800     1.3550 C.3   1 <1>   0.2630 
 17 C       -9.9700    -4.5210     0.2460 C.3   1 <1>   0.2630 
 18 H        1.5840    -0.1510     0.7650 H     1 <1>   0.0800 
 19 H        0.1690     0.7910     0.3110 H     1 <1>   0.0800 
 20 H        0.8920    -0.3480    -0.8410 H     1 <1>   0.0800 
 21 H       -1.3910     0.1270    -1.3060 H     1 <1>   0.1500 
 22 H       -3.8340    -3.7140     0.5460 H     1 <1>   0.1500 
 23 H       -1.3020    -2.7730     2.6470 H     1 <1>   0.0800 
 24 H       -0.5230    -3.7890     1.4620 H     1 <1>   0.0800 
 25 H       -2.1120    -4.2020     2.0510 H     1 <1>   0.0800 
 26 H       -3.5610    -0.4360    -2.1990 H     1 <1>   0.1500 
 27 H       -5.3120    -3.5040    -1.5610 H     1 <1>   0.0800 
 28 H       -5.4230    -1.9390    -2.3420 H     1 <1>   0.0800 
 29 H       -5.8340    -2.3320     0.5130 H     1 <1>   0.4500 
 30 H       -7.4630    -3.6910    -0.7440 H     1 <1>   0.0800 
 31 H       -8.0040    -2.2330    -1.5340 H     1 <1>   0.0800 
 32 H       -6.6130    -0.0800    -1.2420 H     1 <1>   0.0800 
 33 H       -5.2840    -0.1150    -0.1050 H     1 <1>   0.0800 
 34 H       -6.9250    -0.1580     0.4820 H     1 <1>   0.0800 
 35 H       -8.7550    -1.3380     0.6580 H     1 <1>   0.0800 
 36 H       -8.2240    -2.8000     1.4430 H     1 <1>   0.0800 
 37 H      -10.3820    -2.6790    -0.6080 H     1 <1>   0.4500 
 38 H      -10.6220    -2.9170     2.3250 H     1 <1>   0.0800 
 39 H      -11.9310    -2.9900     1.1680 H     1 <1>   0.0800 
 40 H      -11.0340    -1.5040     1.3740 H     1 <1>   0.0800 
 41 H       -9.5960    -4.9210     1.1750 H     1 <1>   0.0800 
 42 H       -9.3500    -4.8770    -0.5600 H     1 <1>   0.0800 
 43 H      -10.9690    -4.9010     0.0930 H     1 <1>   0.0800 
@<TRIPOS>BOND
  1   1   2  1   
  2   1   3  1   
  3   2   4  ar  
  4   2   5  ar  
  5   3  18  1   
  6   3  19  1   
  7   3  20  1   
  8   4   6  ar  
  9   4   7  1   
 10   5   8  ar  
 11   5  21  1   
 12   6   9  ar  
 13   6  22  1   
 14   7  23  1   
 15   7  24  1   
 16   7  25  1   
 17   8   9  ar  
 18   8  26  1   
 19   9  10  1   
 20  10  11  1   
 21  10  27  1   
 22  10  28  1   
 23  11  12  1   
 24  11  13  1   
 25  11  29  1   
 26  12  14  1   
 27  12  30  1   
 28  12  31  1   
 29  13  32  1   
 30  13  33  1   
 31  13  34  1   
 32  14  15  1   
 33  14  35  1   
 34  14  36  1   
 35  15  16  1   
 36  15  17  1   
 37  15  37  1   
 38  16  38  1   
 39  16  39  1   
 40  16  40  1   
 41  17  41  1   
 42  17  42  1   
 43  17  43  1   
@<TRIPOS>SUBSTRUCTURE
  1 ****   9 GROUP 4 **** **** 0

# MOE 2024.06 (io_trps.svl 2023.06)
