@<TRIPOS>MOLECULE
NONAME
47 49 1 0 0 
SMALL
USER_CHARGES


@<TRIPOS>ATOM
  1 CL      -5.6380     1.6280    -4.2600 Cl    1 <1>  -0.1770 
  2 C       -4.8720     1.5240    -2.6960 C.ar  1 <1>   0.1770 
  3 C       -5.5840     1.0110    -1.6290 C.ar  1 <1>  -0.1500 
  4 C       -3.5700     1.9610    -2.5460 C.ar  1 <1>  -0.1500 
  5 C       -4.9890     0.9340    -0.3780 C.ar  1 <1>  -0.1440 
  6 C       -2.9710     1.8810    -1.3000 C.ar  1 <1>  -0.1500 
  7 C       -3.6790     1.3700    -0.2230 C.ar  1 <1>  -0.1500 
  8 C       -5.7720     0.3810     0.8040 C.3   1 <1>   0.2540 
  9 N       -6.9940     1.1790     1.0260 N.3   1 <1>  -0.8100 
 10 C       -7.8790     0.5670     2.0430 C.3   1 <1>   0.1100 
 11 C       -6.6920     2.5910     1.3760 C.3   1 <1>   0.1100 
 12 C       -9.1870     1.3740     2.2440 C.3   1 <1>   0.3430 
 13 C       -7.9740     3.4300     1.5970 C.3   1 <1>   0.3430 
 14 N       -9.2060     2.6040     1.3840 N.4   1 <1>  -0.9590 
 15 C      -10.4600     3.3830     1.4270 C.3   1 <1>   0.4810 
 16 C      -11.5460     2.5280     0.8220 C.2   1 <1>  -0.2880 
 17 C      -12.0180     2.6610    -0.4300 C.2   1 <1>  -0.1780 
 18 C      -13.0500     1.8780    -1.0720 C.ar  1 <1>   0.0280 
 19 C      -13.1560     1.8720    -2.4610 C.ar  1 <1>  -0.1500 
 20 C      -13.9660     1.1140    -0.3510 C.ar  1 <1>  -0.1500 
 21 C      -14.1280     1.1300    -3.1060 C.ar  1 <1>  -0.1500 
 22 C      -14.9410     0.3690    -0.9910 C.ar  1 <1>  -0.1500 
 23 C      -15.0230     0.3750    -2.3710 C.ar  1 <1>  -0.1500 
 24 H       -6.5960     0.6780    -1.7770 H     1 <1>   0.1500 
 25 H       -3.0360     2.3540    -3.3930 H     1 <1>   0.1500 
 26 H       -1.9560     2.2150    -1.1700 H     1 <1>   0.1500 
 27 H       -3.1980     1.3140     0.7380 H     1 <1>   0.1500 
 28 H       -5.1620     0.3830     1.6920 H     1 <1>   0.0800 
 29 H       -6.0430    -0.6380     0.5850 H     1 <1>   0.0800 
 30 H       -8.1360    -0.4340     1.7360 H     1 <1>   0.0800 
 31 H       -7.3610     0.4930     2.9850 H     1 <1>   0.0800 
 32 H       -6.0860     2.6270     2.2660 H     1 <1>   0.0800 
 33 H       -6.1240     3.0480     0.5830 H     1 <1>   0.0800 
 34 H       -9.2800     1.6460     3.2830 H     1 <1>   0.0800 
 35 H      -10.0220     0.7410     1.9950 H     1 <1>   0.0800 
 36 H       -7.9650     4.2610     0.9110 H     1 <1>   0.0800 
 37 H       -7.9660     3.8300     2.5980 H     1 <1>   0.0800 
 38 H       -9.0980     2.2300     0.4280 H     1 <1>   0.4500 
 39 H      -10.7100     3.6620     2.4370 H     1 <1>   0.0800 
 40 H      -10.3480     4.2790     0.8370 H     1 <1>   0.0800 
 41 H      -11.9180     1.7820     1.5010 H     1 <1>   0.1500 
 42 H      -11.6100     3.4200    -1.0770 H     1 <1>   0.1500 
 43 H      -12.4690     2.4520    -3.0510 H     1 <1>   0.1500 
 44 H      -13.9310     1.1010     0.7210 H     1 <1>   0.1500 
 45 H      -14.1900     1.1390    -4.1810 H     1 <1>   0.1500 
 46 H      -15.6390    -0.2150    -0.4160 H     1 <1>   0.1500 
 47 H      -15.7810    -0.2040    -2.8700 H     1 <1>   0.1500 
@<TRIPOS>BOND
  1   1   2  1   
  2   2   3  ar  
  3   2   4  ar  
  4   3   5  ar  
  5   3  24  1   
  6   4   6  ar  
  7   4  25  1   
  8   5   7  ar  
  9   5   8  1   
 10   6   7  ar  
 11   6  26  1   
 12   7  27  1   
 13   8   9  1   
 14   8  28  1   
 15   8  29  1   
 16   9  10  1   
 17   9  11  1   
 18  10  12  1   
 19  10  30  1   
 20  10  31  1   
 21  11  13  1   
 22  11  32  1   
 23  11  33  1   
 24  12  14  1   
 25  12  34  1   
 26  12  35  1   
 27  13  14  1   
 28  13  36  1   
 29  13  37  1   
 30  14  15  1   
 31  14  38  1   
 32  15  16  1   
 33  15  39  1   
 34  15  40  1   
 35  16  17  2   
 36  16  41  1   
 37  17  18  1   
 38  17  42  1   
 39  18  19  ar  
 40  18  20  ar  
 41  19  21  ar  
 42  19  43  1   
 43  20  22  ar  
 44  20  44  1   
 45  21  23  ar  
 46  21  45  1   
 47  22  23  ar  
 48  22  46  1   
 49  23  47  1   
@<TRIPOS>SUBSTRUCTURE
  1 ****  14 GROUP 4 **** **** 0

# MOE 2024.06 (io_trps.svl 2023.06)
