@<TRIPOS>MOLECULE
NONAME
35 36 1 0 0 
SMALL
USER_CHARGES


@<TRIPOS>ATOM
  1 CL       0.5600    -0.3830     1.6530 Cl    1 <1>  -0.1770 
  2 C        0.4690    -1.5400     0.3350 C.ar  1 <1>   0.1770 
  3 C       -0.7200    -1.7120    -0.3530 C.ar  1 <1>   0.1770 
  4 C        1.6050    -2.2760     0.0040 C.ar  1 <1>   0.1170 
  5 CL      -2.1390    -0.7810     0.0680 Cl    1 <1>  -0.1770 
  6 C       -0.8110    -2.6260    -1.3870 C.ar  1 <1>  -0.1500 
  7 N        2.7960    -2.0770     0.7280 N.am  1 <1>  -0.5470 
  8 C        1.4960    -3.2000    -1.0350 C.ar  1 <1>  -0.1500 
  9 C        0.3060    -3.3730    -1.7250 C.ar  1 <1>  -0.1500 
 10 C        4.0970    -2.3170     0.4040 C.2   1 <1>   0.6900 
 11 O        4.4190    -2.7060    -0.7000 O.2   1 <1>  -0.5700 
 12 N        5.0240    -2.0870     1.3670 N.am  1 <1>  -0.7300 
 13 C        6.4980    -2.2650     1.2580 C.3   1 <1>   0.2200 
 14 C        7.1060    -1.6320    -0.0170 C.3   1 <1>   0.2000 
 15 C        6.8120    -3.7570     1.3740 C.3   1 <1>  -0.2400 
 16 O        8.4960    -1.6120     0.0790 O.3   1 <1>  -0.5600 
 17 C        6.7390    -0.1690    -0.2510 C.3   1 <1>  -0.1600 
 18 C        9.0120    -0.6990    -0.8320 C.3   1 <1>   0.1200 
 19 C        7.9510     0.3880    -0.9820 C.3   1 <1>  -0.1600 
 20 H       -1.7400    -2.7500    -1.9150 H     1 <1>   0.1500 
 21 H        2.6860    -1.5110     1.5660 H     1 <1>   0.3700 
 22 H        2.3470    -3.7970    -1.3130 H     1 <1>   0.1500 
 23 H        0.2520    -4.0910    -2.5260 H     1 <1>   0.1500 
 24 H        4.6970    -1.9750     2.3230 H     1 <1>   0.3700 
 25 H        6.9430    -1.7580     2.0970 H     1 <1>   0.0800 
 26 H        6.8580    -2.2220    -0.8840 H     1 <1>   0.0800 
 27 H        6.3930    -4.2930     0.5410 H     1 <1>   0.0800 
 28 H        6.4190    -4.1550     2.2910 H     1 <1>   0.0800 
 29 H        7.8770    -3.9040     1.3680 H     1 <1>   0.0800 
 30 H        6.6090     0.3310     0.6920 H     1 <1>   0.0800 
 31 H        5.8340    -0.0850    -0.8260 H     1 <1>   0.0800 
 32 H        9.1750    -1.2150    -1.7630 H     1 <1>   0.0800 
 33 H        9.9430    -0.3170    -0.4510 H     1 <1>   0.0800 
 34 H        8.2830     1.3100    -0.5400 H     1 <1>   0.0800 
 35 H        7.7400     0.5530    -2.0240 H     1 <1>   0.0800 
@<TRIPOS>BOND
  1   1   2  1   
  2   2   3  ar  
  3   2   4  ar  
  4   3   5  1   
  5   3   6  ar  
  6   4   7  1   
  7   4   8  ar  
  8   6   9  ar  
  9   6  20  1   
 10   7  10  am  
 11   7  21  1   
 12   8   9  ar  
 13   8  22  1   
 14   9  23  1   
 15  10  11  2   
 16  10  12  am  
 17  12  13  1   
 18  12  24  1   
 19  13  14  1   
 20  13  15  1   
 21  13  25  1   
 22  14  16  1   
 23  14  17  1   
 24  14  26  1   
 25  15  27  1   
 26  15  28  1   
 27  15  29  1   
 28  16  18  1   
 29  17  19  1   
 30  17  30  1   
 31  17  31  1   
 32  18  19  1   
 33  18  32  1   
 34  18  33  1   
 35  19  34  1   
 36  19  35  1   
@<TRIPOS>SUBSTRUCTURE
  1 ****  10 GROUP 4 **** **** 0

# MOE 2024.06 (io_trps.svl 2023.06)
