@<TRIPOS>MOLECULE
NONAME
38 39 1 0 0 
SMALL
USER_CHARGES


@<TRIPOS>ATOM
  1 S       -0.0200    -0.1950     1.3030 S.o2  1 <1>   1.4470 
  2 O       -0.2400     0.9230     2.1970 O.2   1 <1>  -0.6500 
  3 O        0.1080    -1.5070     1.9010 O.2   1 <1>  -0.6500 
  4 N       -1.3740    -0.2720     0.2810 N.am  1 <1>  -0.8490 
  5 C        1.3860     0.0290     0.1730 C.ar  1 <1>  -0.0090 
  6 C       -1.6990     1.0370    -0.2960 C.3   1 <1>   0.1960 
  7 C       -2.5220    -0.8510     0.9860 C.3   1 <1>   0.1960 
  8 C        1.8500     1.2880    -0.2210 C.ar  1 <1>   0.0830 
  9 C        2.0260    -1.0930    -0.3440 C.ar  1 <1>  -0.1500 
 10 C       -2.8580     0.9180    -1.2870 C.3   1 <1>  -0.1600 
 11 C       -3.7090    -1.0260     0.0360 C.3   1 <1>  -0.1600 
 12 O        1.2090     2.3810     0.2590 O.3   1 <1>  -0.3620 
 13 C        2.9340     1.4140    -1.0940 C.ar  1 <1>  -0.1500 
 14 C        3.0940    -0.9470    -1.2040 C.ar  1 <1>   0.1900 
 15 C       -4.1000     0.3060    -0.6200 C.3   1 <1>  -0.0190 
 16 C        1.8140     3.6560     0.2820 C.3   1 <1>   0.0400 
 17 C        3.5650     0.2890    -1.5900 C.ar  1 <1>  -0.1500 
 18 F        3.6800    -2.0180    -1.6710 F     1 <1>  -0.1900 
 19 C       -5.2470     0.1310    -1.6120 C.2   1 <1>   0.5690 
 20 O       -5.1130    -0.5540    -2.5920 O.2   1 <1>  -0.5700 
 21 N       -6.4210     0.7490    -1.3880 N.am  1 <1>  -0.8000 
 22 H       -0.8460     1.4230    -0.8240 H     1 <1>   0.0800 
 23 H       -1.9540     1.7340     0.4870 H     1 <1>   0.0800 
 24 H       -2.7970    -0.2180     1.8140 H     1 <1>   0.0800 
 25 H       -2.2570    -1.8190     1.3790 H     1 <1>   0.0800 
 26 H        1.6940    -2.0820    -0.0760 H     1 <1>   0.1500 
 27 H       -2.5460     0.3010    -2.1130 H     1 <1>   0.0800 
 28 H       -3.0970     1.8910    -1.6770 H     1 <1>   0.0800 
 29 H       -4.5460    -1.4230     0.5810 H     1 <1>   0.0800 
 30 H       -3.4420    -1.7430    -0.7230 H     1 <1>   0.0800 
 31 H        3.2930     2.3780    -1.4020 H     1 <1>   0.1500 
 32 H       -4.4250     0.9770     0.1550 H     1 <1>   0.0800 
 33 H        1.1900     4.3090     0.8660 H     1 <1>   0.0800 
 34 H        1.8900     4.0280    -0.7240 H     1 <1>   0.0800 
 35 H        2.7840     3.5760     0.7400 H     1 <1>   0.0800 
 36 H        4.4010     0.3630    -2.2630 H     1 <1>   0.1500 
 37 H       -7.1780     0.6220    -2.0600 H     1 <1>   0.3700 
 38 H       -6.6190     1.3440    -0.5850 H     1 <1>   0.3700 
@<TRIPOS>BOND
  1   1   2  2   
  2   1   3  2   
  3   1   4  am  
  4   1   5  1   
  5   4   6  1   
  6   4   7  1   
  7   5   8  ar  
  8   5   9  ar  
  9   6  10  1   
 10   6  22  1   
 11   6  23  1   
 12   7  11  1   
 13   7  24  1   
 14   7  25  1   
 15   8  12  1   
 16   8  13  ar  
 17   9  14  ar  
 18   9  26  1   
 19  10  15  1   
 20  10  27  1   
 21  10  28  1   
 22  11  15  1   
 23  11  29  1   
 24  11  30  1   
 25  12  16  1   
 26  13  17  ar  
 27  13  31  1   
 28  14  17  ar  
 29  14  18  1   
 30  15  19  1   
 31  15  32  1   
 32  16  33  1   
 33  16  34  1   
 34  16  35  1   
 35  17  36  1   
 36  19  20  2   
 37  19  21  am  
 38  21  37  1   
 39  21  38  1   
@<TRIPOS>SUBSTRUCTURE
  1 ****   4 GROUP 4 **** **** 0

# MOE 2024.06 (io_trps.svl 2023.06)
