@<TRIPOS>MOLECULE
NONAME
37 40 1 0 0 
SMALL
USER_CHARGES


@<TRIPOS>ATOM
  1 O       -0.7770    -0.9380     2.9460 O.co2 1 <1>  -0.9000 
  2 C       -0.4230    -1.8280     2.1700 C.2   1 <1>   0.9060 
  3 O        0.5180    -2.5970     2.4170 O.co2 1 <1>  -0.9000 
  4 C       -1.0740    -1.9680     0.8180 C.3   1 <1>  -0.1860 
  5 C       -2.4420    -1.2980     0.6270 C.3   1 <1>   0.1530 
  6 C       -1.3360    -3.4540     0.4050 C.3   1 <1>  -0.0190 
  7 C       -3.4770    -2.0120     1.4820 C.2   1 <1>  -0.2880 
  8 C       -2.7970    -1.9550    -0.7020 C.3   1 <1>  -0.1900 
  9 C       -0.2270    -4.0080    -0.4740 C.2   1 <1>   0.5690 
 10 C       -2.7510    -3.3980    -0.2140 C.3   1 <1>   0.1530 
 11 C       -3.6780    -3.2290     0.9770 C.2   1 <1>  -0.2880 
 12 C       -3.8140    -1.4290    -1.6580 C.3   1 <1>  -0.2000 
 13 C       -2.3500    -1.4900    -2.0460 C.3   1 <1>  -0.2000 
 14 O       -0.4820    -4.4560    -1.5690 O.2   1 <1>  -0.5700 
 15 N        1.0250    -3.9760     0.0700 N.am  1 <1>  -0.5470 
 16 C        2.2920    -4.3650    -0.3810 C.ar  1 <1>   0.1170 
 17 C        3.3840    -4.0750     0.4270 C.ar  1 <1>  -0.1500 
 18 C        2.5170    -5.0260    -1.5850 C.ar  1 <1>  -0.1500 
 19 C        4.6660    -4.4300     0.0490 C.ar  1 <1>  -0.1500 
 20 C        3.7970    -5.3840    -1.9680 C.ar  1 <1>  -0.1500 
 21 C        4.8750    -5.0870    -1.1510 C.ar  1 <1>  -0.1500 
 22 H       -0.3950    -1.5160     0.1190 H     1 <1>   0.0800 
 23 H       -2.4630    -0.2220     0.6420 H     1 <1>   0.0800 
 24 H       -1.3760    -4.0770     1.2820 H     1 <1>   0.0800 
 25 H       -3.8880    -1.5150     2.3440 H     1 <1>   0.1500 
 26 H       -3.0240    -4.1560    -0.9270 H     1 <1>   0.0800 
 27 H       -4.3170    -4.0330     1.2960 H     1 <1>   0.1500 
 28 H       -4.2610    -0.4720    -1.4520 H     1 <1>   0.1000 
 29 H       -4.5020    -2.1220    -2.1080 H     1 <1>   0.1000 
 30 H       -2.0190    -2.2330    -2.7520 H     1 <1>   0.1000 
 31 H       -1.7870    -0.5760    -2.1120 H     1 <1>   0.1000 
 32 H        1.0270    -3.5290     1.0120 H     1 <1>   0.3700 
 33 H        3.2170    -3.5630     1.3610 H     1 <1>   0.1500 
 34 H        1.6900    -5.2630    -2.2270 H     1 <1>   0.1500 
 35 H        5.4980    -4.1960     0.6900 H     1 <1>   0.1500 
 36 H        3.9530    -5.8940    -2.9020 H     1 <1>   0.1500 
 37 H        5.8710    -5.3650    -1.4490 H     1 <1>   0.1500 
@<TRIPOS>BOND
  1   1   2  ar  
  2   2   3  ar  
  3   2   4  1   
  4   4   5  1   
  5   4   6  1   
  6   4  22  1   
  7   5   7  1   
  8   5   8  1   
  9   5  23  1   
 10   6   9  1   
 11   6  10  1   
 12   6  24  1   
 13   7  11  2   
 14   7  25  1   
 15   8  10  1   
 16   8  12  1   
 17   8  13  1   
 18   9  14  2   
 19   9  15  am  
 20  10  11  1   
 21  10  26  1   
 22  11  27  1   
 23  12  13  1   
 24  12  28  1   
 25  12  29  1   
 26  13  30  1   
 27  13  31  1   
 28  15  16  1   
 29  15  32  1   
 30  16  17  ar  
 31  16  18  ar  
 32  17  19  ar  
 33  17  33  1   
 34  18  20  ar  
 35  18  34  1   
 36  19  21  ar  
 37  19  35  1   
 38  20  21  ar  
 39  20  36  1   
 40  21  37  1   
@<TRIPOS>SUBSTRUCTURE
  1 ****   9 GROUP 4 **** **** 0

# MOE 2024.06 (io_trps.svl 2023.06)
