@<TRIPOS>MOLECULE
NONAME
29 29 1 0 0 
SMALL
USER_CHARGES


@<TRIPOS>ATOM
  1 CL      -1.0480    -0.2510    -2.5550 Cl    1 <1>  -0.1770 
  2 C       -2.3910    -0.0610    -1.4560 C.ar  1 <1>   0.1770 
  3 C       -2.4550    -0.8470    -0.3230 C.ar  1 <1>  -0.1500 
  4 C       -3.3720     0.8750    -1.7370 C.ar  1 <1>  -0.1500 
  5 C       -3.5330    -0.6680     0.5210 C.ar  1 <1>   0.1900 
  6 C       -4.4440     1.0340    -0.8710 C.ar  1 <1>  -0.1500 
  7 F       -3.5970    -1.4160     1.5970 F     1 <1>  -0.1900 
  8 C       -4.5510     0.2610     0.2850 C.ar  1 <1>   0.1990 
  9 N       -5.6190     0.3810     1.1790 N.am  1 <1>  -0.7570 
 10 S       -6.7670     1.6440     1.3560 S.o2  1 <1>   1.3330 
 11 O       -7.2700     1.4680     2.6940 O.2   1 <1>  -0.6500 
 12 O       -6.1300     2.8710     0.9460 O.2   1 <1>  -0.6500 
 13 C       -8.0350     1.1730     0.1780 C.3   1 <1>  -0.0550 
 14 C       -9.2280     2.1430     0.1370 C.3   1 <1>  -0.1600 
 15 C      -10.2760     1.6930    -0.8880 C.3   1 <1>  -0.1600 
 16 C      -11.4580     2.6640    -0.9240 C.3   1 <1>  -0.2400 
 17 H       -1.6920    -1.5720    -0.1070 H     1 <1>   0.1500 
 18 H       -3.2920     1.4760    -2.6260 H     1 <1>   0.1500 
 19 H       -5.1910     1.7700    -1.1050 H     1 <1>   0.1500 
 20 H       -5.5520    -0.1430     2.0510 H     1 <1>   0.4200 
 21 H       -8.3950     0.1940     0.4280 H     1 <1>   0.0800 
 22 H       -7.6010     1.1210    -0.8010 H     1 <1>   0.0800 
 23 H       -8.8750     3.1290    -0.1160 H     1 <1>   0.0800 
 24 H       -9.6770     2.1920     1.1150 H     1 <1>   0.0800 
 25 H      -10.6360     0.7100    -0.6350 H     1 <1>   0.0800 
 26 H       -9.8310     1.6440    -1.8680 H     1 <1>   0.0800 
 27 H      -11.9350     2.7130     0.0400 H     1 <1>   0.0800 
 28 H      -12.1840     2.3350    -1.6460 H     1 <1>   0.0800 
 29 H      -11.1280     3.6510    -1.1970 H     1 <1>   0.0800 
@<TRIPOS>BOND
  1   1   2  1   
  2   2   3  ar  
  3   2   4  ar  
  4   3   5  ar  
  5   3  17  1   
  6   4   6  ar  
  7   4  18  1   
  8   5   7  1   
  9   5   8  ar  
 10   6   8  ar  
 11   6  19  1   
 12   8   9  1   
 13   9  10  am  
 14   9  20  1   
 15  10  11  2   
 16  10  12  2   
 17  10  13  1   
 18  13  14  1   
 19  13  21  1   
 20  13  22  1   
 21  14  15  1   
 22  14  23  1   
 23  14  24  1   
 24  15  16  1   
 25  15  25  1   
 26  15  26  1   
 27  16  27  1   
 28  16  28  1   
 29  16  29  1   
@<TRIPOS>SUBSTRUCTURE
  1 ****   9 GROUP 4 **** **** 0

# MOE 2024.06 (io_trps.svl 2023.06)
