@<TRIPOS>MOLECULE
NONAME
39 40 1 0 0 
SMALL
USER_CHARGES


@<TRIPOS>ATOM
  1 F       -6.0610    -5.2180    -0.2510 F     1 <1>  -0.1900 
  2 C       -4.8190    -4.8130    -0.2050 C.ar  1 <1>   0.1900 
  3 C       -3.8820    -5.6080     0.4280 C.ar  1 <1>  -0.1500 
  4 C       -4.4900    -3.6060    -0.7910 C.ar  1 <1>  -0.1500 
  5 C       -2.5660    -5.1780     0.4760 C.ar  1 <1>  -0.1500 
  6 C       -3.1720    -3.1840    -0.7380 C.ar  1 <1>  -0.1500 
  7 C       -2.2070    -3.9620    -0.1090 C.ar  1 <1>   0.0830 
  8 O       -0.9420    -3.4700    -0.1050 O.3   1 <1>  -0.3630 
  9 C        0.1240    -4.1890     0.5020 C.3   1 <1>   0.1810 
 10 C        1.4410    -3.4310     0.3680 C.2   1 <1>   0.5690 
 11 O        2.4550    -3.9270     0.7980 O.2   1 <1>  -0.5700 
 12 N        1.4640    -2.2100    -0.2330 N.am  1 <1>  -0.7300 
 13 C        2.6310    -1.2940    -0.3350 C.3   1 <1>   0.1400 
 14 C        3.8300    -1.9640    -1.0410 C.3   1 <1>   0.3430 
 15 N        5.1050    -1.8600    -0.2560 N.4   1 <1>  -0.9590 
 16 C        6.2920    -2.2990    -1.0280 C.3   1 <1>   0.3430 
 17 C        5.1050    -2.7110     0.9620 C.3   1 <1>   0.3430 
 18 C        7.3470    -2.5910     0.0330 C.3   1 <1>  -0.1600 
 19 C        6.5750    -2.8280     1.3340 C.3   1 <1>  -0.1600 
 20 H       -4.1820    -6.5400     0.8710 H     1 <1>   0.1500 
 21 H       -5.2480    -3.0160    -1.2740 H     1 <1>   0.1500 
 22 H       -1.8460    -5.8030     0.9700 H     1 <1>   0.1500 
 23 H       -2.8880    -2.2490    -1.1860 H     1 <1>   0.1500 
 24 H        0.2110    -5.1440     0.0160 H     1 <1>   0.0800 
 25 H       -0.1050    -4.3240     1.5430 H     1 <1>   0.0800 
 26 H        0.5530    -1.8390    -0.5360 H     1 <1>   0.3700 
 27 H        2.9030    -0.9790     0.6570 H     1 <1>   0.0800 
 28 H        2.3370    -0.4230    -0.8950 H     1 <1>   0.0800 
 29 H        3.9630    -1.4970    -2.0020 H     1 <1>   0.0800 
 30 H        3.6000    -3.0040    -1.2050 H     1 <1>   0.0800 
 31 H        5.2670    -0.8890     0.0400 H     1 <1>   0.4500 
 32 H        6.6230    -1.5430    -1.7230 H     1 <1>   0.0800 
 33 H        6.0630    -3.2060    -1.5640 H     1 <1>   0.0800 
 34 H        4.7210    -3.6900     0.7220 H     1 <1>   0.0800 
 35 H        4.5130    -2.2860     1.7570 H     1 <1>   0.0800 
 36 H        8.0110    -1.7500     0.1350 H     1 <1>   0.0800 
 37 H        7.9280    -3.4530    -0.2480 H     1 <1>   0.0800 
 38 H        6.7790    -3.7980     1.7540 H     1 <1>   0.0800 
 39 H        6.8270    -2.0780     2.0650 H     1 <1>   0.0800 
@<TRIPOS>BOND
  1   1   2  1   
  2   2   3  ar  
  3   2   4  ar  
  4   3   5  ar  
  5   3  20  1   
  6   4   6  ar  
  7   4  21  1   
  8   5   7  ar  
  9   5  22  1   
 10   6   7  ar  
 11   6  23  1   
 12   7   8  1   
 13   8   9  1   
 14   9  10  1   
 15   9  24  1   
 16   9  25  1   
 17  10  11  2   
 18  10  12  am  
 19  12  13  1   
 20  12  26  1   
 21  13  14  1   
 22  13  27  1   
 23  13  28  1   
 24  14  15  1   
 25  14  29  1   
 26  14  30  1   
 27  15  16  1   
 28  15  17  1   
 29  15  31  1   
 30  16  18  1   
 31  16  32  1   
 32  16  33  1   
 33  17  19  1   
 34  17  34  1   
 35  17  35  1   
 36  18  19  1   
 37  18  36  1   
 38  18  37  1   
 39  19  38  1   
 40  19  39  1   
@<TRIPOS>SUBSTRUCTURE
  1 ****  10 GROUP 4 **** **** 0

# MOE 2024.06 (io_trps.svl 2023.06)
