@<TRIPOS>MOLECULE
NONAME
44 47 1 0 0 
SMALL
USER_CHARGES


@<TRIPOS>ATOM
  1 CL       0.0450    -0.0280     0.3770 Cl    1 <1>  -0.1230 
  2 C        0.5660     1.5980    -0.0330 C.2   1 <1>   0.1230 
  3 C        1.8530     2.0100    -0.1310 C.2   1 <1>  -0.0260 
  4 C       -0.2570     2.6880    -0.2890 C.2   1 <1>   0.2030 
  5 N        3.0440     1.3380     0.0330 N.2   1 <1>  -0.5760 
  6 N        1.7680     3.3450    -0.4450 N.pl3 1 <1>   0.6010 
  7 N        0.4910     3.7630    -0.5340 N.2   1 <1>  -0.7070 
  8 C       -1.7130     2.6240    -0.2930 C.2   1 <1>   0.7160 
  9 C        4.1500     2.0080    -0.1200 C.2   1 <1>   0.3490 
 10 C        2.9300     4.0600    -0.6120 C.2   1 <1>  -0.1690 
 11 O       -2.2640     1.6910    -0.8540 O.2   1 <1>  -0.5700 
 12 N       -2.5100     3.5860     0.3090 N.am  1 <1>  -0.6600 
 13 C        5.4290     1.3450     0.0410 C.ar  1 <1>   0.0860 
 14 C        4.1120     3.4000    -0.4570 C.2   1 <1>  -0.1360 
 15 C        2.7550     5.5230    -0.9580 C.3   1 <1>   1.1580 
 16 C       -3.9670     3.6950     0.0230 C.3   1 <1>   0.1400 
 17 C       -1.9930     4.6720     1.1850 C.3   1 <1>   0.1400 
 18 C        5.6370     0.0630    -0.4690 C.ar  1 <1>  -0.1500 
 19 C        6.4980     1.9500     0.7080 C.ar  1 <1>  -0.1500 
 20 F        3.9310     6.1270    -1.0860 F     1 <1>  -0.3400 
 21 F        2.1250     5.7190    -2.1080 F     1 <1>  -0.3400 
 22 F        2.1030     6.2060    -0.0270 F     1 <1>  -0.3400 
 23 C       -4.2500     5.0400    -0.6580 C.3   1 <1>  -0.1600 
 24 C       -2.2310     6.0230     0.5060 C.3   1 <1>  -0.1600 
 25 C        6.8540    -0.5800    -0.3380 C.ar  1 <1>  -0.1500 
 26 C        7.7180     1.3130     0.8410 C.ar  1 <1>  -0.1500 
 27 C       -3.7160     6.2230     0.1650 C.3   1 <1>  -0.1600 
 28 C        7.9000     0.0460     0.3150 C.ar  1 <1>  -0.1500 
 29 H        5.0570     3.8970    -0.5890 H     1 <1>   0.1500 
 30 H       -4.5130     3.6280     0.9480 H     1 <1>   0.0800 
 31 H       -4.2980     2.8930    -0.6160 H     1 <1>   0.0800 
 32 H       -0.9470     4.5440     1.3980 H     1 <1>   0.0800 
 33 H       -2.5210     4.6420     2.1230 H     1 <1>   0.0800 
 34 H        4.8270    -0.4350    -0.9740 H     1 <1>   0.1500 
 35 H        6.3760     2.9280     1.1370 H     1 <1>   0.1500 
 36 H       -5.3100     5.1490    -0.8040 H     1 <1>   0.0800 
 37 H       -3.7850     5.0370    -1.6280 H     1 <1>   0.0800 
 38 H       -1.6390     6.0680    -0.3920 H     1 <1>   0.0800 
 39 H       -1.8990     6.8130     1.1560 H     1 <1>   0.0800 
 40 H        6.9880    -1.5680    -0.7430 H     1 <1>   0.1500 
 41 H        8.5290     1.7990     1.3560 H     1 <1>   0.1500 
 42 H       -4.2820     6.3050     1.0780 H     1 <1>   0.0800 
 43 H       -3.8420     7.1370    -0.3880 H     1 <1>   0.0800 
 44 H        8.8490    -0.4520     0.4180 H     1 <1>   0.1500 
@<TRIPOS>BOND
  1   1   2  1   
  2   2   3  2   
  3   2   4  1   
  4   3   5  1   
  5   3   6  1   
  6   4   7  2   
  7   4   8  1   
  8   5   9  2   
  9   6   7  1   
 10   6  10  1   
 11   8  11  2   
 12   8  12  am  
 13   9  13  1   
 14   9  14  1   
 15  10  14  2   
 16  10  15  1   
 17  12  16  1   
 18  12  17  1   
 19  13  18  ar  
 20  13  19  ar  
 21  14  29  1   
 22  15  20  1   
 23  15  21  1   
 24  15  22  1   
 25  16  23  1   
 26  16  30  1   
 27  16  31  1   
 28  17  24  1   
 29  17  32  1   
 30  17  33  1   
 31  18  25  ar  
 32  18  34  1   
 33  19  26  ar  
 34  19  35  1   
 35  23  27  1   
 36  23  36  1   
 37  23  37  1   
 38  24  27  1   
 39  24  38  1   
 40  24  39  1   
 41  25  28  ar  
 42  25  40  1   
 43  26  28  ar  
 44  26  41  1   
 45  27  42  1   
 46  27  43  1   
 47  28  44  1   
@<TRIPOS>SUBSTRUCTURE
  1 ****   6 GROUP 4 **** **** 0

# MOE 2024.06 (io_trps.svl 2023.06)
