@<TRIPOS>MOLECULE
NONAME
46 47 1 0 0 
SMALL
USER_CHARGES


@<TRIPOS>ATOM
  1 O       -0.5620     1.6690     1.5050 O.co2 1 <1>  -0.9000 
  2 C       -1.1740     1.2110     0.5360 C.2   1 <1>   0.9060 
  3 O       -0.7250     1.2800    -0.6140 O.co2 1 <1>  -0.9000 
  4 C       -2.5160     0.5390     0.7910 C.3   1 <1>  -0.1860 
  5 C       -2.3010    -0.8350     1.4900 C.3   1 <1>   0.0640 
  6 C       -3.3860     0.5320    -0.4930 C.3   1 <1>  -0.0990 
  7 C       -2.1490    -2.0370     0.5340 C.ar  1 <1>  -0.1440 
  8 C       -3.3710    -1.0510     2.5760 C.3   1 <1>  -0.2400 
  9 C       -4.7790    -0.0380    -0.3280 C.2   1 <1>   0.5690 
 10 C       -2.9860    -3.1500     0.5650 C.ar  1 <1>  -0.1500 
 11 C       -1.1150    -2.0280    -0.3930 C.ar  1 <1>  -0.1500 
 12 O       -5.6490     0.6490     0.1500 O.2   1 <1>  -0.5700 
 13 N       -4.9770    -1.3140    -0.7670 N.am  1 <1>  -0.5470 
 14 C       -2.8000    -4.2090    -0.3070 C.ar  1 <1>  -0.1500 
 15 C       -0.9280    -3.0820    -1.2700 C.ar  1 <1>  -0.1500 
 16 C       -6.1170    -2.1300    -0.7720 C.ar  1 <1>   0.1170 
 17 C       -1.7710    -4.1760    -1.2290 C.ar  1 <1>  -0.1500 
 18 C       -6.2870    -3.0820    -1.7780 C.ar  1 <1>  -0.1440 
 19 C       -7.0740    -2.0340     0.2320 C.ar  1 <1>  -0.1500 
 20 C       -7.3920    -3.9170    -1.7530 C.ar  1 <1>  -0.1500 
 21 C       -5.2850    -3.2080    -2.9190 C.3   1 <1>  -0.0970 
 22 C       -8.1800    -2.8650     0.2540 C.ar  1 <1>  -0.1440 
 23 C       -8.3320    -3.8130    -0.7430 C.ar  1 <1>  -0.1500 
 24 C       -9.2130    -2.7430     1.3590 C.3   1 <1>  -0.0970 
 25 H       -3.0030     1.1940     1.4880 H     1 <1>   0.0800 
 26 H       -1.3690    -0.7700     2.0290 H     1 <1>   0.0800 
 27 H       -2.8740    -0.0010    -1.2720 H     1 <1>   0.0800 
 28 H       -3.4880     1.5460    -0.8340 H     1 <1>   0.0800 
 29 H       -4.3540    -1.1150     2.1490 H     1 <1>   0.0800 
 30 H       -3.3560    -0.2310     3.2720 H     1 <1>   0.0800 
 31 H       -3.1640    -1.9510     3.1260 H     1 <1>   0.0800 
 32 H       -3.8010    -3.2130     1.2620 H     1 <1>   0.1500 
 33 H       -0.4390    -1.1900    -0.4390 H     1 <1>   0.1500 
 34 H       -4.1160    -1.7830    -1.0570 H     1 <1>   0.3700 
 35 H       -3.4620    -5.0560    -0.2650 H     1 <1>   0.1500 
 36 H       -0.1210    -3.0410    -1.9790 H     1 <1>   0.1500 
 37 H       -1.6240    -4.9970    -1.9070 H     1 <1>   0.1500 
 38 H       -6.9440    -1.2990     1.0050 H     1 <1>   0.1500 
 39 H       -7.5330    -4.6560    -2.5220 H     1 <1>   0.1500 
 40 H       -5.1870    -2.2630    -3.4230 H     1 <1>   0.0800 
 41 H       -5.6050    -3.9420    -3.6360 H     1 <1>   0.0800 
 42 H       -4.3230    -3.4990    -2.5400 H     1 <1>   0.0800 
 43 H       -9.1840    -4.4690    -0.7380 H     1 <1>   0.1500 
 44 H       -9.1730    -1.7660     1.8060 H     1 <1>   0.0800 
 45 H       -9.0230    -3.4810     2.1180 H     1 <1>   0.0800 
 46 H      -10.2010    -2.8940     0.9630 H     1 <1>   0.0800 
@<TRIPOS>BOND
  1   1   2  ar  
  2   2   3  ar  
  3   2   4  1   
  4   4   5  1   
  5   4   6  1   
  6   4  25  1   
  7   5   7  1   
  8   5   8  1   
  9   5  26  1   
 10   6   9  1   
 11   6  27  1   
 12   6  28  1   
 13   7  10  ar  
 14   7  11  ar  
 15   8  29  1   
 16   8  30  1   
 17   8  31  1   
 18   9  12  2   
 19   9  13  am  
 20  10  14  ar  
 21  10  32  1   
 22  11  15  ar  
 23  11  33  1   
 24  13  16  1   
 25  13  34  1   
 26  14  17  ar  
 27  14  35  1   
 28  15  17  ar  
 29  15  36  1   
 30  16  18  ar  
 31  16  19  ar  
 32  17  37  1   
 33  18  20  ar  
 34  18  21  1   
 35  19  22  ar  
 36  19  38  1   
 37  20  23  ar  
 38  20  39  1   
 39  21  40  1   
 40  21  41  1   
 41  21  42  1   
 42  22  23  ar  
 43  22  24  1   
 44  23  43  1   
 45  24  44  1   
 46  24  45  1   
 47  24  46  1   
@<TRIPOS>SUBSTRUCTURE
  1 ****  13 GROUP 4 **** **** 0

# MOE 2024.06 (io_trps.svl 2023.06)
