@<TRIPOS>MOLECULE
NONAME
34 35 1 0 0 
SMALL
USER_CHARGES


@<TRIPOS>ATOM
  1 N       -1.1160    -3.5240    -0.6850 N.4   1 <1>  -0.9060 
  2 C        0.0330    -2.7930    -0.0860 C.3   1 <1>   0.4230 
  3 C       -2.3760    -3.3540     0.0870 C.3   1 <1>   0.3430 
  4 C       -0.3000    -1.2920    -0.0420 C.3   1 <1>  -0.1600 
  5 C        1.3110    -3.0900    -0.8840 C.3   1 <1>  -0.0170 
  6 C       -2.7530    -1.8720     0.1270 C.3   1 <1>  -0.1600 
  7 C       -1.6160    -1.0160     0.7000 C.3   1 <1>  -0.1600 
  8 C        2.5210    -2.4810    -0.1990 C.ar  1 <1>  -0.1430 
  9 C        3.0820    -1.3050    -0.6770 C.ar  1 <1>  -0.1500 
 10 C        3.0700    -3.0930     0.9170 C.ar  1 <1>  -0.1500 
 11 C        4.1730    -0.7360    -0.0420 C.ar  1 <1>  -0.1430 
 12 C        4.1620    -2.5290     1.5530 C.ar  1 <1>  -0.1500 
 13 C        4.7100    -1.3530     1.0750 C.ar  1 <1>  -0.1500 
 14 C        4.7830     0.5510    -0.5690 C.3   1 <1>  -0.0970 
 15 H       -0.8870    -4.5210    -0.7590 H     1 <1>   0.4500 
 16 H       -1.2630    -3.1670    -1.6350 H     1 <1>   0.4500 
 17 H        0.1800    -3.1370     0.9250 H     1 <1>   0.0800 
 18 H       -2.2410    -3.7160     1.0940 H     1 <1>   0.0800 
 19 H       -3.1740    -3.9170    -0.3720 H     1 <1>   0.0800 
 20 H       -0.3560    -0.9000    -1.0430 H     1 <1>   0.0800 
 21 H        0.4920    -0.7650     0.4630 H     1 <1>   0.0800 
 22 H        1.2280    -2.6990    -1.8830 H     1 <1>   0.0800 
 23 H        1.4640    -4.1520    -0.9490 H     1 <1>   0.0800 
 24 H       -3.6310    -1.7480     0.7370 H     1 <1>   0.0800 
 25 H       -3.0030    -1.5360    -0.8650 H     1 <1>   0.0800 
 26 H       -1.8670     0.0290     0.6200 H     1 <1>   0.0800 
 27 H       -1.4890    -1.2390     1.7470 H     1 <1>   0.0800 
 28 H        2.6760    -0.8220    -1.5480 H     1 <1>   0.1500 
 29 H        2.6650    -4.0110     1.3040 H     1 <1>   0.1500 
 30 H        4.5890    -3.0040     2.4190 H     1 <1>   0.1500 
 31 H        5.5610    -0.9220     1.5750 H     1 <1>   0.1500 
 32 H        4.0300     1.1670    -1.0270 H     1 <1>   0.0800 
 33 H        5.5370     0.3230    -1.3010 H     1 <1>   0.0800 
 34 H        5.2360     1.1090     0.2300 H     1 <1>   0.0800 
@<TRIPOS>BOND
  1   1   2  1   
  2   1   3  1   
  3   1  15  1   
  4   1  16  1   
  5   2   4  1   
  6   2   5  1   
  7   2  17  1   
  8   3   6  1   
  9   3  18  1   
 10   3  19  1   
 11   4   7  1   
 12   4  20  1   
 13   4  21  1   
 14   5   8  1   
 15   5  22  1   
 16   5  23  1   
 17   6   7  1   
 18   6  24  1   
 19   6  25  1   
 20   7  26  1   
 21   7  27  1   
 22   8   9  ar  
 23   8  10  ar  
 24   9  11  ar  
 25   9  28  1   
 26  10  12  ar  
 27  10  29  1   
 28  11  13  ar  
 29  11  14  1   
 30  12  13  ar  
 31  12  30  1   
 32  13  31  1   
 33  14  32  1   
 34  14  33  1   
 35  14  34  1   
@<TRIPOS>SUBSTRUCTURE
  1 ****   8 GROUP 4 **** **** 0

# MOE 2024.06 (io_trps.svl 2023.06)
