@<TRIPOS>MOLECULE
NONAME
48 51 1 0 0 
SMALL
USER_CHARGES


@<TRIPOS>ATOM
  1 F        0.2840     1.0540    -0.5140 F     1 <1>  -0.3400 
  2 C        1.3790     1.0820     0.2360 C.3   1 <1>   1.1640 
  3 F        1.5250    -0.1450     0.7240 F     1 <1>  -0.3400 
  4 F        1.1050     1.8640     1.2720 F     1 <1>  -0.3400 
  5 C        2.6200     1.5640    -0.5320 C.ar  1 <1>  -0.1440 
  6 C        3.8870     1.0990    -0.1970 C.ar  1 <1>  -0.1500 
  7 C        2.5020     2.4820    -1.5710 C.ar  1 <1>  -0.1500 
  8 C        5.0190     1.5270    -0.8810 C.ar  1 <1>   0.1000 
  9 C        3.6220     2.9160    -2.2590 C.ar  1 <1>  -0.1500 
 10 N        6.2840     1.0620    -0.5500 N.pl3 1 <1>  -0.8380 
 11 C        4.8720     2.4400    -1.9140 C.ar  1 <1>  -0.1500 
 12 C        6.5710    -0.3740    -0.8320 C.3   1 <1>   0.2090 
 13 C        6.8840     1.5900     0.7090 C.3   1 <1>   0.2090 
 14 C        8.0890    -0.6480    -0.7680 C.3   1 <1>   0.3430 
 15 C        8.3980     1.2950     0.7550 C.3   1 <1>   0.3430 
 16 N        8.7160    -0.1650     0.5220 N.4   1 <1>  -0.9590 
 17 C       10.1820    -0.4850     0.5990 C.3   1 <1>   0.3430 
 18 C       11.0670     0.3080    -0.3890 C.3   1 <1>  -0.0800 
 19 C       12.5120    -0.4750    -0.5910 C.3   1 <1>   0.0580 
 20 C       11.4550     1.8950     0.1280 C.3   1 <1>  -0.1600 
 21 C       14.0930    -0.2510    -0.3590 C.2   1 <1>  -0.2880 
 22 C       12.6810     0.7990    -0.2390 C.3   1 <1>  -0.1600 
 23 C       13.1050     1.9890     0.1820 C.3   1 <1>   0.0580 
 24 C       14.4030     1.0390     0.0470 C.2   1 <1>  -0.2880 
 25 H        4.0090     0.3950     0.6060 H     1 <1>   0.1500 
 26 H        1.5350     2.8670    -1.8540 H     1 <1>   0.1500 
 27 H        3.5190     3.6260    -3.0620 H     1 <1>   0.1500 
 28 H        5.7430     2.7740    -2.4460 H     1 <1>   0.1500 
 29 H        6.2040    -0.6210    -1.8140 H     1 <1>   0.0800 
 30 H        6.0550    -0.9940    -0.1210 H     1 <1>   0.0800 
 31 H        6.3950     1.1460     1.5580 H     1 <1>   0.0800 
 32 H        6.7260     2.6550     0.7550 H     1 <1>   0.0800 
 33 H        8.5470    -0.1440    -1.6030 H     1 <1>   0.0800 
 34 H        8.2590    -1.7050    -0.8880 H     1 <1>   0.0800 
 35 H        8.7880     1.6090     1.7090 H     1 <1>   0.0800 
 36 H        8.8690     1.8900    -0.0080 H     1 <1>   0.0800 
 37 H        8.2510    -0.6850     1.2780 H     1 <1>   0.4500 
 38 H       10.3150    -1.5360     0.4000 H     1 <1>   0.0800 
 39 H       10.5410    -0.3040     1.6000 H     1 <1>   0.0800 
 40 H       10.5700     0.3500    -1.3470 H     1 <1>   0.0800 
 41 H       12.4820    -0.7580    -1.6350 H     1 <1>   0.0800 
 42 H       11.0570     2.1060     1.1090 H     1 <1>   0.0800 
 43 H       11.0550     2.6320    -0.5550 H     1 <1>   0.0800 
 44 H       14.7640    -1.0780    -0.5290 H     1 <1>   0.1500 
 45 H       12.7950     1.1250    -1.3560 H     1 <1>   0.0800 
 46 H       12.6560     0.4380     0.9260 H     1 <1>   0.0800 
 47 H       13.3230     2.7790    -0.5250 H     1 <1>   0.0800 
 48 H       15.3720     1.4590     0.2690 H     1 <1>   0.1500 
@<TRIPOS>BOND
  1   1   2  1   
  2   2   3  1   
  3   2   4  1   
  4   2   5  1   
  5   5   6  ar  
  6   5   7  ar  
  7   6   8  ar  
  8   6  25  1   
  9   7   9  ar  
 10   7  26  1   
 11   8  10  1   
 12   8  11  ar  
 13   9  11  ar  
 14   9  27  1   
 15  10  12  1   
 16  10  13  1   
 17  11  28  1   
 18  12  14  1   
 19  12  29  1   
 20  12  30  1   
 21  13  15  1   
 22  13  31  1   
 23  13  32  1   
 24  14  16  1   
 25  14  33  1   
 26  14  34  1   
 27  15  16  1   
 28  15  35  1   
 29  15  36  1   
 30  16  17  1   
 31  16  37  1   
 32  17  18  1   
 33  17  38  1   
 34  17  39  1   
 35  18  19  1   
 36  18  20  1   
 37  18  40  1   
 38  19  21  1   
 39  19  22  1   
 40  19  41  1   
 41  20  23  1   
 42  20  42  1   
 43  20  43  1   
 44  21  24  2   
 45  21  44  1   
 46  22  23  1   
 47  22  45  1   
 48  22  46  1   
 49  23  24  1   
 50  23  47  1   
 51  24  48  1   
@<TRIPOS>SUBSTRUCTURE
  1 ****  10 GROUP 4 **** **** 0

# MOE 2024.06 (io_trps.svl 2023.06)
