@<TRIPOS>MOLECULE
NONAME
32 33 1 0 0 
SMALL
USER_CHARGES


@<TRIPOS>ATOM
  1 S       -0.0880     0.2130    -0.8010 S.o2  1 <1>   1.4470 
  2 O        0.2960    -1.0740    -0.2660 O.2   1 <1>  -0.6500 
  3 O        0.1750     0.5190    -2.1910 O.2   1 <1>  -0.6500 
  4 N        0.7170     1.3850     0.1210 N.am  1 <1>  -0.8490 
  5 C       -1.8320     0.5270    -0.4050 C.ar  1 <1>  -0.0090 
  6 C        0.5130     2.7500    -0.3920 C.3   1 <1>   0.1960 
  7 C        2.1590     1.1080     0.1980 C.3   1 <1>   0.1960 
  8 C       -2.3110     0.3530     0.8860 C.ar  1 <1>  -0.1500 
  9 C       -2.7290     0.9710    -1.3690 C.ar  1 <1>  -0.1500 
 10 C        1.2700     3.7780     0.4670 C.3   1 <1>   0.1200 
 11 C        2.8880     2.1800     1.0290 C.3   1 <1>   0.1200 
 12 C       -3.6320     0.6140     1.2060 C.ar  1 <1>  -0.1500 
 13 C       -4.0490     1.2320    -1.0510 C.ar  1 <1>  -0.1500 
 14 O        2.6310     3.4610     0.5230 O.3   1 <1>  -0.5600 
 15 C       -4.5380     1.0600     0.2430 C.ar  1 <1>   0.0860 
 16 C       -5.9280     1.3410     0.5590 C.2   1 <1>   0.5440 
 17 O       -6.5850     2.1160    -0.1000 O.2   1 <1>  -0.5700 
 18 N       -6.5670     0.7470     1.5930 N.am  1 <1>  -0.8000 
 19 H       -0.5360     2.9910    -0.3800 H     1 <1>   0.0800 
 20 H        0.8630     2.8260    -1.4090 H     1 <1>   0.0800 
 21 H        2.5840     1.0790    -0.7930 H     1 <1>   0.0800 
 22 H        2.3200     0.1470     0.6560 H     1 <1>   0.0800 
 23 H       -1.6330     0.0120     1.6520 H     1 <1>   0.1500 
 24 H       -2.3900     1.1150    -2.3820 H     1 <1>   0.1500 
 25 H        0.8780     3.7960     1.4700 H     1 <1>   0.0800 
 26 H        1.1790     4.7610     0.0400 H     1 <1>   0.0800 
 27 H        3.9510     2.0200     0.9930 H     1 <1>   0.0800 
 28 H        2.5670     2.1440     2.0550 H     1 <1>   0.0800 
 29 H       -3.9600     0.4780     2.2210 H     1 <1>   0.1500 
 30 H       -4.7230     1.5790    -1.8170 H     1 <1>   0.1500 
 31 H       -7.5540     0.9650     1.7380 H     1 <1>   0.3700 
 32 H       -6.1870    -0.0300     2.1300 H     1 <1>   0.3700 
@<TRIPOS>BOND
  1   1   2  2   
  2   1   3  2   
  3   1   4  am  
  4   1   5  1   
  5   4   6  1   
  6   4   7  1   
  7   5   8  ar  
  8   5   9  ar  
  9   6  10  1   
 10   6  19  1   
 11   6  20  1   
 12   7  11  1   
 13   7  21  1   
 14   7  22  1   
 15   8  12  ar  
 16   8  23  1   
 17   9  13  ar  
 18   9  24  1   
 19  10  14  1   
 20  10  25  1   
 21  10  26  1   
 22  11  14  1   
 23  11  27  1   
 24  11  28  1   
 25  12  15  ar  
 26  12  29  1   
 27  13  15  ar  
 28  13  30  1   
 29  15  16  1   
 30  16  17  2   
 31  16  18  am  
 32  18  31  1   
 33  18  32  1   
@<TRIPOS>SUBSTRUCTURE
  1 ****   5 GROUP 4 **** **** 0

# MOE 2024.06 (io_trps.svl 2023.06)
