@<TRIPOS>MOLECULE
NONAME
41 44 1 0 0 
SMALL
USER_CHARGES


@<TRIPOS>ATOM
  1 S        0.0310    -0.1650     1.5210 S.3   1 <1>  -0.0800 
  2 C        1.4340     0.6430     0.8060 C.ar  1 <1>   0.2970 
  3 C       -0.9650     1.2820     1.3210 C.2   1 <1>  -0.0450 
  4 N        2.5960     0.0310     0.6630 N.ar  1 <1>  -0.5670 
  5 C        1.1060     1.9450     0.4510 C.ar  1 <1>   0.0000 
  6 C       -2.3200     1.4600     1.6770 C.2   1 <1>   0.8050 
  7 C       -0.2560     2.2770     0.7550 C.2   1 <1>   0.1250 
  8 C        3.5270     0.7920     0.1100 C.ar  1 <1>   0.1660 
  9 C        2.1050     2.7130    -0.1250 C.ar  1 <1>  -0.1500 
 10 O       -3.0380     0.6250     2.1910 O.2   1 <1>  -0.5700 
 11 O       -2.8310     2.6600     1.4160 O.3   1 <1>  -0.3000 
 12 N       -0.8600     3.4900     0.5170 N.2   1 <1>  -0.5750 
 13 C        3.3380     2.1160    -0.2940 C.ar  1 <1>  -0.1430 
 14 C        4.8790     0.1400    -0.0980 C.3   1 <1>  -0.0170 
 15 C       -2.0920     3.6190     0.8500 C.2   1 <1>   0.5390 
 16 C        4.4820     2.9170    -0.9050 C.3   1 <1>   0.2640 
 17 C        6.0010     1.1710    -0.2930 C.3   1 <1>   0.2800 
 18 C       -2.8430     4.9190     0.6230 C.3   1 <1>  -0.0990 
 19 O        5.5810     2.1140    -1.2290 O.3   1 <1>  -0.5600 
 20 C        7.2370     0.5080    -0.9040 C.3   1 <1>  -0.2400 
 21 C        6.4000     1.8690     1.0180 C.3   1 <1>  -0.2400 
 22 C       -3.9370     4.7770    -0.4480 C.3   1 <1>  -0.1600 
 23 C       -4.6690     6.1040    -0.6730 C.3   1 <1>  -0.2400 
 24 H        1.9040     3.7290    -0.4180 H     1 <1>   0.1500 
 25 H        4.8120    -0.4910    -0.9650 H     1 <1>   0.0800 
 26 H        5.1100    -0.4880     0.7430 H     1 <1>   0.0800 
 27 H        4.8110     3.6810    -0.2230 H     1 <1>   0.0800 
 28 H        4.1560     3.3900    -1.8140 H     1 <1>   0.0800 
 29 H       -2.1420     5.6750     0.3180 H     1 <1>   0.0800 
 30 H       -3.2810     5.2300     1.5540 H     1 <1>   0.0800 
 31 H        6.9910     0.0620    -1.8510 H     1 <1>   0.0800 
 32 H        7.6110    -0.2600    -0.2510 H     1 <1>   0.0800 
 33 H        8.0130     1.2370    -1.0540 H     1 <1>   0.0800 
 34 H        5.5460     2.2730     1.5280 H     1 <1>   0.0800 
 35 H        7.1050     2.6560     0.8200 H     1 <1>   0.0800 
 36 H        6.8640     1.1610     1.6810 H     1 <1>   0.0800 
 37 H       -4.6490     4.0280    -0.1450 H     1 <1>   0.0800 
 38 H       -3.4920     4.4570    -1.3760 H     1 <1>   0.0800 
 39 H       -5.1420     6.4330     0.2360 H     1 <1>   0.0800 
 40 H       -5.4280     5.9820    -1.4260 H     1 <1>   0.0800 
 41 H       -3.9830     6.8640    -1.0030 H     1 <1>   0.0800 
@<TRIPOS>BOND
  1   1   2  1   
  2   1   3  1   
  3   2   4  ar  
  4   2   5  ar  
  5   3   6  1   
  6   3   7  2   
  7   4   8  ar  
  8   5   7  1   
  9   5   9  ar  
 10   6  10  2   
 11   6  11  1   
 12   7  12  1   
 13   8  13  ar  
 14   8  14  1   
 15   9  13  ar  
 16   9  24  1   
 17  11  15  1   
 18  12  15  2   
 19  13  16  1   
 20  14  17  1   
 21  14  25  1   
 22  14  26  1   
 23  15  18  1   
 24  16  19  1   
 25  16  27  1   
 26  16  28  1   
 27  17  19  1   
 28  17  20  1   
 29  17  21  1   
 30  18  22  1   
 31  18  29  1   
 32  18  30  1   
 33  20  31  1   
 34  20  32  1   
 35  20  33  1   
 36  21  34  1   
 37  21  35  1   
 38  21  36  1   
 39  22  23  1   
 40  22  37  1   
 41  22  38  1   
 42  23  39  1   
 43  23  40  1   
 44  23  41  1   
@<TRIPOS>SUBSTRUCTURE
  1 ****   5 GROUP 4 **** **** 0

# MOE 2024.06 (io_trps.svl 2023.06)
