@<TRIPOS>MOLECULE
NONAME
39 40 1 0 0 
SMALL
USER_CHARGES


@<TRIPOS>ATOM
  1 F       -0.2500     0.4760     0.0840 F     1 <1>  -0.1900 
  2 C       -1.4640     0.9600     0.0530 C.ar  1 <1>   0.1900 
  3 C       -1.6470     2.2760    -0.3260 C.ar  1 <1>  -0.1500 
  4 C       -2.5180     0.1370     0.4020 C.ar  1 <1>  -0.1500 
  5 C       -2.9360     2.7800    -0.3550 C.ar  1 <1>  -0.1500 
  6 C       -3.8050     0.6500     0.3690 C.ar  1 <1>  -0.1500 
  7 C       -4.0160     1.9770    -0.0110 C.ar  1 <1>   0.0830 
  8 O       -5.2420     2.5570    -0.0710 O.3   1 <1>  -0.3630 
  9 C       -6.4130     1.8360     0.2210 C.3   1 <1>   0.1200 
 10 C       -7.5910     2.8010     0.0550 C.3   1 <1>   0.3430 
 11 N       -8.9150     2.1570     0.3290 N.4   1 <1>  -0.9590 
 12 C       -9.3170     1.1080    -0.6670 C.3   1 <1>   0.3430 
 13 C      -10.0210     3.1750     0.4440 C.3   1 <1>   0.3430 
 14 C      -10.6110     0.3810    -0.2130 C.3   1 <1>   0.2000 
 15 C      -11.4320     2.5280     0.4910 C.3   1 <1>   0.2000 
 16 O      -11.3340     1.1460     0.7170 O.3   1 <1>  -0.5600 
 17 C      -10.3000    -0.9430     0.4820 C.3   1 <1>  -0.2400 
 18 C      -12.2650     2.7840    -0.7720 C.3   1 <1>  -0.2400 
 19 H       -0.8010     2.8850    -0.5890 H     1 <1>   0.1500 
 20 H       -2.3270    -0.8810     0.6910 H     1 <1>   0.1500 
 21 H       -3.1080     3.8020    -0.6460 H     1 <1>   0.1500 
 22 H       -4.6150     0.0020     0.6430 H     1 <1>   0.1500 
 23 H       -6.3460     1.4840     1.2360 H     1 <1>   0.0800 
 24 H       -6.4760     1.0150    -0.4710 H     1 <1>   0.0800 
 25 H       -7.5810     3.1930    -0.9490 H     1 <1>   0.0800 
 26 H       -7.4460     3.6220     0.7380 H     1 <1>   0.0800 
 27 H       -8.9000     1.6790     1.2440 H     1 <1>   0.4500 
 28 H       -8.5330     0.3800    -0.7960 H     1 <1>   0.0800 
 29 H       -9.4950     1.5670    -1.6250 H     1 <1>   0.0800 
 30 H       -9.9850     3.8550    -0.3910 H     1 <1>   0.0800 
 31 H       -9.8820     3.7610     1.3380 H     1 <1>   0.0800 
 32 H      -11.2450     0.1910    -1.0630 H     1 <1>   0.0800 
 33 H      -11.9690     2.9380     1.3300 H     1 <1>   0.0800 
 34 H       -9.6960    -0.7850     1.3580 H     1 <1>   0.0800 
 35 H       -9.7790    -1.6050    -0.1850 H     1 <1>   0.0800 
 36 H      -11.2190    -1.4220     0.7740 H     1 <1>   0.0800 
 37 H      -11.7560     2.4690    -1.6640 H     1 <1>   0.0800 
 38 H      -12.4750     3.8350    -0.8620 H     1 <1>   0.0800 
 39 H      -13.2060     2.2670    -0.6970 H     1 <1>   0.0800 
@<TRIPOS>BOND
  1   1   2  1   
  2   2   3  ar  
  3   2   4  ar  
  4   3   5  ar  
  5   3  19  1   
  6   4   6  ar  
  7   4  20  1   
  8   5   7  ar  
  9   5  21  1   
 10   6   7  ar  
 11   6  22  1   
 12   7   8  1   
 13   8   9  1   
 14   9  10  1   
 15   9  23  1   
 16   9  24  1   
 17  10  11  1   
 18  10  25  1   
 19  10  26  1   
 20  11  12  1   
 21  11  13  1   
 22  11  27  1   
 23  12  14  1   
 24  12  28  1   
 25  12  29  1   
 26  13  15  1   
 27  13  30  1   
 28  13  31  1   
 29  14  16  1   
 30  14  17  1   
 31  14  32  1   
 32  15  16  1   
 33  15  18  1   
 34  15  33  1   
 35  17  34  1   
 36  17  35  1   
 37  17  36  1   
 38  18  37  1   
 39  18  38  1   
 40  18  39  1   
@<TRIPOS>SUBSTRUCTURE
  1 ****   9 GROUP 4 **** **** 0

# MOE 2024.06 (io_trps.svl 2023.06)
