@<TRIPOS>MOLECULE
NONAME
47 48 1 0 0 
SMALL
USER_CHARGES


@<TRIPOS>ATOM
  1 F        9.4680    -3.8800    -0.5540 F     1 <1>  -0.3400 
  2 C        8.4240    -3.6960     0.2460 C.3   1 <1>   1.1640 
  3 F        8.8750    -3.8410     1.4850 F     1 <1>  -0.3400 
  4 F        8.0830    -2.4190     0.1200 F     1 <1>  -0.3400 
  5 C        7.2660    -4.6590    -0.0590 C.ar  1 <1>  -0.1440 
  6 C        5.9460    -4.2750     0.1510 C.ar  1 <1>  -0.1500 
  7 C        7.5130    -5.9410    -0.5420 C.ar  1 <1>  -0.1500 
  8 C        4.8960    -5.1370    -0.1180 C.ar  1 <1>   0.0830 
  9 C        6.4690    -6.8090    -0.8130 C.ar  1 <1>  -0.1500 
 10 O        3.6480    -4.6630     0.1200 O.3   1 <1>  -0.3630 
 11 C        5.1610    -6.4130    -0.6040 C.ar  1 <1>  -0.1500 
 12 C        2.5050    -5.4490    -0.1050 C.3   1 <1>   0.1200 
 13 C        1.2920    -4.5900     0.2660 C.3   1 <1>   0.3430 
 14 N       -0.0180    -5.2880     0.0400 N.4   1 <1>  -0.9590 
 15 C       -1.1350    -4.2940     0.1780 C.3   1 <1>   0.3430 
 16 C       -0.2080    -6.4450     0.9700 C.3   1 <1>   0.3430 
 17 C       -2.5010    -4.9300    -0.1100 C.3   1 <1>  -0.0190 
 18 C       -1.5360    -7.1420     0.6660 C.3   1 <1>  -0.1600 
 19 C       -3.5790    -3.8850     0.1140 C.2   1 <1>   0.6590 
 20 C       -2.7250    -6.1750     0.7700 C.3   1 <1>  -0.1600 
 21 O       -3.3290    -2.8380     0.6520 O.2   1 <1>  -0.5700 
 22 O       -4.7890    -4.1980    -0.3190 O.3   1 <1>  -0.4300 
 23 C       -5.8800    -3.3180    -0.1660 C.3   1 <1>   0.1200 
 24 C       -7.1140    -3.9880    -0.7610 C.3   1 <1>  -0.2400 
 25 H        5.7170    -3.2920     0.5280 H     1 <1>   0.1500 
 26 H        8.5240    -6.2730    -0.7110 H     1 <1>   0.1500 
 27 H        6.6810    -7.7960    -1.1880 H     1 <1>   0.1500 
 28 H        4.3780    -7.1120    -0.8260 H     1 <1>   0.1500 
 29 H        2.5770    -6.3210     0.5200 H     1 <1>   0.0800 
 30 H        2.4850    -5.7170    -1.1470 H     1 <1>   0.0800 
 31 H        1.3250    -3.6950    -0.3340 H     1 <1>   0.0800 
 32 H        1.3740    -4.3020     1.3010 H     1 <1>   0.0800 
 33 H       -0.0410    -5.6460    -0.9250 H     1 <1>   0.4500 
 34 H       -0.9830    -3.4680    -0.5000 H     1 <1>   0.0800 
 35 H       -1.1440    -3.8960     1.1800 H     1 <1>   0.0800 
 36 H       -0.2110    -6.0970     1.9910 H     1 <1>   0.0800 
 37 H        0.5980    -7.1530     0.8570 H     1 <1>   0.0800 
 38 H       -2.5400    -5.2110    -1.1470 H     1 <1>   0.0800 
 39 H       -1.6760    -7.9480     1.3670 H     1 <1>   0.0800 
 40 H       -1.4980    -7.5780    -0.3170 H     1 <1>   0.0800 
 41 H       -3.6300    -6.6770     0.4690 H     1 <1>   0.0800 
 42 H       -2.8490    -5.8710     1.7970 H     1 <1>   0.0800 
 43 H       -5.6540    -2.3990    -0.6810 H     1 <1>   0.0800 
 44 H       -6.0170    -3.1200     0.8840 H     1 <1>   0.0800 
 45 H       -6.9620    -4.1880    -1.8070 H     1 <1>   0.0800 
 46 H       -7.9640    -3.3380    -0.6590 H     1 <1>   0.0800 
 47 H       -7.3250    -4.9080    -0.2450 H     1 <1>   0.0800 
@<TRIPOS>BOND
  1   1   2  1   
  2   2   3  1   
  3   2   4  1   
  4   2   5  1   
  5   5   6  ar  
  6   5   7  ar  
  7   6   8  ar  
  8   6  25  1   
  9   7   9  ar  
 10   7  26  1   
 11   8  10  1   
 12   8  11  ar  
 13   9  11  ar  
 14   9  27  1   
 15  10  12  1   
 16  11  28  1   
 17  12  13  1   
 18  12  29  1   
 19  12  30  1   
 20  13  14  1   
 21  13  31  1   
 22  13  32  1   
 23  14  15  1   
 24  14  16  1   
 25  14  33  1   
 26  15  17  1   
 27  15  34  1   
 28  15  35  1   
 29  16  18  1   
 30  16  36  1   
 31  16  37  1   
 32  17  19  1   
 33  17  20  1   
 34  17  38  1   
 35  18  20  1   
 36  18  39  1   
 37  18  40  1   
 38  19  21  2   
 39  19  22  1   
 40  20  41  1   
 41  20  42  1   
 42  22  23  1   
 43  23  24  1   
 44  23  43  1   
 45  23  44  1   
 46  24  45  1   
 47  24  46  1   
 48  24  47  1   
@<TRIPOS>SUBSTRUCTURE
  1 ****  13 GROUP 4 **** **** 0

# MOE 2024.06 (io_trps.svl 2023.06)
