@<TRIPOS>MOLECULE
NONAME
52 53 1 0 0 
SMALL
USER_CHARGES


@<TRIPOS>ATOM
  1 O       -8.1430     5.7190    -0.9310 O.2   1 <1>  -0.5700 
  2 C       -8.9740     5.3870    -0.1160 C.2   1 <1>   0.6590 
  3 O       -8.7150     5.5520     1.1820 O.3   1 <1>  -0.4300 
  4 C      -10.3200     4.7180    -0.4960 C.3   1 <1>   0.3480 
  5 C       -7.5540     6.1730     1.7090 C.3   1 <1>   0.1200 
  6 C      -11.5160     5.3610     0.2450 C.ar  1 <1>  -0.1440 
  7 C      -10.1640     3.2200    -0.1290 C.ar  1 <1>  -0.1440 
  8 C      -10.6270     4.9240    -1.9970 C.3   1 <1>  -0.2400 
  9 C       -6.3660     5.1930     1.7450 C.3   1 <1>   0.3430 
 10 C      -11.5050     6.7060     0.6070 C.ar  1 <1>  -0.1500 
 11 C      -12.6550     4.6160     0.5350 C.ar  1 <1>  -0.1500 
 12 C      -10.1690     2.8500     1.2140 C.ar  1 <1>  -0.1500 
 13 C       -9.9950     2.2140    -1.0780 C.ar  1 <1>  -0.1500 
 14 N       -5.8360     4.8820     0.3750 N.4   1 <1>  -0.9590 
 15 C      -12.5830     7.2760     1.2610 C.ar  1 <1>  -0.1500 
 16 C      -13.7330     5.1840     1.1890 C.ar  1 <1>  -0.1500 
 17 C      -10.0060     1.5310     1.5980 C.ar  1 <1>  -0.1500 
 18 C       -9.8310     0.8940    -0.6960 C.ar  1 <1>  -0.1500 
 19 C       -5.3640     3.4750     0.2400 C.3   1 <1>   0.4230 
 20 C       -4.8340     5.9170    -0.0330 C.3   1 <1>   0.2630 
 21 C      -13.6980     6.5150     1.5570 C.ar  1 <1>  -0.1500 
 22 C       -9.8350     0.5500     0.6420 C.ar  1 <1>  -0.1500 
 23 C       -4.6910     3.2560    -1.1160 C.3   1 <1>  -0.2400 
 24 C       -6.5640     2.5330     0.3450 C.3   1 <1>  -0.2400 
 25 H       -7.7940     6.4770     2.7130 H     1 <1>   0.0800 
 26 H       -7.3300     7.0540     1.1320 H     1 <1>   0.0800 
 27 H       -9.8140     4.5860    -2.6150 H     1 <1>   0.0800 
 28 H      -11.5220     4.3940    -2.2700 H     1 <1>   0.0800 
 29 H      -10.7810     5.9690    -2.2010 H     1 <1>   0.0800 
 30 H       -6.6910     4.2960     2.2420 H     1 <1>   0.0800 
 31 H       -5.5750     5.6190     2.3410 H     1 <1>   0.0800 
 32 H      -10.6650     7.3380     0.3820 H     1 <1>   0.1500 
 33 H      -12.7190     3.5780     0.2520 H     1 <1>   0.1500 
 34 H      -10.3110     3.5930     1.9820 H     1 <1>   0.1500 
 35 H       -9.9860     2.4240    -2.1320 H     1 <1>   0.1500 
 36 H       -6.6370     4.9790    -0.2820 H     1 <1>   0.4500 
 37 H      -12.5580     8.3160     1.5390 H     1 <1>   0.1500 
 38 H      -14.6020     4.5880     1.4110 H     1 <1>   0.1500 
 39 H      -10.0200     1.2670     2.6420 H     1 <1>   0.1500 
 40 H       -9.7050     0.1290    -1.4440 H     1 <1>   0.1500 
 41 H       -4.6590     3.2470     1.0240 H     1 <1>   0.0800 
 42 H       -3.9430     5.8360     0.5680 H     1 <1>   0.0800 
 43 H       -5.2480     6.9050     0.0870 H     1 <1>   0.0800 
 44 H       -4.5660     5.7930    -1.0700 H     1 <1>   0.0800 
 45 H      -14.5360     6.9570     2.0660 H     1 <1>   0.1500 
 46 H       -9.7120    -0.4780     0.9370 H     1 <1>   0.1500 
 47 H       -5.3340     3.5650    -1.9210 H     1 <1>   0.0800 
 48 H       -4.4740     2.2100    -1.2480 H     1 <1>   0.0800 
 49 H       -3.7530     3.7760    -1.1770 H     1 <1>   0.0800 
 50 H       -7.2820     2.7470    -0.4250 H     1 <1>   0.0800 
 51 H       -7.0450     2.5860     1.3030 H     1 <1>   0.0800 
 52 H       -6.2390     1.5160     0.2150 H     1 <1>   0.0800 
@<TRIPOS>BOND
  1   1   2  2   
  2   2   3  1   
  3   2   4  1   
  4   3   5  1   
  5   4   6  1   
  6   4   7  1   
  7   4   8  1   
  8   5   9  1   
  9   5  25  1   
 10   5  26  1   
 11   6  10  ar  
 12   6  11  ar  
 13   7  12  ar  
 14   7  13  ar  
 15   8  27  1   
 16   8  28  1   
 17   8  29  1   
 18   9  14  1   
 19   9  30  1   
 20   9  31  1   
 21  10  15  ar  
 22  10  32  1   
 23  11  16  ar  
 24  11  33  1   
 25  12  17  ar  
 26  12  34  1   
 27  13  18  ar  
 28  13  35  1   
 29  14  19  1   
 30  14  20  1   
 31  14  36  1   
 32  15  21  ar  
 33  15  37  1   
 34  16  21  ar  
 35  16  38  1   
 36  17  22  ar  
 37  17  39  1   
 38  18  22  ar  
 39  18  40  1   
 40  19  23  1   
 41  19  24  1   
 42  19  41  1   
 43  20  42  1   
 44  20  43  1   
 45  20  44  1   
 46  21  45  1   
 47  22  46  1   
 48  23  47  1   
 49  23  48  1   
 50  23  49  1   
 51  24  50  1   
 52  24  51  1   
 53  24  52  1   
@<TRIPOS>SUBSTRUCTURE
  1 ****   2 GROUP 4 **** **** 0

# MOE 2024.06 (io_trps.svl 2023.06)
