@<TRIPOS>MOLECULE
NONAME
39 41 1 0 0 
SMALL
USER_CHARGES


@<TRIPOS>ATOM
  1 O       -0.7790     2.6370    -2.0770 O.2   1 <1>  -0.5700 
  2 C        0.0010     2.3010    -1.2160 C.2   1 <1>   0.5690 
  3 N       -0.3590     1.5570    -0.1390 N.am  1 <1>  -0.5790 
  4 C        1.4690     2.7230    -1.3230 C.3   1 <1>   0.1710 
  5 C       -1.6900     1.0200     0.1620 C.3   1 <1>   0.0490 
  6 N        2.4100     1.8460    -0.5640 N.3   1 <1>  -0.8100 
  7 C       -2.0840     0.8830     1.5950 C.3   1 <1>  -0.2000 
  8 C       -1.7720    -0.3370     0.7800 C.3   1 <1>  -0.2000 
  9 C        3.7310     2.4960    -0.4090 C.3   1 <1>   0.1100 
 10 C        2.5840     0.5370    -1.2470 C.3   1 <1>   0.1100 
 11 C        4.7310     1.6090     0.3600 C.3   1 <1>   0.2090 
 12 C        3.5620    -0.3870    -0.4970 C.3   1 <1>   0.2090 
 13 N        4.8830     0.2800    -0.2960 N.pl3 1 <1>  -0.8380 
 14 C        5.9410    -0.4970     0.1320 C.ar  1 <1>   0.4100 
 15 N        5.6660    -1.5260     0.9270 N.ar  1 <1>  -0.6200 
 16 C        7.2330    -0.1710    -0.2720 C.ar  1 <1>  -0.1500 
 17 C        6.7050    -2.2390     1.3290 C.ar  1 <1>   0.1600 
 18 C        8.3040    -0.9200     0.1540 C.ar  1 <1>  -0.1500 
 19 C        8.0200    -1.9860     0.9820 C.ar  1 <1>  -0.1500 
 20 H        0.4040     1.2970     0.4940 H     1 <1>   0.3700 
 21 H        1.5320     3.7250    -0.9390 H     1 <1>   0.0800 
 22 H        1.7470     2.7500    -2.3620 H     1 <1>   0.0800 
 23 H       -2.4390     1.3100    -0.5580 H     1 <1>   0.1000 
 24 H       -3.1080     1.0660     1.8660 H     1 <1>   0.1000 
 25 H       -1.3910     1.1980     2.3540 H     1 <1>   0.1000 
 26 H       -0.8620    -0.8760     0.9720 H     1 <1>   0.1000 
 27 H       -2.5860    -0.9820     0.4980 H     1 <1>   0.1000 
 28 H        3.6120     3.4210     0.1270 H     1 <1>   0.0800 
 29 H        4.1450     2.7190    -1.3780 H     1 <1>   0.0800 
 30 H        2.9600     0.6900    -2.2440 H     1 <1>   0.0800 
 31 H        1.6340     0.0360    -1.3250 H     1 <1>   0.0800 
 32 H        4.3800     1.4680     1.3680 H     1 <1>   0.0800 
 33 H        5.6860     2.1010     0.4040 H     1 <1>   0.0800 
 34 H        3.7050    -1.2940    -1.0580 H     1 <1>   0.0800 
 35 H        3.1430    -0.6490     0.4600 H     1 <1>   0.0800 
 36 H        7.3700     0.6700    -0.9240 H     1 <1>   0.1500 
 37 H        6.4950    -3.0740     1.9750 H     1 <1>   0.1500 
 38 H        9.3120    -0.6890    -0.1440 H     1 <1>   0.1500 
 39 H        8.8090    -2.6150     1.3530 H     1 <1>   0.1500 
@<TRIPOS>BOND
  1   1   2  2   
  2   2   3  am  
  3   2   4  1   
  4   3   5  1   
  5   3  20  1   
  6   4   6  1   
  7   4  21  1   
  8   4  22  1   
  9   5   7  1   
 10   5   8  1   
 11   5  23  1   
 12   6   9  1   
 13   6  10  1   
 14   7   8  1   
 15   7  24  1   
 16   7  25  1   
 17   8  26  1   
 18   8  27  1   
 19   9  11  1   
 20   9  28  1   
 21   9  29  1   
 22  10  12  1   
 23  10  30  1   
 24  10  31  1   
 25  11  13  1   
 26  11  32  1   
 27  11  33  1   
 28  12  13  1   
 29  12  34  1   
 30  12  35  1   
 31  13  14  1   
 32  14  15  ar  
 33  14  16  ar  
 34  15  17  ar  
 35  16  18  ar  
 36  16  36  1   
 37  17  19  ar  
 38  17  37  1   
 39  18  19  ar  
 40  18  38  1   
 41  19  39  1   
@<TRIPOS>SUBSTRUCTURE
  1 ****  12 GROUP 4 **** **** 0

# MOE 2024.06 (io_trps.svl 2023.06)
