@<TRIPOS>MOLECULE
NONAME
47 48 1 0 0 
SMALL
USER_CHARGES


@<TRIPOS>ATOM
  1 S       -0.2270    -0.0950     1.0240 S.o2  1 <1>   1.4470 
  2 O       -0.7480     0.1620     2.3470 O.2   1 <1>  -0.6500 
  3 O       -0.0690    -1.4490     0.5470 O.2   1 <1>  -0.6500 
  4 N       -1.2670     0.6090    -0.0880 N.am  1 <1>  -0.9140 
  5 C        1.3180     0.8240     0.7870 C.ar  1 <1>  -0.0090 
  6 C       -2.6670     0.6020     0.2810 C.3   1 <1>   0.2760 
  7 C        2.5340     0.1610     0.6860 C.ar  1 <1>  -0.1500 
  8 C        1.3280     2.2110     0.7190 C.ar  1 <1>  -0.1500 
  9 C       -3.2460    -0.8210     0.2060 C.3   1 <1>  -0.1600 
 10 C       -3.3990     1.5350    -0.6890 C.3   1 <1>  -0.1600 
 11 C        3.7320     0.8390     0.4970 C.ar  1 <1>   0.1170 
 12 C        2.5080     2.9150     0.5550 C.ar  1 <1>  -0.1500 
 13 C       -4.7610    -0.8240     0.4560 C.3   1 <1>  -0.1600 
 14 C       -4.9130     1.5400    -0.4350 C.3   1 <1>  -0.1600 
 15 N        4.9600     0.1640     0.3850 N.am  1 <1>  -0.5470 
 16 C        3.7160     2.2360     0.4480 C.ar  1 <1>   0.0830 
 17 C       -5.4890     0.1210    -0.5090 C.3   1 <1>  -0.1600 
 18 C        5.3460    -0.9930    -0.2140 C.2   1 <1>   0.5690 
 19 O        4.9140     2.8710     0.3000 O.3   1 <1>  -0.3630 
 20 O        6.4970    -1.3400    -0.1580 O.2   1 <1>  -0.5700 
 21 C        4.3740    -1.8540    -0.9870 C.3   1 <1>  -0.1790 
 22 C        5.0040     4.2730     0.2030 C.3   1 <1>   0.1200 
 23 C        6.4740     4.6400     0.0250 C.3   1 <1>  -0.2400 
 24 H       -1.1820     0.0150    -0.9090 H     1 <1>   0.4200 
 25 H       -2.7900     0.9920     1.2800 H     1 <1>   0.0800 
 26 H        2.5420    -0.9100     0.7680 H     1 <1>   0.1500 
 27 H        0.3960     2.7470     0.8010 H     1 <1>   0.1500 
 28 H       -2.7820    -1.4480     0.9470 H     1 <1>   0.0800 
 29 H       -3.0530    -1.2410    -0.7650 H     1 <1>   0.0800 
 30 H       -3.2180     1.2180    -1.7010 H     1 <1>   0.0800 
 31 H       -3.0190     2.5350    -0.5730 H     1 <1>   0.0800 
 32 H        2.4610     3.9870     0.5160 H     1 <1>   0.1500 
 33 H       -4.9540    -0.5150     1.4700 H     1 <1>   0.0800 
 34 H       -5.1430    -1.8230     0.3400 H     1 <1>   0.0800 
 35 H       -5.4000     2.1650    -1.1640 H     1 <1>   0.0800 
 36 H       -5.1110     1.9550     0.5390 H     1 <1>   0.0800 
 37 H        5.7620     0.7280     0.6760 H     1 <1>   0.3700 
 38 H       -6.5380     0.1440    -0.2680 H     1 <1>   0.0800 
 39 H       -5.3920    -0.2520    -1.5150 H     1 <1>   0.0800 
 40 H        3.6710    -1.2420    -1.5190 H     1 <1>   0.0800 
 41 H        3.8560    -2.5100    -0.3130 H     1 <1>   0.0800 
 42 H        4.9150    -2.4510    -1.6980 H     1 <1>   0.0800 
 43 H        4.6120     4.7050     1.1080 H     1 <1>   0.0800 
 44 H        4.4270     4.5950    -0.6470 H     1 <1>   0.0800 
 45 H        7.0460     4.3030     0.8710 H     1 <1>   0.0800 
 46 H        6.5770     5.7070    -0.0550 H     1 <1>   0.0800 
 47 H        6.8620     4.1900    -0.8720 H     1 <1>   0.0800 
@<TRIPOS>BOND
  1   1   2  2   
  2   1   3  2   
  3   1   4  am  
  4   1   5  1   
  5   4   6  1   
  6   4  24  1   
  7   5   7  ar  
  8   5   8  ar  
  9   6   9  1   
 10   6  10  1   
 11   6  25  1   
 12   7  11  ar  
 13   7  26  1   
 14   8  12  ar  
 15   8  27  1   
 16   9  13  1   
 17   9  28  1   
 18   9  29  1   
 19  10  14  1   
 20  10  30  1   
 21  10  31  1   
 22  11  15  1   
 23  11  16  ar  
 24  12  16  ar  
 25  12  32  1   
 26  13  17  1   
 27  13  33  1   
 28  13  34  1   
 29  14  17  1   
 30  14  35  1   
 31  14  36  1   
 32  15  18  am  
 33  15  37  1   
 34  16  19  1   
 35  17  38  1   
 36  17  39  1   
 37  18  20  2   
 38  18  21  1   
 39  19  22  1   
 40  21  40  1   
 41  21  41  1   
 42  21  42  1   
 43  22  23  1   
 44  22  43  1   
 45  22  44  1   
 46  23  45  1   
 47  23  46  1   
 48  23  47  1   
@<TRIPOS>SUBSTRUCTURE
  1 ****   5 GROUP 4 **** **** 0

# MOE 2024.06 (io_trps.svl 2023.06)
