@<TRIPOS>MOLECULE
NONAME
39 40 1 0 0 
SMALL
USER_CHARGES


@<TRIPOS>ATOM
  1 O       -0.0860    -1.2850     2.2390 O.2   1 <1>  -0.5700 
  2 C       -0.2300    -1.8000     1.1580 C.2   1 <1>   0.5690 
  3 N       -1.4260    -1.7870     0.5250 N.am  1 <1>  -0.7300 
  4 C        0.9420    -2.5060     0.5010 C.3   1 <1>  -0.0990 
  5 C       -2.6590    -1.1740     1.0850 C.3   1 <1>   0.3200 
  6 C        1.7720    -1.6440    -0.4790 C.3   1 <1>   0.0000 
  7 C       -3.8730    -2.0560     0.8360 C.2   1 <1>   0.2980 
  8 C        2.9300    -2.4950    -1.0210 C.3   1 <1>  -0.2400 
  9 C        2.3610    -0.4190     0.2380 C.3   1 <1>  -0.2400 
 10 C        0.9220    -1.1680    -1.6670 C.3   1 <1>  -0.2400 
 11 O       -4.0010    -3.1520     1.5350 O.3   1 <1>  -0.0190 
 12 N       -4.7950    -1.8370    -0.0090 N.2   1 <1>  -0.5650 
 13 N       -5.1030    -3.6770     1.0990 N.2   1 <1>  -0.4100 
 14 C       -5.5780    -2.9040     0.1870 C.2   1 <1>   0.4620 
 15 C       -6.8060    -3.1270    -0.5590 C.ar  1 <1>   0.0540 
 16 C       -7.5940    -4.2590    -0.3350 C.ar  1 <1>  -0.1500 
 17 C       -7.2520    -2.2260    -1.5290 C.ar  1 <1>  -0.1500 
 18 C       -8.7630    -4.4810    -1.0400 C.ar  1 <1>  -0.1500 
 19 C       -8.4210    -2.4420    -2.2380 C.ar  1 <1>  -0.1500 
 20 C       -9.1800    -3.5710    -1.9940 C.ar  1 <1>  -0.1500 
 21 H       -1.5230    -2.2100    -0.3990 H     1 <1>   0.3700 
 22 H        0.5710    -3.3750    -0.0100 H     1 <1>   0.0800 
 23 H        1.5850    -2.8570     1.2880 H     1 <1>   0.0800 
 24 H       -2.8170    -0.2200     0.6150 H     1 <1>   0.0800 
 25 H       -2.5490    -1.0150     2.1430 H     1 <1>   0.0800 
 26 H        2.5560    -3.3570    -1.5440 H     1 <1>   0.0800 
 27 H        3.5600    -2.8330    -0.2170 H     1 <1>   0.0800 
 28 H        3.5340    -1.9230    -1.7030 H     1 <1>   0.0800 
 29 H        2.9530    -0.7250     1.0830 H     1 <1>   0.0800 
 30 H        1.5810     0.2300     0.5940 H     1 <1>   0.0800 
 31 H        2.9880     0.1460    -0.4280 H     1 <1>   0.0800 
 32 H        0.4720    -2.0040    -2.1720 H     1 <1>   0.0800 
 33 H        1.5340    -0.6370    -2.3750 H     1 <1>   0.0800 
 34 H        0.1450    -0.4990    -1.3420 H     1 <1>   0.0800 
 35 H       -7.2850    -4.9780     0.4040 H     1 <1>   0.1500 
 36 H       -6.6760    -1.3410    -1.7330 H     1 <1>   0.1500 
 37 H       -9.3500    -5.3620    -0.8460 H     1 <1>   0.1500 
 38 H       -8.7400    -1.7300    -2.9790 H     1 <1>   0.1500 
 39 H      -10.0890    -3.7420    -2.5440 H     1 <1>   0.1500 
@<TRIPOS>BOND
  1   1   2  2   
  2   2   3  am  
  3   2   4  1   
  4   3   5  1   
  5   3  21  1   
  6   4   6  1   
  7   4  22  1   
  8   4  23  1   
  9   5   7  1   
 10   5  24  1   
 11   5  25  1   
 12   6   8  1   
 13   6   9  1   
 14   6  10  1   
 15   7  11  1   
 16   7  12  2   
 17   8  26  1   
 18   8  27  1   
 19   8  28  1   
 20   9  29  1   
 21   9  30  1   
 22   9  31  1   
 23  10  32  1   
 24  10  33  1   
 25  10  34  1   
 26  11  13  1   
 27  12  14  1   
 28  13  14  2   
 29  14  15  1   
 30  15  16  ar  
 31  15  17  ar  
 32  16  18  ar  
 33  16  35  1   
 34  17  19  ar  
 35  17  36  1   
 36  18  20  ar  
 37  18  37  1   
 38  19  20  ar  
 39  19  38  1   
 40  20  39  1   
@<TRIPOS>SUBSTRUCTURE
  1 ****   7 GROUP 4 **** **** 0

# MOE 2024.06 (io_trps.svl 2023.06)
