@<TRIPOS>MOLECULE
NONAME
29 29 1 0 0 
SMALL
USER_CHARGES


@<TRIPOS>ATOM
  1 O        0.7150    -4.2080     1.4840 O.3   1 <1>  -0.3630 
  2 C        1.3840    -3.3150     0.7120 C.ar  1 <1>   0.0830 
  3 C       -0.6830    -4.3170     1.3050 C.3   1 <1>   0.1200 
  4 C        2.3580    -3.7670    -0.1790 C.ar  1 <1>   0.0830 
  5 C        1.1100    -1.9600     0.8220 C.ar  1 <1>  -0.1500 
  6 C       -0.9830    -5.7290     0.7860 C.3   1 <1>   0.3430 
  7 O        2.6000    -5.1050    -0.2590 O.3   1 <1>  -0.3630 
  8 C        3.0390    -2.8480    -0.9690 C.ar  1 <1>  -0.1500 
  9 C        1.7940    -1.0530     0.0320 C.ar  1 <1>  -0.1500 
 10 N       -0.0400    -6.0890    -0.3080 N.4   1 <1>  -0.8530 
 11 C        3.9330    -5.5400    -0.4300 C.3   1 <1>   0.1200 
 12 C        2.7540    -1.4960    -0.8620 C.ar  1 <1>  -0.1500 
 13 C        3.9810    -7.0380    -0.1480 C.3   1 <1>  -0.2400 
 14 H       -1.0240    -3.5710     0.6080 H     1 <1>   0.0800 
 15 H       -1.1570    -4.1510     2.2570 H     1 <1>   0.0800 
 16 H        0.3770    -1.6100     1.5260 H     1 <1>   0.1500 
 17 H       -2.0040    -5.7890     0.4440 H     1 <1>   0.0800 
 18 H       -0.8650    -6.4200     1.6050 H     1 <1>   0.0800 
 19 H        3.7850    -3.1640    -1.6740 H     1 <1>   0.1500 
 20 H        1.5850     0.0010     0.1150 H     1 <1>   0.1500 
 21 H       -0.2340    -5.5780    -1.1740 H     1 <1>   0.4500 
 22 H       -0.0040    -7.0940    -0.4990 H     1 <1>   0.4500 
 23 H        0.9120    -5.7820    -0.0190 H     1 <1>   0.4500 
 24 H        4.5610    -5.0030     0.2620 H     1 <1>   0.0800 
 25 H        4.2410    -5.3350    -1.4410 H     1 <1>   0.0800 
 26 H        3.2840    -0.7850    -1.4740 H     1 <1>   0.1500 
 27 H        3.6620    -7.2390     0.8590 H     1 <1>   0.0800 
 28 H        4.9920    -7.3900    -0.2570 H     1 <1>   0.0800 
 29 H        3.3620    -7.5740    -0.8450 H     1 <1>   0.0800 
@<TRIPOS>BOND
  1   1   2  1   
  2   1   3  1   
  3   2   4  ar  
  4   2   5  ar  
  5   3   6  1   
  6   3  14  1   
  7   3  15  1   
  8   4   7  1   
  9   4   8  ar  
 10   5   9  ar  
 11   5  16  1   
 12   6  10  1   
 13   6  17  1   
 14   6  18  1   
 15   7  11  1   
 16   8  12  ar  
 17   8  19  1   
 18   9  12  ar  
 19   9  20  1   
 20  10  21  1   
 21  10  22  1   
 22  10  23  1   
 23  11  13  1   
 24  11  24  1   
 25  11  25  1   
 26  12  26  1   
 27  13  27  1   
 28  13  28  1   
 29  13  29  1   
@<TRIPOS>SUBSTRUCTURE
  1 ****   4 GROUP 4 **** **** 0

# MOE 2024.06 (io_trps.svl 2023.06)
