@<TRIPOS>MOLECULE
NONAME
32 32 1 0 0 
SMALL
USER_CHARGES


@<TRIPOS>ATOM
  1 CL       0.6470    -0.8230    -2.4240 Cl    1 <1>  -0.1770 
  2 C        1.7840    -1.1130    -1.1230 C.ar  1 <1>   0.1770 
  3 C        1.3900    -1.6240     0.1160 C.ar  1 <1>   0.0830 
  4 C        3.1030    -0.7830    -1.3730 C.ar  1 <1>  -0.1500 
  5 O        0.1210    -1.9790     0.4450 O.3   1 <1>  -0.3630 
  6 C        2.3780    -1.7650     1.0830 C.ar  1 <1>   0.1770 
  7 C        4.0940    -0.9300    -0.4010 C.ar  1 <1>   0.0860 
  8 C       -0.6820    -2.7310    -0.4390 C.3   1 <1>   0.0400 
  9 CL       1.9750    -2.3890     2.6680 Cl    1 <1>  -0.1770 
 10 C        3.6960    -1.4350     0.8390 C.ar  1 <1>  -0.1500 
 11 C        5.4710    -0.5720    -0.6810 C.2   1 <1>   0.5440 
 12 O        5.8920    -0.6400    -1.8180 O.2   1 <1>  -0.5700 
 13 N        6.2920    -0.1440     0.3300 N.am  1 <1>  -0.7300 
 14 C        7.7070     0.2400     0.2800 C.3   1 <1>   0.3000 
 15 C        8.5530    -0.9370    -0.2080 C.3   1 <1>  -0.2400 
 16 C        8.1080     0.5950     1.7110 C.3   1 <1>  -0.2400 
 17 C        7.8810     1.4660    -0.6170 C.3   1 <1>  -0.2400 
 18 H        3.3730    -0.3970    -2.3410 H     1 <1>   0.1500 
 19 H       -1.3570    -3.3260     0.1490 H     1 <1>   0.0800 
 20 H       -0.0570    -3.3700    -1.0370 H     1 <1>   0.0800 
 21 H       -1.2460    -2.0560    -1.0580 H     1 <1>   0.0800 
 22 H        4.4190    -1.5830     1.6210 H     1 <1>   0.1500 
 23 H        5.8780     0.0190     1.2450 H     1 <1>   0.3700 
 24 H        8.3160    -1.1770    -1.2290 H     1 <1>   0.0800 
 25 H        8.3810    -1.8040     0.4030 H     1 <1>   0.0800 
 26 H        9.5970    -0.6870    -0.1630 H     1 <1>   0.0800 
 27 H        7.9800    -0.2530     2.3610 H     1 <1>   0.0800 
 28 H        7.5200     1.4170     2.0770 H     1 <1>   0.0800 
 29 H        9.1430     0.8850     1.7420 H     1 <1>   0.0800 
 30 H        7.2480     2.2700    -0.2860 H     1 <1>   0.0800 
 31 H        8.9020     1.8020    -0.5920 H     1 <1>   0.0800 
 32 H        7.6370     1.2280    -1.6360 H     1 <1>   0.0800 
@<TRIPOS>BOND
  1   1   2  1   
  2   2   3  ar  
  3   2   4  ar  
  4   3   5  1   
  5   3   6  ar  
  6   4   7  ar  
  7   4  18  1   
  8   5   8  1   
  9   6   9  1   
 10   6  10  ar  
 11   7  10  ar  
 12   7  11  1   
 13   8  19  1   
 14   8  20  1   
 15   8  21  1   
 16  10  22  1   
 17  11  12  2   
 18  11  13  am  
 19  13  14  1   
 20  13  23  1   
 21  14  15  1   
 22  14  16  1   
 23  14  17  1   
 24  15  24  1   
 25  15  25  1   
 26  15  26  1   
 27  16  27  1   
 28  16  28  1   
 29  16  29  1   
 30  17  30  1   
 31  17  31  1   
 32  17  32  1   
@<TRIPOS>SUBSTRUCTURE
  1 ****   7 GROUP 4 **** **** 0

# MOE 2024.06 (io_trps.svl 2023.06)
