@<TRIPOS>MOLECULE
NONAME
40 41 1 0 0 
SMALL
USER_CHARGES


@<TRIPOS>ATOM
  1 F       -7.5530     1.5900    -0.1500 F     1 <1>  -0.1900 
  2 C       -6.2930     1.9340    -0.1000 C.ar  1 <1>   0.1900 
  3 C       -5.5410     1.8760    -1.2580 C.ar  1 <1>  -0.1500 
  4 C       -5.7620     2.3440     1.1080 C.ar  1 <1>  -0.1500 
  5 C       -4.2050     2.2410    -1.2050 C.ar  1 <1>  -0.1500 
  6 C       -4.4260     2.7070     1.1520 C.ar  1 <1>  -0.1500 
  7 C       -3.6440     2.6580     0.0040 C.ar  1 <1>   0.0830 
  8 O       -2.3460     3.0310     0.1410 O.3   1 <1>  -0.3630 
  9 C       -1.4550     3.0140    -0.9670 C.3   1 <1>   0.1810 
 10 C       -0.0600     3.4730    -0.5530 C.2   1 <1>   0.5690 
 11 O        0.8280     3.4830    -1.3720 O.2   1 <1>  -0.5700 
 12 N        0.1750     3.8640     0.7290 N.am  1 <1>  -0.7300 
 13 C        1.4360     4.4420     1.2630 C.3   1 <1>   0.1400 
 14 C        2.6310     3.4810     1.0790 C.3   1 <1>   0.3430 
 15 N        3.8110     4.1230     0.4070 N.4   1 <1>  -0.9590 
 16 C        3.5370     4.3650    -1.0570 C.3   1 <1>   0.3430 
 17 C        5.0400     3.2680     0.5460 C.3   1 <1>   0.3430 
 18 C        4.7830     4.9010    -1.7890 C.3   1 <1>   0.1200 
 19 C        6.2290     3.8610    -0.2360 C.3   1 <1>   0.1200 
 20 O        5.8800     4.0580    -1.5760 O.3   1 <1>  -0.5600 
 21 H       -5.9950     1.5510    -2.1760 H     1 <1>   0.1500 
 22 H       -6.3800     2.3760     1.9860 H     1 <1>   0.1500 
 23 H       -3.6290     2.1920    -2.1090 H     1 <1>   0.1500 
 24 H       -3.9870     3.0290     2.0780 H     1 <1>   0.1500 
 25 H       -1.8380     3.6750    -1.7230 H     1 <1>   0.0800 
 26 H       -1.4030     2.0100    -1.3460 H     1 <1>   0.0800 
 27 H       -0.6420     3.8650     1.3560 H     1 <1>   0.3700 
 28 H        1.3040     4.6420     2.3120 H     1 <1>   0.0800 
 29 H        1.6190     5.3770     0.7630 H     1 <1>   0.0800 
 30 H        2.3090     2.6340     0.4950 H     1 <1>   0.0800 
 31 H        2.9250     3.1200     2.0510 H     1 <1>   0.0800 
 32 H        4.0080     5.0310     0.8450 H     1 <1>   0.4500 
 33 H        2.7240     5.0630    -1.1740 H     1 <1>   0.0800 
 34 H        3.2370     3.4430    -1.5280 H     1 <1>   0.0800 
 35 H        4.8430     2.2810     0.1620 H     1 <1>   0.0800 
 36 H        5.3100     3.1740     1.5840 H     1 <1>   0.0800 
 37 H        5.0360     5.8920    -1.4530 H     1 <1>   0.0800 
 38 H        4.5990     4.9360    -2.8490 H     1 <1>   0.0800 
 39 H        7.0630     3.1810    -0.2150 H     1 <1>   0.0800 
 40 H        6.5430     4.8020     0.1820 H     1 <1>   0.0800 
@<TRIPOS>BOND
  1   1   2  1   
  2   2   3  ar  
  3   2   4  ar  
  4   3   5  ar  
  5   3  21  1   
  6   4   6  ar  
  7   4  22  1   
  8   5   7  ar  
  9   5  23  1   
 10   6   7  ar  
 11   6  24  1   
 12   7   8  1   
 13   8   9  1   
 14   9  10  1   
 15   9  25  1   
 16   9  26  1   
 17  10  11  2   
 18  10  12  am  
 19  12  13  1   
 20  12  27  1   
 21  13  14  1   
 22  13  28  1   
 23  13  29  1   
 24  14  15  1   
 25  14  30  1   
 26  14  31  1   
 27  15  16  1   
 28  15  17  1   
 29  15  32  1   
 30  16  18  1   
 31  16  33  1   
 32  16  34  1   
 33  17  19  1   
 34  17  35  1   
 35  17  36  1   
 36  18  20  1   
 37  18  37  1   
 38  18  38  1   
 39  19  20  1   
 40  19  39  1   
 41  19  40  1   
@<TRIPOS>SUBSTRUCTURE
  1 ****  10 GROUP 4 **** **** 0

# MOE 2024.06 (io_trps.svl 2023.06)
