@<TRIPOS>MOLECULE
NONAME
54 58 1 0 0 
SMALL
USER_CHARGES


@<TRIPOS>ATOM
  1 O       -4.8970     1.0760     2.3540 O.2   1 <1>  -0.5740 
  2 C       -5.6620     0.5050     1.6260 C.2   1 <1>   0.4430 
  3 C       -5.2230    -0.5690     0.6130 C.3   1 <1>   0.0540 
  4 C       -7.1410     0.8930     1.6720 C.3   1 <1>   0.4100 
  5 C       -5.7020    -0.2100    -0.8200 C.3   1 <1>  -0.1670 
  6 C       -5.8000    -1.9540     1.0000 C.3   1 <1>  -0.1670 
  7 C       -3.6760    -0.6890     0.5790 C.3   1 <1>  -0.1670 
  8 N       -7.4390     2.1560     0.9240 N.pl3 1 <1>  -0.7670 
  9 C       -5.2620    -1.2840    -1.8300 C.3   1 <1>  -0.0870 
 10 C       -5.3610    -3.0310    -0.0100 C.3   1 <1>  -0.0870 
 11 C       -3.2230    -1.7620    -0.4280 C.3   1 <1>  -0.0870 
 12 C       -6.8320     3.3460     1.0410 C.cat 1 <1>   1.0690 
 13 C       -8.4550     2.3020    -0.0200 C.ar  1 <1>   0.3030 
 14 C       -5.8570    -2.6420    -1.4150 C.3   1 <1>  -0.1670 
 15 C       -3.7270    -1.3820    -1.8310 C.3   1 <1>  -0.1670 
 16 C       -3.8250    -3.1190    -0.0220 C.3   1 <1>  -0.1670 
 17 N       -7.4070     4.2270     0.2490 N.pl3 1 <1>  -0.7030 
 18 N       -5.7940     3.6210     1.8200 N.pl3 1 <1>  -0.7170 
 19 C       -8.4230     3.6170    -0.4490 C.ar  1 <1>   0.3030 
 20 C       -9.3890     1.4160    -0.5490 C.ar  1 <1>  -0.1160 
 21 C       -5.2180     4.9530     2.1600 C.3   1 <1>   0.1610 
 22 C       -9.3050     4.0860    -1.4130 C.ar  1 <1>  -0.1160 
 23 C      -10.2730     1.8770    -1.5070 C.ar  1 <1>  -0.1570 
 24 C       -4.3820     5.5640     1.0220 C.3   1 <1>   0.1130 
 25 C      -10.2310     3.2040    -1.9380 C.ar  1 <1>  -0.1570 
 26 O       -5.1900     5.8490    -0.0760 O.3   1 <1>  -0.6830 
 27 H       -7.4180     1.0330     2.7030 H     1 <1>   0.0730 
 28 H       -7.7400     0.0900     1.2880 H     1 <1>   0.0730 
 29 H       -5.2930     0.7410    -1.1150 H     1 <1>   0.0730 
 30 H       -6.7720    -0.1360    -0.8600 H     1 <1>   0.0730 
 31 H       -6.8740    -1.9330     1.0260 H     1 <1>   0.0730 
 32 H       -5.4540    -2.2300     1.9820 H     1 <1>   0.0730 
 33 H       -3.2390     0.2560     0.3080 H     1 <1>   0.0730 
 34 H       -3.3070    -0.9470     1.5570 H     1 <1>   0.0730 
 35 H       -5.6070    -1.0240    -2.8170 H     1 <1>   0.0730 
 36 H       -5.7740    -3.9850     0.2700 H     1 <1>   0.0730 
 37 H       -2.1490    -1.8280    -0.4320 H     1 <1>   0.0730 
 38 H       -5.5600    -3.3970    -2.1230 H     1 <1>   0.0730 
 39 H       -6.9310    -2.5930    -1.4260 H     1 <1>   0.0730 
 40 H       -3.2980    -0.4410    -2.1310 H     1 <1>   0.0730 
 41 H       -3.4100    -2.1240    -2.5430 H     1 <1>   0.0730 
 42 H       -3.5100    -3.8780    -0.7160 H     1 <1>   0.0730 
 43 H       -3.4660    -3.4010     0.9530 H     1 <1>   0.0730 
 44 H       -6.9370     5.1220     0.0560 H     1 <1>   0.4450 
 45 H       -5.3030     2.8190     2.2460 H     1 <1>   0.4450 
 46 H       -9.4280     0.3920    -0.2250 H     1 <1>   0.1430 
 47 H       -4.5870     4.8400     3.0260 H     1 <1>   0.0730 
 48 H       -6.0070     5.6370     2.4250 H     1 <1>   0.0730 
 49 H       -9.2630     5.1110    -1.7370 H     1 <1>   0.1430 
 50 H      -11.0060     1.2100    -1.9330 H     1 <1>   0.1430 
 51 H       -3.6020     4.8870     0.7140 H     1 <1>   0.0730 
 52 H       -3.9350     6.4870     1.3520 H     1 <1>   0.0730 
 53 H      -10.9310     3.5380    -2.6880 H     1 <1>   0.1430 
 54 H       -4.6590     6.3040    -0.7690 H     1 <1>   0.3950 
@<TRIPOS>BOND
  1   1   2  2   
  2   2   3  1   
  3   2   4  1   
  4   3   5  1   
  5   3   6  1   
  6   3   7  1   
  7   4   8  1   
  8   4  27  1   
  9   4  28  1   
 10   5   9  1   
 11   5  29  1   
 12   5  30  1   
 13   6  10  1   
 14   6  31  1   
 15   6  32  1   
 16   7  11  1   
 17   7  33  1   
 18   7  34  1   
 19   8  12  ar  
 20   8  13  1   
 21   9  14  1   
 22   9  15  1   
 23   9  35  1   
 24  10  14  1   
 25  10  16  1   
 26  10  36  1   
 27  11  15  1   
 28  11  16  1   
 29  11  37  1   
 30  12  17  ar  
 31  12  18  ar  
 32  13  19  ar  
 33  13  20  ar  
 34  14  38  1   
 35  14  39  1   
 36  15  40  1   
 37  15  41  1   
 38  16  42  1   
 39  16  43  1   
 40  17  19  1   
 41  17  44  1   
 42  18  21  1   
 43  18  45  1   
 44  19  22  ar  
 45  20  23  ar  
 46  20  46  1   
 47  21  24  1   
 48  21  47  1   
 49  21  48  1   
 50  22  25  ar  
 51  22  49  1   
 52  23  25  ar  
 53  23  50  1   
 54  24  26  1   
 55  24  51  1   
 56  24  52  1   
 57  25  53  1   
 58  26  54  1   
@<TRIPOS>SUBSTRUCTURE
  1 ****   8 GROUP 4 **** **** 0

# MOE 2024.06 (io_trps.svl 2023.06)
