@<TRIPOS>MOLECULE
NONAME
42 45 1 0 0 
SMALL
USER_CHARGES


@<TRIPOS>ATOM
  1 O        5.3370    -1.9610     1.0210 O.2   1 <1>  -0.5700 
  2 C        4.7490    -2.9870     0.7350 C.2   1 <1>   0.8060 
  3 O        5.4890    -4.0800     0.5020 O.3   1 <1>  -0.2320 
  4 C        3.3240    -3.1320     0.6250 C.2   1 <1>   0.1410 
  5 C        4.9610    -5.2870     0.1690 C.ar  1 <1>   0.0830 
  6 N        2.3630    -2.2090     0.8070 N.2   1 <1>  -0.2270 
  7 C        2.7490    -4.3170     0.3010 C.2   1 <1>  -0.2050 
  8 C        3.5730    -5.4690     0.0500 C.ar  1 <1>   0.0530 
  9 C        5.8400    -6.3360    -0.0500 C.ar  1 <1>  -0.1500 
 10 N        1.2290    -2.7720     0.6130 N.2   1 <1>  -0.4180 
 11 N        1.4320    -4.0600     0.3030 N.pl3 1 <1>   0.3140 
 12 C        3.1130    -6.7400    -0.3000 C.ar  1 <1>  -0.1500 
 13 C        5.3580    -7.5840    -0.3930 C.ar  1 <1>  -0.1500 
 14 C        0.3040    -4.9880     0.0280 C.3   1 <1>   0.0960 
 15 C        3.9930    -7.7830    -0.5180 C.ar  1 <1>  -0.1500 
 16 C       -1.0720    -4.3070     0.1820 C.3   1 <1>  -0.1600 
 17 C       -2.2260    -5.2670    -0.1030 C.3   1 <1>   0.3430 
 18 N       -3.5280    -4.6020     0.1840 N.4   1 <1>  -0.9590 
 19 C       -4.6520    -5.6050     0.2100 C.3   1 <1>   0.3430 
 20 C       -3.8510    -3.4930    -0.7900 C.3   1 <1>   0.3430 
 21 C       -6.0190    -4.9240     0.4130 C.3   1 <1>   0.1200 
 22 C       -5.2550    -2.9100    -0.5440 C.3   1 <1>   0.1200 
 23 O       -6.2100    -3.9310    -0.5520 O.3   1 <1>  -0.5600 
 24 H        6.8990    -6.1720     0.0490 H     1 <1>   0.1500 
 25 H        2.0670    -6.9350    -0.4080 H     1 <1>   0.1500 
 26 H        6.0410    -8.4000    -0.5630 H     1 <1>   0.1500 
 27 H        0.3820    -5.8110     0.7150 H     1 <1>   0.0800 
 28 H        0.4210    -5.3560    -0.9760 H     1 <1>   0.0800 
 29 H        3.6240    -8.7580    -0.7870 H     1 <1>   0.1500 
 30 H       -1.1160    -3.4780    -0.5040 H     1 <1>   0.0800 
 31 H       -1.1600    -3.9390     1.1900 H     1 <1>   0.0800 
 32 H       -2.1220    -6.1360     0.5270 H     1 <1>   0.0800 
 33 H       -2.1950    -5.5900    -1.1320 H     1 <1>   0.0800 
 34 H       -3.4800    -4.1770     1.1210 H     1 <1>   0.4500 
 35 H       -4.4920    -6.3200     1.0000 H     1 <1>   0.0800 
 36 H       -4.6810    -6.1440    -0.7230 H     1 <1>   0.0800 
 37 H       -3.8150    -3.8720    -1.7980 H     1 <1>   0.0800 
 38 H       -3.1240    -2.7020    -0.7070 H     1 <1>   0.0800 
 39 H       -6.0960    -4.4800     1.3900 H     1 <1>   0.0800 
 40 H       -6.8120    -5.6430     0.3010 H     1 <1>   0.0800 
 41 H       -5.5120    -2.2180    -1.3270 H     1 <1>   0.0800 
 42 H       -5.3050    -2.3930     0.3990 H     1 <1>   0.0800 
@<TRIPOS>BOND
  1   1   2  2   
  2   2   3  1   
  3   2   4  1   
  4   3   5  1   
  5   4   6  1   
  6   4   7  2   
  7   5   8  ar  
  8   5   9  ar  
  9   6  10  2   
 10   7   8  1   
 11   7  11  1   
 12   8  12  ar  
 13   9  13  ar  
 14   9  24  1   
 15  10  11  1   
 16  11  14  1   
 17  12  15  ar  
 18  12  25  1   
 19  13  15  ar  
 20  13  26  1   
 21  14  16  1   
 22  14  27  1   
 23  14  28  1   
 24  15  29  1   
 25  16  17  1   
 26  16  30  1   
 27  16  31  1   
 28  17  18  1   
 29  17  32  1   
 30  17  33  1   
 31  18  19  1   
 32  18  20  1   
 33  18  34  1   
 34  19  21  1   
 35  19  35  1   
 36  19  36  1   
 37  20  22  1   
 38  20  37  1   
 39  20  38  1   
 40  21  23  1   
 41  21  39  1   
 42  21  40  1   
 43  22  23  1   
 44  22  41  1   
 45  22  42  1   
@<TRIPOS>SUBSTRUCTURE
  1 ****  11 GROUP 4 **** **** 0

# MOE 2024.06 (io_trps.svl 2023.06)
