@<TRIPOS>MOLECULE
NONAME
54 55 1 0 0 
SMALL
USER_CHARGES


@<TRIPOS>ATOM
  1 O       -0.7500    -2.8280    -0.4770 O.3   1 <1>  -0.3630 
  2 C       -2.0110    -2.3660    -0.2880 C.ar  1 <1>   0.0830 
  3 C        0.3510    -1.9470    -0.5420 C.3   1 <1>   0.1200 
  4 C       -2.3310    -1.0240    -0.1200 C.ar  1 <1>  -0.1500 
  5 C       -3.0250    -3.3060    -0.2650 C.ar  1 <1>  -0.1500 
  6 C        1.6210    -2.7810    -0.7550 C.3   1 <1>   0.2000 
  7 C       -3.6480    -0.6460     0.0680 C.ar  1 <1>  -0.1500 
  8 C       -4.3400    -2.9200    -0.0760 C.ar  1 <1>  -0.1500 
  9 O        1.6610    -3.8000     0.2000 O.3   1 <1>  -0.6800 
 10 C        2.9130    -1.9470    -0.6350 C.3   1 <1>   0.3430 
 11 C       -4.6800    -1.5800     0.0940 C.ar  1 <1>  -0.1440 
 12 N        4.0520    -2.8490    -0.3030 N.4   1 <1>  -0.9060 
 13 C       -6.1330    -1.1010     0.3080 C.3   1 <1>   0.1430 
 14 C        5.1810    -2.2580     0.4170 C.3   1 <1>   0.5660 
 15 C       -6.5270    -0.1360    -0.8210 C.3   1 <1>  -0.2400 
 16 C       -6.2430    -0.3770     1.6590 C.3   1 <1>  -0.2400 
 17 C       -7.1560    -2.2500     0.3140 C.3   1 <1>  -0.2400 
 18 C        6.3260    -3.2480     0.3060 C.ar  1 <1>  -0.1430 
 19 C        4.7870    -1.9850     1.8650 C.3   1 <1>  -0.2400 
 20 C        6.2570    -4.5180     0.8680 C.ar  1 <1>  -0.1500 
 21 C        7.4690    -2.8800    -0.3910 C.ar  1 <1>  -0.1500 
 22 C        7.3130    -5.4020     0.7310 C.ar  1 <1>  -0.1500 
 23 C        8.5240    -3.7650    -0.5260 C.ar  1 <1>  -0.1500 
 24 C        8.4460    -5.0270     0.0330 C.ar  1 <1>  -0.1500 
 25 H        0.4020    -1.4000     0.3830 H     1 <1>   0.0800 
 26 H        0.1940    -1.2690    -1.3640 H     1 <1>   0.0800 
 27 H       -1.5810    -0.2580    -0.1310 H     1 <1>   0.1500 
 28 H       -2.7860    -4.3450    -0.3960 H     1 <1>   0.1500 
 29 H        1.5770    -3.2430    -1.7260 H     1 <1>   0.0800 
 30 H       -3.8650     0.3990     0.1950 H     1 <1>   0.1500 
 31 H       -5.0850    -3.6930    -0.0670 H     1 <1>   0.1500 
 32 H        0.7520    -4.1780     0.2840 H     1 <1>   0.4000 
 33 H        2.7760    -1.2310     0.1580 H     1 <1>   0.0800 
 34 H        3.1010    -1.4060    -1.5480 H     1 <1>   0.0800 
 35 H        4.4170    -3.3360    -1.1270 H     1 <1>   0.4500 
 36 H        3.6390    -3.5920     0.2860 H     1 <1>   0.4500 
 37 H        5.4750    -1.3350    -0.0580 H     1 <1>   0.0800 
 38 H       -6.4190    -0.6240    -1.7740 H     1 <1>   0.0800 
 39 H       -5.9060     0.7400    -0.8190 H     1 <1>   0.0800 
 40 H       -7.5490     0.1800    -0.7120 H     1 <1>   0.0800 
 41 H       -5.6190     0.4970     1.6830 H     1 <1>   0.0800 
 42 H       -5.9350    -1.0340     2.4520 H     1 <1>   0.0800 
 43 H       -7.2570    -0.0690     1.8430 H     1 <1>   0.0800 
 44 H       -7.1400    -2.7740    -0.6250 H     1 <1>   0.0800 
 45 H       -8.1510    -1.8710     0.4650 H     1 <1>   0.0800 
 46 H       -6.9400    -2.9430     1.1070 H     1 <1>   0.0800 
 47 H        4.4110    -2.8700     2.3460 H     1 <1>   0.0800 
 48 H        4.0490    -1.2060     1.9240 H     1 <1>   0.0800 
 49 H        5.6550    -1.6550     2.4080 H     1 <1>   0.0800 
 50 H        5.3930    -4.8420     1.4220 H     1 <1>   0.1500 
 51 H        7.5600    -1.9030    -0.8350 H     1 <1>   0.1500 
 52 H        7.2580    -6.3850     1.1690 H     1 <1>   0.1500 
 53 H        9.4100    -3.4750    -1.0660 H     1 <1>   0.1500 
 54 H        9.2670    -5.7150    -0.0720 H     1 <1>   0.1500 
@<TRIPOS>BOND
  1   1   2  1   
  2   1   3  1   
  3   2   4  ar  
  4   2   5  ar  
  5   3   6  1   
  6   3  25  1   
  7   3  26  1   
  8   4   7  ar  
  9   4  27  1   
 10   5   8  ar  
 11   5  28  1   
 12   6   9  1   
 13   6  10  1   
 14   6  29  1   
 15   7  11  ar  
 16   7  30  1   
 17   8  11  ar  
 18   8  31  1   
 19   9  32  1   
 20  10  12  1   
 21  10  33  1   
 22  10  34  1   
 23  11  13  1   
 24  12  14  1   
 25  12  35  1   
 26  12  36  1   
 27  13  15  1   
 28  13  16  1   
 29  13  17  1   
 30  14  18  1   
 31  14  19  1   
 32  14  37  1   
 33  15  38  1   
 34  15  39  1   
 35  15  40  1   
 36  16  41  1   
 37  16  42  1   
 38  16  43  1   
 39  17  44  1   
 40  17  45  1   
 41  17  46  1   
 42  18  20  ar  
 43  18  21  ar  
 44  19  47  1   
 45  19  48  1   
 46  19  49  1   
 47  20  22  ar  
 48  20  50  1   
 49  21  23  ar  
 50  21  51  1   
 51  22  24  ar  
 52  22  52  1   
 53  23  24  ar  
 54  23  53  1   
 55  24  54  1   
@<TRIPOS>SUBSTRUCTURE
  1 ****   3 GROUP 4 **** **** 0

# MOE 2024.06 (io_trps.svl 2023.06)
