@<TRIPOS>MOLECULE
NONAME
43 45 1 0 0 
SMALL
USER_CHARGES


@<TRIPOS>ATOM
  1 O       -0.4090    -0.1630    -0.6360 O.3   1 <1>  -0.1650 
  2 C       -1.2780     0.8760    -0.5910 C.ar  1 <1>   0.0830 
  3 C       -0.8750    -1.4320    -0.5440 C.ar  1 <1>   0.0830 
  4 C       -2.3720     0.8630     0.2660 C.ar  1 <1>  -0.1500 
  5 C       -1.0590     1.9650    -1.4160 C.ar  1 <1>  -0.1500 
  6 C       -1.9310    -1.8660    -1.3380 C.ar  1 <1>  -0.1500 
  7 C       -0.2800    -2.3000     0.3570 C.ar  1 <1>  -0.1500 
  8 C       -3.2640     1.9240     0.2770 C.ar  1 <1>  -0.1430 
  9 C       -1.9410     3.0310    -1.4000 C.ar  1 <1>  -0.1500 
 10 C       -2.4010    -3.1610    -1.2110 C.ar  1 <1>  -0.1500 
 11 C       -0.7530    -3.5950     0.4830 C.ar  1 <1>  -0.1500 
 12 C       -3.0410     3.0110    -0.5590 C.ar  1 <1>  -0.1500 
 13 C       -4.4710     1.8910     1.1920 C.3   1 <1>   0.4860 
 14 C       -1.8150    -4.0230    -0.2980 C.ar  1 <1>  -0.1500 
 15 N       -5.6460     1.4220     0.4050 N.4   1 <1>  -0.9590 
 16 C       -6.9210     1.6720     1.1390 C.3   1 <1>   0.3430 
 17 C       -5.4900    -0.0070    -0.0120 C.3   1 <1>   0.3430 
 18 C       -8.1100     1.2850     0.2630 C.3   1 <1>  -0.1600 
 19 C       -6.6600    -0.4210    -0.9000 C.3   1 <1>  -0.1600 
 20 C       -7.9820    -0.1690    -0.1820 C.3   1 <1>   0.2000 
 21 O       -9.0130    -0.4570    -1.0420 O.3   1 <1>  -0.6800 
 22 H       -2.5080     0.0200     0.9210 H     1 <1>   0.1500 
 23 H       -0.2020     1.9730    -2.0670 H     1 <1>   0.1500 
 24 H       -2.3690    -1.1980    -2.0570 H     1 <1>   0.1500 
 25 H        0.5470    -1.9610     0.9560 H     1 <1>   0.1500 
 26 H       -1.7650     3.8780    -2.0430 H     1 <1>   0.1500 
 27 H       -3.2140    -3.5070    -1.8270 H     1 <1>   0.1500 
 28 H       -0.2940    -4.2700     1.1840 H     1 <1>   0.1500 
 29 H       -3.7090     3.8560    -0.5640 H     1 <1>   0.1500 
 30 H       -4.6500     2.8830     1.5740 H     1 <1>   0.0800 
 31 H       -4.2880     1.2310     2.0250 H     1 <1>   0.0800 
 32 H       -2.1780    -5.0320    -0.2010 H     1 <1>   0.1500 
 33 H       -5.6470     1.9840    -0.4560 H     1 <1>   0.4500 
 34 H       -6.9990     2.7150     1.4050 H     1 <1>   0.0800 
 35 H       -6.9410     1.0890     2.0460 H     1 <1>   0.0800 
 36 H       -5.4590    -0.6420     0.8600 H     1 <1>   0.0800 
 37 H       -4.5690    -0.1390    -0.5580 H     1 <1>   0.0800 
 38 H       -8.1560     1.9420    -0.5870 H     1 <1>   0.0800 
 39 H       -9.0160     1.4020     0.8320 H     1 <1>   0.0800 
 40 H       -6.5720    -1.4700    -1.1250 H     1 <1>   0.0800 
 41 H       -6.6160     0.1270    -1.8240 H     1 <1>   0.0800 
 42 H       -8.0790    -0.8290     0.6650 H     1 <1>   0.0800 
 43 H       -8.9910     0.0990    -1.8440 H     1 <1>   0.4000 
@<TRIPOS>BOND
  1   1   2  1   
  2   1   3  1   
  3   2   4  ar  
  4   2   5  ar  
  5   3   6  ar  
  6   3   7  ar  
  7   4   8  ar  
  8   4  22  1   
  9   5   9  ar  
 10   5  23  1   
 11   6  10  ar  
 12   6  24  1   
 13   7  11  ar  
 14   7  25  1   
 15   8  12  ar  
 16   8  13  1   
 17   9  12  ar  
 18   9  26  1   
 19  10  14  ar  
 20  10  27  1   
 21  11  14  ar  
 22  11  28  1   
 23  12  29  1   
 24  13  15  1   
 25  13  30  1   
 26  13  31  1   
 27  14  32  1   
 28  15  16  1   
 29  15  17  1   
 30  15  33  1   
 31  16  18  1   
 32  16  34  1   
 33  16  35  1   
 34  17  19  1   
 35  17  36  1   
 36  17  37  1   
 37  18  20  1   
 38  18  38  1   
 39  18  39  1   
 40  19  20  1   
 41  19  40  1   
 42  19  41  1   
 43  20  21  1   
 44  20  42  1   
 45  21  43  1   
@<TRIPOS>SUBSTRUCTURE
  1 ****   4 GROUP 4 **** **** 0

# MOE 2024.06 (io_trps.svl 2023.06)
