@<TRIPOS>MOLECULE
NONAME
45 47 1 0 0 
SMALL
USER_CHARGES


@<TRIPOS>ATOM
  1 CL      -4.2940     5.2940    -1.5690 Cl    1 <1>  -0.1770 
  2 C       -2.7170     4.6980    -1.0930 C.ar  1 <1>   0.1770 
  3 C       -2.6090     3.8410    -0.0010 C.ar  1 <1>   0.1170 
  4 C       -1.6140     5.0900    -1.8230 C.ar  1 <1>  -0.1500 
  5 N       -3.7600     3.4740     0.7150 N.am  1 <1>  -0.5470 
  6 C       -1.3380     3.3880     0.3410 C.ar  1 <1>  -0.1500 
  7 C       -0.3600     4.6250    -1.4650 C.ar  1 <1>  -0.1500 
  8 C       -4.0600     2.3920     1.4890 C.2   1 <1>   0.5690 
  9 C       -0.2070     3.7690    -0.3760 C.ar  1 <1>  -0.1440 
 10 O       -3.2800     1.5060     1.7430 O.2   1 <1>  -0.5700 
 11 C       -5.4860     2.3240     2.0400 C.3   1 <1>   0.1710 
 12 C        1.1850     3.2460     0.0250 C.3   1 <1>   1.1640 
 13 N       -6.4540     3.1880     1.2990 N.3   1 <1>  -0.8100 
 14 F        1.4670     2.0890    -0.5570 F     1 <1>  -0.3400 
 15 F        2.1610     4.0800    -0.3140 F     1 <1>  -0.3400 
 16 F        1.3080     3.0500     1.3320 F     1 <1>  -0.3400 
 17 C       -7.6790     3.4180     2.1020 C.3   1 <1>   0.1100 
 18 C       -6.8280     2.5870    -0.0080 C.3   1 <1>   0.1100 
 19 C       -8.7050     4.2980     1.3630 C.3   1 <1>   0.2090 
 20 C       -7.8370     3.4570    -0.7840 C.3   1 <1>   0.2090 
 21 N       -9.0550     3.7130     0.0340 N.pl3 1 <1>  -0.8380 
 22 C      -10.1540     4.2200    -0.6320 C.ar  1 <1>   0.4100 
 23 N      -10.4670     5.4940    -0.4230 N.ar  1 <1>  -0.6200 
 24 C      -10.8740     3.3910    -1.4890 C.ar  1 <1>  -0.1500 
 25 C      -11.5150     5.9490    -1.0880 C.ar  1 <1>   0.1600 
 26 C      -11.9620     3.8770    -2.1750 C.ar  1 <1>  -0.1500 
 27 C      -12.2840     5.2010    -1.9620 C.ar  1 <1>  -0.1500 
 28 H       -1.7360     5.7520    -2.6630 H     1 <1>   0.1500 
 29 H       -4.5960     4.0510     0.5520 H     1 <1>   0.3700 
 30 H       -1.2350     2.7270     1.1850 H     1 <1>   0.1500 
 31 H        0.4970     4.9350    -2.0440 H     1 <1>   0.1500 
 32 H       -5.4380     2.6430     3.0660 H     1 <1>   0.0800 
 33 H       -5.8190     1.3010     2.0290 H     1 <1>   0.0800 
 34 H       -7.4150     3.9040     3.0250 H     1 <1>   0.0800 
 35 H       -8.1440     2.4770     2.3390 H     1 <1>   0.0800 
 36 H       -7.2670     1.6170     0.1490 H     1 <1>   0.0800 
 37 H       -5.9490     2.4600    -0.6160 H     1 <1>   0.0800 
 38 H       -8.2960     5.2840     1.2230 H     1 <1>   0.0800 
 39 H       -9.5980     4.3890     1.9570 H     1 <1>   0.0800 
 40 H       -8.1110     2.9590    -1.6970 H     1 <1>   0.0800 
 41 H       -7.3780     4.3960    -1.0410 H     1 <1>   0.0800 
 42 H      -10.5660     2.3690    -1.5960 H     1 <1>   0.1500 
 43 H      -11.7760     6.9810    -0.9280 H     1 <1>   0.1500 
 44 H      -12.5350     3.2570    -2.8430 H     1 <1>   0.1500 
 45 H      -13.1220     5.6480    -2.4650 H     1 <1>   0.1500 
@<TRIPOS>BOND
  1   1   2  1   
  2   2   3  ar  
  3   2   4  ar  
  4   3   5  1   
  5   3   6  ar  
  6   4   7  ar  
  7   4  28  1   
  8   5   8  am  
  9   5  29  1   
 10   6   9  ar  
 11   6  30  1   
 12   7   9  ar  
 13   7  31  1   
 14   8  10  2   
 15   8  11  1   
 16   9  12  1   
 17  11  13  1   
 18  11  32  1   
 19  11  33  1   
 20  12  14  1   
 21  12  15  1   
 22  12  16  1   
 23  13  17  1   
 24  13  18  1   
 25  17  19  1   
 26  17  34  1   
 27  17  35  1   
 28  18  20  1   
 29  18  36  1   
 30  18  37  1   
 31  19  21  1   
 32  19  38  1   
 33  19  39  1   
 34  20  21  1   
 35  20  40  1   
 36  20  41  1   
 37  21  22  1   
 38  22  23  ar  
 39  22  24  ar  
 40  23  25  ar  
 41  24  26  ar  
 42  24  42  1   
 43  25  27  ar  
 44  25  43  1   
 45  26  27  ar  
 46  26  44  1   
 47  27  45  1   
@<TRIPOS>SUBSTRUCTURE
  1 ****   5 GROUP 4 **** **** 0

# MOE 2024.06 (io_trps.svl 2023.06)
