@<TRIPOS>MOLECULE
NONAME
38 38 1 0 0 
SMALL
USER_CHARGES


@<TRIPOS>ATOM
  1 CL       0.9230     0.5810    -0.9560 Cl    1 <1>  -0.1770 
  2 C        0.3660     2.2350    -0.9240 C.ar  1 <1>   0.1770 
  3 C       -0.9380     2.5070    -0.5680 C.ar  1 <1>  -0.1500 
  4 C        1.2460     3.2470    -1.2530 C.ar  1 <1>  -0.1500 
  5 C       -1.3930     3.8210    -0.5360 C.ar  1 <1>   0.1170 
  6 C        0.8040     4.5570    -1.2220 C.ar  1 <1>  -0.1500 
  7 N       -2.7090     4.1290    -0.1580 N.am  1 <1>  -0.5470 
  8 C       -0.5050     4.8510    -0.8670 C.ar  1 <1>  -0.1430 
  9 C       -3.8630     3.4160    -0.2880 C.2   1 <1>   0.6900 
 10 C       -0.9490     6.3090    -0.8540 C.3   1 <1>  -0.0960 
 11 O       -3.8940     2.3720    -0.9050 O.2   1 <1>  -0.5700 
 12 N       -4.9700     3.9420     0.2860 N.am  1 <1>  -0.7300 
 13 C       -6.3460     3.4350     0.3550 C.3   1 <1>   0.5000 
 14 C       -6.9270     4.1990     1.5010 C.1   1 <1>  -0.2000 
 15 C       -7.1260     3.8380    -0.9190 C.3   1 <1>  -0.1600 
 16 C       -6.3910     1.9210     0.6840 C.3   1 <1>  -0.1600 
 17 C       -7.3840     4.8120     2.4140 C.1   1 <1>  -0.1770 
 18 C       -6.6730     3.1970    -2.2430 C.3   1 <1>  -0.2400 
 19 C       -7.7900     1.3360     0.9630 C.3   1 <1>  -0.2400 
 20 H       -1.5910     1.6940    -0.3150 H     1 <1>   0.1500 
 21 H        2.2580     3.0080    -1.5270 H     1 <1>   0.1500 
 22 H        1.4910     5.3460    -1.4790 H     1 <1>   0.1500 
 23 H       -2.8500     5.0870     0.1390 H     1 <1>   0.3700 
 24 H       -1.8070     6.4390    -1.4900 H     1 <1>   0.0800 
 25 H       -0.1670     6.9540    -1.2150 H     1 <1>   0.0800 
 26 H       -1.1990     6.6110     0.1470 H     1 <1>   0.0800 
 27 H       -4.8530     4.7230     0.9210 H     1 <1>   0.3700 
 28 H       -7.0740     4.9070    -1.0260 H     1 <1>   0.0800 
 29 H       -8.1630     3.5970    -0.7720 H     1 <1>   0.0800 
 30 H       -5.7740     1.7440     1.5480 H     1 <1>   0.0800 
 31 H       -5.9710     1.3610    -0.1290 H     1 <1>   0.0800 
 32 H       -7.8040     5.3590     3.2400 H     1 <1>   0.1770 
 33 H       -5.6680     3.4940    -2.4860 H     1 <1>   0.0800 
 34 H       -7.3170     3.5160    -3.0430 H     1 <1>   0.0800 
 35 H       -6.7100     2.1240    -2.1870 H     1 <1>   0.0800 
 36 H       -8.2560     1.8250     1.8000 H     1 <1>   0.0800 
 37 H       -7.7030     0.2890     1.1930 H     1 <1>   0.0800 
 38 H       -8.4250     1.4360     0.1010 H     1 <1>   0.0800 
@<TRIPOS>BOND
  1   1   2  1   
  2   2   3  ar  
  3   2   4  ar  
  4   3   5  ar  
  5   3  20  1   
  6   4   6  ar  
  7   4  21  1   
  8   5   7  1   
  9   5   8  ar  
 10   6   8  ar  
 11   6  22  1   
 12   7   9  am  
 13   7  23  1   
 14   8  10  1   
 15   9  11  2   
 16   9  12  am  
 17  10  24  1   
 18  10  25  1   
 19  10  26  1   
 20  12  13  1   
 21  12  27  1   
 22  13  14  1   
 23  13  15  1   
 24  13  16  1   
 25  14  17  3   
 26  15  18  1   
 27  15  28  1   
 28  15  29  1   
 29  16  19  1   
 30  16  30  1   
 31  16  31  1   
 32  17  32  1   
 33  18  33  1   
 34  18  34  1   
 35  18  35  1   
 36  19  36  1   
 37  19  37  1   
 38  19  38  1   
@<TRIPOS>SUBSTRUCTURE
  1 ****   9 GROUP 4 **** **** 0

# MOE 2024.06 (io_trps.svl 2023.06)
