@<TRIPOS>MOLECULE
NONAME
31 32 1 0 0 
SMALL
USER_CHARGES


@<TRIPOS>ATOM
  1 S       -0.0780    -0.0160     0.0540 S.o2  1 <1>   1.4470 
  2 O       -0.7350    -0.5460    -1.1230 O.2   1 <1>  -0.6500 
  3 O       -0.3830    -0.5820     1.3500 O.2   1 <1>  -0.6500 
  4 N       -0.4730     1.6290     0.1410 N.am  1 <1>  -0.8490 
  5 C        1.7200     0.0120    -0.1850 C.ar  1 <1>  -0.0090 
  6 C       -1.8240     1.8590     0.6160 C.3   1 <1>   0.1960 
  7 C       -0.3760     2.3450    -1.1190 C.3   1 <1>   0.1960 
  8 C        2.3150    -0.6030    -1.2830 C.ar  1 <1>  -0.1500 
  9 C        2.5470     0.6590     0.7290 C.ar  1 <1>  -0.1500 
 10 C       -2.1180     3.3100     0.2510 C.3   1 <1>  -0.1600 
 11 C       -1.1300     3.6440    -0.8670 C.3   1 <1>  -0.1600 
 12 C        3.6870    -0.5710    -1.4650 C.ar  1 <1>  -0.1500 
 13 C        3.9210     0.6990     0.5600 C.ar  1 <1>  -0.1500 
 14 C        4.4830     0.0800    -0.5430 C.ar  1 <1>   0.1010 
 15 S        6.2580     0.0810    -0.8470 S.3   1 <1>  -0.3310 
 16 C        7.0390     0.9920     0.5570 C.3   1 <1>  -0.0100 
 17 H       -1.8940     1.6860     1.6780 H     1 <1>   0.0800 
 18 H       -2.5100     1.2050     0.1010 H     1 <1>   0.0800 
 19 H       -0.8680     1.7930    -1.9050 H     1 <1>   0.0800 
 20 H        0.6520     2.5220    -1.3900 H     1 <1>   0.0800 
 21 H        1.6970    -1.1130    -2.0040 H     1 <1>   0.1500 
 22 H        2.1010     1.1380     1.5860 H     1 <1>   0.1500 
 23 H       -1.9450     3.9420     1.1050 H     1 <1>   0.0800 
 24 H       -3.1400     3.4200    -0.0650 H     1 <1>   0.0800 
 25 H       -1.6250     3.9810    -1.7610 H     1 <1>   0.0800 
 26 H       -0.4410     4.4020    -0.5400 H     1 <1>   0.0800 
 27 H        4.1400    -1.0490    -2.3160 H     1 <1>   0.1500 
 28 H        4.5260     1.2070     1.2850 H     1 <1>   0.1500 
 29 H        8.1010     0.9920     0.3920 H     1 <1>   0.0800 
 30 H        6.7940     0.4740     1.4660 H     1 <1>   0.0800 
 31 H        6.6530     1.9960     0.5580 H     1 <1>   0.0800 
@<TRIPOS>BOND
  1   1   2  2   
  2   1   3  2   
  3   1   4  am  
  4   1   5  1   
  5   4   6  1   
  6   4   7  1   
  7   5   8  ar  
  8   5   9  ar  
  9   6  10  1   
 10   6  17  1   
 11   6  18  1   
 12   7  11  1   
 13   7  19  1   
 14   7  20  1   
 15   8  12  ar  
 16   8  21  1   
 17   9  13  ar  
 18   9  22  1   
 19  10  11  1   
 20  10  23  1   
 21  10  24  1   
 22  11  25  1   
 23  11  26  1   
 24  12  14  ar  
 25  12  27  1   
 26  13  14  ar  
 27  13  28  1   
 28  14  15  1   
 29  15  16  1   
 30  16  29  1   
 31  16  30  1   
 32  16  31  1   
@<TRIPOS>SUBSTRUCTURE
  1 ****   5 GROUP 4 **** **** 0

# MOE 2024.06 (io_trps.svl 2023.06)
