@<TRIPOS>MOLECULE
NONAME
39 40 1 0 0 
SMALL
USER_CHARGES


@<TRIPOS>ATOM
  1 O        3.9580    -4.5720    -0.1240 O.3   1 <1>  -0.5600 
  2 C        2.6310    -4.5110     0.2550 C.3   1 <1>   0.2000 
  3 C        4.4640    -5.8590     0.0600 C.3   1 <1>   0.1200 
  4 C        2.0680    -5.8700    -0.1460 C.3   1 <1>  -0.1600 
  5 C        1.9980    -3.3000    -0.4490 C.3   1 <1>   0.3430 
  6 C        3.2570    -6.7950     0.0580 C.3   1 <1>  -0.1600 
  7 N        0.5250    -3.2110    -0.2150 N.4   1 <1>  -0.9060 
  8 C       -0.1100    -2.0760    -0.9120 C.3   1 <1>   0.4860 
  9 C       -1.5780    -2.1450    -0.5690 C.ar  1 <1>  -0.1430 
 10 C       -2.4580    -2.8440    -1.3850 C.ar  1 <1>  -0.1500 
 11 C       -2.0560    -1.5200     0.5750 C.ar  1 <1>  -0.1500 
 12 C       -3.8000    -2.9280    -1.0570 C.ar  1 <1>  -0.1500 
 13 C       -3.3970    -1.6060     0.9020 C.ar  1 <1>  -0.1500 
 14 C       -4.2760    -2.3080     0.0950 C.ar  1 <1>   0.0820 
 15 O       -5.5700    -2.3420     0.4940 O.3   1 <1>  -0.3620 
 16 C       -6.5680    -2.9640    -0.2820 C.3   1 <1>   0.1200 
 17 C       -7.9030    -2.7840     0.4350 C.3   1 <1>  -0.2400 
 18 H        2.6140    -4.3890     1.3260 H     1 <1>   0.0800 
 19 H        4.9860    -5.8900     1.0020 H     1 <1>   0.0800 
 20 H        5.1460    -6.0760    -0.7440 H     1 <1>   0.0800 
 21 H        1.7890    -5.8670    -1.1850 H     1 <1>   0.0800 
 22 H        1.2250    -6.1600     0.4560 H     1 <1>   0.0800 
 23 H        2.1910    -3.3900    -1.5050 H     1 <1>   0.0800 
 24 H        2.4810    -2.4060    -0.0890 H     1 <1>   0.0800 
 25 H        3.1970    -7.3040     1.0050 H     1 <1>   0.0800 
 26 H        3.3350    -7.5310    -0.7240 H     1 <1>   0.0800 
 27 H        0.3130    -3.1210     0.7860 H     1 <1>   0.4500 
 28 H        0.0560    -4.0700    -0.5260 H     1 <1>   0.4500 
 29 H        0.0270    -2.1580    -1.9790 H     1 <1>   0.0800 
 30 H        0.3060    -1.1400    -0.5750 H     1 <1>   0.0800 
 31 H       -2.1170    -3.3280    -2.2850 H     1 <1>   0.1500 
 32 H       -1.4040    -0.9590     1.2230 H     1 <1>   0.1500 
 33 H       -4.4610    -3.4740    -1.7040 H     1 <1>   0.1500 
 34 H       -3.7780    -1.1260     1.7860 H     1 <1>   0.1500 
 35 H       -6.3270    -4.0080    -0.3780 H     1 <1>   0.0800 
 36 H       -6.5910    -2.4930    -1.2500 H     1 <1>   0.0800 
 37 H       -7.8640    -3.2420     1.4070 H     1 <1>   0.0800 
 38 H       -8.6880    -3.2490    -0.1330 H     1 <1>   0.0800 
 39 H       -8.1280    -1.7380     0.5400 H     1 <1>   0.0800 
@<TRIPOS>BOND
  1   1   2  1   
  2   1   3  1   
  3   2   4  1   
  4   2   5  1   
  5   2  18  1   
  6   3   6  1   
  7   3  19  1   
  8   3  20  1   
  9   4   6  1   
 10   4  21  1   
 11   4  22  1   
 12   5   7  1   
 13   5  23  1   
 14   5  24  1   
 15   6  25  1   
 16   6  26  1   
 17   7   8  1   
 18   7  27  1   
 19   7  28  1   
 20   8   9  1   
 21   8  29  1   
 22   8  30  1   
 23   9  10  ar  
 24   9  11  ar  
 25  10  12  ar  
 26  10  31  1   
 27  11  13  ar  
 28  11  32  1   
 29  12  14  ar  
 30  12  33  1   
 31  13  14  ar  
 32  13  34  1   
 33  14  15  1   
 34  15  16  1   
 35  16  17  1   
 36  16  35  1   
 37  16  36  1   
 38  17  37  1   
 39  17  38  1   
 40  17  39  1   
@<TRIPOS>SUBSTRUCTURE
  1 ****   9 GROUP 4 **** **** 0

# MOE 2024.06 (io_trps.svl 2023.06)
