@<TRIPOS>MOLECULE
NONAME
28 29 1 0 0 
SMALL
USER_CHARGES


@<TRIPOS>ATOM
  1 F        1.0590    -1.4230    -1.6560 F     1 <1>  -0.1900 
  2 C        0.5370    -2.1690    -0.7220 C.ar  1 <1>   0.1900 
  3 C        1.2190    -2.3390     0.4800 C.ar  1 <1>   0.0860 
  4 C       -0.6860    -2.7540    -0.9910 C.ar  1 <1>  -0.1500 
  5 C        2.4990    -1.7270     0.7580 C.2   1 <1>   0.5440 
  6 C        0.5860    -3.1350     1.4350 C.ar  1 <1>  -0.1500 
  7 C       -1.2940    -3.5530    -0.0320 C.ar  1 <1>   0.0730 
  8 O        2.5910    -0.9930     1.7240 O.2   1 <1>  -0.5700 
  9 N        3.6240    -1.9770     0.0000 N.am  1 <1>  -0.6600 
 10 C       -0.6390    -3.7300     1.1840 C.ar  1 <1>  -0.1500 
 11 C       -2.5620    -4.1760    -0.2860 C.1   1 <1>   0.4840 
 12 C        4.9040    -1.2320     0.2040 C.3   1 <1>   0.1400 
 13 C        3.7270    -3.0360    -1.0480 C.3   1 <1>   0.1400 
 14 N       -3.5650    -4.6770    -0.4930 N.1   1 <1>  -0.5570 
 15 C        6.0810    -2.2080     0.3620 C.3   1 <1>   0.1200 
 16 C        4.9740    -3.9070    -0.8180 C.3   1 <1>   0.1200 
 17 O        6.1200    -3.1140    -0.7060 O.3   1 <1>  -0.5600 
 18 H       -1.1590    -2.5830    -1.9420 H     1 <1>   0.1500 
 19 H        1.0700    -3.2790     2.3880 H     1 <1>   0.1500 
 20 H       -1.0960    -4.3400     1.9470 H     1 <1>   0.1500 
 21 H        4.8480    -0.6030     1.0760 H     1 <1>   0.0800 
 22 H        5.0830    -0.5980    -0.6460 H     1 <1>   0.0800 
 23 H        3.7960    -2.5690    -2.0160 H     1 <1>   0.0800 
 24 H        2.8580    -3.6670    -1.0420 H     1 <1>   0.0800 
 25 H        5.9930    -2.7590     1.2820 H     1 <1>   0.0800 
 26 H        7.0110    -1.6690     0.3700 H     1 <1>   0.0800 
 27 H        5.1190    -4.5750    -1.6490 H     1 <1>   0.0800 
 28 H        4.8690    -4.4900     0.0810 H     1 <1>   0.0800 
@<TRIPOS>BOND
  1   1   2  1   
  2   2   3  ar  
  3   2   4  ar  
  4   3   5  1   
  5   3   6  ar  
  6   4   7  ar  
  7   4  18  1   
  8   5   8  2   
  9   5   9  am  
 10   6  10  ar  
 11   6  19  1   
 12   7  10  ar  
 13   7  11  1   
 14   9  12  1   
 15   9  13  1   
 16  10  20  1   
 17  11  14  3   
 18  12  15  1   
 19  12  21  1   
 20  12  22  1   
 21  13  16  1   
 22  13  23  1   
 23  13  24  1   
 24  15  17  1   
 25  15  25  1   
 26  15  26  1   
 27  16  17  1   
 28  16  27  1   
 29  16  28  1   
@<TRIPOS>SUBSTRUCTURE
  1 ****   3 GROUP 4 **** **** 0

# MOE 2024.06 (io_trps.svl 2023.06)
