@<TRIPOS>MOLECULE
NONAME
43 45 1 0 0 
SMALL
USER_CHARGES


@<TRIPOS>ATOM
  1 S       -0.1750    -0.1930    -0.6670 S.3   1 <1>  -0.0800 
  2 C        1.0330     0.9580    -0.1040 C.2   1 <1>   0.1040 
  3 C       -1.4740     0.9240    -0.3150 C.2   1 <1>  -0.1400 
  4 N        2.3820     0.6370    -0.1850 N.am  1 <1>  -0.4940 
  5 C        0.4370     2.1090     0.3420 C.2   1 <1>  -0.0860 
  6 C       -1.0000     2.0630     0.2070 C.2   1 <1>  -0.1810 
  7 C       -2.9080     0.5450    -0.6040 C.3   1 <1>   0.0200 
  8 C        3.0880    -0.5120    -0.4570 C.2   1 <1>   0.7160 
  9 C        1.1470     3.2340     0.8910 C.2   1 <1>   0.7160 
 10 C       -1.9480     3.1870     0.6070 C.3   1 <1>   0.0210 
 11 C       -3.7890     1.8100    -0.5340 C.3   1 <1>  -0.0800 
 12 O        2.5280    -1.5730    -0.6660 O.2   1 <1>  -0.5700 
 13 C        4.5340    -0.3950    -0.4570 C.2   1 <1>   0.2030 
 14 O        0.7900     4.3840     0.7400 O.2   1 <1>  -0.5700 
 15 N        2.2630     3.0580     1.6340 N.am  1 <1>  -0.8000 
 16 C       -3.4080     2.6940     0.6740 C.3   1 <1>  -0.1600 
 17 C       -5.2760     1.4360    -0.4860 C.3   1 <1>  -0.2400 
 18 N        5.1970     0.7100    -0.1540 N.2   1 <1>  -0.7070 
 19 C        5.4270    -1.4240    -0.7740 C.2   1 <1>  -0.1500 
 20 N        6.4940     0.3950    -0.2840 N.pl3 1 <1>   0.3140 
 21 C        6.6570    -0.8890    -0.6550 C.2   1 <1>  -0.3020 
 22 C        7.5740     1.3740    -0.0400 C.3   1 <1>   0.0960 
 23 C        8.0600     2.0000    -1.3530 C.3   1 <1>  -0.2400 
 24 H        3.0390     1.4090    -0.0370 H     1 <1>   0.3700 
 25 H       -3.2240    -0.1790     0.1260 H     1 <1>   0.0800 
 26 H       -2.9800     0.1020    -1.5810 H     1 <1>   0.0800 
 27 H       -1.8640     3.9790    -0.1180 H     1 <1>   0.0800 
 28 H       -1.6670     3.5840     1.5660 H     1 <1>   0.0800 
 29 H       -3.6140     2.3840    -1.4290 H     1 <1>   0.0800 
 30 H        2.6750     3.8800     2.0740 H     1 <1>   0.3700 
 31 H        2.4920     2.1540     2.0440 H     1 <1>   0.3700 
 32 H       -4.0610     3.5470     0.7280 H     1 <1>   0.0800 
 33 H       -3.5370     2.1230     1.5780 H     1 <1>   0.0800 
 34 H       -5.4980     0.8740     0.4040 H     1 <1>   0.0800 
 35 H       -5.5380     0.8410    -1.3440 H     1 <1>   0.0800 
 36 H       -5.8830     2.3230    -0.4930 H     1 <1>   0.0800 
 37 H        5.1420    -2.4240    -1.0520 H     1 <1>   0.1500 
 38 H        7.6200    -1.3390    -0.8110 H     1 <1>   0.1500 
 39 H        8.3840     0.8730     0.4570 H     1 <1>   0.0800 
 40 H        7.1930     2.1400     0.6120 H     1 <1>   0.0800 
 41 H        8.4560     1.2430    -2.0070 H     1 <1>   0.0800 
 42 H        8.8340     2.7180    -1.1510 H     1 <1>   0.0800 
 43 H        7.2460     2.5030    -1.8450 H     1 <1>   0.0800 
@<TRIPOS>BOND
  1   1   2  1   
  2   1   3  1   
  3   2   4  1   
  4   2   5  2   
  5   3   6  2   
  6   3   7  1   
  7   4   8  am  
  8   4  24  1   
  9   5   6  1   
 10   5   9  1   
 11   6  10  1   
 12   7  11  1   
 13   7  25  1   
 14   7  26  1   
 15   8  12  2   
 16   8  13  1   
 17   9  14  2   
 18   9  15  am  
 19  10  16  1   
 20  10  27  1   
 21  10  28  1   
 22  11  16  1   
 23  11  17  1   
 24  11  29  1   
 25  13  18  2   
 26  13  19  1   
 27  15  30  1   
 28  15  31  1   
 29  16  32  1   
 30  16  33  1   
 31  17  34  1   
 32  17  35  1   
 33  17  36  1   
 34  18  20  1   
 35  19  21  2   
 36  19  37  1   
 37  20  21  1   
 38  20  22  1   
 39  21  38  1   
 40  22  23  1   
 41  22  39  1   
 42  22  40  1   
 43  23  41  1   
 44  23  42  1   
 45  23  43  1   
@<TRIPOS>SUBSTRUCTURE
  1 ****   2 GROUP 4 **** **** 0

# MOE 2024.06 (io_trps.svl 2023.06)
