@<TRIPOS>MOLECULE
NONAME
44 46 1 0 0 
SMALL
USER_CHARGES


@<TRIPOS>ATOM
  1 O        0.0810    -0.9180    -1.9720 O.2   1 <1>  -0.5700 
  2 C       -0.0040    -1.8120    -1.1560 C.2   1 <1>   0.4690 
  3 C       -1.2910    -2.3990    -0.8620 C.ar  1 <1>   0.0860 
  4 C        1.1660    -2.2720    -0.4630 C.2   1 <1>  -0.1360 
  5 C       -1.5570    -3.7680    -0.9940 C.ar  1 <1>   0.1660 
  6 C       -2.3270    -1.5930    -0.4160 C.ar  1 <1>  -0.1500 
  7 C        2.4550    -1.9460    -0.7150 C.2   1 <1>  -0.1780 
  8 N       -2.7060    -4.3410    -0.6810 N.ar  1 <1>  -0.6200 
  9 C       -0.5110    -4.7300    -1.5340 C.3   1 <1>  -0.0970 
 10 C       -3.5350    -2.1730    -0.0990 C.ar  1 <1>  -0.1430 
 11 C        3.6450    -2.4090    -0.0460 C.ar  1 <1>   0.0280 
 12 C       -3.6720    -3.5500    -0.2440 C.ar  1 <1>   0.1670 
 13 C       -4.6760    -1.2860     0.3860 C.3   1 <1>  -0.0170 
 14 C        3.7990    -3.6920     0.5110 C.ar  1 <1>   0.0830 
 15 C        4.7220    -1.5270     0.0490 C.ar  1 <1>  -0.1500 
 16 C       -4.9720    -4.2570     0.1130 C.3   1 <1>  -0.0170 
 17 C       -5.7740    -2.0820     1.1010 C.3   1 <1>  -0.1600 
 18 O        2.7750    -4.5770     0.3890 O.3   1 <1>  -0.3630 
 19 C        4.9870    -4.0370     1.1520 C.ar  1 <1>  -0.1500 
 20 C        5.8980    -1.8780     0.6800 C.ar  1 <1>  -0.1500 
 21 C       -6.1670    -3.3060     0.2710 C.3   1 <1>  -0.1600 
 22 C        2.8380    -5.8930     0.8930 C.3   1 <1>   0.0400 
 23 C        6.0310    -3.1360     1.2370 C.ar  1 <1>  -0.1500 
 24 H        0.9470    -2.9500     0.3400 H     1 <1>   0.1500 
 25 H       -2.1750    -0.5310    -0.3260 H     1 <1>   0.1500 
 26 H        2.6490    -1.2450    -1.5090 H     1 <1>   0.1500 
 27 H        0.1310    -4.2530    -2.2510 H     1 <1>   0.0800 
 28 H       -0.9930    -5.5570    -2.0240 H     1 <1>   0.0800 
 29 H        0.0820    -5.1140    -0.7250 H     1 <1>   0.0800 
 30 H       -4.2950    -0.5320     1.0520 H     1 <1>   0.0800 
 31 H       -5.1010    -0.7880    -0.4680 H     1 <1>   0.0800 
 32 H        4.6300    -0.5440    -0.3770 H     1 <1>   0.1500 
 33 H       -5.1980    -4.9840    -0.6470 H     1 <1>   0.0800 
 34 H       -4.8140    -4.7870     1.0350 H     1 <1>   0.0800 
 35 H       -5.4140    -2.4020     2.0650 H     1 <1>   0.0800 
 36 H       -6.6320    -1.4510     1.2580 H     1 <1>   0.0800 
 37 H        5.1250    -5.0070     1.5910 H     1 <1>   0.1500 
 38 H        6.7110    -1.1750     0.7400 H     1 <1>   0.1500 
 39 H       -6.4970    -2.9860    -0.7030 H     1 <1>   0.0800 
 40 H       -6.9810    -3.8280     0.7440 H     1 <1>   0.0800 
 41 H        1.9090    -6.3840     0.6660 H     1 <1>   0.0800 
 42 H        2.9780    -5.8520     1.9590 H     1 <1>   0.0800 
 43 H        3.6500    -6.4110     0.4160 H     1 <1>   0.0800 
 44 H        6.9470    -3.4110     1.7320 H     1 <1>   0.1500 
@<TRIPOS>BOND
  1   1   2  2   
  2   2   3  1   
  3   2   4  1   
  4   3   5  ar  
  5   3   6  ar  
  6   4   7  2   
  7   4  24  1   
  8   5   8  ar  
  9   5   9  1   
 10   6  10  ar  
 11   6  25  1   
 12   7  11  1   
 13   7  26  1   
 14   8  12  ar  
 15   9  27  1   
 16   9  28  1   
 17   9  29  1   
 18  10  12  ar  
 19  10  13  1   
 20  11  14  ar  
 21  11  15  ar  
 22  12  16  1   
 23  13  17  1   
 24  13  30  1   
 25  13  31  1   
 26  14  18  1   
 27  14  19  ar  
 28  15  20  ar  
 29  15  32  1   
 30  16  21  1   
 31  16  33  1   
 32  16  34  1   
 33  17  21  1   
 34  17  35  1   
 35  17  36  1   
 36  18  22  1   
 37  19  23  ar  
 38  19  37  1   
 39  20  23  ar  
 40  20  38  1   
 41  21  39  1   
 42  21  40  1   
 43  22  41  1   
 44  22  42  1   
 45  22  43  1   
 46  23  44  1   
@<TRIPOS>SUBSTRUCTURE
  1 ****   4 GROUP 4 **** **** 0

# MOE 2024.06 (io_trps.svl 2023.06)
