@<TRIPOS>MOLECULE
NONAME
37 38 1 0 0 
SMALL
USER_CHARGES


@<TRIPOS>ATOM
  1 O       -1.7730    -1.8440     1.1610 O.co2 1 <1>  -0.9000 
  2 C       -2.1390    -1.1070     0.2240 C.2   1 <1>   1.0320 
  3 O       -1.3160    -0.8700    -0.6820 O.co2 1 <1>  -0.9000 
  4 C       -3.4750    -0.5230     0.1850 C.2   1 <1>  -0.0920 
  5 O       -4.4690    -1.0250     0.9410 O.3   1 <1>  -0.2800 
  6 C       -3.9550     0.5390    -0.5200 C.2   1 <1>  -0.1810 
  7 C       -5.5640    -0.3020     0.7310 C.ar  1 <1>   0.1400 
  8 C       -5.3150     0.7060    -0.1790 C.ar  1 <1>   0.0000 
  9 C       -3.1820     1.4200    -1.4910 C.3   1 <1>   0.3210 
 10 C       -6.8070    -0.4890     1.3210 C.ar  1 <1>  -0.1500 
 11 C       -6.3670     1.5750    -0.5080 C.ar  1 <1>   0.0820 
 12 N       -2.2750     2.3540    -0.7720 N.am  1 <1>  -0.6600 
 13 C       -7.8340     0.3700     0.9840 C.ar  1 <1>  -0.1500 
 14 O       -6.1720     2.5800    -1.3780 O.3   1 <1>  -0.5330 
 15 C       -7.6120     1.4010     0.0700 C.ar  1 <1>  -0.1500 
 16 C       -1.0300     2.5190    -1.2980 C.2   1 <1>   0.5690 
 17 C       -2.8550     3.1290     0.3560 C.3   1 <1>   0.2200 
 18 O       -0.8620     2.7300    -2.4770 O.2   1 <1>  -0.5700 
 19 C        0.1880     2.4240    -0.4130 C.3   1 <1>  -0.1790 
 20 C       -2.5580     4.6190     0.1860 C.3   1 <1>  -0.2400 
 21 C       -2.3610     2.6070     1.7050 C.3   1 <1>  -0.2400 
 22 H       -3.8520     1.9830    -2.1130 H     1 <1>   0.0800 
 23 H       -2.5970     0.7850    -2.1360 H     1 <1>   0.0800 
 24 H       -6.9370    -1.2940     2.0210 H     1 <1>   0.1500 
 25 H       -8.8080     0.2460     1.4250 H     1 <1>   0.1500 
 26 H       -6.9720     3.1050    -1.5500 H     1 <1>   0.4500 
 27 H       -8.4240     2.0600    -0.1770 H     1 <1>   0.1500 
 28 H       -3.9250     3.0160     0.3290 H     1 <1>   0.0800 
 29 H        0.0680     1.5920     0.2580 H     1 <1>   0.0800 
 30 H        0.3220     3.3310     0.1400 H     1 <1>   0.0800 
 31 H        1.0550     2.2450    -1.0190 H     1 <1>   0.0800 
 32 H       -1.5070     4.8190     0.2720 H     1 <1>   0.0800 
 33 H       -3.0740     5.1790     0.9430 H     1 <1>   0.0800 
 34 H       -2.9050     4.9500    -0.7770 H     1 <1>   0.0800 
 35 H       -1.3200     2.8170     1.8510 H     1 <1>   0.0800 
 36 H       -2.5170     1.5450     1.7730 H     1 <1>   0.0800 
 37 H       -2.9130     3.0760     2.4980 H     1 <1>   0.0800 
@<TRIPOS>BOND
  1   1   2  ar  
  2   2   3  ar  
  3   2   4  1   
  4   4   5  1   
  5   4   6  2   
  6   5   7  1   
  7   6   8  1   
  8   6   9  1   
  9   7   8  ar  
 10   7  10  ar  
 11   8  11  ar  
 12   9  12  1   
 13   9  22  1   
 14   9  23  1   
 15  10  13  ar  
 16  10  24  1   
 17  11  14  1   
 18  11  15  ar  
 19  12  16  am  
 20  12  17  1   
 21  13  15  ar  
 22  13  25  1   
 23  14  26  1   
 24  15  27  1   
 25  16  18  2   
 26  16  19  1   
 27  17  20  1   
 28  17  21  1   
 29  17  28  1   
 30  19  29  1   
 31  19  30  1   
 32  19  31  1   
 33  20  32  1   
 34  20  33  1   
 35  20  34  1   
 36  21  35  1   
 37  21  36  1   
 38  21  37  1   
@<TRIPOS>SUBSTRUCTURE
  1 ****   6 GROUP 4 **** **** 0

# MOE 2024.06 (io_trps.svl 2023.06)
