@<TRIPOS>MOLECULE
NONAME
48 51 1 0 0 
SMALL
USER_CHARGES


@<TRIPOS>ATOM
  1 S       -0.8040    -0.1980     2.0020 S.3   1 <1>  -0.0800 
  2 C       -1.2990     1.2930     1.2090 C.2   1 <1>   0.3250 
  3 C       -1.8660    -1.1080     0.9770 C.2   1 <1>  -0.1100 
  4 N       -2.1730     1.0870     0.2820 N.2   1 <1>  -0.5650 
  5 C       -0.7140     2.5320     1.6680 C.ar  1 <1>   0.0530 
  6 C       -2.4880    -0.2570     0.1480 C.2   1 <1>   0.0460 
  7 C       -0.1710     3.4880     0.7960 C.ar  1 <1>  -0.1440 
  8 C       -0.6840     2.8110     3.0360 C.ar  1 <1>  -0.1500 
  9 C       -3.5190    -0.6150    -0.9130 C.3   1 <1>   0.5240 
 10 C        0.3580     4.6680     1.2930 C.ar  1 <1>  -0.1500 
 11 C       -0.1330     3.2590    -0.7100 C.3   1 <1>  -0.0970 
 12 C       -0.1510     3.9880     3.5260 C.ar  1 <1>  -0.1500 
 13 N       -4.6010     0.4060    -0.8490 N.4   1 <1>  -0.9590 
 14 C        0.3700     4.9210     2.6520 C.ar  1 <1>  -0.1500 
 15 C       -5.4680     0.2210     0.3710 C.3   1 <1>   0.3430 
 16 C       -5.3830     0.4950    -2.1320 C.3   1 <1>   0.3430 
 17 C       -6.6250     1.2430     0.4320 C.3   1 <1>   0.1400 
 18 C       -6.5220     1.5290    -2.0340 C.3   1 <1>   0.1400 
 19 N       -7.3820     1.2250    -0.8520 N.am  1 <1>  -0.6600 
 20 C       -8.4160     0.3250    -0.9950 C.2   1 <1>   0.7150 
 21 O       -8.2990    -0.5060    -1.8790 O.2   1 <1>  -0.5700 
 22 C       -9.5410     0.3320    -0.0860 C.2   1 <1>   0.0550 
 23 O      -10.2500    -0.7710     0.1380 O.3   1 <1>  -0.2800 
 24 C      -10.0660     1.3370     0.6710 C.2   1 <1>  -0.1500 
 25 C      -11.2020    -0.5000     1.0010 C.2   1 <1>  -0.0100 
 26 C      -11.1420     0.7960     1.3750 C.2   1 <1>  -0.1500 
 27 H       -1.8990    -2.1750     1.1160 H     1 <1>   0.1500 
 28 H       -1.0870     2.0990     3.7330 H     1 <1>   0.1500 
 29 H       -3.9090    -1.6070    -0.7550 H     1 <1>   0.0800 
 30 H       -3.0410    -0.5760    -1.8780 H     1 <1>   0.0800 
 31 H        0.7730     5.4030     0.6250 H     1 <1>   0.1500 
 32 H       -1.1250     3.3300    -1.1170 H     1 <1>   0.0800 
 33 H        0.2690     2.2860    -0.9280 H     1 <1>   0.0800 
 34 H        0.4860     3.9910    -1.1960 H     1 <1>   0.0800 
 35 H       -0.1410     4.1800     4.5850 H     1 <1>   0.1500 
 36 H       -4.0720     1.2840    -0.7030 H     1 <1>   0.4500 
 37 H        0.7840     5.8410     3.0270 H     1 <1>   0.1500 
 38 H       -4.8670     0.3150     1.2620 H     1 <1>   0.0800 
 39 H       -5.8950    -0.7690     0.3620 H     1 <1>   0.0800 
 40 H       -5.8240    -0.4630    -2.3580 H     1 <1>   0.0800 
 41 H       -4.7310     0.7630    -2.9460 H     1 <1>   0.0800 
 42 H       -6.2350     2.2310     0.6100 H     1 <1>   0.0800 
 43 H       -7.2750     0.9930     1.2540 H     1 <1>   0.0800 
 44 H       -7.1150     1.4940    -2.9330 H     1 <1>   0.0800 
 45 H       -6.1180     2.5230    -1.9450 H     1 <1>   0.0800 
 46 H       -9.7410     2.3610     0.7280 H     1 <1>   0.1500 
 47 H      -11.8800    -1.2830     1.2960 H     1 <1>   0.1500 
 48 H      -11.7800     1.3240     2.0630 H     1 <1>   0.1500 
@<TRIPOS>BOND
  1   1   2  1   
  2   1   3  1   
  3   2   4  2   
  4   2   5  1   
  5   3   6  2   
  6   3  27  1   
  7   4   6  1   
  8   5   7  ar  
  9   5   8  ar  
 10   6   9  1   
 11   7  10  ar  
 12   7  11  1   
 13   8  12  ar  
 14   8  28  1   
 15   9  13  1   
 16   9  29  1   
 17   9  30  1   
 18  10  14  ar  
 19  10  31  1   
 20  11  32  1   
 21  11  33  1   
 22  11  34  1   
 23  12  14  ar  
 24  12  35  1   
 25  13  15  1   
 26  13  16  1   
 27  13  36  1   
 28  14  37  1   
 29  15  17  1   
 30  15  38  1   
 31  15  39  1   
 32  16  18  1   
 33  16  40  1   
 34  16  41  1   
 35  17  19  1   
 36  17  42  1   
 37  17  43  1   
 38  18  19  1   
 39  18  44  1   
 40  18  45  1   
 41  19  20  am  
 42  20  21  2   
 43  20  22  1   
 44  22  23  1   
 45  22  24  2   
 46  23  25  1   
 47  24  26  1   
 48  24  46  1   
 49  25  26  2   
 50  25  47  1   
 51  26  48  1   
@<TRIPOS>SUBSTRUCTURE
  1 ****  15 GROUP 4 **** **** 0

# MOE 2024.06 (io_trps.svl 2023.06)
