@<TRIPOS>MOLECULE
NONAME
38 40 1 0 0 
SMALL
USER_CHARGES


@<TRIPOS>ATOM
  1 S        0.0100    -0.1170    -0.3420 S.3   1 <1>  -0.4600 
  2 C       -1.2680    -1.3690    -0.5240 C.3   1 <1>   0.0700 
  3 C       -1.0240     1.2310     0.2460 C.3   1 <1>   0.0700 
  4 C       -2.5910    -0.5990    -0.3800 C.3   1 <1>   0.4230 
  5 C       -2.3480     0.5530     0.6080 C.3   1 <1>  -0.1600 
  6 N       -3.7110    -1.4790     0.0850 N.4   1 <1>  -0.9590 
  7 C       -3.9030    -2.6830    -0.8180 C.3   1 <1>   0.3430 
  8 C       -5.0200    -0.7220     0.2110 C.3   1 <1>   0.3430 
  9 C       -5.0620    -3.5970    -0.3690 C.3   1 <1>   0.2090 
 10 C       -6.1920    -1.6150     0.6690 C.3   1 <1>   0.2090 
 11 N       -6.3150    -2.8090    -0.2100 N.pl3 1 <1>  -0.8380 
 12 C       -7.4880    -3.5440    -0.0880 C.ar  1 <1>   0.1000 
 13 C       -7.7630    -4.2950     1.0500 C.ar  1 <1>  -0.1500 
 14 C       -8.4140    -3.5330    -1.1220 C.ar  1 <1>  -0.1500 
 15 C       -8.9370    -5.0190     1.1490 C.ar  1 <1>  -0.1500 
 16 C       -9.5890    -4.2550    -1.0260 C.ar  1 <1>  -0.1500 
 17 C       -9.8520    -5.0000     0.1110 C.ar  1 <1>  -0.1500 
 18 H       -1.1120    -2.0770     0.2700 H     1 <1>   0.0800 
 19 H       -1.1460    -1.8230    -1.4910 H     1 <1>   0.0800 
 20 H       -1.1270     1.9300    -0.5670 H     1 <1>   0.0800 
 21 H       -0.5380     1.6960     1.0880 H     1 <1>   0.0800 
 22 H       -2.8360    -0.1780    -1.3430 H     1 <1>   0.0800 
 23 H       -3.1350     1.2840     0.5760 H     1 <1>   0.0800 
 24 H       -2.2610     0.1660     1.6090 H     1 <1>   0.0800 
 25 H       -3.4720    -1.8300     1.0210 H     1 <1>   0.4500 
 26 H       -3.0000    -3.2680    -0.8530 H     1 <1>   0.0800 
 27 H       -4.1170    -2.3480    -1.8200 H     1 <1>   0.0800 
 28 H       -5.2820    -0.2980    -0.7440 H     1 <1>   0.0800 
 29 H       -4.9140     0.0870     0.9130 H     1 <1>   0.0800 
 30 H       -4.8140    -4.0790     0.5610 H     1 <1>   0.0800 
 31 H       -5.2200    -4.3640    -1.1080 H     1 <1>   0.0800 
 32 H       -7.1100    -1.0510     0.6270 H     1 <1>   0.0800 
 33 H       -6.0430    -1.9270     1.6890 H     1 <1>   0.0800 
 34 H       -7.0580    -4.3150     1.8590 H     1 <1>   0.1500 
 35 H       -8.2080    -2.9540    -2.0030 H     1 <1>   0.1500 
 36 H       -9.1430    -5.5980     2.0330 H     1 <1>   0.1500 
 37 H      -10.3000    -4.2390    -1.8340 H     1 <1>   0.1500 
 38 H      -10.7670    -5.5620     0.1870 H     1 <1>   0.1500 
@<TRIPOS>BOND
  1   1   2  1   
  2   1   3  1   
  3   2   4  1   
  4   2  18  1   
  5   2  19  1   
  6   3   5  1   
  7   3  20  1   
  8   3  21  1   
  9   4   5  1   
 10   4   6  1   
 11   4  22  1   
 12   5  23  1   
 13   5  24  1   
 14   6   7  1   
 15   6   8  1   
 16   6  25  1   
 17   7   9  1   
 18   7  26  1   
 19   7  27  1   
 20   8  10  1   
 21   8  28  1   
 22   8  29  1   
 23   9  11  1   
 24   9  30  1   
 25   9  31  1   
 26  10  11  1   
 27  10  32  1   
 28  10  33  1   
 29  11  12  1   
 30  12  13  ar  
 31  12  14  ar  
 32  13  15  ar  
 33  13  34  1   
 34  14  16  ar  
 35  14  35  1   
 36  15  17  ar  
 37  15  36  1   
 38  16  17  ar  
 39  16  37  1   
 40  17  38  1   
@<TRIPOS>SUBSTRUCTURE
  1 ****  11 GROUP 4 **** **** 0

# MOE 2024.06 (io_trps.svl 2023.06)
