@<TRIPOS>MOLECULE
NONAME
44 45 1 0 0 
SMALL
USER_CHARGES


@<TRIPOS>ATOM
  1 S        0.3890     0.1900     1.9290 S.3   1 <1>  -0.0800 
  2 C       -0.4010    -0.8950     0.8110 C.2   1 <1>   0.1040 
  3 C        1.9520    -0.0500     1.1710 C.2   1 <1>  -0.1400 
  4 N       -1.7620    -1.1290     0.9250 N.am  1 <1>  -0.4940 
  5 C        0.5000    -1.4160    -0.0770 C.2   1 <1>  -0.0860 
  6 C        1.8450    -0.8910     0.1160 C.2   1 <1>  -0.1810 
  7 C        3.0650     0.7320     1.8460 C.3   1 <1>  -0.0600 
  8 C       -2.7710    -0.5760     1.6680 C.2   1 <1>   0.5690 
  9 C        0.0940    -2.3820    -1.0670 C.2   1 <1>   0.8060 
 10 C        2.9570    -1.2990    -0.8610 C.3   1 <1>   0.0210 
 11 O       -2.6300     0.3130     2.4720 O.2   1 <1>  -0.5700 
 12 C       -4.1720    -1.1450     1.4310 C.3   1 <1>   0.1710 
 13 O       -1.0370    -2.4300    -1.5220 O.2   1 <1>  -0.5700 
 14 O        0.9750    -3.3000    -1.4890 O.3   1 <1>  -0.4300 
 15 C        4.1880    -0.3900    -0.9240 C.3   1 <1>  -0.2400 
 16 N       -4.2790    -2.0170     0.2230 N.3   1 <1>  -0.8100 
 17 C        0.6260    -4.3020    -2.4250 C.3   1 <1>   0.0400 
 18 C       -5.4850    -2.8660     0.2770 C.3   1 <1>   0.1100 
 19 C       -4.2980    -1.2280    -1.0320 C.3   1 <1>   0.1100 
 20 C       -5.6020    -3.7370    -0.9880 C.3   1 <1>   0.1200 
 21 C       -4.4440    -2.1500    -2.2560 C.3   1 <1>   0.1200 
 22 O       -5.5950    -2.9380    -2.1360 O.3   1 <1>  -0.5600 
 23 H       -2.1510    -1.8150     0.2610 H     1 <1>   0.3700 
 24 H        2.8500     0.8440     2.8940 H     1 <1>   0.0800 
 25 H        3.1430     1.7100     1.4070 H     1 <1>   0.0800 
 26 H        4.0040     0.2250     1.7650 H     1 <1>   0.0800 
 27 H        2.5390    -1.3000    -1.8530 H     1 <1>   0.0800 
 28 H        3.2730    -2.3030    -0.6390 H     1 <1>   0.0800 
 29 H       -4.8720    -0.3310     1.3620 H     1 <1>   0.0800 
 30 H       -4.4230    -1.7200     2.3050 H     1 <1>   0.0800 
 31 H        3.8920     0.6420    -0.9730 H     1 <1>   0.0800 
 32 H        4.7620    -0.6220    -1.8040 H     1 <1>   0.0800 
 33 H        4.8230    -0.5500    -0.0740 H     1 <1>   0.0800 
 34 H        1.4900    -4.9160    -2.6040 H     1 <1>   0.0800 
 35 H        0.3100    -3.8310    -3.3400 H     1 <1>   0.0800 
 36 H       -0.1730    -4.8970    -2.0170 H     1 <1>   0.0800 
 37 H       -6.3660    -2.2530     0.3620 H     1 <1>   0.0800 
 38 H       -5.4340    -3.5080     1.1390 H     1 <1>   0.0800 
 39 H       -3.3870    -0.6650    -1.1330 H     1 <1>   0.0800 
 40 H       -5.1210    -0.5340    -1.0220 H     1 <1>   0.0800 
 41 H       -6.5240    -4.2890    -0.9780 H     1 <1>   0.0800 
 42 H       -4.7800    -4.4300    -1.0460 H     1 <1>   0.0800 
 43 H       -3.5880    -2.7960    -2.3460 H     1 <1>   0.0800 
 44 H       -4.5350    -1.5670    -3.1540 H     1 <1>   0.0800 
@<TRIPOS>BOND
  1   1   2  1   
  2   1   3  1   
  3   2   4  1   
  4   2   5  2   
  5   3   6  2   
  6   3   7  1   
  7   4   8  am  
  8   4  23  1   
  9   5   6  1   
 10   5   9  1   
 11   6  10  1   
 12   7  24  1   
 13   7  25  1   
 14   7  26  1   
 15   8  11  2   
 16   8  12  1   
 17   9  13  2   
 18   9  14  1   
 19  10  15  1   
 20  10  27  1   
 21  10  28  1   
 22  12  16  1   
 23  12  29  1   
 24  12  30  1   
 25  14  17  1   
 26  15  31  1   
 27  15  32  1   
 28  15  33  1   
 29  16  18  1   
 30  16  19  1   
 31  17  34  1   
 32  17  35  1   
 33  17  36  1   
 34  18  20  1   
 35  18  37  1   
 36  18  38  1   
 37  19  21  1   
 38  19  39  1   
 39  19  40  1   
 40  20  22  1   
 41  20  41  1   
 42  20  42  1   
 43  21  22  1   
 44  21  43  1   
 45  21  44  1   
@<TRIPOS>SUBSTRUCTURE
  1 ****   4 GROUP 4 **** **** 0

# MOE 2024.06 (io_trps.svl 2023.06)
