@<TRIPOS>MOLECULE
NONAME
39 40 1 0 0 
SMALL
USER_CHARGES


@<TRIPOS>ATOM
  1 O       -4.6940     2.9000     1.1470 O.2   1 <1>  -0.5700 
  2 C       -4.4740     1.8480     0.6140 C.2   1 <1>   0.6590 
  3 O       -3.2310     1.4140     0.4630 O.3   1 <1>  -0.4300 
  4 C       -5.6350     1.0090     0.1120 C.3   1 <1>  -0.0990 
  5 C       -2.8330     0.2070    -0.1460 C.3   1 <1>   0.1200 
  6 C       -6.9390     1.7520     0.4070 C.3   1 <1>   0.3430 
  7 C       -1.3120     0.1360    -0.0840 C.3   1 <1>  -0.2400 
  8 N       -8.1240     0.9710    -0.0520 N.4   1 <1>  -0.9060 
  9 C       -9.3960     1.7220     0.2260 C.3   1 <1>   0.3430 
 10 C      -10.6570     0.9990    -0.2670 C.3   1 <1>   0.2000 
 11 O      -11.7240     1.9170    -0.1510 O.3   1 <1>  -0.3630 
 12 C      -10.9900    -0.2740     0.5320 C.3   1 <1>   0.1200 
 13 C      -12.9810     1.4150    -0.2680 C.ar  1 <1>   0.0820 
 14 O      -12.1990    -0.8260     0.0600 O.3   1 <1>  -0.3630 
 15 C      -13.2160     0.0410    -0.1770 C.ar  1 <1>   0.0820 
 16 C      -14.0350     2.2850    -0.4850 C.ar  1 <1>  -0.1500 
 17 C      -14.5010    -0.4510    -0.3240 C.ar  1 <1>  -0.1500 
 18 C      -15.3200     1.7880    -0.6250 C.ar  1 <1>  -0.1500 
 19 C      -15.5520     0.4230    -0.5480 C.ar  1 <1>  -0.1500 
 20 H       -5.6210     0.0650     0.6240 H     1 <1>   0.0800 
 21 H       -5.5220     0.8630    -0.9450 H     1 <1>   0.0800 
 22 H       -3.1660     0.2060    -1.1700 H     1 <1>   0.0800 
 23 H       -3.2690    -0.6170     0.3930 H     1 <1>   0.0800 
 24 H       -6.9150     2.7120    -0.0870 H     1 <1>   0.0800 
 25 H       -7.0060     1.9350     1.4690 H     1 <1>   0.0800 
 26 H       -0.8780     0.9670    -0.6110 H     1 <1>   0.0800 
 27 H       -0.9680    -0.7750    -0.5410 H     1 <1>   0.0800 
 28 H       -0.9800     0.1510     0.9390 H     1 <1>   0.0800 
 29 H       -8.1360     0.0580     0.4220 H     1 <1>   0.4500 
 30 H       -8.0450     0.7960    -1.0640 H     1 <1>   0.4500 
 31 H       -9.3520     2.6810    -0.2660 H     1 <1>   0.0800 
 32 H       -9.4920     1.8960     1.2860 H     1 <1>   0.0800 
 33 H      -10.5630     0.7630    -1.3130 H     1 <1>   0.0800 
 34 H      -11.1180    -0.0500     1.5770 H     1 <1>   0.0800 
 35 H      -10.2310    -1.0250     0.4180 H     1 <1>   0.0800 
 36 H      -13.8520     3.3430    -0.5460 H     1 <1>   0.1500 
 37 H      -14.6750    -1.5100    -0.2610 H     1 <1>   0.1500 
 38 H      -16.1420     2.4620    -0.7960 H     1 <1>   0.1500 
 39 H      -16.5520     0.0410    -0.6610 H     1 <1>   0.1500 
@<TRIPOS>BOND
  1   1   2  2   
  2   2   3  1   
  3   2   4  1   
  4   3   5  1   
  5   4   6  1   
  6   4  20  1   
  7   4  21  1   
  8   5   7  1   
  9   5  22  1   
 10   5  23  1   
 11   6   8  1   
 12   6  24  1   
 13   6  25  1   
 14   7  26  1   
 15   7  27  1   
 16   7  28  1   
 17   8   9  1   
 18   8  29  1   
 19   8  30  1   
 20   9  10  1   
 21   9  31  1   
 22   9  32  1   
 23  10  11  1   
 24  10  12  1   
 25  10  33  1   
 26  11  13  1   
 27  12  14  1   
 28  12  34  1   
 29  12  35  1   
 30  13  15  ar  
 31  13  16  ar  
 32  14  15  1   
 33  15  17  ar  
 34  16  18  ar  
 35  16  36  1   
 36  17  19  ar  
 37  17  37  1   
 38  18  19  ar  
 39  18  38  1   
 40  19  39  1   
@<TRIPOS>SUBSTRUCTURE
  1 ****   9 GROUP 4 **** **** 0

# MOE 2024.06 (io_trps.svl 2023.06)
