@<TRIPOS>MOLECULE
NONAME
55 57 1 0 0 
SMALL
USER_CHARGES


@<TRIPOS>ATOM
  1 O        1.3920    -0.2910     2.2620 O.3   1 <1>  -0.3630 
  2 C        2.1980    -0.7420     1.2710 C.ar  1 <1>   0.0830 
  3 C        1.3180     1.0750     2.6080 C.3   1 <1>   0.0400 
  4 C        2.0160    -2.0570     0.8780 C.ar  1 <1>  -0.1500 
  5 C        3.1720     0.0380     0.6530 C.ar  1 <1>  -0.1500 
  6 C        2.7940    -2.5980    -0.1370 C.ar  1 <1>   0.0830 
  7 C        3.9580    -0.5030    -0.3550 C.ar  1 <1>  -0.1430 
  8 O        2.6830    -3.8720    -0.5820 O.3   1 <1>  -0.3630 
  9 C        3.7550    -1.8150    -0.7520 C.ar  1 <1>  -0.1500 
 10 C        5.0480     0.3090    -1.0090 C.3   1 <1>   0.4860 
 11 C        1.6950    -4.7400    -0.0680 C.3   1 <1>   0.0400 
 12 N        6.3060    -0.1280    -0.3570 N.4   1 <1>  -0.9060 
 13 C        7.5600     0.4300    -0.9110 C.3   1 <1>   0.4230 
 14 C        8.7370    -0.3560    -0.3290 C.3   1 <1>  -0.1600 
 15 C        7.6890     1.9180    -0.5660 C.3   1 <1>  -0.1600 
 16 C       10.0750     0.2210    -0.7940 C.3   1 <1>   0.3430 
 17 C        9.0390     2.4820    -1.0220 C.3   1 <1>   0.3430 
 18 N       10.1480     1.6720    -0.4480 N.4   1 <1>  -0.9590 
 19 C       11.4810     2.2410    -0.8270 C.3   1 <1>   0.4860 
 20 C       12.5380     1.5410     0.0010 C.ar  1 <1>  -0.1430 
 21 C       12.6790     1.8350     1.3510 C.ar  1 <1>  -0.1500 
 22 C       13.3680     0.5930    -0.5810 C.ar  1 <1>  -0.1500 
 23 C       13.6250     1.1730     2.1120 C.ar  1 <1>  -0.1500 
 24 C       14.3140    -0.0670     0.1830 C.ar  1 <1>  -0.1500 
 25 C       14.4400     0.2200     1.5290 C.ar  1 <1>  -0.1500 
 26 H        0.5510     1.1870     3.3540 H     1 <1>   0.0800 
 27 H        1.0580     1.6440     1.7330 H     1 <1>   0.0800 
 28 H        2.2640     1.3880     3.0110 H     1 <1>   0.0800 
 29 H        1.2600    -2.6310     1.3790 H     1 <1>   0.1500 
 30 H        3.3130     1.0570     0.9620 H     1 <1>   0.1500 
 31 H        4.3270    -2.2670    -1.5440 H     1 <1>   0.1500 
 32 H        4.8740     1.3610    -0.8530 H     1 <1>   0.0800 
 33 H        5.0700     0.1040    -2.0670 H     1 <1>   0.0800 
 34 H        1.7770    -5.6820    -0.5800 H     1 <1>   0.0800 
 35 H        0.7250    -4.3110    -0.2480 H     1 <1>   0.0800 
 36 H        1.8640    -4.8810     0.9850 H     1 <1>   0.0800 
 37 H        6.3050    -1.1550    -0.4260 H     1 <1>   0.4500 
 38 H        6.2100     0.0590     0.6490 H     1 <1>   0.4500 
 39 H        7.5610     0.3110    -1.9840 H     1 <1>   0.0800 
 40 H        8.6860    -1.3810    -0.6530 H     1 <1>   0.0800 
 41 H        8.7130    -0.3430     0.7470 H     1 <1>   0.0800 
 42 H        7.5930     2.0720     0.4950 H     1 <1>   0.0800 
 43 H        6.9150     2.4800    -1.0580 H     1 <1>   0.0800 
 44 H       10.1810     0.0920    -1.8600 H     1 <1>   0.0800 
 45 H       10.8800    -0.3150    -0.3120 H     1 <1>   0.0800 
 46 H        9.1290     3.5090    -0.7010 H     1 <1>   0.0800 
 47 H        9.0960     2.4640    -2.1000 H     1 <1>   0.0800 
 48 H       10.1370     1.7440     0.5800 H     1 <1>   0.4500 
 49 H       11.5130     3.2980    -0.6170 H     1 <1>   0.0800 
 50 H       11.6750     2.0930    -1.8770 H     1 <1>   0.0800 
 51 H       12.0680     2.5820     1.8300 H     1 <1>   0.1500 
 52 H       13.3000     0.3570    -1.6300 H     1 <1>   0.1500 
 53 H       13.7360     1.3990     3.1600 H     1 <1>   0.1500 
 54 H       14.9600    -0.8030    -0.2680 H     1 <1>   0.1500 
 55 H       15.1780    -0.2940     2.1230 H     1 <1>   0.1500 
@<TRIPOS>BOND
  1   1   2  1   
  2   1   3  1   
  3   2   4  ar  
  4   2   5  ar  
  5   3  26  1   
  6   3  27  1   
  7   3  28  1   
  8   4   6  ar  
  9   4  29  1   
 10   5   7  ar  
 11   5  30  1   
 12   6   8  1   
 13   6   9  ar  
 14   7   9  ar  
 15   7  10  1   
 16   8  11  1   
 17   9  31  1   
 18  10  12  1   
 19  10  32  1   
 20  10  33  1   
 21  11  34  1   
 22  11  35  1   
 23  11  36  1   
 24  12  13  1   
 25  12  37  1   
 26  12  38  1   
 27  13  14  1   
 28  13  15  1   
 29  13  39  1   
 30  14  16  1   
 31  14  40  1   
 32  14  41  1   
 33  15  17  1   
 34  15  42  1   
 35  15  43  1   
 36  16  18  1   
 37  16  44  1   
 38  16  45  1   
 39  17  18  1   
 40  17  46  1   
 41  17  47  1   
 42  18  19  1   
 43  18  48  1   
 44  19  20  1   
 45  19  49  1   
 46  19  50  1   
 47  20  21  ar  
 48  20  22  ar  
 49  21  23  ar  
 50  21  51  1   
 51  22  24  ar  
 52  22  52  1   
 53  23  25  ar  
 54  23  53  1   
 55  24  25  ar  
 56  24  54  1   
 57  25  55  1   
@<TRIPOS>SUBSTRUCTURE
  1 ****  12 GROUP 4 **** **** 0

# MOE 2024.06 (io_trps.svl 2023.06)
