@<TRIPOS>MOLECULE
NONAME
58 60 1 0 0 
SMALL
USER_CHARGES


@<TRIPOS>ATOM
  1 O       -1.4850     1.0710    -1.0910 O.3   1 <1>  -0.3630 
  2 C       -2.3380     1.0730    -0.0260 C.ar  1 <1>   0.0830 
  3 C       -0.3190     0.2760    -0.9840 C.3   1 <1>   0.0400 
  4 C       -3.6600     0.6180    -0.1630 C.ar  1 <1>   0.0830 
  5 C       -1.9110     1.5630     1.2150 C.ar  1 <1>   0.0820 
  6 O       -4.2200     0.1440    -1.3220 O.3   1 <1>  -0.3630 
  7 C       -4.5130     0.6440     0.9400 C.ar  1 <1>  -0.1430 
  8 O       -0.6710     2.0660     1.4210 O.3   1 <1>  -0.3630 
  9 C       -2.7640     1.5530     2.3030 C.ar  1 <1>  -0.1500 
 10 C       -3.4510    -0.4530    -2.3470 C.3   1 <1>   0.0400 
 11 C       -4.0610     1.0990     2.1690 C.ar  1 <1>  -0.1500 
 12 C       -5.9510     0.1770     0.8060 C.3   1 <1>   0.4860 
 13 C       -0.4010     3.3270     0.8460 C.3   1 <1>   0.0400 
 14 N       -6.6340     1.0410    -0.1870 N.4   1 <1>  -0.9590 
 15 C       -6.6930     2.4850     0.2410 C.3   1 <1>   0.3430 
 16 C       -7.9860     0.5170    -0.5870 C.3   1 <1>   0.3430 
 17 C       -7.3490     3.3910    -0.8220 C.3   1 <1>   0.2090 
 18 C       -8.6610     1.3880    -1.6680 C.3   1 <1>   0.2090 
 19 N       -8.6480     2.8340    -1.3020 N.pl3 1 <1>  -0.8380 
 20 C       -9.8210     3.3790    -0.7830 C.ar  1 <1>   0.1000 
 21 C      -10.6380     4.1910    -1.5680 C.ar  1 <1>  -0.1430 
 22 C      -10.1950     3.1160     0.5320 C.ar  1 <1>  -0.1500 
 23 C      -11.8000     4.7190    -1.0320 C.ar  1 <1>  -0.1500 
 24 C      -10.2660     4.5060    -3.0110 C.3   1 <1>  -0.0970 
 25 C      -11.3570     3.6440     1.0670 C.ar  1 <1>  -0.1430 
 26 C      -12.1590     4.4490     0.2760 C.ar  1 <1>  -0.1500 
 27 C      -11.7660     3.3590     2.5010 C.3   1 <1>  -0.0970 
 28 H        0.0900     0.1450    -1.9690 H     1 <1>   0.0800 
 29 H       -0.5800    -0.6790    -0.5630 H     1 <1>   0.0800 
 30 H        0.4000     0.7740    -0.3600 H     1 <1>   0.0800 
 31 H       -2.4020     1.9100     3.2520 H     1 <1>   0.1500 
 32 H       -2.9450     0.3170    -2.9020 H     1 <1>   0.0800 
 33 H       -4.1140    -0.9900    -3.0020 H     1 <1>   0.0800 
 34 H       -2.7430    -1.1340    -1.9080 H     1 <1>   0.0800 
 35 H       -4.7040     1.1070     3.0330 H     1 <1>   0.1500 
 36 H       -6.4530     0.2280     1.7580 H     1 <1>   0.0800 
 37 H       -5.9530    -0.8470     0.4680 H     1 <1>   0.0800 
 38 H        0.6010     3.6100     1.1130 H     1 <1>   0.0800 
 39 H       -1.1020     4.0430     1.2360 H     1 <1>   0.0800 
 40 H       -0.4900     3.2580    -0.2230 H     1 <1>   0.0800 
 41 H       -6.0110     1.0020    -1.0130 H     1 <1>   0.4500 
 42 H       -5.6990     2.8500     0.4410 H     1 <1>   0.0800 
 43 H       -7.2640     2.5690     1.1500 H     1 <1>   0.0800 
 44 H       -8.6330     0.4970     0.2740 H     1 <1>   0.0800 
 45 H       -7.8960    -0.4900    -0.9580 H     1 <1>   0.0800 
 46 H       -6.6840     3.5040    -1.6610 H     1 <1>   0.0800 
 47 H       -7.5130     4.3700    -0.4050 H     1 <1>   0.0800 
 48 H       -9.6790     1.0640    -1.8040 H     1 <1>   0.0800 
 49 H       -8.1520     1.2600    -2.6080 H     1 <1>   0.0800 
 50 H       -9.5720     2.4940     1.1400 H     1 <1>   0.1500 
 51 H      -12.4370     5.3470    -1.6300 H     1 <1>   0.1500 
 52 H      -10.2190     3.5970    -3.5800 H     1 <1>   0.0800 
 53 H       -9.3050     4.9850    -3.0420 H     1 <1>   0.0800 
 54 H      -10.9890     5.1590    -3.4650 H     1 <1>   0.0800 
 55 H      -13.0660     4.8690     0.6750 H     1 <1>   0.1500 
 56 H      -11.0880     2.6690     2.9690 H     1 <1>   0.0800 
 57 H      -12.7540     2.9350     2.5210 H     1 <1>   0.0800 
 58 H      -11.7710     4.2740     3.0660 H     1 <1>   0.0800 
@<TRIPOS>BOND
  1   1   2  1   
  2   1   3  1   
  3   2   4  ar  
  4   2   5  ar  
  5   3  28  1   
  6   3  29  1   
  7   3  30  1   
  8   4   6  1   
  9   4   7  ar  
 10   5   8  1   
 11   5   9  ar  
 12   6  10  1   
 13   7  11  ar  
 14   7  12  1   
 15   8  13  1   
 16   9  11  ar  
 17   9  31  1   
 18  10  32  1   
 19  10  33  1   
 20  10  34  1   
 21  11  35  1   
 22  12  14  1   
 23  12  36  1   
 24  12  37  1   
 25  13  38  1   
 26  13  39  1   
 27  13  40  1   
 28  14  15  1   
 29  14  16  1   
 30  14  41  1   
 31  15  17  1   
 32  15  42  1   
 33  15  43  1   
 34  16  18  1   
 35  16  44  1   
 36  16  45  1   
 37  17  19  1   
 38  17  46  1   
 39  17  47  1   
 40  18  19  1   
 41  18  48  1   
 42  18  49  1   
 43  19  20  1   
 44  20  21  ar  
 45  20  22  ar  
 46  21  23  ar  
 47  21  24  1   
 48  22  25  ar  
 49  22  50  1   
 50  23  26  ar  
 51  23  51  1   
 52  24  52  1   
 53  24  53  1   
 54  24  54  1   
 55  25  26  ar  
 56  25  27  1   
 57  26  55  1   
 58  27  56  1   
 59  27  57  1   
 60  27  58  1   
@<TRIPOS>SUBSTRUCTURE
  1 ****  15 GROUP 4 **** **** 0

# MOE 2024.06 (io_trps.svl 2023.06)
