@<TRIPOS>MOLECULE
NONAME
48 50 1 0 0 
SMALL
USER_CHARGES


@<TRIPOS>ATOM
  1 O      -10.5640    -3.1960     0.6800 O.3   1 <1>  -0.3630 
  2 C       -9.4030    -2.7060     0.2320 C.ar  1 <1>   0.0830 
  3 C      -11.5940    -2.3760     0.1300 C.3   1 <1>   0.4000 
  4 C       -9.6290    -1.6270    -0.5720 C.ar  1 <1>   0.0830 
  5 C       -8.1280    -3.1630     0.4960 C.ar  1 <1>  -0.1500 
  6 O      -10.9430    -1.3890    -0.6670 O.3   1 <1>  -0.3630 
  7 C       -8.5890    -0.9370    -1.1620 C.ar  1 <1>  -0.1500 
  8 C       -7.0590    -2.4810    -0.0910 C.ar  1 <1>   0.0830 
  9 C       -7.2960    -1.3780    -0.9110 C.ar  1 <1>  -0.1500 
 10 O       -5.7590    -2.8330     0.0890 O.3   1 <1>  -0.3630 
 11 C       -5.4140    -3.9470     0.8890 C.3   1 <1>   0.1200 
 12 C       -3.8880    -4.0730     0.9100 C.3   1 <1>   0.2000 
 13 O       -3.3700    -2.9190     1.4810 O.3   1 <1>  -0.6800 
 14 C       -3.3340    -4.3010    -0.5230 C.3   1 <1>   0.3430 
 15 N       -1.8370    -4.1190    -0.7500 N.4   1 <1>  -0.9590 
 16 C       -1.0220    -4.7210     0.3520 C.3   1 <1>   0.4230 
 17 C       -1.3780    -2.7350    -1.1630 C.3   1 <1>   0.4230 
 18 C        0.4520    -4.3210     0.2120 C.3   1 <1>  -0.1600 
 19 C       -1.1560    -6.2430     0.2980 C.3   1 <1>  -0.2400 
 20 C       -0.5920    -2.0140    -0.0590 C.3   1 <1>  -0.1600 
 21 C       -2.4950    -1.8490    -1.7170 C.3   1 <1>  -0.2400 
 22 C        0.6500    -2.8070     0.3750 C.3   1 <1>  -0.1600 
 23 H      -12.1380    -1.8970     0.9250 H     1 <1>   0.0800 
 24 H      -12.2390    -2.9730    -0.4900 H     1 <1>   0.0800 
 25 H       -8.0110    -4.0130     1.1380 H     1 <1>   0.1500 
 26 H       -8.7890    -0.0890    -1.7910 H     1 <1>   0.1500 
 27 H       -6.4650    -0.8610    -1.3540 H     1 <1>   0.1500 
 28 H       -5.8660    -4.8260     0.4640 H     1 <1>   0.0800 
 29 H       -5.7920    -3.7910     1.8860 H     1 <1>   0.0800 
 30 H       -3.6090    -4.8960     1.5440 H     1 <1>   0.0800 
 31 H       -3.9660    -2.1630     1.2830 H     1 <1>   0.4000 
 32 H       -3.8880    -3.6740    -1.1990 H     1 <1>   0.0800 
 33 H       -3.5920    -5.3110    -0.7930 H     1 <1>   0.0800 
 34 H       -1.6160    -4.6920    -1.5690 H     1 <1>   0.4500 
 35 H       -1.3770    -4.3570     1.3040 H     1 <1>   0.0800 
 36 H       -0.6750    -2.8710    -1.9700 H     1 <1>   0.0800 
 37 H        0.8200    -4.6390    -0.7480 H     1 <1>   0.0800 
 38 H        1.0380    -4.8250     0.9620 H     1 <1>   0.0800 
 39 H       -0.8130    -6.6290    -0.6450 H     1 <1>   0.0800 
 40 H       -2.1670    -6.5600     0.4720 H     1 <1>   0.0800 
 41 H       -0.5500    -6.6810     1.0730 H     1 <1>   0.0800 
 42 H       -1.2260    -1.8400     0.7890 H     1 <1>   0.0800 
 43 H       -0.2750    -1.0480    -0.4130 H     1 <1>   0.0800 
 44 H       -3.2050    -1.5870    -0.9540 H     1 <1>   0.0800 
 45 H       -2.9930    -2.3270    -2.5410 H     1 <1>   0.0800 
 46 H       -2.0700    -0.9330    -2.0880 H     1 <1>   0.0800 
 47 H        1.5050    -2.5020    -0.2070 H     1 <1>   0.0800 
 48 H        0.8640    -2.5740     1.4050 H     1 <1>   0.0800 
@<TRIPOS>BOND
  1   1   2  1   
  2   1   3  1   
  3   2   4  ar  
  4   2   5  ar  
  5   3   6  1   
  6   3  23  1   
  7   3  24  1   
  8   4   6  1   
  9   4   7  ar  
 10   5   8  ar  
 11   5  25  1   
 12   7   9  ar  
 13   7  26  1   
 14   8   9  ar  
 15   8  10  1   
 16   9  27  1   
 17  10  11  1   
 18  11  12  1   
 19  11  28  1   
 20  11  29  1   
 21  12  13  1   
 22  12  14  1   
 23  12  30  1   
 24  13  31  1   
 25  14  15  1   
 26  14  32  1   
 27  14  33  1   
 28  15  16  1   
 29  15  17  1   
 30  15  34  1   
 31  16  18  1   
 32  16  19  1   
 33  16  35  1   
 34  17  20  1   
 35  17  21  1   
 36  17  36  1   
 37  18  22  1   
 38  18  37  1   
 39  18  38  1   
 40  19  39  1   
 41  19  40  1   
 42  19  41  1   
 43  20  22  1   
 44  20  42  1   
 45  20  43  1   
 46  21  44  1   
 47  21  45  1   
 48  21  46  1   
 49  22  47  1   
 50  22  48  1   
@<TRIPOS>SUBSTRUCTURE
  1 ****  10 GROUP 4 **** **** 0

# MOE 2024.06 (io_trps.svl 2023.06)
