@<TRIPOS>MOLECULE
NONAME
36 37 1 0 0 
SMALL
USER_CHARGES


@<TRIPOS>ATOM
  1 S        0.0530     0.6540    -1.4200 S.o2  1 <1>   1.4470 
  2 O       -0.5650     1.6130    -2.3110 O.2   1 <1>  -0.6500 
  3 O        0.1160    -0.7340    -1.8200 O.2   1 <1>  -0.6500 
  4 N       -0.8220     0.7160     0.0280 N.am  1 <1>  -0.8490 
  5 C        1.7180     1.2250    -0.9710 C.ar  1 <1>  -0.0090 
  6 C       -2.0170    -0.1480    -0.0060 C.3   1 <1>   0.1960 
  7 C       -1.1630     2.0740     0.4640 C.3   1 <1>   0.1960 
  8 C        2.2230     1.0830     0.3130 C.ar  1 <1>  -0.1500 
  9 C        2.5430     1.8080    -1.9220 C.ar  1 <1>  -0.1500 
 10 C       -3.1460     0.3030     0.9480 C.3   1 <1>   0.1200 
 11 C       -1.8330     2.0570     1.8570 C.3   1 <1>   0.1200 
 12 C        3.4960     1.5160     0.6910 C.ar  1 <1>   0.0860 
 13 C        3.8130     2.2410    -1.5970 C.ar  1 <1>  -0.1500 
 14 O       -2.6330     0.9230     2.0910 O.3   1 <1>  -0.5600 
 15 C        4.3000     2.1040    -0.3000 C.ar  1 <1>   0.0830 
 16 C        3.9060     1.3440     2.0760 C.2   1 <1>   0.5440 
 17 O        5.5440     2.5380     0.0320 O.3   1 <1>  -0.3630 
 18 O        3.0900     1.2810     2.9710 O.2   1 <1>  -0.5700 
 19 N        5.1980     1.2350     2.4550 N.am  1 <1>  -0.8000 
 20 C        6.3950     3.2110    -0.8720 C.3   1 <1>   0.0400 
 21 H       -1.7190    -1.1500     0.2510 H     1 <1>   0.0800 
 22 H       -2.4210    -0.1840    -1.0050 H     1 <1>   0.0800 
 23 H       -1.8340     2.5270    -0.2470 H     1 <1>   0.0800 
 24 H       -0.2770     2.6840     0.5110 H     1 <1>   0.0800 
 25 H        1.6030     0.6160     1.0620 H     1 <1>   0.1500 
 26 H        2.1800     1.9250    -2.9310 H     1 <1>   0.1500 
 27 H       -3.7300    -0.5440     1.2610 H     1 <1>   0.0800 
 28 H       -3.7990     1.0010     0.4530 H     1 <1>   0.0800 
 29 H       -2.4470     2.9310     1.9820 H     1 <1>   0.0800 
 30 H       -1.0750     2.0670     2.6200 H     1 <1>   0.0800 
 31 H        4.4060     2.6830    -2.3750 H     1 <1>   0.1500 
 32 H        5.4240     1.1870     3.4470 H     1 <1>   0.3700 
 33 H        5.9500     1.4780     1.8070 H     1 <1>   0.3700 
 34 H        7.2970     3.4740    -0.3510 H     1 <1>   0.0800 
 35 H        5.9030     4.1030    -1.2190 H     1 <1>   0.0800 
 36 H        6.6270     2.5540    -1.6920 H     1 <1>   0.0800 
@<TRIPOS>BOND
  1   1   2  2   
  2   1   3  2   
  3   1   4  am  
  4   1   5  1   
  5   4   6  1   
  6   4   7  1   
  7   5   8  ar  
  8   5   9  ar  
  9   6  10  1   
 10   6  21  1   
 11   6  22  1   
 12   7  11  1   
 13   7  23  1   
 14   7  24  1   
 15   8  12  ar  
 16   8  25  1   
 17   9  13  ar  
 18   9  26  1   
 19  10  14  1   
 20  10  27  1   
 21  10  28  1   
 22  11  14  1   
 23  11  29  1   
 24  11  30  1   
 25  12  15  ar  
 26  12  16  1   
 27  13  15  ar  
 28  13  31  1   
 29  15  17  1   
 30  16  18  2   
 31  16  19  am  
 32  17  20  1   
 33  19  32  1   
 34  19  33  1   
 35  20  34  1   
 36  20  35  1   
 37  20  36  1   
@<TRIPOS>SUBSTRUCTURE
  1 ****   8 GROUP 4 **** **** 0

# MOE 2024.06 (io_trps.svl 2023.06)
