@<TRIPOS>MOLECULE
NONAME
50 52 1 0 0 
SMALL
USER_CHARGES


@<TRIPOS>ATOM
  1 O       -1.8340     0.8610    -0.2900 O.3   1 <1>  -0.3630 
  2 C       -1.0750     1.9880    -0.2140 C.ar  1 <1>   0.0830 
  3 C       -1.3920    -0.2640    -1.0270 C.3   1 <1>   0.0400 
  4 C       -1.4500     2.9580     0.7130 C.ar  1 <1>  -0.1440 
  5 C        0.0370     2.2070    -1.0230 C.ar  1 <1>  -0.1500 
  6 C       -0.7150     4.1280     0.8260 C.ar  1 <1>  -0.1500 
  7 C       -2.6600     2.7370     1.5980 C.3   1 <1>   0.4870 
  8 C        0.7620     3.3780    -0.9050 C.ar  1 <1>  -0.1500 
  9 C        0.3880     4.3380     0.0170 C.ar  1 <1>  -0.1500 
 10 N       -3.8510     2.5820     0.7300 N.4   1 <1>  -0.9590 
 11 C       -4.1390     3.8220    -0.0780 C.3   1 <1>   0.3430 
 12 C       -5.0640     2.1080     1.4820 C.3   1 <1>   0.3430 
 13 C       -5.3510     3.6520    -1.0190 C.3   1 <1>   0.2090 
 14 C       -6.2760     1.8800     0.5550 C.3   1 <1>   0.2090 
 15 N       -6.5300     3.0650    -0.3130 N.pl3 1 <1>  -0.8380 
 16 C       -7.5950     3.8970     0.0360 C.ar  1 <1>   0.1000 
 17 C       -8.8810     3.6900    -0.4740 C.ar  1 <1>  -0.1430 
 18 C       -7.3790     4.9430     0.9270 C.ar  1 <1>  -0.1500 
 19 C       -9.9270     4.5150    -0.0680 C.ar  1 <1>  -0.1430 
 20 C       -9.1350     2.5570    -1.4720 C.3   1 <1>  -0.0970 
 21 C       -8.4130     5.7670     1.3170 C.ar  1 <1>  -0.1500 
 22 C       -9.6840     5.5500     0.8220 C.ar  1 <1>  -0.1500 
 23 C      -11.3540     4.3240    -0.5680 C.3   1 <1>  -0.0970 
 24 H       -1.3610    -0.0120    -2.0720 H     1 <1>   0.0800 
 25 H       -2.0880    -1.0690    -0.8680 H     1 <1>   0.0800 
 26 H       -0.4170    -0.5540    -0.6750 H     1 <1>   0.0800 
 27 H        0.3570     1.4840    -1.7510 H     1 <1>   0.1500 
 28 H       -0.9840     4.8880     1.5410 H     1 <1>   0.1500 
 29 H       -2.7890     3.5690     2.2710 H     1 <1>   0.0800 
 30 H       -2.5070     1.8420     2.1790 H     1 <1>   0.0800 
 31 H        1.6230     3.5440    -1.5320 H     1 <1>   0.1500 
 32 H        0.9610     5.2460     0.1060 H     1 <1>   0.1500 
 33 H       -3.5710     1.8460     0.0600 H     1 <1>   0.4500 
 34 H       -3.2760     4.0840    -0.6690 H     1 <1>   0.0800 
 35 H       -4.3430     4.6440     0.5860 H     1 <1>   0.0800 
 36 H       -5.3430     2.8430     2.2180 H     1 <1>   0.0800 
 37 H       -4.8420     1.1890     1.9980 H     1 <1>   0.0800 
 38 H       -5.0830     3.0110    -1.8400 H     1 <1>   0.0800 
 39 H       -5.6220     4.6100    -1.4310 H     1 <1>   0.0800 
 40 H       -7.1500     1.6820     1.1530 H     1 <1>   0.0800 
 41 H       -6.1040     1.0190    -0.0660 H     1 <1>   0.0800 
 42 H       -6.4000     5.1140     1.3240 H     1 <1>   0.1500 
 43 H       -8.2430     2.3040    -2.0140 H     1 <1>   0.0800 
 44 H       -9.8720     2.8400    -2.2000 H     1 <1>   0.0800 
 45 H       -9.4790     1.6850    -0.9470 H     1 <1>   0.0800 
 46 H       -8.2390     6.5750     2.0060 H     1 <1>   0.1500 
 47 H      -10.4850     6.1970     1.1350 H     1 <1>   0.1500 
 48 H      -11.6520     3.2970    -0.4620 H     1 <1>   0.0800 
 49 H      -11.4190     4.6060    -1.6030 H     1 <1>   0.0800 
 50 H      -12.0440     4.9290    -0.0080 H     1 <1>   0.0800 
@<TRIPOS>BOND
  1   1   2  1   
  2   1   3  1   
  3   2   4  ar  
  4   2   5  ar  
  5   3  24  1   
  6   3  25  1   
  7   3  26  1   
  8   4   6  ar  
  9   4   7  1   
 10   5   8  ar  
 11   5  27  1   
 12   6   9  ar  
 13   6  28  1   
 14   7  10  1   
 15   7  29  1   
 16   7  30  1   
 17   8   9  ar  
 18   8  31  1   
 19   9  32  1   
 20  10  11  1   
 21  10  12  1   
 22  10  33  1   
 23  11  13  1   
 24  11  34  1   
 25  11  35  1   
 26  12  14  1   
 27  12  36  1   
 28  12  37  1   
 29  13  15  1   
 30  13  38  1   
 31  13  39  1   
 32  14  15  1   
 33  14  40  1   
 34  14  41  1   
 35  15  16  1   
 36  16  17  ar  
 37  16  18  ar  
 38  17  19  ar  
 39  17  20  1   
 40  18  21  ar  
 41  18  42  1   
 42  19  22  ar  
 43  19  23  1   
 44  20  43  1   
 45  20  44  1   
 46  20  45  1   
 47  21  22  ar  
 48  21  46  1   
 49  22  47  1   
 50  23  48  1   
 51  23  49  1   
 52  23  50  1   
@<TRIPOS>SUBSTRUCTURE
  1 ****  11 GROUP 4 **** **** 0

# MOE 2024.06 (io_trps.svl 2023.06)
