@<TRIPOS>MOLECULE
11965
47 49 1 0 0 
SMALL
USER_CHARGES


@<TRIPOS>ATOM
  1 BR       1.4790     0.4820     3.0830 Br    1 <1>  -0.1110 
  2 C        2.3190    -0.7310     1.8480 C.ar  1 <1>   0.1110 
  3 C        3.5740    -0.4180     1.3640 C.ar  1 <1>  -0.1500 
  4 C        1.6400    -1.8780     1.4820 C.ar  1 <1>  -0.1500 
  5 C        4.1810    -1.2990     0.4720 C.ar  1 <1>   0.0830 
  6 C        2.2480    -2.7480     0.5930 C.ar  1 <1>  -0.1500 
  7 O        5.4100    -1.1050    -0.0710 O.3   1 <1>  -0.3630 
  8 C        3.5090    -2.4550     0.0950 C.ar  1 <1>  -0.1500 
  9 C        6.3190    -0.1190     0.3960 C.3   1 <1>   0.2610 
 10 C        7.3910     0.1750    -0.6700 C.2   1 <1>   0.5690 
 11 C        6.9080    -0.5810     1.7400 C.3   1 <1>  -0.2400 
 12 O        7.4950     1.3030    -1.0830 O.2   1 <1>  -0.5700 
 13 N        8.2600    -0.7680    -1.1470 N.am  1 <1>  -0.4940 
 14 C        8.3470    -2.1220    -0.8810 C.2   1 <1>   0.1040 
 15 S        9.7310    -2.5970     0.0840 S.3   1 <1>  -0.0800 
 16 C        7.5730    -3.2040    -1.2230 C.2   1 <1>  -0.0860 
 17 C        9.2030    -4.2620     0.0970 C.2   1 <1>  -0.1400 
 18 C        8.0670    -4.4150    -0.5980 C.2   1 <1>  -0.1810 
 19 C        6.4510    -3.1660    -2.1350 C.2   1 <1>   0.7160 
 20 C       10.0080    -5.3050     0.8400 C.3   1 <1>   0.0200 
 21 C        7.4080    -5.7880    -0.6890 C.3   1 <1>   0.0210 
 22 O        5.6680    -4.0840    -2.2770 O.2   1 <1>  -0.5700 
 23 N        6.2130    -2.0930    -2.9190 N.am  1 <1>  -0.8000 
 24 C        9.5450    -6.7060     0.3980 C.3   1 <1>  -0.0800 
 25 C        8.0060    -6.7830     0.3270 C.3   1 <1>  -0.1600 
 26 C       10.1020    -7.7850     1.3350 C.3   1 <1>  -0.2400 
 27 H        4.0360     0.4920     1.6900 H     1 <1>   0.1500 
 28 H        0.6640    -2.0840     1.8820 H     1 <1>   0.1500 
 29 H        1.7470    -3.6500     0.2880 H     1 <1>   0.1500 
 30 H        3.9780    -3.1340    -0.5930 H     1 <1>   0.1500 
 31 H        5.7730     0.7950     0.5330 H     1 <1>   0.0800 
 32 H        7.3630    -1.5500     1.6410 H     1 <1>   0.0800 
 33 H        6.1430    -0.6330     2.4930 H     1 <1>   0.0800 
 34 H        7.6560     0.1180     2.0680 H     1 <1>   0.0800 
 35 H        9.0670    -0.3440    -1.6060 H     1 <1>   0.3700 
 36 H        9.8540    -5.1710     1.8960 H     1 <1>   0.0800 
 37 H       11.0550    -5.1820     0.6270 H     1 <1>   0.0800 
 38 H        7.5350    -6.1660    -1.6890 H     1 <1>   0.0800 
 39 H        6.3530    -5.7040    -0.4940 H     1 <1>   0.0800 
 40 H        5.3470    -2.0660    -3.4540 H     1 <1>   0.3700 
 41 H        6.6900    -1.2070    -2.7610 H     1 <1>   0.3700 
 42 H        9.9310    -6.8870    -0.5920 H     1 <1>   0.0800 
 43 H        7.6970    -7.7790     0.0610 H     1 <1>   0.0800 
 44 H        7.6020    -6.5640     1.3000 H     1 <1>   0.0800 
 45 H        9.7260    -7.6520     2.3340 H     1 <1>   0.0800 
 46 H       11.1760    -7.7380     1.3610 H     1 <1>   0.0800 
 47 H        9.8150    -8.7620     0.9880 H     1 <1>   0.0800 
@<TRIPOS>BOND
  1   1   2  1   
  2   2   3  ar  
  3   2   4  ar  
  4   3   5  ar  
  5   3  27  1   
  6   4   6  ar  
  7   4  28  1   
  8   5   7  1   
  9   5   8  ar  
 10   6   8  ar  
 11   6  29  1   
 12   7   9  1   
 13   8  30  1   
 14   9  10  1   
 15   9  11  1   
 16   9  31  1   
 17  10  12  2   
 18  10  13  am  
 19  11  32  1   
 20  11  33  1   
 21  11  34  1   
 22  13  14  1   
 23  13  35  1   
 24  14  15  1   
 25  14  16  2   
 26  15  17  1   
 27  16  18  1   
 28  16  19  1   
 29  17  18  2   
 30  17  20  1   
 31  18  21  1   
 32  19  22  2   
 33  19  23  am  
 34  20  24  1   
 35  20  36  1   
 36  20  37  1   
 37  21  25  1   
 38  21  38  1   
 39  21  39  1   
 40  23  40  1   
 41  23  41  1   
 42  24  25  1   
 43  24  26  1   
 44  24  42  1   
 45  25  43  1   
 46  25  44  1   
 47  26  45  1   
 48  26  46  1   
 49  26  47  1   
@<TRIPOS>SUBSTRUCTURE
  1 ****  16 GROUP 4 **** **** 0

# MOE 2024.06 (io_trps.svl 2023.06)
