@<TRIPOS>MOLECULE
NONAME
54 56 1 0 0 
SMALL
USER_CHARGES


@<TRIPOS>ATOM
  1 O       -0.4390    -3.6420     0.7330 O.3   1 <1>  -0.3630 
  2 C       -1.7360    -3.8560     0.4210 C.ar  1 <1>   0.0820 
  3 C        0.4540    -3.6430    -0.3590 C.3   1 <1>   0.1200 
  4 C       -2.2360    -5.1560     0.4100 C.ar  1 <1>  -0.1440 
  5 C       -2.5580    -2.7720     0.1200 C.ar  1 <1>  -0.1440 
  6 C        1.8480    -3.2640     0.1530 C.3   1 <1>   0.2000 
  7 C       -3.5580    -5.3650     0.0550 C.ar  1 <1>  -0.1500 
  8 C       -1.3720    -6.3520     0.7850 C.3   1 <1>  -0.0960 
  9 C       -3.8760    -3.0060    -0.2320 C.ar  1 <1>  -0.1500 
 10 C       -2.0490    -1.3380     0.1760 C.3   1 <1>  -0.0960 
 11 O        1.7450    -2.1160     0.9430 O.3   1 <1>  -0.6800 
 12 C        2.8490    -3.0010    -0.9920 C.3   1 <1>   0.3430 
 13 C       -4.3740    -4.2960    -0.2690 C.ar  1 <1>  -0.1500 
 14 N        3.9500    -2.1040    -0.5240 N.4   1 <1>  -0.9590 
 15 C        4.5900    -1.3180    -1.6410 C.3   1 <1>   0.3430 
 16 C        4.9790    -2.8240     0.3140 C.3   1 <1>   0.3430 
 17 C        5.7060    -0.3760    -1.1390 C.3   1 <1>   0.2090 
 18 C        6.0900    -1.8830     0.8220 C.3   1 <1>   0.2090 
 19 N        6.6940    -1.1230    -0.3100 N.pl3 1 <1>  -0.8380 
 20 C        7.8830    -0.4570    -0.0360 C.ar  1 <1>   0.1000 
 21 C        9.0590    -0.8720    -0.6450 C.ar  1 <1>  -0.1500 
 22 C        7.9270     0.6240     0.8390 C.ar  1 <1>  -0.1500 
 23 C       10.2550    -0.2260    -0.3900 C.ar  1 <1>  -0.1500 
 24 C        9.1210     1.2730     1.0970 C.ar  1 <1>  -0.1500 
 25 C       10.2870     0.8490     0.4830 C.ar  1 <1>  -0.1500 
 26 H        0.1020    -2.9310    -1.0850 H     1 <1>   0.0800 
 27 H        0.4530    -4.6250    -0.7980 H     1 <1>   0.0800 
 28 H        2.2150    -4.0590     0.7800 H     1 <1>   0.0800 
 29 H       -3.9640    -6.3610     0.0320 H     1 <1>   0.1500 
 30 H       -0.7720    -6.6510    -0.0540 H     1 <1>   0.0800 
 31 H       -1.9850    -7.1840     1.0820 H     1 <1>   0.0800 
 32 H       -0.7290    -6.1040     1.6110 H     1 <1>   0.0800 
 33 H       -4.5270    -2.1850    -0.4770 H     1 <1>   0.1500 
 34 H       -1.4300    -1.1970     1.0440 H     1 <1>   0.0800 
 35 H       -2.8700    -0.6460     0.2380 H     1 <1>   0.0800 
 36 H       -1.4780    -1.1140    -0.7050 H     1 <1>   0.0800 
 37 H        0.9420    -2.2110     1.5100 H     1 <1>   0.4000 
 38 H        2.3160    -2.5170    -1.7940 H     1 <1>   0.0800 
 39 H        3.2430    -3.9290    -1.3710 H     1 <1>   0.0800 
 40 H       -5.4000    -4.4680    -0.5440 H     1 <1>   0.1500 
 41 H        3.4650    -1.4450     0.1150 H     1 <1>   0.4500 
 42 H        3.8440    -0.7340    -2.1540 H     1 <1>   0.0800 
 43 H        5.0280    -1.9980    -2.3530 H     1 <1>   0.0800 
 44 H        5.4430    -3.5990    -0.2720 H     1 <1>   0.0800 
 45 H        4.5010    -3.2870     1.1620 H     1 <1>   0.0800 
 46 H        5.2770     0.4230    -0.5600 H     1 <1>   0.0800 
 47 H        6.2120     0.0610    -1.9830 H     1 <1>   0.0800 
 48 H        6.8580    -2.4620     1.3070 H     1 <1>   0.0800 
 49 H        5.6850    -1.1970     1.5460 H     1 <1>   0.0800 
 50 H        9.0300    -1.7060    -1.3210 H     1 <1>   0.1500 
 51 H        7.0280     0.9590     1.3180 H     1 <1>   0.1500 
 52 H       11.1600    -0.5570    -0.8680 H     1 <1>   0.1500 
 53 H        9.1460     2.1080     1.7750 H     1 <1>   0.1500 
 54 H       11.2170     1.3530     0.6830 H     1 <1>   0.1500 
@<TRIPOS>BOND
  1   1   2  1   
  2   1   3  1   
  3   2   4  ar  
  4   2   5  ar  
  5   3   6  1   
  6   3  26  1   
  7   3  27  1   
  8   4   7  ar  
  9   4   8  1   
 10   5   9  ar  
 11   5  10  1   
 12   6  11  1   
 13   6  12  1   
 14   6  28  1   
 15   7  13  ar  
 16   7  29  1   
 17   8  30  1   
 18   8  31  1   
 19   8  32  1   
 20   9  13  ar  
 21   9  33  1   
 22  10  34  1   
 23  10  35  1   
 24  10  36  1   
 25  11  37  1   
 26  12  14  1   
 27  12  38  1   
 28  12  39  1   
 29  13  40  1   
 30  14  15  1   
 31  14  16  1   
 32  14  41  1   
 33  15  17  1   
 34  15  42  1   
 35  15  43  1   
 36  16  18  1   
 37  16  44  1   
 38  16  45  1   
 39  17  19  1   
 40  17  46  1   
 41  17  47  1   
 42  18  19  1   
 43  18  48  1   
 44  18  49  1   
 45  19  20  1   
 46  20  21  ar  
 47  20  22  ar  
 48  21  23  ar  
 49  21  50  1   
 50  22  24  ar  
 51  22  51  1   
 52  23  25  ar  
 53  23  52  1   
 54  24  25  ar  
 55  24  53  1   
 56  25  54  1   
@<TRIPOS>SUBSTRUCTURE
  1 ****  14 GROUP 4 **** **** 0

# MOE 2024.06 (io_trps.svl 2023.06)
