@<TRIPOS>MOLECULE
NONAME
40 41 1 0 0 
SMALL
USER_CHARGES


@<TRIPOS>ATOM
  1 F        1.0720    -0.0430    -0.0300 F     1 <1>  -0.1900 
  2 C        0.8910    -1.3410    -0.0230 C.ar  1 <1>   0.1900 
  3 C        1.9930    -2.1910    -0.0160 C.ar  1 <1>   0.0820 
  4 C       -0.4090    -1.8090    -0.0240 C.ar  1 <1>  -0.1500 
  5 O        3.2410    -1.6460    -0.0150 O.3   1 <1>  -0.3630 
  6 C        1.7550    -3.5640    -0.0090 C.ar  1 <1>  -0.1500 
  7 C       -0.6250    -3.1770    -0.0170 C.ar  1 <1>  -0.1500 
  8 C        4.3970    -2.4500    -0.0080 C.3   1 <1>   0.1200 
  9 C        0.4540    -4.0480    -0.0090 C.ar  1 <1>  -0.1500 
 10 C        5.6130    -1.5240    -0.0110 C.3   1 <1>  -0.1600 
 11 C        6.9220    -2.3240    -0.0030 C.3   1 <1>  -0.1600 
 12 C        8.1350    -1.3930    -0.0060 C.3   1 <1>   0.1200 
 13 O        9.2970    -2.1890     0.0010 O.3   1 <1>  -0.3630 
 14 C       10.5300    -1.6230     0.0010 C.ar  1 <1>   0.0830 
 15 C       10.7530    -0.2500    -0.0050 C.ar  1 <1>  -0.1500 
 16 C       11.6130    -2.4880     0.0090 C.ar  1 <1>  -0.1500 
 17 C       12.0440     0.2510    -0.0050 C.ar  1 <1>   0.0830 
 18 C       12.9050    -1.9940     0.0100 C.ar  1 <1>  -0.1500 
 19 O       12.1720     1.6020    -0.0120 O.3   1 <1>  -0.3630 
 20 C       13.1250    -0.6280     0.0030 C.ar  1 <1>  -0.1500 
 21 C       13.4400     2.2180    -0.0120 C.3   1 <1>   0.0400 
 22 H       -1.2300    -1.1160    -0.0300 H     1 <1>   0.1500 
 23 H        2.5620    -4.2710    -0.0020 H     1 <1>   0.1500 
 24 H       -1.6300    -3.5630    -0.0170 H     1 <1>   0.1500 
 25 H        4.3870    -3.0680    -0.8890 H     1 <1>   0.0800 
 26 H        4.3830    -3.0590     0.8790 H     1 <1>   0.0800 
 27 H        0.2790    -5.1100    -0.0040 H     1 <1>   0.1500 
 28 H        5.5720    -0.8930     0.8610 H     1 <1>   0.0800 
 29 H        5.5760    -0.9020    -0.8890 H     1 <1>   0.0800 
 30 H        6.9650    -2.9540    -0.8750 H     1 <1>   0.0800 
 31 H        6.9610    -2.9440     0.8760 H     1 <1>   0.0800 
 32 H        8.1420    -0.7740     0.8750 H     1 <1>   0.0800 
 33 H        8.1460    -0.7830    -0.8930 H     1 <1>   0.0800 
 34 H        9.9450     0.4550    -0.0120 H     1 <1>   0.1500 
 35 H       11.4340    -3.5480     0.0140 H     1 <1>   0.1500 
 36 H       13.7390    -2.6750     0.0160 H     1 <1>   0.1500 
 37 H       14.1360    -0.2700     0.0040 H     1 <1>   0.1500 
 38 H       13.2940     3.2830    -0.0180 H     1 <1>   0.0800 
 39 H       13.9740     1.9170    -0.8950 H     1 <1>   0.0800 
 40 H       13.9690     1.9270     0.8780 H     1 <1>   0.0800 
@<TRIPOS>BOND
  1   1   2  1   
  2   2   3  ar  
  3   2   4  ar  
  4   3   5  1   
  5   3   6  ar  
  6   4   7  ar  
  7   4  22  1   
  8   5   8  1   
  9   6   9  ar  
 10   6  23  1   
 11   7   9  ar  
 12   7  24  1   
 13   8  10  1   
 14   8  25  1   
 15   8  26  1   
 16   9  27  1   
 17  10  11  1   
 18  10  28  1   
 19  10  29  1   
 20  11  12  1   
 21  11  30  1   
 22  11  31  1   
 23  12  13  1   
 24  12  32  1   
 25  12  33  1   
 26  13  14  1   
 27  14  15  ar  
 28  14  16  ar  
 29  15  17  ar  
 30  15  34  1   
 31  16  18  ar  
 32  16  35  1   
 33  17  19  1   
 34  17  20  ar  
 35  18  20  ar  
 36  18  36  1   
 37  19  21  1   
 38  20  37  1   
 39  21  38  1   
 40  21  39  1   
 41  21  40  1   
@<TRIPOS>SUBSTRUCTURE
  1 ****  11 GROUP 4 **** **** 0

# MOE 2024.06 (io_trps.svl 2023.06)
