@<TRIPOS>MOLECULE
NONAME
53 55 1 0 0 
SMALL
USER_CHARGES


@<TRIPOS>ATOM
  1 S       -0.1230    -0.3330     0.6680 S.o2  1 <1>   1.4470 
  2 O       -0.6740     0.5440     1.6700 O.2   1 <1>  -0.6500 
  3 O       -0.3800    -1.7510     0.7030 O.2   1 <1>  -0.6500 
  4 N       -0.9150     0.1520    -0.7000 N.am  1 <1>  -0.9780 
  5 C        1.6210     0.0310     0.3230 C.ar  1 <1>  -0.0090 
  6 C        2.4020    -0.8390    -0.4280 C.ar  1 <1>  -0.1500 
  7 C        2.2220     1.1990     0.7770 C.ar  1 <1>  -0.1500 
  8 C        3.7280    -0.5590    -0.7100 C.ar  1 <1>  -0.1500 
  9 C        3.5470     1.4850     0.4980 C.ar  1 <1>  -0.1500 
 10 C        4.3260     0.6080    -0.2500 C.ar  1 <1>   0.1170 
 11 N        5.6720     0.8470    -0.5790 N.am  1 <1>  -0.5470 
 12 C        6.5980     1.6700     0.0140 C.2   1 <1>   0.5690 
 13 O        6.3700     2.3340     0.9970 O.2   1 <1>  -0.5700 
 14 C        8.0180     1.7790    -0.5770 C.3   1 <1>   0.4040 
 15 N        8.7710     3.0030    -0.1050 N.4   1 <1>  -0.9590 
 16 C        8.1920     4.2610    -0.6620 C.3   1 <1>   0.3430 
 17 C       10.2400     2.8980    -0.3270 C.3   1 <1>   0.3430 
 18 C        8.8690     5.4690    -0.0150 C.3   1 <1>  -0.1600 
 19 C       10.9440     4.0860     0.3240 C.3   1 <1>  -0.1600 
 20 C       10.3960     5.4310    -0.1890 C.3   1 <1>  -0.0800 
 21 C       11.0580     6.6290     0.5190 C.3   1 <1>  -0.0170 
 22 C       12.5670     6.6260     0.3260 C.ar  1 <1>  -0.1430 
 23 C       13.1150     6.9980    -0.8920 C.ar  1 <1>  -0.1500 
 24 C       13.4080     6.2460     1.3620 C.ar  1 <1>  -0.1500 
 25 C       14.4870     6.9800    -1.0760 C.ar  1 <1>  -0.1500 
 26 C       14.7800     6.2280     1.1780 C.ar  1 <1>  -0.1500 
 27 C       15.3200     6.5930    -0.0420 C.ar  1 <1>  -0.1500 
 28 H       -1.4800     0.9340    -0.3770 H     1 <1>   0.4200 
 29 H       -1.5630    -0.6110    -0.8760 H     1 <1>   0.4200 
 30 H        1.9620    -1.7520    -0.7970 H     1 <1>   0.1500 
 31 H        1.6440     1.8970     1.3610 H     1 <1>   0.1500 
 32 H        4.2940    -1.2630    -1.2910 H     1 <1>   0.1500 
 33 H        3.9610     2.4040     0.8690 H     1 <1>   0.1500 
 34 H        5.9920     0.2640    -1.3530 H     1 <1>   0.3700 
 35 H        7.9520     1.7870    -1.6510 H     1 <1>   0.0800 
 36 H        8.5580     0.8970    -0.2800 H     1 <1>   0.0800 
 37 H        8.5960     3.0530     0.9130 H     1 <1>   0.4500 
 38 H        7.1320     4.3010    -0.4620 H     1 <1>   0.0800 
 39 H        8.3410     4.2940    -1.7300 H     1 <1>   0.0800 
 40 H       10.4520     2.8930    -1.3850 H     1 <1>   0.0800 
 41 H       10.6170     1.9820     0.1010 H     1 <1>   0.0800 
 42 H        8.6110     5.4990     1.0300 H     1 <1>   0.0800 
 43 H        8.4790     6.3650    -0.4670 H     1 <1>   0.0800 
 44 H       11.9950     4.0140     0.1010 H     1 <1>   0.0800 
 45 H       10.8380     4.0230     1.3930 H     1 <1>   0.0800 
 46 H       10.6190     5.5070    -1.2410 H     1 <1>   0.0800 
 47 H       10.8280     6.6110     1.5700 H     1 <1>   0.0800 
 48 H       10.6640     7.5490     0.1210 H     1 <1>   0.0800 
 49 H       12.4800     7.3050    -1.7030 H     1 <1>   0.1500 
 50 H       13.0040     5.9630     2.3180 H     1 <1>   0.1500 
 51 H       14.9070     7.2700    -2.0240 H     1 <1>   0.1500 
 52 H       15.4280     5.9330     1.9850 H     1 <1>   0.1500 
 53 H       16.3860     6.5800    -0.1850 H     1 <1>   0.1500 
@<TRIPOS>BOND
  1   1   2  2   
  2   1   3  2   
  3   1   4  am  
  4   1   5  1   
  5   4  28  1   
  6   4  29  1   
  7   5   6  ar  
  8   5   7  ar  
  9   6   8  ar  
 10   6  30  1   
 11   7   9  ar  
 12   7  31  1   
 13   8  10  ar  
 14   8  32  1   
 15   9  10  ar  
 16   9  33  1   
 17  10  11  1   
 18  11  12  am  
 19  11  34  1   
 20  12  13  2   
 21  12  14  1   
 22  14  15  1   
 23  14  35  1   
 24  14  36  1   
 25  15  16  1   
 26  15  17  1   
 27  15  37  1   
 28  16  18  1   
 29  16  38  1   
 30  16  39  1   
 31  17  19  1   
 32  17  40  1   
 33  17  41  1   
 34  18  20  1   
 35  18  42  1   
 36  18  43  1   
 37  19  20  1   
 38  19  44  1   
 39  19  45  1   
 40  20  21  1   
 41  20  46  1   
 42  21  22  1   
 43  21  47  1   
 44  21  48  1   
 45  22  23  ar  
 46  22  24  ar  
 47  23  25  ar  
 48  23  49  1   
 49  24  26  ar  
 50  24  50  1   
 51  25  27  ar  
 52  25  51  1   
 53  26  27  ar  
 54  26  52  1   
 55  27  53  1   
@<TRIPOS>SUBSTRUCTURE
  1 ****  13 GROUP 4 **** **** 0

# MOE 2024.06 (io_trps.svl 2023.06)
