@<TRIPOS>MOLECULE
NONAME
42 44 1 0 0 
SMALL
USER_CHARGES


@<TRIPOS>ATOM
  1 O       -1.2500     0.8560    -1.2920 O.2   1 <1>  -0.5700 
  2 C       -0.7760     1.6040    -0.4740 C.2   1 <1>   0.6590 
  3 O        0.5310     1.7900    -0.3590 O.3   1 <1>  -0.4300 
  4 C       -1.6430     2.4100     0.4900 C.3   1 <1>  -0.0190 
  5 C        1.4450     1.1180    -1.1930 C.3   1 <1>   0.1200 
  6 C       -3.0520     1.8030     0.6640 C.3   1 <1>  -0.1600 
  7 C       -1.7410     3.8810     0.0380 C.3   1 <1>  -0.1600 
  8 C        2.8520     1.5620    -0.8080 C.3   1 <1>  -0.2400 
  9 C       -3.9300     2.6800     1.5540 C.3   1 <1>   0.2090 
 10 C       -2.6800     4.7030     0.9250 C.3   1 <1>   0.2090 
 11 N       -4.0260     4.0440     0.9420 N.pl3 1 <1>  -0.8380 
 12 C       -5.1470     4.6000     0.4270 C.ar  1 <1>   0.4610 
 13 N       -6.1920     3.8170     0.1360 N.ar  1 <1>  -0.1790 
 14 C       -5.3020     5.9860     0.1470 C.ar  1 <1>  -0.1500 
 15 C       -7.3830     4.2530    -0.4190 C.ar  1 <1>   0.3610 
 16 C       -6.4440     6.4840    -0.3990 C.ar  1 <1>  -0.1500 
 17 C       -7.5290     5.6200    -0.7040 C.ar  1 <1>   0.0000 
 18 C       -8.4300     3.3700    -0.7040 C.ar  1 <1>  -0.1500 
 19 C       -8.7300     6.0670    -1.2690 C.ar  1 <1>  -0.1500 
 20 C       -9.6010     3.8310    -1.2590 C.ar  1 <1>  -0.1500 
 21 C       -9.7490     5.1870    -1.5410 C.ar  1 <1>  -0.1500 
 22 H       -1.1520     2.3860     1.4470 H     1 <1>   0.0800 
 23 H        1.2250     1.3740    -2.2170 H     1 <1>   0.0800 
 24 H        1.3210     0.0570    -1.0520 H     1 <1>   0.0800 
 25 H       -2.9640     0.8230     1.1010 H     1 <1>   0.0800 
 26 H       -3.5230     1.6900    -0.2970 H     1 <1>   0.0800 
 27 H       -2.0970     3.9240    -0.9780 H     1 <1>   0.0800 
 28 H       -0.7610     4.3260     0.0550 H     1 <1>   0.0800 
 29 H        2.9580     2.6230    -0.9460 H     1 <1>   0.0800 
 30 H        3.5720     1.0630    -1.4310 H     1 <1>   0.0800 
 31 H        3.0530     1.3090     0.2180 H     1 <1>   0.0800 
 32 H       -3.4840     2.7620     2.5330 H     1 <1>   0.0800 
 33 H       -4.8970     2.2280     1.6830 H     1 <1>   0.0800 
 34 H       -2.7190     5.7040     0.5380 H     1 <1>   0.0800 
 35 H       -2.2890     4.7540     1.9290 H     1 <1>   0.0800 
 36 H       -6.0670     2.8240     0.2850 H     1 <1>   0.4570 
 37 H       -4.5040     6.6600     0.3890 H     1 <1>   0.1500 
 38 H       -6.5560     7.5360    -0.6070 H     1 <1>   0.1500 
 39 H       -8.3280     2.3210    -0.4910 H     1 <1>   0.1500 
 40 H       -8.8520     7.1150    -1.4900 H     1 <1>   0.1500 
 41 H      -10.4120     3.1560    -1.4810 H     1 <1>   0.1500 
 42 H      -10.6720     5.5380    -1.9770 H     1 <1>   0.1500 
@<TRIPOS>BOND
  1   1   2  2   
  2   2   3  1   
  3   2   4  1   
  4   3   5  1   
  5   4   6  1   
  6   4   7  1   
  7   4  22  1   
  8   5   8  1   
  9   5  23  1   
 10   5  24  1   
 11   6   9  1   
 12   6  25  1   
 13   6  26  1   
 14   7  10  1   
 15   7  27  1   
 16   7  28  1   
 17   8  29  1   
 18   8  30  1   
 19   8  31  1   
 20   9  11  1   
 21   9  32  1   
 22   9  33  1   
 23  10  11  1   
 24  10  34  1   
 25  10  35  1   
 26  11  12  1   
 27  12  13  ar  
 28  12  14  ar  
 29  13  15  ar  
 30  13  36  1   
 31  14  16  ar  
 32  14  37  1   
 33  15  17  ar  
 34  15  18  ar  
 35  16  17  ar  
 36  16  38  1   
 37  17  19  ar  
 38  18  20  ar  
 39  18  39  1   
 40  19  21  ar  
 41  19  40  1   
 42  20  21  ar  
 43  20  41  1   
 44  21  42  1   
@<TRIPOS>SUBSTRUCTURE
  1 ****  11 GROUP 4 **** **** 0

# MOE 2024.06 (io_trps.svl 2023.06)
