@<TRIPOS>MOLECULE
NONAME
48 50 1 0 0 
SMALL
USER_CHARGES


@<TRIPOS>ATOM
  1 O       -1.5030     0.1010    -1.4630 O.2   1 <1>  -0.5700 
  2 C       -2.2280    -0.6970    -0.9060 C.2   1 <1>   0.7060 
  3 O       -3.4380    -0.2970    -0.5200 O.3   1 <1>  -0.2330 
  4 C       -1.8520    -2.0460    -0.6470 C.2   1 <1>  -0.1360 
  5 C       -4.3260    -1.1080     0.1030 C.ar  1 <1>   0.0820 
  6 C       -2.6820    -2.9210    -0.0300 C.2   1 <1>  -0.1670 
  7 C       -3.9840    -2.4480     0.3670 C.ar  1 <1>   0.0280 
  8 C       -5.5650    -0.5810     0.4630 C.ar  1 <1>  -0.1440 
  9 C       -2.3050    -4.3780     0.2640 C.3   1 <1>  -0.0220 
 10 C       -4.9410    -3.2420     1.0090 C.ar  1 <1>  -0.1500 
 11 C       -6.4950    -1.4160     1.0670 C.ar  1 <1>   0.0830 
 12 C       -5.8890     0.8920     0.2090 C.3   1 <1>  -0.0960 
 13 C       -0.8990    -4.7960    -0.1940 C.3   1 <1>  -0.1600 
 14 C       -6.1740    -2.7350     1.3530 C.ar  1 <1>  -0.1500 
 15 O       -7.7260    -0.9800     1.3960 O.3   1 <1>  -0.3630 
 16 C       -0.6160    -6.2650     0.1440 C.3   1 <1>  -0.1600 
 17 C       -8.6910    -0.9230     0.3570 C.3   1 <1>   0.2610 
 18 C        0.7860    -6.6740    -0.3140 C.3   1 <1>  -0.2400 
 19 C       -9.5350     0.3560     0.4370 C.2   1 <1>   0.4480 
 20 C       -9.5610    -2.1860     0.4570 C.3   1 <1>  -0.1600 
 21 O       -9.2810     1.2960     1.1320 O.2   1 <1>  -0.5700 
 22 C      -10.7510     0.3840    -0.4750 C.3   1 <1>  -0.0990 
 23 C      -10.7320    -2.1520    -0.5380 C.3   1 <1>  -0.1600 
 24 C      -11.5910    -0.8950    -0.3420 C.3   1 <1>  -0.1600 
 25 H       -0.8650    -2.2940    -0.9830 H     1 <1>   0.1500 
 26 H       -3.0210    -5.0200    -0.2200 H     1 <1>   0.0800 
 27 H       -2.3760    -4.5400     1.3250 H     1 <1>   0.0800 
 28 H       -4.7300    -4.2670     1.2460 H     1 <1>   0.1500 
 29 H       -5.0040     1.5000     0.2740 H     1 <1>   0.0800 
 30 H       -6.5830     1.2620     0.9420 H     1 <1>   0.0800 
 31 H       -6.3180     1.0130    -0.7690 H     1 <1>   0.0800 
 32 H       -0.1650    -4.1760     0.2940 H     1 <1>   0.0800 
 33 H       -0.8130    -4.6570    -1.2580 H     1 <1>   0.0800 
 34 H       -6.9020    -3.3520     1.8480 H     1 <1>   0.1500 
 35 H       -1.3420    -6.8960    -0.3400 H     1 <1>   0.0800 
 36 H       -0.6980    -6.4170     1.2070 H     1 <1>   0.0800 
 37 H       -8.1720    -0.9160    -0.5850 H     1 <1>   0.0800 
 38 H        0.8860    -6.5540    -1.3790 H     1 <1>   0.0800 
 39 H        0.9670    -7.7060    -0.0700 H     1 <1>   0.0800 
 40 H        1.5330    -6.0720     0.1740 H     1 <1>   0.0800 
 41 H       -9.9530    -2.2590     1.4570 H     1 <1>   0.0800 
 42 H       -8.9560    -3.0530     0.2620 H     1 <1>   0.0800 
 43 H      -10.4140     0.4950    -1.4890 H     1 <1>   0.0800 
 44 H      -11.3540     1.2400    -0.2300 H     1 <1>   0.0800 
 45 H      -11.3430    -3.0280    -0.3990 H     1 <1>   0.0800 
 46 H      -10.3510    -2.1770    -1.5460 H     1 <1>   0.0800 
 47 H      -12.3860    -0.8820    -1.0680 H     1 <1>   0.0800 
 48 H      -12.0410    -0.9220     0.6360 H     1 <1>   0.0800 
@<TRIPOS>BOND
  1   1   2  2   
  2   2   3  1   
  3   2   4  1   
  4   3   5  1   
  5   4   6  2   
  6   4  25  1   
  7   5   7  ar  
  8   5   8  ar  
  9   6   7  1   
 10   6   9  1   
 11   7  10  ar  
 12   8  11  ar  
 13   8  12  1   
 14   9  13  1   
 15   9  26  1   
 16   9  27  1   
 17  10  14  ar  
 18  10  28  1   
 19  11  14  ar  
 20  11  15  1   
 21  12  29  1   
 22  12  30  1   
 23  12  31  1   
 24  13  16  1   
 25  13  32  1   
 26  13  33  1   
 27  14  34  1   
 28  15  17  1   
 29  16  18  1   
 30  16  35  1   
 31  16  36  1   
 32  17  19  1   
 33  17  20  1   
 34  17  37  1   
 35  18  38  1   
 36  18  39  1   
 37  18  40  1   
 38  19  21  2   
 39  19  22  1   
 40  20  23  1   
 41  20  41  1   
 42  20  42  1   
 43  22  24  1   
 44  22  43  1   
 45  22  44  1   
 46  23  24  1   
 47  23  45  1   
 48  23  46  1   
 49  24  47  1   
 50  24  48  1   
@<TRIPOS>SUBSTRUCTURE
  1 ****   8 GROUP 4 **** **** 0

# MOE 2024.06 (io_trps.svl 2023.06)
