@<TRIPOS>MOLECULE
NONAME
29 30 1 0 0 
SMALL
USER_CHARGES


@<TRIPOS>ATOM
  1 CL      -1.7000     0.8680    -1.7910 Cl    1 <1>  -0.1770 
  2 C       -0.7920     2.1000    -0.9480 C.ar  1 <1>   0.1770 
  3 C       -1.2340     2.5520     0.2890 C.ar  1 <1>  -0.1440 
  4 C        0.3480     2.6050    -1.5420 C.ar  1 <1>  -0.1500 
  5 C       -0.5040     3.5360     0.9450 C.ar  1 <1>  -0.1500 
  6 C       -2.4910     1.9710     0.9100 C.3   1 <1>   0.4870 
  7 C        1.0560     3.5840    -0.8740 C.ar  1 <1>   0.1770 
  8 C        0.6430     4.0530     0.3610 C.ar  1 <1>  -0.1500 
  9 N       -3.6810     2.4250     0.1430 N.4   1 <1>  -0.9590 
 10 CL       2.4960     4.2440    -1.5990 Cl    1 <1>  -0.1770 
 11 C       -3.8510     3.9170     0.0860 C.3   1 <1>   0.3430 
 12 C       -4.9550     1.7510     0.5590 C.3   1 <1>   0.3430 
 13 C       -5.0930     4.3120    -0.7470 C.3   1 <1>   0.1200 
 14 C       -6.1640     2.2720    -0.2540 C.3   1 <1>   0.1200 
 15 O       -5.7580     3.1800    -1.2410 O.3   1 <1>  -0.5600 
 16 H        0.6810     2.2480    -2.5000 H     1 <1>   0.1500 
 17 H       -0.8080     3.9070     1.9110 H     1 <1>   0.1500 
 18 H       -2.5700     2.2840     1.9380 H     1 <1>   0.0800 
 19 H       -2.4290     0.8940     0.8870 H     1 <1>   0.0800 
 20 H        1.2210     4.8150     0.8560 H     1 <1>   0.1500 
 21 H       -3.5410     2.1410    -0.8410 H     1 <1>   0.4500 
 22 H       -2.9790     4.3730    -0.3550 H     1 <1>   0.0800 
 23 H       -3.9570     4.3160     1.0810 H     1 <1>   0.0800 
 24 H       -5.1420     1.9210     1.6070 H     1 <1>   0.0800 
 25 H       -4.8720     0.6860     0.4130 H     1 <1>   0.0800 
 26 H       -4.7980     4.9110    -1.5900 H     1 <1>   0.0800 
 27 H       -5.7840     4.8860    -0.1530 H     1 <1>   0.0800 
 28 H       -6.8770     2.7580     0.3900 H     1 <1>   0.0800 
 29 H       -6.6610     1.4530    -0.7450 H     1 <1>   0.0800 
@<TRIPOS>BOND
  1   1   2  1   
  2   2   3  ar  
  3   2   4  ar  
  4   3   5  ar  
  5   3   6  1   
  6   4   7  ar  
  7   4  16  1   
  8   5   8  ar  
  9   5  17  1   
 10   6   9  1   
 11   6  18  1   
 12   6  19  1   
 13   7   8  ar  
 14   7  10  1   
 15   8  20  1   
 16   9  11  1   
 17   9  12  1   
 18   9  21  1   
 19  11  13  1   
 20  11  22  1   
 21  11  23  1   
 22  12  14  1   
 23  12  24  1   
 24  12  25  1   
 25  13  15  1   
 26  13  26  1   
 27  13  27  1   
 28  14  15  1   
 29  14  28  1   
 30  14  29  1   
@<TRIPOS>SUBSTRUCTURE
  1 ****   3 GROUP 4 **** **** 0

# MOE 2024.06 (io_trps.svl 2023.06)
