@<TRIPOS>MOLECULE
NONAME
33 34 1 0 0 
SMALL
USER_CHARGES


@<TRIPOS>ATOM
  1 BR      -1.3010     0.1730    -0.9600 Br    1 <1>  -0.1110 
  2 C       -0.1800    -1.3610    -0.6650 C.ar  1 <1>   0.1110 
  3 C       -0.0480    -2.2950    -1.6730 C.ar  1 <1>  -0.1500 
  4 C        0.4650    -1.4920     0.5470 C.ar  1 <1>  -0.1500 
  5 C        0.7640    -3.3950    -1.4570 C.ar  1 <1>  -0.1500 
  6 C        1.2760    -2.5960     0.7520 C.ar  1 <1>  -0.1500 
  7 C        1.4370    -3.5550    -0.2490 C.ar  1 <1>  -0.1430 
  8 C        2.3370    -4.7800    -0.0810 C.3   1 <1>   0.3440 
  9 O        2.5680    -5.0110     1.2710 O.3   1 <1>  -0.6800 
 10 C        3.7060    -4.5920    -0.7760 C.3   1 <1>   0.3430 
 11 N        4.5940    -3.6430    -0.0250 N.4   1 <1>  -0.9590 
 12 C        4.4110    -2.1980    -0.3860 C.3   1 <1>   0.3430 
 13 C        6.0440    -4.0230    -0.0230 C.3   1 <1>   0.3430 
 14 C        5.2630    -1.2810     0.5220 C.3   1 <1>   0.1200 
 15 C        6.9160    -2.9560     0.6810 C.3   1 <1>   0.1200 
 16 O        6.1200    -2.0190     1.3540 O.3   1 <1>  -0.5600 
 17 H       -0.5740    -2.1610    -2.6030 H     1 <1>   0.1500 
 18 H        0.3300    -0.7470     1.3120 H     1 <1>   0.1500 
 19 H        0.8570    -4.1250    -2.2440 H     1 <1>   0.1500 
 20 H        1.7730    -2.6890     1.7040 H     1 <1>   0.1500 
 21 H        1.8430    -5.6490    -0.4830 H     1 <1>   0.0800 
 22 H        1.7100    -5.1410     1.7290 H     1 <1>   0.4000 
 23 H        3.5580    -4.2470    -1.7860 H     1 <1>   0.0800 
 24 H        4.1790    -5.5580    -0.8240 H     1 <1>   0.0800 
 25 H        4.2920    -3.7230     0.9650 H     1 <1>   0.4500 
 26 H        3.3760    -1.9110    -0.3010 H     1 <1>   0.0800 
 27 H        4.7030    -2.0400    -1.4110 H     1 <1>   0.0800 
 28 H        6.3980    -4.1500    -1.0330 H     1 <1>   0.0800 
 29 H        6.1690    -4.9650     0.4860 H     1 <1>   0.0800 
 30 H        4.6220    -0.6940     1.1570 H     1 <1>   0.0800 
 31 H        5.8560    -0.6050    -0.0710 H     1 <1>   0.0800 
 32 H        7.5310    -2.4350    -0.0320 H     1 <1>   0.0800 
 33 H        7.5610    -3.4230     1.4040 H     1 <1>   0.0800 
@<TRIPOS>BOND
  1   1   2  1   
  2   2   3  ar  
  3   2   4  ar  
  4   3   5  ar  
  5   3  17  1   
  6   4   6  ar  
  7   4  18  1   
  8   5   7  ar  
  9   5  19  1   
 10   6   7  ar  
 11   6  20  1   
 12   7   8  1   
 13   8   9  1   
 14   8  10  1   
 15   8  21  1   
 16   9  22  1   
 17  10  11  1   
 18  10  23  1   
 19  10  24  1   
 20  11  12  1   
 21  11  13  1   
 22  11  25  1   
 23  12  14  1   
 24  12  26  1   
 25  12  27  1   
 26  13  15  1   
 27  13  28  1   
 28  13  29  1   
 29  14  16  1   
 30  14  30  1   
 31  14  31  1   
 32  15  16  1   
 33  15  32  1   
 34  15  33  1   
@<TRIPOS>SUBSTRUCTURE
  1 ****   7 GROUP 4 **** **** 0

# MOE 2024.06 (io_trps.svl 2023.06)
