@<TRIPOS>MOLECULE
NONAME
33 34 1 0 0 
SMALL
USER_CHARGES


@<TRIPOS>ATOM
  1 O        0.4870    -0.6960    -0.4660 O.3   1 <1>  -0.5600 
  2 C        1.6230    -0.1130    -1.0360 C.3   1 <1>   0.1200 
  3 C        0.6360    -2.0330    -0.0870 C.3   1 <1>   0.1200 
  4 C        2.7970    -0.1510    -0.0390 C.3   1 <1>   0.3430 
  5 C        1.7590    -2.1670     0.9600 C.3   1 <1>   0.3430 
  6 N        3.0390    -1.5460     0.4770 N.4   1 <1>  -0.9590 
  7 C        4.1010    -1.5720     1.5190 C.3   1 <1>   0.4860 
  8 C        5.3960    -1.0940     0.8940 C.ar  1 <1>  -0.1440 
  9 C        6.1200    -1.9280     0.0520 C.ar  1 <1>  -0.1500 
 10 C        5.8590     0.1890     1.1530 C.ar  1 <1>  -0.1500 
 11 C        7.2920    -1.4740    -0.5440 C.ar  1 <1>   0.0820 
 12 C        7.0240     0.6420     0.5610 C.ar  1 <1>  -0.1500 
 13 O        8.0520    -2.2220    -1.3800 O.3   1 <1>  -0.3630 
 14 C        7.7340    -0.1870    -0.2880 C.ar  1 <1>  -0.1500 
 15 C        7.8550    -3.6100    -1.5310 C.3   1 <1>   0.0400 
 16 H        1.3800     0.9060    -1.2830 H     1 <1>   0.0800 
 17 H        1.8650    -0.6360    -1.9450 H     1 <1>   0.0800 
 18 H        0.8450    -2.6210    -0.9640 H     1 <1>   0.0800 
 19 H       -0.3010    -2.3600     0.3290 H     1 <1>   0.0800 
 20 H        2.5650     0.5080     0.7810 H     1 <1>   0.0800 
 21 H        3.6850     0.2240    -0.5230 H     1 <1>   0.0800 
 22 H        1.9130    -3.2100     1.1840 H     1 <1>   0.0800 
 23 H        1.4340    -1.6770     1.8640 H     1 <1>   0.0800 
 24 H        3.3910    -2.0930    -0.3180 H     1 <1>   0.4500 
 25 H        4.2340    -2.5750     1.8920 H     1 <1>   0.0800 
 26 H        3.8320    -0.9330     2.3440 H     1 <1>   0.0800 
 27 H        5.7760    -2.9270    -0.1420 H     1 <1>   0.1500 
 28 H        5.3260     0.8510     1.8150 H     1 <1>   0.1500 
 29 H        7.3860     1.6370     0.7590 H     1 <1>   0.1500 
 30 H        8.6410     0.1570    -0.7540 H     1 <1>   0.1500 
 31 H        8.6370    -3.9900    -2.1630 H     1 <1>   0.0800 
 32 H        6.9000    -3.7810    -1.9940 H     1 <1>   0.0800 
 33 H        7.9100    -4.0790    -0.5640 H     1 <1>   0.0800 
@<TRIPOS>BOND
  1   1   2  1   
  2   1   3  1   
  3   2   4  1   
  4   2  16  1   
  5   2  17  1   
  6   3   5  1   
  7   3  18  1   
  8   3  19  1   
  9   4   6  1   
 10   4  20  1   
 11   4  21  1   
 12   5   6  1   
 13   5  22  1   
 14   5  23  1   
 15   6   7  1   
 16   6  24  1   
 17   7   8  1   
 18   7  25  1   
 19   7  26  1   
 20   8   9  ar  
 21   8  10  ar  
 22   9  11  ar  
 23   9  27  1   
 24  10  12  ar  
 25  10  28  1   
 26  11  13  1   
 27  11  14  ar  
 28  12  14  ar  
 29  12  29  1   
 30  13  15  1   
 31  14  30  1   
 32  15  31  1   
 33  15  32  1   
 34  15  33  1   
@<TRIPOS>SUBSTRUCTURE
  1 ****   8 GROUP 4 **** **** 0

# MOE 2024.06 (io_trps.svl 2023.06)
