@<TRIPOS>MOLECULE
NONAME
39 40 1 0 0 
SMALL
USER_CHARGES


@<TRIPOS>ATOM
  1 BR      -0.1250    -0.5740    -1.3650 Br    1 <1>  -0.1110 
  2 C        1.7050    -1.0370    -0.9900 C.ar  1 <1>   0.1110 
  3 C        2.4320    -1.7070    -1.9540 C.ar  1 <1>  -0.1500 
  4 C        2.2430    -0.6860     0.2360 C.ar  1 <1>  -0.1500 
  5 C        3.7430    -2.0290    -1.6620 C.ar  1 <1>   0.1770 
  6 C        3.5610    -1.0160     0.5130 C.ar  1 <1>  -0.1500 
  7 CL       4.6800    -2.8780    -2.8740 Cl    1 <1>  -0.1770 
  8 C        4.3250    -1.6940    -0.4400 C.ar  1 <1>   0.0830 
  9 O        5.6210    -2.0490    -0.2370 O.3   1 <1>  -0.3630 
 10 C        6.3010    -1.7530     0.9780 C.3   1 <1>   0.1810 
 11 C        7.7380    -2.2600     0.9490 C.2   1 <1>   0.5690 
 12 O        8.4180    -2.0830     1.9310 O.2   1 <1>  -0.5700 
 13 N        8.1960    -2.8890    -0.1700 N.am  1 <1>  -0.7300 
 14 C        9.5350    -3.4590    -0.4270 C.3   1 <1>   0.2200 
 15 C        9.7470    -4.6770     0.4810 C.3   1 <1>  -0.1600 
 16 C       10.6020    -2.3590    -0.3120 C.3   1 <1>  -0.1600 
 17 C       11.1040    -5.3820     0.3090 C.3   1 <1>  -0.1600 
 18 C       11.9310    -2.7600    -0.9710 C.3   1 <1>  -0.1600 
 19 C       12.2630    -4.5650     0.8970 C.3   1 <1>  -0.1600 
 20 C       12.8930    -3.5450    -0.0650 C.3   1 <1>  -0.1600 
 21 H        1.9940    -1.9700    -2.8990 H     1 <1>   0.1500 
 22 H        1.6390    -0.1640     0.9570 H     1 <1>   0.1500 
 23 H        3.9670    -0.7390     1.4670 H     1 <1>   0.1500 
 24 H        5.7770    -2.2280     1.7870 H     1 <1>   0.0800 
 25 H        6.3070    -0.6880     1.1150 H     1 <1>   0.0800 
 26 H        7.5270    -2.9930    -0.9380 H     1 <1>   0.3700 
 27 H        9.5350    -3.8080    -1.4460 H     1 <1>   0.0800 
 28 H        8.9710    -5.3890     0.2640 H     1 <1>   0.0800 
 29 H        9.6360    -4.3820     1.5090 H     1 <1>   0.0800 
 30 H       10.7610    -2.0890     0.7180 H     1 <1>   0.0800 
 31 H       10.2340    -1.4880    -0.8260 H     1 <1>   0.0800 
 32 H       11.2870    -5.6180    -0.7250 H     1 <1>   0.0800 
 33 H       11.0530    -6.3130     0.8460 H     1 <1>   0.0800 
 34 H       12.4400    -1.8650    -1.2890 H     1 <1>   0.0800 
 35 H       11.7310    -3.3320    -1.8600 H     1 <1>   0.0800 
 36 H       13.0390    -5.2430     1.2080 H     1 <1>   0.0800 
 37 H       11.9280    -4.0560     1.7850 H     1 <1>   0.0800 
 38 H       13.4550    -2.8430     0.5270 H     1 <1>   0.0800 
 39 H       13.6000    -4.0550    -0.6960 H     1 <1>   0.0800 
@<TRIPOS>BOND
  1   1   2  1   
  2   2   3  ar  
  3   2   4  ar  
  4   3   5  ar  
  5   3  21  1   
  6   4   6  ar  
  7   4  22  1   
  8   5   7  1   
  9   5   8  ar  
 10   6   8  ar  
 11   6  23  1   
 12   8   9  1   
 13   9  10  1   
 14  10  11  1   
 15  10  24  1   
 16  10  25  1   
 17  11  12  2   
 18  11  13  am  
 19  13  14  1   
 20  13  26  1   
 21  14  15  1   
 22  14  16  1   
 23  14  27  1   
 24  15  17  1   
 25  15  28  1   
 26  15  29  1   
 27  16  18  1   
 28  16  30  1   
 29  16  31  1   
 30  17  19  1   
 31  17  32  1   
 32  17  33  1   
 33  18  20  1   
 34  18  34  1   
 35  18  35  1   
 36  19  20  1   
 37  19  36  1   
 38  19  37  1   
 39  20  38  1   
 40  20  39  1   
@<TRIPOS>SUBSTRUCTURE
  1 ****   9 GROUP 4 **** **** 0

# MOE 2024.06 (io_trps.svl 2023.06)
