@<TRIPOS>MOLECULE
NONAME
41 42 1 0 0 
SMALL
USER_CHARGES


@<TRIPOS>ATOM
  1 O       -0.7280     0.2990     0.3690 O.2   1 <1>  -0.5700 
  2 C       -1.2870    -0.7970     0.3780 C.2   1 <1>   0.5410 
  3 C       -2.6910    -0.9850     0.3440 C.2   1 <1>   0.0290 
  4 C       -0.6780    -2.0970     0.3160 C.2   1 <1>   0.1140 
  5 C       -2.9140    -2.3310     0.2180 C.2   1 <1>  -0.0380 
  6 C       -3.6230     0.0890     0.4200 C.2   1 <1>   0.7060 
  7 N       -1.7420    -2.9980     0.1910 N.pl3 1 <1>  -0.6000 
  8 C        0.6110    -2.5740     0.3420 C.2   1 <1>  -0.1780 
  9 C       -4.2230    -3.0920     0.1280 C.3   1 <1>  -0.1020 
 10 O       -3.5170     1.0390     1.1720 O.2   1 <1>  -0.5700 
 11 O       -4.7010     0.0220    -0.3710 O.3   1 <1>  -0.4300 
 12 C        1.8790    -1.9750     0.5380 C.ar  1 <1>   0.0280 
 13 C       -5.6780     1.0390    -0.3700 C.3   1 <1>   0.1200 
 14 C        3.0320    -2.6520     0.0970 C.ar  1 <1>  -0.1500 
 15 C        2.1010    -0.7490     1.1860 C.ar  1 <1>  -0.1500 
 16 C       -6.7640     0.6510    -1.3670 C.3   1 <1>  -0.2400 
 17 C        4.3060    -2.1760     0.2700 C.ar  1 <1>   0.0830 
 18 C        3.3640    -0.2470     1.3700 C.ar  1 <1>  -0.1500 
 19 O        5.2980    -2.9820    -0.2320 O.3   1 <1>  -0.3630 
 20 C        4.5090    -0.9270     0.9320 C.ar  1 <1>  -0.1710 
 21 C        6.6370    -2.5610    -0.1550 C.3   1 <1>   0.1200 
 22 O        5.6160    -0.3840     1.1650 O.3   1 <1>  -0.8290 
 23 C        7.5130    -3.6170    -0.8260 C.3   1 <1>  -0.2400 
 24 H       -1.6130    -4.0130     0.1130 H     1 <1>   0.4000 
 25 H        0.6960    -3.6310     0.1790 H     1 <1>   0.1500 
 26 H       -4.2510    -3.8630     0.8760 H     1 <1>   0.0800 
 27 H       -4.3170    -3.5450    -0.8430 H     1 <1>   0.0800 
 28 H       -5.0640    -2.4410     0.2840 H     1 <1>   0.0800 
 29 H       -6.0800     1.1270     0.6260 H     1 <1>   0.0800 
 30 H       -5.2050     1.9650    -0.6520 H     1 <1>   0.0800 
 31 H        2.9170    -3.5910    -0.4050 H     1 <1>   0.1500 
 32 H        1.2720    -0.1900     1.5640 H     1 <1>   0.1500 
 33 H       -7.2200    -0.2790    -1.0780 H     1 <1>   0.0800 
 34 H       -6.3460     0.5570    -2.3540 H     1 <1>   0.0800 
 35 H       -7.5230     1.4120    -1.3890 H     1 <1>   0.0800 
 36 H        3.5240     0.6910     1.8650 H     1 <1>   0.1500 
 37 H        6.7180    -1.6100    -0.6540 H     1 <1>   0.0800 
 38 H        6.8920    -2.4440     0.8840 H     1 <1>   0.0800 
 39 H        7.2290    -3.7230    -1.8570 H     1 <1>   0.0800 
 40 H        7.4040    -4.5560    -0.3170 H     1 <1>   0.0800 
 41 H        8.5410    -3.3100    -0.7770 H     1 <1>   0.0800 
@<TRIPOS>BOND
  1   1   2  2   
  2   2   3  1   
  3   2   4  1   
  4   3   5  2   
  5   3   6  1   
  6   4   7  1   
  7   4   8  2   
  8   5   7  1   
  9   5   9  1   
 10   6  10  2   
 11   6  11  1   
 12   7  24  1   
 13   8  12  1   
 14   8  25  1   
 15   9  26  1   
 16   9  27  1   
 17   9  28  1   
 18  11  13  1   
 19  12  14  ar  
 20  12  15  ar  
 21  13  16  1   
 22  13  29  1   
 23  13  30  1   
 24  14  17  ar  
 25  14  31  1   
 26  15  18  ar  
 27  15  32  1   
 28  16  33  1   
 29  16  34  1   
 30  16  35  1   
 31  17  19  1   
 32  17  20  ar  
 33  18  20  ar  
 34  18  36  1   
 35  19  21  1   
 36  20  22  1   
 37  21  23  1   
 38  21  37  1   
 39  21  38  1   
 40  23  39  1   
 41  23  40  1   
 42  23  41  1   
@<TRIPOS>SUBSTRUCTURE
  1 ****   4 GROUP 4 **** **** 0

# MOE 2024.06 (io_trps.svl 2023.06)
