@<TRIPOS>MOLECULE
NONAME
43 43 1 0 0 
SMALL
USER_CHARGES


@<TRIPOS>ATOM
  1 CL       3.4080     0.7600     3.7930 Cl    1 <1>  -0.1770 
  2 C        3.2490     1.1340     2.0920 C.ar  1 <1>   0.1770 
  3 C        2.0760     1.7010     1.6110 C.ar  1 <1>  -0.1440 
  4 C        4.3120     0.8520     1.2590 C.ar  1 <1>  -0.1500 
  5 C        1.9880     1.9850     0.2560 C.ar  1 <1>  -0.1500 
  6 C        0.9110     2.0080     2.5400 C.3   1 <1>  -0.0960 
  7 C        4.2200     1.1310    -0.0980 C.ar  1 <1>   0.1990 
  8 C        3.0510     1.7030    -0.5860 C.ar  1 <1>  -0.1500 
  9 N        5.2690     0.8600    -0.9650 N.am  1 <1>  -0.6930 
 10 S        5.6980    -0.7710    -1.3540 S.o2  1 <1>   1.3330 
 11 C        6.3740     1.8690    -1.0260 C.3   1 <1>   0.2570 
 12 O        5.7290    -1.5290    -0.1300 O.2   1 <1>  -0.6500 
 13 O        6.8750    -0.6940    -2.1890 O.2   1 <1>  -0.6500 
 14 C        4.3230    -1.2900    -2.3570 C.3   1 <1>  -0.1350 
 15 C        7.4810     1.6580     0.0130 C.2   1 <1>   0.5690 
 16 O        7.5240     2.3900     0.9740 O.2   1 <1>  -0.5700 
 17 N        8.3910     0.6640    -0.1720 N.am  1 <1>  -0.7300 
 18 C        9.4550     0.2890     0.7780 C.3   1 <1>   0.1400 
 19 C       10.7570     0.0750     0.0110 C.3   1 <1>  -0.1600 
 20 C       11.8880    -0.3010     0.9650 C.3   1 <1>   0.1200 
 21 O       13.0360    -0.4940     0.2090 O.3   1 <1>  -0.5600 
 22 C       14.1560    -0.8380     0.9570 C.3   1 <1>   0.0400 
 23 H        5.2080     0.4160     1.6620 H     1 <1>   0.1500 
 24 H        1.0940     2.4270    -0.1480 H     1 <1>   0.1500 
 25 H        0.5730     1.1050     3.0150 H     1 <1>   0.0800 
 26 H        0.0880     2.4390     2.0000 H     1 <1>   0.0800 
 27 H        1.2220     2.7030     3.3000 H     1 <1>   0.0800 
 28 H        2.9780     1.9300    -1.6330 H     1 <1>   0.1500 
 29 H        5.9590     2.8490    -0.8730 H     1 <1>   0.0800 
 30 H        6.8150     1.8550    -2.0060 H     1 <1>   0.0800 
 31 H        4.2250    -0.6510    -3.2120 H     1 <1>   0.0800 
 32 H        3.4150    -1.2510    -1.7880 H     1 <1>   0.0800 
 33 H        4.4740    -2.2970    -2.6940 H     1 <1>   0.0800 
 34 H        8.2630     0.0220    -0.9690 H     1 <1>   0.3700 
 35 H        9.1670    -0.6170     1.2850 H     1 <1>   0.0800 
 36 H        9.5810     1.0680     1.5120 H     1 <1>   0.0800 
 37 H       11.0210     0.9830    -0.5020 H     1 <1>   0.0800 
 38 H       10.6270    -0.7170    -0.7050 H     1 <1>   0.0800 
 39 H       11.6600    -1.2150     1.4860 H     1 <1>   0.0800 
 40 H       12.0680     0.4930     1.6710 H     1 <1>   0.0800 
 41 H       14.9830    -0.9630     0.2810 H     1 <1>   0.0800 
 42 H       13.9670    -1.7620     1.4750 H     1 <1>   0.0800 
 43 H       14.3730    -0.0470     1.6540 H     1 <1>   0.0800 
@<TRIPOS>BOND
  1   1   2  1   
  2   2   3  ar  
  3   2   4  ar  
  4   3   5  ar  
  5   3   6  1   
  6   4   7  ar  
  7   4  23  1   
  8   5   8  ar  
  9   5  24  1   
 10   6  25  1   
 11   6  26  1   
 12   6  27  1   
 13   7   8  ar  
 14   7   9  1   
 15   8  28  1   
 16   9  10  am  
 17   9  11  1   
 18  10  12  2   
 19  10  13  2   
 20  10  14  1   
 21  11  15  1   
 22  11  29  1   
 23  11  30  1   
 24  14  31  1   
 25  14  32  1   
 26  14  33  1   
 27  15  16  2   
 28  15  17  am  
 29  17  18  1   
 30  17  34  1   
 31  18  19  1   
 32  18  35  1   
 33  18  36  1   
 34  19  20  1   
 35  19  37  1   
 36  19  38  1   
 37  20  21  1   
 38  20  39  1   
 39  20  40  1   
 40  21  22  1   
 41  22  41  1   
 42  22  42  1   
 43  22  43  1   
@<TRIPOS>SUBSTRUCTURE
  1 ****  15 GROUP 4 **** **** 0

# MOE 2024.06 (io_trps.svl 2023.06)
