@<TRIPOS>MOLECULE
NONAME
43 44 1 0 0 
SMALL
USER_CHARGES


@<TRIPOS>ATOM
  1 O        0.4940    -0.0310     0.1240 O.2   1 <1>  -0.5700 
  2 C        0.9430     1.0540     0.4490 C.2   1 <1>   0.6900 
  3 N        2.2280     1.1640     0.9250 N.am  1 <1>  -0.6600 
  4 N        0.1990     2.1920     0.3270 N.am  1 <1>  -0.5470 
  5 C        3.1470    -0.0050     0.8670 C.3   1 <1>   0.1400 
  6 C        2.6650     2.2830     1.7990 C.3   1 <1>   0.1400 
  7 C       -1.1450     2.4110    -0.0050 C.ar  1 <1>   0.1170 
  8 C        3.7390    -0.1730    -0.5350 C.3   1 <1>  -0.1600 
  9 C        3.3090     3.4170     0.9930 C.3   1 <1>  -0.1600 
 10 C       -1.5190     3.6590    -0.4880 C.ar  1 <1>  -0.1500 
 11 C       -2.1290     1.4400     0.1490 C.ar  1 <1>  -0.1500 
 12 C        4.8950     0.7790    -0.8830 C.3   1 <1>  -0.1600 
 13 C        4.6460     3.0560     0.3240 C.3   1 <1>  -0.1600 
 14 C       -2.8350     3.9370    -0.8140 C.ar  1 <1>  -0.1430 
 15 C       -3.4490     1.7020    -0.1740 C.ar  1 <1>  -0.1430 
 16 C        4.5090     2.2640    -0.9910 C.3   1 <1>  -0.1600 
 17 C       -3.7970     2.9540    -0.6540 C.ar  1 <1>  -0.1500 
 18 C       -3.2340     5.3030    -1.3420 C.3   1 <1>  -0.0970 
 19 C       -4.5100     0.6310    -0.0030 C.3   1 <1>  -0.0970 
 20 H        0.7740     3.0230     0.3930 H     1 <1>   0.3700 
 21 H        2.5900    -0.8920     1.1190 H     1 <1>   0.0800 
 22 H        3.9400     0.0940     1.5870 H     1 <1>   0.0800 
 23 H        3.3620     1.9230     2.5360 H     1 <1>   0.0800 
 24 H        1.8130     2.6650     2.3360 H     1 <1>   0.0800 
 25 H        2.9550    -0.0910    -1.2680 H     1 <1>   0.0800 
 26 H        4.1180    -1.1770    -0.6010 H     1 <1>   0.0800 
 27 H        3.4990     4.2210     1.6830 H     1 <1>   0.0800 
 28 H        2.6190     3.7940     0.2600 H     1 <1>   0.0800 
 29 H       -0.7690     4.4170    -0.6120 H     1 <1>   0.1500 
 30 H       -1.8580     0.4720     0.5280 H     1 <1>   0.1500 
 31 H        5.2690     0.4730    -1.8450 H     1 <1>   0.0800 
 32 H        5.7040     0.6490    -0.1840 H     1 <1>   0.0800 
 33 H        5.2830     2.5420     1.0230 H     1 <1>   0.0800 
 34 H        5.1380     3.9840     0.0870 H     1 <1>   0.0800 
 35 H        3.5200     2.3620    -1.4050 H     1 <1>   0.0800 
 36 H        5.1830     2.7120    -1.7010 H     1 <1>   0.0800 
 37 H       -4.8230     3.1640    -0.9030 H     1 <1>   0.1500 
 38 H       -2.3680     5.8720    -1.6300 H     1 <1>   0.0800 
 39 H       -3.7680     5.8450    -0.5830 H     1 <1>   0.0800 
 40 H       -3.8690     5.1930    -2.2030 H     1 <1>   0.0800 
 41 H       -4.0580    -0.3440     0.0430 H     1 <1>   0.0800 
 42 H       -5.1930     0.6490    -0.8330 H     1 <1>   0.0800 
 43 H       -5.0580     0.8030     0.9050 H     1 <1>   0.0800 
@<TRIPOS>BOND
  1   1   2  2   
  2   2   3  am  
  3   2   4  am  
  4   3   5  1   
  5   3   6  1   
  6   4   7  1   
  7   4  20  1   
  8   5   8  1   
  9   5  21  1   
 10   5  22  1   
 11   6   9  1   
 12   6  23  1   
 13   6  24  1   
 14   7  10  ar  
 15   7  11  ar  
 16   8  12  1   
 17   8  25  1   
 18   8  26  1   
 19   9  13  1   
 20   9  27  1   
 21   9  28  1   
 22  10  14  ar  
 23  10  29  1   
 24  11  15  ar  
 25  11  30  1   
 26  12  16  1   
 27  12  31  1   
 28  12  32  1   
 29  13  16  1   
 30  13  33  1   
 31  13  34  1   
 32  14  17  ar  
 33  14  18  1   
 34  15  17  ar  
 35  15  19  1   
 36  16  35  1   
 37  16  36  1   
 38  17  37  1   
 39  18  38  1   
 40  18  39  1   
 41  18  40  1   
 42  19  41  1   
 43  19  42  1   
 44  19  43  1   
@<TRIPOS>SUBSTRUCTURE
  1 ****   4 GROUP 4 **** **** 0

# MOE 2024.06 (io_trps.svl 2023.06)
