@<TRIPOS>MOLECULE
NONAME
47 48 1 0 0 
SMALL
USER_CHARGES


@<TRIPOS>ATOM
  1 O       -0.4820    -0.8380     2.1150 O.2   1 <1>  -0.5700 
  2 C       -0.1320    -1.8170     1.5300 C.2   1 <1>   0.4480 
  3 C        1.3230    -2.0660     1.1940 C.3   1 <1>   0.0420 
  4 C       -1.1390    -2.8960     1.1680 C.3   1 <1>  -0.0990 
  5 C        1.8530    -0.9390     0.3310 C.2   1 <1>   0.6590 
  6 C        1.5310    -3.4740     0.6000 C.3   1 <1>   0.0580 
  7 C       -0.9330    -3.4090    -0.2630 C.3   1 <1>   0.2800 
  8 O        2.8190    -0.3010     0.6640 O.2   1 <1>  -0.5700 
  9 O        1.2350    -0.7120    -0.8190 O.3   1 <1>  -0.4300 
 10 C        2.9730    -3.6900     0.1610 C.2   1 <1>  -0.2880 
 11 C        0.5450    -3.8330    -0.5440 C.3   1 <1>  -0.0190 
 12 O       -1.2080    -2.3450    -1.0890 O.3   1 <1>  -0.6800 
 13 C       -2.0050    -4.4500    -0.6120 C.3   1 <1>  -0.2400 
 14 C        1.6440     0.3070    -1.7050 C.3   1 <1>   0.0400 
 15 C        3.8070    -4.5950     0.7020 C.2   1 <1>  -0.1780 
 16 C        0.6800    -5.3080    -0.8900 C.2   1 <1>   0.6590 
 17 C        5.1840    -4.8520     0.3440 C.ar  1 <1>   0.0280 
 18 O        0.8610    -5.6790    -2.0210 O.2   1 <1>  -0.5700 
 19 O        0.5790    -6.1690     0.1200 O.3   1 <1>  -0.4300 
 20 C        5.7840    -6.0570     0.7010 C.ar  1 <1>  -0.1500 
 21 C        5.9570    -3.9260    -0.3520 C.ar  1 <1>  -0.1500 
 22 C        0.7200    -7.5600    -0.0830 C.3   1 <1>   0.0400 
 23 C        7.0990    -6.3310     0.3730 C.ar  1 <1>  -0.1500 
 24 C        7.2730    -4.1940    -0.6840 C.ar  1 <1>  -0.1500 
 25 C        7.8470    -5.3990    -0.3220 C.ar  1 <1>  -0.1500 
 26 H        1.8690    -2.0210     2.1170 H     1 <1>   0.0800 
 27 H       -1.0310    -3.7100     1.8620 H     1 <1>   0.0800 
 28 H       -2.1340    -2.5060     1.2880 H     1 <1>   0.0800 
 29 H        1.3440    -4.1570     1.4120 H     1 <1>   0.0800 
 30 H        3.2750    -3.0450    -0.6480 H     1 <1>   0.1500 
 31 H        0.8750    -3.3090    -1.4240 H     1 <1>   0.0800 
 32 H       -2.1350    -2.0570    -0.9870 H     1 <1>   0.4000 
 33 H       -1.9200    -5.3130     0.0240 H     1 <1>   0.0800 
 34 H       -1.9040    -4.7690    -1.6350 H     1 <1>   0.0800 
 35 H       -2.9920    -4.0450    -0.4750 H     1 <1>   0.0800 
 36 H        2.6590     0.1200    -2.0070 H     1 <1>   0.0800 
 37 H        1.5750     1.2540    -1.1980 H     1 <1>   0.0800 
 38 H        0.9920     0.2950    -2.5600 H     1 <1>   0.0800 
 39 H        3.4540    -5.2310     1.4950 H     1 <1>   0.1500 
 40 H        5.2130    -6.7920     1.2390 H     1 <1>   0.1500 
 41 H        5.5310    -2.9810    -0.6330 H     1 <1>   0.1500 
 42 H       -0.0370    -7.8900    -0.7740 H     1 <1>   0.0800 
 43 H        0.6030    -8.0590     0.8620 H     1 <1>   0.0800 
 44 H        1.6990    -7.7550    -0.4880 H     1 <1>   0.0800 
 45 H        7.5420    -7.2700     0.6580 H     1 <1>   0.1500 
 46 H        7.8520    -3.4630    -1.2220 H     1 <1>   0.1500 
 47 H        8.8710    -5.6090    -0.5800 H     1 <1>   0.1500 
@<TRIPOS>BOND
  1   1   2  2   
  2   2   3  1   
  3   2   4  1   
  4   3   5  1   
  5   3   6  1   
  6   3  26  1   
  7   4   7  1   
  8   4  27  1   
  9   4  28  1   
 10   5   8  2   
 11   5   9  1   
 12   6  10  1   
 13   6  11  1   
 14   6  29  1   
 15   7  11  1   
 16   7  12  1   
 17   7  13  1   
 18   9  14  1   
 19  10  15  2   
 20  10  30  1   
 21  11  16  1   
 22  11  31  1   
 23  12  32  1   
 24  13  33  1   
 25  13  34  1   
 26  13  35  1   
 27  14  36  1   
 28  14  37  1   
 29  14  38  1   
 30  15  17  1   
 31  15  39  1   
 32  16  18  2   
 33  16  19  1   
 34  17  20  ar  
 35  17  21  ar  
 36  19  22  1   
 37  20  23  ar  
 38  20  40  1   
 39  21  24  ar  
 40  21  41  1   
 41  22  42  1   
 42  22  43  1   
 43  22  44  1   
 44  23  25  ar  
 45  23  45  1   
 46  24  25  ar  
 47  24  46  1   
 48  25  47  1   
@<TRIPOS>SUBSTRUCTURE
  1 ****  10 GROUP 4 **** **** 0

# MOE 2024.06 (io_trps.svl 2023.06)
