@<TRIPOS>MOLECULE
NONAME
37 38 1 0 0 
SMALL
USER_CHARGES


@<TRIPOS>ATOM
  1 O        0.5430     0.7420    -0.5360 O.2   1 <1>  -0.5700 
  2 C        0.3880     1.9380    -0.5860 C.2   1 <1>   0.5690 
  3 N       -0.7950     2.5690    -0.7850 N.am  1 <1>  -0.4200 
  4 C        1.5170     2.9630    -0.4300 C.3   1 <1>   0.3500 
  5 C       -0.6420     3.9170    -0.7710 C.2   1 <1>   0.5690 
  6 C       -2.0890     1.8840    -0.9330 C.3   1 <1>   0.2780 
  7 N        2.2770     2.8340     0.8500 N.pl3 1 <1>  -0.8690 
  8 C        0.7850     4.3100    -0.4800 C.3   1 <1>  -0.0990 
  9 O       -1.5090     4.7230    -0.9870 O.2   1 <1>  -0.5700 
 10 C       -2.6040     1.4950     0.4410 C.2   1 <1>  -0.2880 
 11 C        3.6410     3.0760     0.7800 C.ar  1 <1>   0.1000 
 12 C       -3.6990     1.9940     1.0240 C.2   1 <1>  -0.3000 
 13 C        4.5420     2.0340     0.9490 C.ar  1 <1>  -0.1500 
 14 C        4.1330     4.3520     0.5370 C.ar  1 <1>  -0.1500 
 15 C        5.9040     2.2580     0.8640 C.ar  1 <1>  -0.1500 
 16 C        5.4950     4.5780     0.4510 C.ar  1 <1>  -0.1500 
 17 C        6.3900     3.5320     0.6130 C.ar  1 <1>  -0.1430 
 18 C        7.8870     3.7800     0.5200 C.3   1 <1>  -0.0170 
 19 C        8.3700     3.6160    -0.9230 C.3   1 <1>  -0.2400 
 20 H        2.1870     2.8670    -1.2680 H     1 <1>   0.0800 
 21 H       -1.9650     1.0050    -1.5410 H     1 <1>   0.0800 
 22 H       -2.7900     2.5400    -1.4190 H     1 <1>   0.0800 
 23 H        2.0750     1.9110     1.2580 H     1 <1>   0.4000 
 24 H        1.1640     4.9310    -1.2690 H     1 <1>   0.0800 
 25 H        0.8300     4.8260     0.4610 H     1 <1>   0.0800 
 26 H       -1.9800     0.7550     0.9150 H     1 <1>   0.1500 
 27 H       -4.0440     1.7010     2.0010 H     1 <1>   0.1500 
 28 H       -4.3390     2.7370     0.5790 H     1 <1>   0.1500 
 29 H        4.1760     1.0430     1.1430 H     1 <1>   0.1500 
 30 H        3.4470     5.1680     0.4230 H     1 <1>   0.1500 
 31 H        6.5870     1.4370     0.9940 H     1 <1>   0.1500 
 32 H        5.8570     5.5720     0.2590 H     1 <1>   0.1500 
 33 H        8.4100     3.0870     1.1560 H     1 <1>   0.0800 
 34 H        8.1130     4.7730     0.8660 H     1 <1>   0.0800 
 35 H        8.1640     2.6200    -1.2720 H     1 <1>   0.0800 
 36 H        9.4290     3.7920    -0.9820 H     1 <1>   0.0800 
 37 H        7.8660     4.3170    -1.5640 H     1 <1>   0.0800 
@<TRIPOS>BOND
  1   1   2  2   
  2   2   3  am  
  3   2   4  1   
  4   3   5  am  
  5   3   6  1   
  6   4   7  1   
  7   4   8  1   
  8   4  20  1   
  9   5   8  1   
 10   5   9  2   
 11   6  10  1   
 12   6  21  1   
 13   6  22  1   
 14   7  11  1   
 15   7  23  1   
 16   8  24  1   
 17   8  25  1   
 18  10  12  2   
 19  10  26  1   
 20  11  13  ar  
 21  11  14  ar  
 22  12  27  1   
 23  12  28  1   
 24  13  15  ar  
 25  13  29  1   
 26  14  16  ar  
 27  14  30  1   
 28  15  17  ar  
 29  15  31  1   
 30  16  17  ar  
 31  16  32  1   
 32  17  18  1   
 33  18  19  1   
 34  18  33  1   
 35  18  34  1   
 36  19  35  1   
 37  19  36  1   
 38  19  37  1   
@<TRIPOS>SUBSTRUCTURE
  1 ****   4 GROUP 4 **** **** 0

# MOE 2024.06 (io_trps.svl 2023.06)
