@<TRIPOS>MOLECULE
NONAME
39 40 1 0 0 
SMALL
USER_CHARGES


@<TRIPOS>ATOM
  1 O       -0.9230     0.5850     0.8840 O.2   1 <1>  -0.5700 
  2 C       -1.2560     1.4450     0.1050 C.2   1 <1>   0.5690 
  3 N       -2.4660     1.3510    -0.5420 N.am  1 <1>  -0.6600 
  4 C       -0.3280     2.6470    -0.1150 C.3   1 <1>  -0.0190 
  5 C       -3.2470     0.0790    -0.4870 C.3   1 <1>   0.1400 
  6 C       -3.2600     2.5130    -1.0390 C.3   1 <1>   0.1400 
  7 C        1.1690     2.3330    -0.0410 C.3   1 <1>  -0.1600 
  8 C       -0.4980     3.7550     0.9280 C.3   1 <1>  -0.1600 
  9 C       -4.4810     0.2640     0.4110 C.3   1 <1>   0.3430 
 10 C       -4.5260     2.6950    -0.1740 C.3   1 <1>   0.3430 
 11 C        1.8400     3.6880     0.1820 C.3   1 <1>  -0.1600 
 12 C        0.7920     4.5780     0.8600 C.3   1 <1>  -0.1600 
 13 N       -5.3310     1.4240    -0.0400 N.4   1 <1>  -0.9590 
 14 C       -6.5010     1.5960     0.8480 C.3   1 <1>   0.4810 
 15 C       -7.5070     2.4380     0.0980 C.2   1 <1>  -0.2880 
 16 C       -8.6170     1.9730    -0.4850 C.2   1 <1>  -0.3000 
 17 H       -0.5090     3.0570    -1.0920 H     1 <1>   0.0800 
 18 H       -2.6420    -0.7240    -0.1010 H     1 <1>   0.0800 
 19 H       -3.5500    -0.1990    -1.4810 H     1 <1>   0.0800 
 20 H       -3.5380     2.3420    -2.0650 H     1 <1>   0.0800 
 21 H       -2.6840     3.4190    -1.0060 H     1 <1>   0.0800 
 22 H        1.5250     1.8440    -0.9320 H     1 <1>   0.0800 
 23 H        1.3710     1.7010     0.8080 H     1 <1>   0.0800 
 24 H       -0.5750     3.3090     1.9060 H     1 <1>   0.0800 
 25 H       -1.3670     4.3630     0.7490 H     1 <1>   0.0800 
 26 H       -4.1370     0.4300     1.4200 H     1 <1>   0.0800 
 27 H       -5.0600    -0.6450     0.4030 H     1 <1>   0.0800 
 28 H       -5.1360     3.4710    -0.6070 H     1 <1>   0.0800 
 29 H       -4.2170     3.0270     0.8040 H     1 <1>   0.0800 
 30 H        2.1180     4.1170    -0.7670 H     1 <1>   0.0800 
 31 H        2.7240     3.5860     0.7880 H     1 <1>   0.0800 
 32 H        1.1100     4.8670     1.8470 H     1 <1>   0.0800 
 33 H        0.6380     5.4680     0.2720 H     1 <1>   0.0800 
 34 H       -5.7180     1.2000    -0.9660 H     1 <1>   0.4500 
 35 H       -6.2210     2.0630     1.7790 H     1 <1>   0.0800 
 36 H       -6.9400     0.6350     1.0610 H     1 <1>   0.0800 
 37 H       -7.2540     3.4850     0.0790 H     1 <1>   0.1500 
 38 H       -9.3240     2.5970    -1.0090 H     1 <1>   0.1500 
 39 H       -8.9300     0.9420    -0.4940 H     1 <1>   0.1500 
@<TRIPOS>BOND
  1   1   2  2   
  2   2   3  am  
  3   2   4  1   
  4   3   5  1   
  5   3   6  1   
  6   4   7  1   
  7   4   8  1   
  8   4  17  1   
  9   5   9  1   
 10   5  18  1   
 11   5  19  1   
 12   6  10  1   
 13   6  20  1   
 14   6  21  1   
 15   7  11  1   
 16   7  22  1   
 17   7  23  1   
 18   8  12  1   
 19   8  24  1   
 20   8  25  1   
 21   9  13  1   
 22   9  26  1   
 23   9  27  1   
 24  10  13  1   
 25  10  28  1   
 26  10  29  1   
 27  11  12  1   
 28  11  30  1   
 29  11  31  1   
 30  12  32  1   
 31  12  33  1   
 32  13  14  1   
 33  13  34  1   
 34  14  15  1   
 35  14  35  1   
 36  14  36  1   
 37  15  16  2   
 38  15  37  1   
 39  16  38  1   
 40  16  39  1   
@<TRIPOS>SUBSTRUCTURE
  1 ****   3 GROUP 4 **** **** 0

# MOE 2024.06 (io_trps.svl 2023.06)
