@<TRIPOS>MOLECULE
NONAME
47 48 1 0 0 
SMALL
USER_CHARGES


@<TRIPOS>ATOM
  1 F       -8.6910     0.6780    -1.5310 F     1 <1>  -0.1900 
  2 C       -8.4750     1.7820    -0.8690 C.ar  1 <1>   0.1900 
  3 C       -9.3450     2.8390    -1.0410 C.ar  1 <1>  -0.1500 
  4 C       -7.3820     1.8470    -0.0260 C.ar  1 <1>  -0.1500 
  5 C       -9.1270     4.0210    -0.3430 C.ar  1 <1>   0.1170 
  6 C       -7.1600     3.0230     0.6700 C.ar  1 <1>  -0.1500 
  7 N      -10.0040     5.0980    -0.5450 N.am  1 <1>  -0.5470 
  8 C       -8.0240     4.0950     0.5100 C.ar  1 <1>  -0.1500 
  9 C      -10.3000     6.1430     0.2820 C.2   1 <1>   0.5690 
 10 O       -9.9420     6.2140     1.4290 O.2   1 <1>  -0.5700 
 11 C      -11.0680     7.3160    -0.2810 C.3   1 <1>  -0.0990 
 12 C      -10.6610     8.6300     0.4010 C.3   1 <1>   0.3430 
 13 N       -9.3590     9.1960    -0.0940 N.4   1 <1>  -0.9590 
 14 C       -8.1750     8.3440     0.2960 C.3   1 <1>   0.3430 
 15 C       -9.1990    10.5840     0.4370 C.3   1 <1>   0.3430 
 16 C       -6.8580     8.9220    -0.2310 C.3   1 <1>  -0.0190 
 17 C       -7.9170    11.2150    -0.1110 C.3   1 <1>  -0.1600 
 18 C       -5.7160     8.0280     0.2210 C.2   1 <1>   0.6590 
 19 C       -6.6760    10.3790     0.2330 C.3   1 <1>  -0.1600 
 20 O       -5.8950     7.1130     0.9810 O.2   1 <1>  -0.5700 
 21 O       -4.5260     8.3140    -0.2830 O.3   1 <1>  -0.4300 
 22 C       -3.3830     7.5600     0.0490 C.3   1 <1>   0.1200 
 23 C       -2.1920     8.1530    -0.6960 C.3   1 <1>  -0.2400 
 24 H      -10.1790     2.7300    -1.7070 H     1 <1>   0.1500 
 25 H       -6.7270     1.0010     0.0810 H     1 <1>   0.1500 
 26 H       -6.3180     3.1060     1.3360 H     1 <1>   0.1500 
 27 H      -10.5340     5.0430    -1.4150 H     1 <1>   0.3700 
 28 H       -7.8240     4.9950     1.0630 H     1 <1>   0.1500 
 29 H      -12.1080     7.1380    -0.0760 H     1 <1>   0.0800 
 30 H      -10.9440     7.3890    -1.3450 H     1 <1>   0.0800 
 31 H      -10.6080     8.4730     1.4680 H     1 <1>   0.0800 
 32 H      -11.4410     9.3510     0.2200 H     1 <1>   0.0800 
 33 H       -9.3870     9.2600    -1.1190 H     1 <1>   0.4500 
 34 H       -8.2820     7.3480    -0.0970 H     1 <1>   0.0800 
 35 H       -8.1230     8.2630     1.3710 H     1 <1>   0.0800 
 36 H       -9.1510    10.5570     1.5140 H     1 <1>   0.0800 
 37 H      -10.0450    11.1890     0.1520 H     1 <1>   0.0800 
 38 H       -6.8750     8.8890    -1.3050 H     1 <1>   0.0800 
 39 H       -7.8060    12.2000     0.3110 H     1 <1>   0.0800 
 40 H       -8.0010    11.3330    -1.1780 H     1 <1>   0.0800 
 41 H       -5.8050    10.8070    -0.2370 H     1 <1>   0.0800 
 42 H       -6.5140    10.3990     1.2990 H     1 <1>   0.0800 
 43 H       -3.5500     6.5360    -0.2430 H     1 <1>   0.0800 
 44 H       -3.2350     7.6120     1.1150 H     1 <1>   0.0800 
 45 H       -2.3540     8.1030    -1.7580 H     1 <1>   0.0800 
 46 H       -1.3030     7.5960    -0.4610 H     1 <1>   0.0800 
 47 H       -2.0410     9.1770    -0.4020 H     1 <1>   0.0800 
@<TRIPOS>BOND
  1   1   2  1   
  2   2   3  ar  
  3   2   4  ar  
  4   3   5  ar  
  5   3  24  1   
  6   4   6  ar  
  7   4  25  1   
  8   5   7  1   
  9   5   8  ar  
 10   6   8  ar  
 11   6  26  1   
 12   7   9  am  
 13   7  27  1   
 14   8  28  1   
 15   9  10  2   
 16   9  11  1   
 17  11  12  1   
 18  11  29  1   
 19  11  30  1   
 20  12  13  1   
 21  12  31  1   
 22  12  32  1   
 23  13  14  1   
 24  13  15  1   
 25  13  33  1   
 26  14  16  1   
 27  14  34  1   
 28  14  35  1   
 29  15  17  1   
 30  15  36  1   
 31  15  37  1   
 32  16  18  1   
 33  16  19  1   
 34  16  38  1   
 35  17  19  1   
 36  17  39  1   
 37  17  40  1   
 38  18  20  2   
 39  18  21  1   
 40  19  41  1   
 41  19  42  1   
 42  21  22  1   
 43  22  23  1   
 44  22  43  1   
 45  22  44  1   
 46  23  45  1   
 47  23  46  1   
 48  23  47  1   
@<TRIPOS>SUBSTRUCTURE
  1 ****  14 GROUP 4 **** **** 0

# MOE 2024.06 (io_trps.svl 2023.06)
