@<TRIPOS>MOLECULE
NONAME
29 29 1 0 0 
SMALL
USER_CHARGES


@<TRIPOS>ATOM
  1 O        0.1810     0.1040     0.0560 O.2   1 <1>  -0.5700 
  2 C        0.0260     1.2620    -0.2730 C.2   1 <1>   0.6900 
  3 N       -1.2020     1.8290    -0.3860 N.am  1 <1>  -0.5470 
  4 N        1.0990     2.0470    -0.5420 N.am  1 <1>  -0.7300 
  5 C       -2.4840     1.3530    -0.2330 C.ar  1 <1>   0.4270 
  6 C        2.5100     1.6170    -0.4520 C.3   1 <1>   0.1400 
  7 N       -3.3910     2.3150    -0.3230 N.ar  1 <1>  -0.6200 
  8 C       -2.8110     0.0140    -0.0170 C.ar  1 <1>  -0.1500 
  9 C        3.3160     2.7000     0.2640 C.3   1 <1>  -0.1600 
 10 C       -4.6510     1.9380    -0.1880 C.ar  1 <1>   0.1600 
 11 C       -4.1270    -0.3680     0.1220 C.ar  1 <1>  -0.1430 
 12 C        4.7920     2.3060     0.3860 C.3   1 <1>  -0.2400 
 13 C       -5.0680     0.6370     0.0320 C.ar  1 <1>  -0.1500 
 14 C       -4.5320    -1.8110     0.3610 C.3   1 <1>  -0.0970 
 15 H       -1.2100     2.8240    -0.5640 H     1 <1>   0.3700 
 16 H        0.9500     2.9910    -0.8910 H     1 <1>   0.3700 
 17 H        2.8960     1.4580    -1.4440 H     1 <1>   0.0800 
 18 H        2.5780     0.6890     0.0930 H     1 <1>   0.0800 
 19 H       -2.0370    -0.7250     0.0410 H     1 <1>   0.1500 
 20 H        2.9100     2.8480     1.2510 H     1 <1>   0.0800 
 21 H        3.2440     3.6250    -0.2820 H     1 <1>   0.0800 
 22 H       -5.3980     2.7100    -0.2570 H     1 <1>   0.1500 
 23 H        4.8920     1.3920     0.9450 H     1 <1>   0.0800 
 24 H        5.3390     3.0790     0.8960 H     1 <1>   0.0800 
 25 H        5.2270     2.1650    -0.5890 H     1 <1>   0.0800 
 26 H       -6.1150     0.4170     0.1300 H     1 <1>   0.1500 
 27 H       -3.6640    -2.4430     0.4310 H     1 <1>   0.0800 
 28 H       -5.1450    -2.1590    -0.4500 H     1 <1>   0.0800 
 29 H       -5.0870    -1.8900     1.2780 H     1 <1>   0.0800 
@<TRIPOS>BOND
  1   1   2  2   
  2   2   3  am  
  3   2   4  am  
  4   3   5  1   
  5   3  15  1   
  6   4   6  1   
  7   4  16  1   
  8   5   7  ar  
  9   5   8  ar  
 10   6   9  1   
 11   6  17  1   
 12   6  18  1   
 13   7  10  ar  
 14   8  11  ar  
 15   8  19  1   
 16   9  12  1   
 17   9  20  1   
 18   9  21  1   
 19  10  13  ar  
 20  10  22  1   
 21  11  13  ar  
 22  11  14  1   
 23  12  23  1   
 24  12  24  1   
 25  12  25  1   
 26  13  26  1   
 27  14  27  1   
 28  14  28  1   
 29  14  29  1   
@<TRIPOS>SUBSTRUCTURE
  1 ****   3 GROUP 4 **** **** 0

# MOE 2024.06 (io_trps.svl 2023.06)
