@<TRIPOS>MOLECULE
NONAME
44 45 1 0 0 
SMALL
USER_CHARGES


@<TRIPOS>ATOM
  1 O       -0.7220    -0.7960     0.3460 O.2   1 <1>  -0.5700 
  2 C        0.1480    -1.4800    -0.1440 C.2   1 <1>   0.6340 
  3 O       -0.2460    -2.4740    -0.9470 O.3   1 <1>  -0.4300 
  4 C        1.5520    -1.2670     0.1410 C.ar  1 <1>   0.0860 
  5 C        0.4380    -3.7060    -1.0420 C.3   1 <1>   0.0400 
  6 C        1.9850    -1.0170     1.4430 C.ar  1 <1>  -0.1500 
  7 C        2.5300    -1.2820    -0.8560 C.ar  1 <1>  -0.1500 
  8 C        3.3190    -0.8120     1.7370 C.ar  1 <1>  -0.1500 
  9 C        3.8650    -1.0810    -0.5650 C.ar  1 <1>  -0.1500 
 10 C        4.2890    -0.8390     0.7400 C.ar  1 <1>   0.1170 
 11 N        5.6260    -0.6320     1.1050 N.am  1 <1>  -0.5470 
 12 C        6.7210    -0.2960     0.3430 C.2   1 <1>   0.5690 
 13 O        6.6780    -0.1170    -0.8500 O.2   1 <1>  -0.5700 
 14 C        8.0930    -0.1060     1.0180 C.3   1 <1>   0.4040 
 15 N        9.0580     0.7240     0.2000 N.4   1 <1>  -0.9590 
 16 C       10.4690     0.5210     0.6330 C.3   1 <1>   0.3430 
 17 C        8.6130     2.1470     0.1330 C.3   1 <1>   0.3430 
 18 C       11.4090     0.7110    -0.5560 C.3   1 <1>  -0.1600 
 19 C        9.4020     2.9570    -0.8980 C.3   1 <1>  -0.1600 
 20 C       11.8550     2.1600    -0.8100 C.3   1 <1>  -0.1600 
 21 C       10.8420     3.2590    -0.4590 C.3   1 <1>  -0.1600 
 22 H       -0.2190    -4.4150    -1.5150 H     1 <1>   0.0800 
 23 H        0.6910    -4.0480    -0.0530 H     1 <1>   0.0800 
 24 H        1.3230    -3.5810    -1.6400 H     1 <1>   0.0800 
 25 H        1.2510    -0.9800     2.2310 H     1 <1>   0.1500 
 26 H        2.2310    -1.4460    -1.8770 H     1 <1>   0.1500 
 27 H        3.6010    -0.6230     2.7570 H     1 <1>   0.1500 
 28 H        4.5730    -1.1150    -1.3720 H     1 <1>   0.1500 
 29 H        5.7740    -0.7220     2.1100 H     1 <1>   0.3700 
 30 H        8.5120    -1.0860     1.1700 H     1 <1>   0.0800 
 31 H        7.9510     0.3500     1.9820 H     1 <1>   0.0800 
 32 H        8.9640     0.3670    -0.7660 H     1 <1>   0.4500 
 33 H       10.5870    -0.4890     0.9920 H     1 <1>   0.0800 
 34 H       10.7290     1.1960     1.4330 H     1 <1>   0.0800 
 35 H        8.7090     2.6110     1.1010 H     1 <1>   0.0800 
 36 H        7.5720     2.1770    -0.1490 H     1 <1>   0.0800 
 37 H       10.9560     0.3060    -1.4450 H     1 <1>   0.0800 
 38 H       12.2970     0.1290    -0.3760 H     1 <1>   0.0800 
 39 H        8.8940     3.8990    -1.0050 H     1 <1>   0.0800 
 40 H        9.3780     2.4810    -1.8630 H     1 <1>   0.0800 
 41 H       12.1220     2.2520    -1.8500 H     1 <1>   0.0800 
 42 H       12.7540     2.3520    -0.2470 H     1 <1>   0.0800 
 43 H       10.8670     3.4570     0.5990 H     1 <1>   0.0800 
 44 H       11.1660     4.1640    -0.9470 H     1 <1>   0.0800 
@<TRIPOS>BOND
  1   1   2  2   
  2   2   3  1   
  3   2   4  1   
  4   3   5  1   
  5   4   6  ar  
  6   4   7  ar  
  7   5  22  1   
  8   5  23  1   
  9   5  24  1   
 10   6   8  ar  
 11   6  25  1   
 12   7   9  ar  
 13   7  26  1   
 14   8  10  ar  
 15   8  27  1   
 16   9  10  ar  
 17   9  28  1   
 18  10  11  1   
 19  11  12  am  
 20  11  29  1   
 21  12  13  2   
 22  12  14  1   
 23  14  15  1   
 24  14  30  1   
 25  14  31  1   
 26  15  16  1   
 27  15  17  1   
 28  15  32  1   
 29  16  18  1   
 30  16  33  1   
 31  16  34  1   
 32  17  19  1   
 33  17  35  1   
 34  17  36  1   
 35  18  20  1   
 36  18  37  1   
 37  18  38  1   
 38  19  21  1   
 39  19  39  1   
 40  19  40  1   
 41  20  21  1   
 42  20  41  1   
 43  20  42  1   
 44  21  43  1   
 45  21  44  1   
@<TRIPOS>SUBSTRUCTURE
  1 ****  11 GROUP 4 **** **** 0

# MOE 2024.06 (io_trps.svl 2023.06)
