@<TRIPOS>MOLECULE
NONAME
42 43 1 0 0 
SMALL
USER_CHARGES


@<TRIPOS>ATOM
  1 O       -5.4970    -3.8920     0.8900 O.2   1 <1>  -0.5700 
  2 C       -5.2420    -2.9720     0.1550 C.2   1 <1>   0.5690 
  3 N       -4.0010    -2.8590    -0.4280 N.am  1 <1>  -0.6600 
  4 C       -6.3340    -1.9460    -0.0790 C.3   1 <1>  -0.0990 
  5 C       -3.4640    -1.6360    -1.1010 C.3   1 <1>   0.1400 
  6 C       -3.0240    -3.9890    -0.3420 C.3   1 <1>   0.1400 
  7 C       -6.3380    -0.8700     1.0130 C.3   1 <1>  -0.0160 
  8 C       -2.1250    -1.2050    -0.4650 C.3   1 <1>   0.3430 
  9 C       -1.7110    -3.5270     0.3130 C.3   1 <1>   0.3430 
 10 C       -7.3530     0.2100     0.6840 C.ar  1 <1>  -0.1440 
 11 N       -1.1220    -2.3290    -0.3940 N.4   1 <1>  -0.9590 
 12 C       -6.9540     1.4060     0.1080 C.ar  1 <1>  -0.1500 
 13 C       -8.6960     0.0020     0.9570 C.ar  1 <1>  -0.1500 
 14 C        0.1370    -1.8490     0.2680 C.3   1 <1>   0.3430 
 15 C       -7.8880     2.3820    -0.1950 C.ar  1 <1>  -0.1500 
 16 C       -9.6310     0.9780     0.6540 C.ar  1 <1>  -0.1500 
 17 C        1.2990    -2.8460     0.1530 C.3   1 <1>   0.1200 
 18 C       -9.2270     2.1680     0.0770 C.ar  1 <1>  -0.1500 
 19 O        2.4060    -2.2600     0.7380 O.3   1 <1>  -0.6800 
 20 H       -7.2810    -2.4560    -0.0660 H     1 <1>   0.0800 
 21 H       -6.2330    -1.5010    -1.0500 H     1 <1>   0.0800 
 22 H       -4.1560    -0.8180    -1.0220 H     1 <1>   0.0800 
 23 H       -3.3220    -1.8420    -2.1480 H     1 <1>   0.0800 
 24 H       -2.8280    -4.3650    -1.3310 H     1 <1>   0.0800 
 25 H       -3.4300    -4.8050     0.2330 H     1 <1>   0.0800 
 26 H       -5.3610    -0.4310     1.1080 H     1 <1>   0.0800 
 27 H       -6.5840    -1.3210     1.9600 H     1 <1>   0.0800 
 28 H       -2.3270    -0.8430     0.5300 H     1 <1>   0.0800 
 29 H       -1.7150    -0.3860    -1.0330 H     1 <1>   0.0800 
 30 H       -1.0110    -4.3450     0.3030 H     1 <1>   0.0800 
 31 H       -1.9160    -3.2790     1.3420 H     1 <1>   0.0800 
 32 H       -0.8990    -2.6060    -1.3600 H     1 <1>   0.4500 
 33 H       -5.9180     1.5900    -0.1090 H     1 <1>   0.1500 
 34 H       -9.0220    -0.9200     1.4060 H     1 <1>   0.1500 
 35 H       -0.0520    -1.6570     1.3110 H     1 <1>   0.0800 
 36 H        0.4500    -0.9250    -0.1910 H     1 <1>   0.0800 
 37 H       -7.5740     3.3090    -0.6420 H     1 <1>   0.1500 
 38 H      -10.6720     0.8090     0.8690 H     1 <1>   0.1500 
 39 H        1.5380    -3.0490    -0.8770 H     1 <1>   0.0800 
 40 H        1.0920    -3.7600     0.6820 H     1 <1>   0.0800 
 41 H       -9.9530     2.9260    -0.1580 H     1 <1>   0.1500 
 42 H        3.1970    -2.8390     0.6920 H     1 <1>   0.4000 
@<TRIPOS>BOND
  1   1   2  2   
  2   2   3  am  
  3   2   4  1   
  4   3   5  1   
  5   3   6  1   
  6   4   7  1   
  7   4  20  1   
  8   4  21  1   
  9   5   8  1   
 10   5  22  1   
 11   5  23  1   
 12   6   9  1   
 13   6  24  1   
 14   6  25  1   
 15   7  10  1   
 16   7  26  1   
 17   7  27  1   
 18   8  11  1   
 19   8  28  1   
 20   8  29  1   
 21   9  11  1   
 22   9  30  1   
 23   9  31  1   
 24  10  12  ar  
 25  10  13  ar  
 26  11  14  1   
 27  11  32  1   
 28  12  15  ar  
 29  12  33  1   
 30  13  16  ar  
 31  13  34  1   
 32  14  17  1   
 33  14  35  1   
 34  14  36  1   
 35  15  18  ar  
 36  15  37  1   
 37  16  18  ar  
 38  16  38  1   
 39  17  19  1   
 40  17  39  1   
 41  17  40  1   
 42  18  41  1   
 43  19  42  1   
@<TRIPOS>SUBSTRUCTURE
  1 ****   5 GROUP 4 **** **** 0

# MOE 2024.06 (io_trps.svl 2023.06)
