@<TRIPOS>MOLECULE
NONAME
40 41 1 0 0 
SMALL
USER_CHARGES


@<TRIPOS>ATOM
  1 N        0.1510     0.4940    -0.7050 N.4   1 <1>  -0.9590 
  2 C       -1.0580    -0.1430    -1.3400 C.3   1 <1>   0.3430 
  3 C        0.0200     1.9490    -0.3740 C.3   1 <1>   0.3430 
  4 C        1.3700     0.3000    -1.5520 C.3   1 <1>   0.4860 
  5 C       -2.1040    -0.6720    -0.3140 C.3   1 <1>   0.3430 
  6 C       -1.3210     2.3360     0.2530 C.3   1 <1>  -0.1600 
  7 C        2.5660     0.5700    -0.6660 C.ar  1 <1>  -0.1440 
  8 N       -2.7800     0.3560     0.5670 N.4   1 <1>  -0.9590 
  9 C       -1.8860     1.3350     1.2590 C.3   1 <1>   0.3430 
 10 C        2.9620    -0.3720     0.2740 C.ar  1 <1>  -0.1500 
 11 C        3.2630     1.7650    -0.7740 C.ar  1 <1>  -0.1500 
 12 C       -3.6320    -0.3410     1.5890 C.3   1 <1>   0.2630 
 13 C        4.0290    -0.1150     1.1170 C.ar  1 <1>  -0.1440 
 14 C        4.3280     2.0230     0.0680 C.ar  1 <1>  -0.1500 
 15 C        4.7060     1.0880     1.0140 C.ar  1 <1>  -0.1500 
 16 C        4.4710    -1.1390     2.1490 C.3   1 <1>  -0.0970 
 17 H        0.4030     0.0040     0.1650 H     1 <1>   0.4500 
 18 H       -0.7360    -0.9890    -1.9270 H     1 <1>   0.0800 
 19 H       -1.5310     0.5500    -2.0170 H     1 <1>   0.0800 
 20 H        0.1620     2.5400    -1.2660 H     1 <1>   0.0800 
 21 H        0.8120     2.2180     0.3100 H     1 <1>   0.0800 
 22 H        1.3660     0.9710    -2.3960 H     1 <1>   0.0800 
 23 H        1.4260    -0.7130    -1.9160 H     1 <1>   0.0800 
 24 H       -1.6150    -1.4020     0.3100 H     1 <1>   0.0800 
 25 H       -2.8670    -1.1990    -0.8650 H     1 <1>   0.0800 
 26 H       -2.0420     2.5580    -0.5130 H     1 <1>   0.0800 
 27 H       -1.1530     3.2620     0.7760 H     1 <1>   0.0800 
 28 H       -3.4350     0.9070    -0.0130 H     1 <1>   0.4500 
 29 H       -2.4680     1.8820     1.9850 H     1 <1>   0.0800 
 30 H       -1.0930     0.8300     1.7890 H     1 <1>   0.0800 
 31 H        2.4550    -1.3170     0.3590 H     1 <1>   0.1500 
 32 H        2.9970     2.5080    -1.5080 H     1 <1>   0.1500 
 33 H       -3.0220    -0.9310     2.2550 H     1 <1>   0.0800 
 34 H       -4.3440    -0.9940     1.1070 H     1 <1>   0.0800 
 35 H       -4.1810     0.3780     2.1770 H     1 <1>   0.0800 
 36 H        4.8730     2.9500    -0.0100 H     1 <1>   0.1500 
 37 H        5.5370     1.2980     1.6650 H     1 <1>   0.1500 
 38 H        4.0710    -0.8860     3.1150 H     1 <1>   0.0800 
 39 H        5.5450    -1.1560     2.2170 H     1 <1>   0.0800 
 40 H        4.1390    -2.1260     1.8820 H     1 <1>   0.0800 
@<TRIPOS>BOND
  1   1   2  1   
  2   1   3  1   
  3   1   4  1   
  4   1  17  1   
  5   2   5  1   
  6   2  18  1   
  7   2  19  1   
  8   3   6  1   
  9   3  20  1   
 10   3  21  1   
 11   4   7  1   
 12   4  22  1   
 13   4  23  1   
 14   5   8  1   
 15   5  24  1   
 16   5  25  1   
 17   6   9  1   
 18   6  26  1   
 19   6  27  1   
 20   7  10  ar  
 21   7  11  ar  
 22   8   9  1   
 23   8  12  1   
 24   8  28  1   
 25   9  29  1   
 26   9  30  1   
 27  10  13  ar  
 28  10  31  1   
 29  11  14  ar  
 30  11  32  1   
 31  12  33  1   
 32  12  34  1   
 33  12  35  1   
 34  13  15  ar  
 35  13  16  1   
 36  14  15  ar  
 37  14  36  1   
 38  15  37  1   
 39  16  38  1   
 40  16  39  1   
 41  16  40  1   
@<TRIPOS>SUBSTRUCTURE
  1 ****   1 GROUP 4 **** **** 0

# MOE 2024.06 (io_trps.svl 2023.06)
