@<TRIPOS>MOLECULE
NONAME
37 37 1 0 0 
SMALL
USER_CHARGES


@<TRIPOS>ATOM
  1 CL      -0.3030    -0.0280     0.8620 Cl    1 <1>  -0.1770 
  2 C        0.0740     1.5650     0.2570 C.ar  1 <1>   0.1770 
  3 C        1.3920     1.9770     0.2270 C.ar  1 <1>  -0.1500 
  4 C       -0.9530     2.3810    -0.1800 C.ar  1 <1>  -0.1500 
  5 C        1.6920     3.2480    -0.2560 C.ar  1 <1>   0.0830 
  6 C       -0.6530     3.6440    -0.6600 C.ar  1 <1>  -0.1500 
  7 O        2.9500     3.7500    -0.3280 O.3   1 <1>  -0.3630 
  8 C        0.6640     4.0710    -0.6960 C.ar  1 <1>  -0.1500 
  9 C        4.0650     3.0040     0.0910 C.3   1 <1>   0.1200 
 10 C        5.3000     3.8770    -0.1320 C.3   1 <1>  -0.1600 
 11 C        6.5700     3.1500     0.3060 C.3   1 <1>   0.3430 
 12 N        7.7810     3.9600    -0.0170 N.4   1 <1>  -0.9590 
 13 C        9.0020     3.1130     0.0710 C.3   1 <1>   0.3430 
 14 C        7.8890     5.1790     0.8340 C.3   1 <1>   0.3430 
 15 C       10.1580     3.7900    -0.6550 C.3   1 <1>  -0.2400 
 16 C        7.7810     6.4040    -0.0630 C.3   1 <1>  -0.2400 
 17 H        2.1450     1.3010     0.5780 H     1 <1>   0.1500 
 18 H       -1.9690     2.0300    -0.1440 H     1 <1>   0.1500 
 19 H       -1.4410     4.2930    -1.0050 H     1 <1>   0.1500 
 20 H        0.9020     5.0520    -1.0680 H     1 <1>   0.1500 
 21 H        4.1090     2.1040    -0.4990 H     1 <1>   0.0800 
 22 H        3.9370     2.7650     1.1330 H     1 <1>   0.0800 
 23 H        5.1740     4.7820     0.4350 H     1 <1>   0.0800 
 24 H        5.3620     4.1140    -1.1800 H     1 <1>   0.0800 
 25 H        6.6230     2.2060    -0.2140 H     1 <1>   0.0800 
 26 H        6.5320     2.9480     1.3650 H     1 <1>   0.0800 
 27 H        7.6980     4.2770    -0.9920 H     1 <1>   0.4500 
 28 H        8.8150     2.1580    -0.3950 H     1 <1>   0.0800 
 29 H        9.2630     2.9380     1.1030 H     1 <1>   0.0800 
 30 H        8.8350     5.1940     1.3520 H     1 <1>   0.0800 
 31 H        7.1020     5.1960     1.5720 H     1 <1>   0.0800 
 32 H        9.9060     3.9820    -1.6830 H     1 <1>   0.0800 
 33 H       11.0120     3.1360    -0.6420 H     1 <1>   0.0800 
 34 H       10.4440     4.7080    -0.1740 H     1 <1>   0.0800 
 35 H        8.5780     6.4260    -0.7850 H     1 <1>   0.0800 
 36 H        7.8580     7.2910     0.5400 H     1 <1>   0.0800 
 37 H        6.8320     6.4320    -0.5690 H     1 <1>   0.0800 
@<TRIPOS>BOND
  1   1   2  1   
  2   2   3  ar  
  3   2   4  ar  
  4   3   5  ar  
  5   3  17  1   
  6   4   6  ar  
  7   4  18  1   
  8   5   7  1   
  9   5   8  ar  
 10   6   8  ar  
 11   6  19  1   
 12   7   9  1   
 13   8  20  1   
 14   9  10  1   
 15   9  21  1   
 16   9  22  1   
 17  10  11  1   
 18  10  23  1   
 19  10  24  1   
 20  11  12  1   
 21  11  25  1   
 22  11  26  1   
 23  12  13  1   
 24  12  14  1   
 25  12  27  1   
 26  13  15  1   
 27  13  28  1   
 28  13  29  1   
 29  14  16  1   
 30  14  30  1   
 31  14  31  1   
 32  15  32  1   
 33  15  33  1   
 34  15  34  1   
 35  16  35  1   
 36  16  36  1   
 37  16  37  1   
@<TRIPOS>SUBSTRUCTURE
  1 ****   9 GROUP 4 **** **** 0

# MOE 2024.06 (io_trps.svl 2023.06)
