@<TRIPOS>MOLECULE
NONAME
34 35 1 0 0 
SMALL
USER_CHARGES


@<TRIPOS>ATOM
  1 O       -2.3840     0.2300    -2.7930 O.2   1 <1>  -0.5700 
  2 C       -2.6180    -0.2940    -1.7180 C.2   1 <1>   0.4690 
  3 C       -3.2930     0.4670    -0.6810 C.ar  1 <1>   0.0860 
  4 C       -2.2300    -1.6450    -1.4920 C.2   1 <1>   0.0790 
  5 C       -4.1400     1.5270    -1.0070 C.ar  1 <1>  -0.1500 
  6 C       -3.1280     0.1770     0.6760 C.ar  1 <1>  -0.1500 
  7 C       -0.8180    -1.8380    -1.5570 C.1   1 <1>   0.4920 
  8 C       -3.0730    -2.6930    -1.2150 C.2   1 <1>  -0.0380 
  9 C       -4.8020     2.2530    -0.0330 C.ar  1 <1>  -0.1500 
 10 C       -3.7870     0.8980     1.6550 C.ar  1 <1>  -0.1500 
 11 N        0.3080    -2.0270    -1.5550 N.1   1 <1>  -0.5570 
 12 N       -2.6150    -3.9550    -0.9260 N.pl3 1 <1>  -0.8690 
 13 C       -4.5960    -2.5270    -1.2250 C.3   1 <1>  -0.0220 
 14 C       -4.6280     1.9370     1.3020 C.ar  1 <1>  -0.1500 
 15 C       -3.4090    -5.1620    -0.5990 C.3   1 <1>   0.2090 
 16 C       -5.2170    -2.6790     0.1720 C.3   1 <1>  -0.1600 
 17 C       -4.1570    -4.9680     0.7220 C.3   1 <1>  -0.1600 
 18 C       -5.4450    -4.1390     0.5910 C.3   1 <1>  -0.1600 
 19 H       -4.2800     1.7860    -2.0430 H     1 <1>   0.1500 
 20 H       -2.4760    -0.6240     0.9810 H     1 <1>   0.1500 
 21 H       -5.4510     3.0650    -0.3140 H     1 <1>   0.1500 
 22 H       -3.6460     0.6530     2.6940 H     1 <1>   0.1500 
 23 H       -1.6010    -4.1430    -0.9230 H     1 <1>   0.4000 
 24 H       -4.8690    -1.5620    -1.6100 H     1 <1>   0.0800 
 25 H       -5.0300    -3.2430    -1.9000 H     1 <1>   0.0800 
 26 H       -5.1420     2.5010     2.0620 H     1 <1>   0.1500 
 27 H       -4.0980    -5.3790    -1.3980 H     1 <1>   0.0800 
 28 H       -2.7360    -5.9970    -0.5050 H     1 <1>   0.0800 
 29 H       -4.6000    -2.1870     0.9020 H     1 <1>   0.0800 
 30 H       -6.1720    -2.1830     0.1720 H     1 <1>   0.0800 
 31 H       -4.4320    -5.9410     1.0880 H     1 <1>   0.0800 
 32 H       -3.4980    -4.5270     1.4480 H     1 <1>   0.0800 
 33 H       -6.1050    -4.6130    -0.1150 H     1 <1>   0.0800 
 34 H       -5.9460    -4.1410     1.5440 H     1 <1>   0.0800 
@<TRIPOS>BOND
  1   1   2  2   
  2   2   3  1   
  3   2   4  1   
  4   3   5  ar  
  5   3   6  ar  
  6   4   7  1   
  7   4   8  2   
  8   5   9  ar  
  9   5  19  1   
 10   6  10  ar  
 11   6  20  1   
 12   7  11  3   
 13   8  12  1   
 14   8  13  1   
 15   9  14  ar  
 16   9  21  1   
 17  10  14  ar  
 18  10  22  1   
 19  12  15  1   
 20  12  23  1   
 21  13  16  1   
 22  13  24  1   
 23  13  25  1   
 24  14  26  1   
 25  15  17  1   
 26  15  27  1   
 27  15  28  1   
 28  16  18  1   
 29  16  29  1   
 30  16  30  1   
 31  17  18  1   
 32  17  31  1   
 33  17  32  1   
 34  18  33  1   
 35  18  34  1   
@<TRIPOS>SUBSTRUCTURE
  1 ****   4 GROUP 4 **** **** 0

# MOE 2024.06 (io_trps.svl 2023.06)
