@<TRIPOS>MOLECULE
NONAME
39 39 1 0 0 
SMALL
USER_CHARGES


@<TRIPOS>ATOM
  1 CL       1.0910     0.7510     2.1180 Cl    1 <1>  -0.1770 
  2 C        2.2060     1.4210     0.9470 C.ar  1 <1>   0.1770 
  3 C        2.0260     2.7060     0.4500 C.ar  1 <1>   0.0820 
  4 C        3.2620     0.6250     0.5420 C.ar  1 <1>  -0.1500 
  5 O        0.9620     3.4340     0.8690 O.3   1 <1>  -0.3630 
  6 C        2.9590     3.2050    -0.4710 C.ar  1 <1>   0.0830 
  7 C        4.1760     1.1130    -0.3810 C.ar  1 <1>  -0.1440 
  8 C       -0.2410     3.2280     0.1650 C.3   1 <1>   0.1200 
  9 O        2.9420     4.4470    -1.0250 O.3   1 <1>  -0.3630 
 10 C        4.0090     2.3970    -0.8820 C.ar  1 <1>  -0.1500 
 11 C        5.3480     0.2690    -0.8290 C.3   1 <1>   0.4860 
 12 C       -1.3050     4.1360     0.7720 C.3   1 <1>  -0.2400 
 13 C        2.4100     5.5560    -0.3290 C.3   1 <1>   0.0400 
 14 N        6.4810     0.6220     0.0520 N.4   1 <1>  -0.9060 
 15 C        7.7210    -0.1430    -0.2670 C.3   1 <1>   0.3430 
 16 C        8.8780     0.2340     0.6630 C.3   1 <1>   0.1200 
 17 O        9.9580    -0.5490     0.2920 O.3   1 <1>  -0.5600 
 18 C       11.1150    -0.3340     1.0410 C.3   1 <1>   0.0400 
 19 H        3.3450    -0.3650     0.9570 H     1 <1>   0.1500 
 20 H       -0.5240     2.1940     0.2580 H     1 <1>   0.0800 
 21 H       -0.0750     3.4690    -0.8720 H     1 <1>   0.0800 
 22 H        4.6930     2.8050    -1.6070 H     1 <1>   0.1500 
 23 H        5.5860     0.4840    -1.8590 H     1 <1>   0.0800 
 24 H        5.1070    -0.7790    -0.7370 H     1 <1>   0.0800 
 25 H       -1.4500     3.8900     1.8090 H     1 <1>   0.0800 
 26 H       -2.2370     3.9990     0.2550 H     1 <1>   0.0800 
 27 H       -1.0110     5.1660     0.6840 H     1 <1>   0.0800 
 28 H        2.8080     6.4520    -0.7700 H     1 <1>   0.0800 
 29 H        2.6960     5.4970     0.7070 H     1 <1>   0.0800 
 30 H        1.3400     5.5510    -0.4290 H     1 <1>   0.0800 
 31 H        6.1890     0.4570     1.0230 H     1 <1>   0.4500 
 32 H        6.6410     1.6330    -0.0340 H     1 <1>   0.4500 
 33 H        8.0220     0.0550    -1.2830 H     1 <1>   0.0800 
 34 H        7.5350    -1.2000    -0.1650 H     1 <1>   0.0800 
 35 H        8.6390     0.0160     1.6900 H     1 <1>   0.0800 
 36 H        9.1510     1.2690     0.5440 H     1 <1>   0.0800 
 37 H       11.8830    -0.9900     0.6680 H     1 <1>   0.0800 
 38 H       10.9220    -0.5600     2.0760 H     1 <1>   0.0800 
 39 H       11.4320     0.6890     0.9280 H     1 <1>   0.0800 
@<TRIPOS>BOND
  1   1   2  1   
  2   2   3  ar  
  3   2   4  ar  
  4   3   5  1   
  5   3   6  ar  
  6   4   7  ar  
  7   4  19  1   
  8   5   8  1   
  9   6   9  1   
 10   6  10  ar  
 11   7  10  ar  
 12   7  11  1   
 13   8  12  1   
 14   8  20  1   
 15   8  21  1   
 16   9  13  1   
 17  10  22  1   
 18  11  14  1   
 19  11  23  1   
 20  11  24  1   
 21  12  25  1   
 22  12  26  1   
 23  12  27  1   
 24  13  28  1   
 25  13  29  1   
 26  13  30  1   
 27  14  15  1   
 28  14  31  1   
 29  14  32  1   
 30  15  16  1   
 31  15  33  1   
 32  15  34  1   
 33  16  17  1   
 34  16  35  1   
 35  16  36  1   
 36  17  18  1   
 37  18  37  1   
 38  18  38  1   
 39  18  39  1   
@<TRIPOS>SUBSTRUCTURE
  1 ****   7 GROUP 4 **** **** 0

# MOE 2024.06 (io_trps.svl 2023.06)
