@<TRIPOS>MOLECULE
NONAME
40 40 1 0 0 
SMALL
USER_CHARGES


@<TRIPOS>ATOM
  1 S        0.3990    -0.2840     0.2020 S.o2  1 <1>   1.2570 
  2 O        0.3440    -0.8520    -1.1310 O.2   1 <1>  -0.6500 
  3 O        1.0380    -1.0720     1.2360 O.2   1 <1>  -0.6500 
  4 C        1.2330     1.3350     0.1200 C.2   1 <1>   0.1240 
  5 C       -1.2950     0.1100     0.7370 C.3   1 <1>   0.0250 
  6 N        0.7530     2.4780     0.5330 N.2   1 <1>  -0.5650 
  7 N        2.4920     1.4620    -0.3840 N.pl3 1 <1>   0.0480 
  8 C       -2.0910    -1.1410     1.1570 C.3   1 <1>  -0.2400 
  9 C       -2.1220     0.8700    -0.3220 C.3   1 <1>  -0.2400 
 10 C        1.7270     3.3670     0.2900 C.2   1 <1>   0.0770 
 11 C        2.7980     2.7730    -0.2760 C.2   1 <1>  -0.3320 
 12 C        3.3770     0.3860    -0.9030 C.3   1 <1>   0.0960 
 13 C        4.1200     3.3810    -0.7090 C.3   1 <1>   0.3000 
 14 C        4.2900    -0.1420     0.2130 C.3   1 <1>  -0.1600 
 15 O        3.9590     4.7460    -0.7900 O.3   1 <1>  -0.6800 
 16 C        5.1600    -1.3280    -0.2390 C.3   1 <1>  -0.0800 
 17 C        5.9340    -1.8850     0.9610 C.3   1 <1>  -0.2400 
 18 C        6.1470    -0.9330    -1.3460 C.3   1 <1>  -0.2400 
 19 H       -1.2220     0.7420     1.6030 H     1 <1>   0.0800 
 20 H       -2.2020    -1.8120     0.3230 H     1 <1>   0.0800 
 21 H       -3.0670    -0.8680     1.5180 H     1 <1>   0.0800 
 22 H       -1.5720    -1.6610     1.9430 H     1 <1>   0.0800 
 23 H       -2.2390     0.2690    -1.2080 H     1 <1>   0.0800 
 24 H       -1.6320     1.7870    -0.5970 H     1 <1>   0.0800 
 25 H       -3.0960     1.1130     0.0630 H     1 <1>   0.0800 
 26 H        1.6100     4.4090     0.5470 H     1 <1>   0.1500 
 27 H        3.9620     0.7830    -1.7110 H     1 <1>   0.0800 
 28 H        2.7820    -0.4160    -1.2980 H     1 <1>   0.0800 
 29 H        4.4130     3.0280    -1.6830 H     1 <1>   0.0800 
 30 H        4.9000     3.1730     0.0030 H     1 <1>   0.0800 
 31 H        3.6740    -0.4660     1.0340 H     1 <1>   0.0800 
 32 H        4.9240     0.6520     0.5680 H     1 <1>   0.0800 
 33 H        3.1510     4.9370    -1.3010 H     1 <1>   0.4000 
 34 H        4.5160    -2.1090    -0.6110 H     1 <1>   0.0800 
 35 H        6.5940    -1.1390     1.3690 H     1 <1>   0.0800 
 36 H        6.5200    -2.7370     0.6650 H     1 <1>   0.0800 
 37 H        5.2530    -2.1990     1.7320 H     1 <1>   0.0800 
 38 H        6.7710    -0.1170    -1.0260 H     1 <1>   0.0800 
 39 H        5.6300    -0.6460    -2.2430 H     1 <1>   0.0800 
 40 H        6.7810    -1.7680    -1.5890 H     1 <1>   0.0800 
@<TRIPOS>BOND
  1   1   2  2   
  2   1   3  2   
  3   1   4  1   
  4   1   5  1   
  5   4   6  2   
  6   4   7  1   
  7   5   8  1   
  8   5   9  1   
  9   5  19  1   
 10   6  10  1   
 11   7  11  1   
 12   7  12  1   
 13   8  20  1   
 14   8  21  1   
 15   8  22  1   
 16   9  23  1   
 17   9  24  1   
 18   9  25  1   
 19  10  11  2   
 20  10  26  1   
 21  11  13  1   
 22  12  14  1   
 23  12  27  1   
 24  12  28  1   
 25  13  15  1   
 26  13  29  1   
 27  13  30  1   
 28  14  16  1   
 29  14  31  1   
 30  14  32  1   
 31  15  33  1   
 32  16  17  1   
 33  16  18  1   
 34  16  34  1   
 35  17  35  1   
 36  17  36  1   
 37  17  37  1   
 38  18  38  1   
 39  18  39  1   
 40  18  40  1   
@<TRIPOS>SUBSTRUCTURE
  1 ****   7 GROUP 4 **** **** 0

# MOE 2024.06 (io_trps.svl 2023.06)
