@<TRIPOS>MOLECULE
NONAME
50 53 1 0 0 
SMALL
USER_CHARGES


@<TRIPOS>ATOM
  1 S        9.8240    -3.3780    -0.6760 S.3   1 <1>  -0.0800 
  2 C        8.3050    -3.2150     0.2020 C.ar  1 <1>   0.2970 
  3 C        9.3470    -4.9510    -1.3280 C.2   1 <1>  -0.1400 
  4 N        8.0000    -2.1800     0.9540 N.ar  1 <1>  -0.5670 
  5 C        7.5120    -4.3090    -0.0200 C.ar  1 <1>   0.0000 
  6 C        8.1200    -5.2850    -0.8860 C.2   1 <1>  -0.1500 
  7 C       10.3590    -5.6320    -2.2320 C.3   1 <1>   0.0200 
  8 C        6.8090    -2.2790     1.5090 C.ar  1 <1>   0.4770 
  9 C        6.2780    -4.2780     0.6230 C.ar  1 <1>   0.4100 
 10 C        9.8590    -6.9870    -2.7410 C.3   1 <1>  -0.2400 
 11 N        5.9200    -3.2600     1.3870 N.ar  1 <1>  -0.6200 
 12 C        6.3950    -1.1280     2.3960 C.3   1 <1>  -0.0960 
 13 N        5.3570    -5.2870     0.4670 N.pl3 1 <1>  -0.8380 
 14 C        4.7210    -5.8480     1.6970 C.3   1 <1>   0.2090 
 15 C        4.4370    -5.1690    -0.6990 C.3   1 <1>   0.2090 
 16 C        3.4420    -5.0640     2.0660 C.3   1 <1>   0.3430 
 17 C        3.1720    -4.3740    -0.3100 C.3   1 <1>   0.3430 
 18 N        2.4800    -4.9390     0.9100 N.4   1 <1>  -0.9590 
 19 C        1.2900    -4.1280     1.2780 C.3   1 <1>   0.4860 
 20 C        0.2980    -4.1880     0.1340 C.ar  1 <1>  -0.1440 
 21 C       -0.4480    -5.3380    -0.0890 C.ar  1 <1>  -0.1500 
 22 C        0.1340    -3.0940    -0.7050 C.ar  1 <1>  -0.1500 
 23 C       -1.3350    -5.3970    -1.1490 C.ar  1 <1>  -0.1500 
 24 C       -0.7550    -3.1560    -1.7640 C.ar  1 <1>  -0.1500 
 25 C       -1.4870    -4.3070    -1.9880 C.ar  1 <1>  -0.1500 
 26 H        7.5900    -6.1900    -1.1210 H     1 <1>   0.1500 
 27 H       11.2760    -5.7740    -1.6860 H     1 <1>   0.0800 
 28 H       10.5670    -4.9900    -3.0710 H     1 <1>   0.0800 
 29 H        9.6650    -7.6470    -1.9150 H     1 <1>   0.0800 
 30 H       10.6020    -7.4380    -3.3740 H     1 <1>   0.0800 
 31 H        8.9540    -6.8610    -3.3100 H     1 <1>   0.0800 
 32 H        7.1770    -0.3920     2.4500 H     1 <1>   0.0800 
 33 H        6.1930    -1.4910     3.3860 H     1 <1>   0.0800 
 34 H        5.5110    -0.6660     1.9990 H     1 <1>   0.0800 
 35 H        5.4190    -5.7930     2.5160 H     1 <1>   0.0800 
 36 H        4.4860    -6.8860     1.5370 H     1 <1>   0.0800 
 37 H        4.1660    -6.1500    -1.0460 H     1 <1>   0.0800 
 38 H        4.9390    -4.6620    -1.5060 H     1 <1>   0.0800 
 39 H        3.7440    -4.0800     2.3880 H     1 <1>   0.0800 
 40 H        2.9600    -5.5500     2.8980 H     1 <1>   0.0800 
 41 H        2.4930    -4.3650    -1.1470 H     1 <1>   0.0800 
 42 H        3.4700    -3.3560    -0.1140 H     1 <1>   0.0800 
 43 H        2.1410    -5.8730     0.6550 H     1 <1>   0.4500 
 44 H        1.5770    -3.1060     1.4640 H     1 <1>   0.0800 
 45 H        0.8290    -4.5230     2.1690 H     1 <1>   0.0800 
 46 H       -0.3560    -6.1970     0.5540 H     1 <1>   0.1500 
 47 H        0.6880    -2.1840    -0.5480 H     1 <1>   0.1500 
 48 H       -1.9150    -6.2880    -1.3240 H     1 <1>   0.1500 
 49 H       -0.8840    -2.3070    -2.4150 H     1 <1>   0.1500 
 50 H       -2.1800    -4.3540    -2.8110 H     1 <1>   0.1500 
@<TRIPOS>BOND
  1   1   2  1   
  2   1   3  1   
  3   2   4  ar  
  4   2   5  ar  
  5   3   6  2   
  6   3   7  1   
  7   4   8  ar  
  8   5   6  1   
  9   5   9  ar  
 10   6  26  1   
 11   7  10  1   
 12   7  27  1   
 13   7  28  1   
 14   8  11  ar  
 15   8  12  1   
 16   9  11  ar  
 17   9  13  1   
 18  10  29  1   
 19  10  30  1   
 20  10  31  1   
 21  12  32  1   
 22  12  33  1   
 23  12  34  1   
 24  13  14  1   
 25  13  15  1   
 26  14  16  1   
 27  14  35  1   
 28  14  36  1   
 29  15  17  1   
 30  15  37  1   
 31  15  38  1   
 32  16  18  1   
 33  16  39  1   
 34  16  40  1   
 35  17  18  1   
 36  17  41  1   
 37  17  42  1   
 38  18  19  1   
 39  18  43  1   
 40  19  20  1   
 41  19  44  1   
 42  19  45  1   
 43  20  21  ar  
 44  20  22  ar  
 45  21  23  ar  
 46  21  46  1   
 47  22  24  ar  
 48  22  47  1   
 49  23  25  ar  
 50  23  48  1   
 51  24  25  ar  
 52  24  49  1   
 53  25  50  1   
@<TRIPOS>SUBSTRUCTURE
  1 ****  15 GROUP 4 **** **** 0

# MOE 2024.06 (io_trps.svl 2023.06)
