@<TRIPOS>MOLECULE
NONAME
56 58 1 0 0 
SMALL
USER_CHARGES


@<TRIPOS>ATOM
  1 O       -0.5570     0.0560     1.1280 O.3   1 <1>  -0.3630 
  2 C       -0.6350     1.3890     0.8940 C.ar  1 <1>   0.0830 
  3 C        0.2280    -0.3460     2.2310 C.3   1 <1>   0.0400 
  4 C        0.4710     2.1760     0.5520 C.ar  1 <1>   0.0830 
  5 C       -1.8840     1.9750     1.0060 C.ar  1 <1>  -0.1500 
  6 O        1.7140     1.6680     0.3750 O.3   1 <1>  -0.3630 
  7 C        0.3100     3.5390     0.3790 C.ar  1 <1>  -0.1500 
  8 C       -2.0470     3.3390     0.8090 C.ar  1 <1>  -0.1430 
  9 C        1.8890     0.7930    -0.7180 C.3   1 <1>   0.0400 
 10 C       -0.9410     4.1200     0.5050 C.ar  1 <1>  -0.1500 
 11 C       -3.4260     3.9580     0.9160 C.3   1 <1>  -0.0170 
 12 C       -4.1450     3.7690    -0.4210 C.3   1 <1>   0.3430 
 13 N       -5.5650     4.2320    -0.3670 N.4   1 <1>  -0.9590 
 14 C       -6.3090     3.7560    -1.5620 C.3   1 <1>   0.4810 
 15 C       -5.6900     5.7190    -0.2290 C.3   1 <1>   0.2630 
 16 C       -7.7810     4.0150    -1.3320 C.2   1 <1>  -0.2540 
 17 C       -8.4960     5.0190    -2.0440 C.2   1 <1>  -0.2880 
 18 C       -8.4690     2.9680    -0.1520 C.3   1 <1>   0.1160 
 19 C      -10.1490     5.0890    -1.6110 C.3   1 <1>  -0.0220 
 20 C      -10.0280     2.7000     0.5220 C.3   1 <1>   0.0000 
 21 C       -9.4710     3.7000    -0.5260 C.3   1 <1>   0.0000 
 22 C      -10.7270     3.9480    -0.4340 C.3   1 <1>   0.0000 
 23 C      -10.1410     2.9690     2.0460 C.3   1 <1>  -0.2400 
 24 C      -10.5820     1.2810     0.2330 C.3   1 <1>  -0.2400 
 25 H        0.0870    -1.4020     2.3760 H     1 <1>   0.0800 
 26 H       -0.0960     0.1930     3.1040 H     1 <1>   0.0800 
 27 H        1.2630    -0.1400     2.0290 H     1 <1>   0.0800 
 28 H       -2.7170     1.3440     1.2570 H     1 <1>   0.1500 
 29 H        1.1690     4.1400     0.1410 H     1 <1>   0.1500 
 30 H        2.9310     0.5400    -0.7830 H     1 <1>   0.0800 
 31 H        1.5750     1.2940    -1.6170 H     1 <1>   0.0800 
 32 H        1.3060    -0.0960    -0.5620 H     1 <1>   0.0800 
 33 H       -1.0360     5.1830     0.3630 H     1 <1>   0.1500 
 34 H       -3.3300     5.0020     1.1550 H     1 <1>   0.0800 
 35 H       -3.9700     3.4700     1.7060 H     1 <1>   0.0800 
 36 H       -4.1190     2.7190    -0.6680 H     1 <1>   0.0800 
 37 H       -3.6100     4.3010    -1.1910 H     1 <1>   0.0800 
 38 H       -6.0310     3.7940     0.4390 H     1 <1>   0.4500 
 39 H       -6.1490     2.7010    -1.7170 H     1 <1>   0.0800 
 40 H       -5.9770     4.2880    -2.4390 H     1 <1>   0.0800 
 41 H       -5.2310     6.2140    -1.0680 H     1 <1>   0.0800 
 42 H       -5.2130     6.0560     0.6770 H     1 <1>   0.0800 
 43 H       -6.7300     6.0030    -0.1900 H     1 <1>   0.0800 
 44 H       -8.1490     5.7090    -2.7960 H     1 <1>   0.1500 
 45 H       -7.9040     3.2110     0.7350 H     1 <1>   0.0000 
 46 H      -10.7350     4.9680    -2.5080 H     1 <1>   0.0800 
 47 H      -10.3640     6.0810    -1.2490 H     1 <1>   0.0800 
 48 H       -9.6060     3.0680    -1.5010 H     1 <1>   0.0000 
 49 H       -9.1610     4.5950     0.1490 H     1 <1>   0.0000 
 50 H      -11.4610     3.3910    -0.9960 H     1 <1>   0.0000 
 51 H       -9.7800     3.9500     2.2980 H     1 <1>   0.0800 
 52 H       -9.5730     2.2420     2.5980 H     1 <1>   0.0800 
 53 H      -11.1700     2.9040     2.3550 H     1 <1>   0.0800 
 54 H      -10.5250     1.0460    -0.8150 H     1 <1>   0.0800 
 55 H      -11.6120     1.2160     0.5360 H     1 <1>   0.0800 
 56 H      -10.0190     0.5430     0.7760 H     1 <1>   0.0800 
@<TRIPOS>BOND
  1   1   2  1   
  2   1   3  1   
  3   2   4  ar  
  4   2   5  ar  
  5   3  25  1   
  6   3  26  1   
  7   3  27  1   
  8   4   6  1   
  9   4   7  ar  
 10   5   8  ar  
 11   5  28  1   
 12   6   9  1   
 13   7  10  ar  
 14   7  29  1   
 15   8  10  ar  
 16   8  11  1   
 17   9  30  1   
 18   9  31  1   
 19   9  32  1   
 20  10  33  1   
 21  11  12  1   
 22  11  34  1   
 23  11  35  1   
 24  12  13  1   
 25  12  36  1   
 26  12  37  1   
 27  13  14  1   
 28  13  15  1   
 29  13  38  1   
 30  14  16  1   
 31  14  39  1   
 32  14  40  1   
 33  15  41  1   
 34  15  42  1   
 35  15  43  1   
 36  16  17  2   
 37  16  18  1   
 38  17  19  1   
 39  17  44  1   
 40  18  20  1   
 41  18  21  1   
 42  18  45  1   
 43  19  22  1   
 44  19  46  1   
 45  19  47  1   
 46  20  22  1   
 47  20  23  1   
 48  20  24  1   
 49  21  22  1   
 50  21  48  1   
 51  21  49  1   
 52  22  50  1   
 53  23  51  1   
 54  23  52  1   
 55  23  53  1   
 56  24  54  1   
 57  24  55  1   
 58  24  56  1   
@<TRIPOS>SUBSTRUCTURE
  1 ****  12 GROUP 4 **** **** 0

# MOE 2024.06 (io_trps.svl 2023.06)
