@<TRIPOS>MOLECULE
NONAME
41 42 1 0 0 
SMALL
USER_CHARGES


@<TRIPOS>ATOM
  1 CL       1.9930     0.7700    -2.4660 Cl    1 <1>  -0.1770 
  2 C        2.7480     1.4190    -1.0270 C.ar  1 <1>   0.1770 
  3 C        2.4080     2.6810    -0.5540 C.ar  1 <1>   0.0820 
  4 C        3.6900     0.6320    -0.3890 C.ar  1 <1>  -0.1500 
  5 O        1.4650     3.4030    -1.2090 O.3   1 <1>  -0.3630 
  6 C        3.0610     3.1640     0.5890 C.ar  1 <1>   0.0830 
  7 C        4.3240     1.1050     0.7510 C.ar  1 <1>  -0.1440 
  8 C        0.1260     3.1390    -0.8490 C.3   1 <1>   0.0400 
  9 O        2.8680     4.3850     1.1570 O.3   1 <1>  -0.3630 
 10 C        3.9940     2.3640     1.2310 C.ar  1 <1>  -0.1500 
 11 C        5.3720     0.2650     1.4580 C.3   1 <1>   0.4860 
 12 C        2.5010     5.5070     0.3850 C.3   1 <1>   0.1200 
 13 N        6.6990     0.8670     1.2110 N.4   1 <1>  -0.9060 
 14 C        2.8590     6.7610     1.1750 C.3   1 <1>  -0.2400 
 15 C        7.0890     0.9620    -0.2230 C.3   1 <1>   0.4860 
 16 C        8.6100     1.0410    -0.2960 C.ar  1 <1>   0.1670 
 17 N        9.2710     0.3460     0.6270 N.ar  1 <1>  -0.6200 
 18 C        9.2180     1.8090    -1.2790 C.ar  1 <1>  -0.1500 
 19 C       10.5950     0.4170     0.5540 C.ar  1 <1>   0.1600 
 20 C       10.5930     1.8730    -1.3340 C.ar  1 <1>  -0.1500 
 21 C       11.2900     1.1530    -0.3890 C.ar  1 <1>  -0.1500 
 22 H        3.9040    -0.3410    -0.7970 H     1 <1>   0.1500 
 23 H       -0.5100     3.7960    -1.4150 H     1 <1>   0.0800 
 24 H        0.0040     3.3250     0.2040 H     1 <1>   0.0800 
 25 H       -0.1080     2.1150    -1.0800 H     1 <1>   0.0800 
 26 H        4.4550     2.7600     2.1210 H     1 <1>   0.1500 
 27 H        5.3470    -0.7470     1.0840 H     1 <1>   0.0800 
 28 H        5.1650     0.2420     2.5160 H     1 <1>   0.0800 
 29 H        1.4420     5.4670     0.2030 H     1 <1>   0.0800 
 30 H        3.0370     5.4780    -0.5490 H     1 <1>   0.0800 
 31 H        7.4640     0.3130     1.6340 H     1 <1>   0.4500 
 32 H        6.7630     1.7990     1.6300 H     1 <1>   0.4500 
 33 H        2.3240     6.7760     2.1080 H     1 <1>   0.0800 
 34 H        2.5860     7.6350     0.6120 H     1 <1>   0.0800 
 35 H        3.9170     6.7930     1.3650 H     1 <1>   0.0800 
 36 H        6.6380     1.8250    -0.6850 H     1 <1>   0.0800 
 37 H        6.7710     0.0770    -0.7490 H     1 <1>   0.0800 
 38 H        8.6360     2.3550    -2.0010 H     1 <1>   0.1500 
 39 H       11.1600    -0.1410     1.2830 H     1 <1>   0.1500 
 40 H       11.1050     2.4570    -2.0820 H     1 <1>   0.1500 
 41 H       12.3660     1.1600    -0.3820 H     1 <1>   0.1500 
@<TRIPOS>BOND
  1   1   2  1   
  2   2   3  ar  
  3   2   4  ar  
  4   3   5  1   
  5   3   6  ar  
  6   4   7  ar  
  7   4  22  1   
  8   5   8  1   
  9   6   9  1   
 10   6  10  ar  
 11   7  10  ar  
 12   7  11  1   
 13   8  23  1   
 14   8  24  1   
 15   8  25  1   
 16   9  12  1   
 17  10  26  1   
 18  11  13  1   
 19  11  27  1   
 20  11  28  1   
 21  12  14  1   
 22  12  29  1   
 23  12  30  1   
 24  13  15  1   
 25  13  31  1   
 26  13  32  1   
 27  14  33  1   
 28  14  34  1   
 29  14  35  1   
 30  15  16  1   
 31  15  36  1   
 32  15  37  1   
 33  16  17  ar  
 34  16  18  ar  
 35  17  19  ar  
 36  18  20  ar  
 37  18  38  1   
 38  19  21  ar  
 39  19  39  1   
 40  20  21  ar  
 41  20  40  1   
 42  21  41  1   
@<TRIPOS>SUBSTRUCTURE
  1 ****   7 GROUP 4 **** **** 0

# MOE 2024.06 (io_trps.svl 2023.06)
