@<TRIPOS>MOLECULE
NONAME
39 40 1 0 0 
SMALL
USER_CHARGES


@<TRIPOS>ATOM
  1 S        0.3180    -0.2790     0.2760 S.o2  1 <1>   1.2120 
  2 O       -0.9450    -0.0460     0.9360 O.2   1 <1>  -0.6500 
  3 O        0.8700    -1.6010     0.1060 O.2   1 <1>  -0.6500 
  4 C        0.3310     0.6090    -1.2600 C.2   1 <1>  -0.1670 
  5 C        1.5370     0.8190     0.9770 C.3   1 <1>  -0.0550 
  6 C        0.9260     1.7990    -1.2080 C.2   1 <1>  -0.2880 
  7 C        1.4900     2.1340     0.1620 C.3   1 <1>   0.3580 
  8 N        2.8120     2.8150     0.0280 N.am  1 <1>  -0.4770 
  9 C        3.9580     2.0060    -0.1150 C.ar  1 <1>   0.1170 
 10 C        2.9150     4.1930     0.0600 C.2   1 <1>   0.5690 
 11 C        4.9200     1.9660     0.8870 C.ar  1 <1>  -0.1500 
 12 C        4.1420     1.2060    -1.2370 C.ar  1 <1>  -0.1500 
 13 O        3.9770     4.7620     0.0700 O.2   1 <1>  -0.5700 
 14 C        1.6840     5.0770     0.0820 C.3   1 <1>  -0.1790 
 15 C        6.0160     1.1300     0.7860 C.ar  1 <1>  -0.1500 
 16 C        5.2370     0.3680    -1.3380 C.ar  1 <1>  -0.1500 
 17 C        6.1850     0.3170    -0.3260 C.ar  1 <1>  -0.1430 
 18 C        7.3870    -0.6160    -0.4540 C.3   1 <1>   0.0630 
 19 C        7.3960    -1.6540     0.6730 C.3   1 <1>  -0.2400 
 20 C        8.6960     0.1800    -0.4710 C.3   1 <1>  -0.2400 
 21 H       -0.1450     0.1450    -2.1010 H     1 <1>   0.1500 
 22 H        2.4910     0.3410     0.8920 H     1 <1>   0.0800 
 23 H        1.3340     1.0040     2.0130 H     1 <1>   0.0800 
 24 H        1.0410     2.5240    -1.9960 H     1 <1>   0.1500 
 25 H        0.7920     2.7870     0.6560 H     1 <1>   0.0800 
 26 H        4.8080     2.5980     1.7490 H     1 <1>   0.1500 
 27 H        3.4290     1.2370    -2.0380 H     1 <1>   0.1500 
 28 H        1.2010     5.0130     1.0390 H     1 <1>   0.0800 
 29 H        1.0030     4.7970    -0.6980 H     1 <1>   0.0800 
 30 H        1.9760     6.0990    -0.0790 H     1 <1>   0.0800 
 31 H        6.7430     1.1190     1.5780 H     1 <1>   0.1500 
 32 H        5.3510    -0.2440    -2.2150 H     1 <1>   0.1500 
 33 H        7.3140    -1.1470    -1.3880 H     1 <1>   0.0800 
 34 H        7.5150    -1.1810     1.6300 H     1 <1>   0.0800 
 35 H        8.2030    -2.3510     0.5310 H     1 <1>   0.0800 
 36 H        6.4690    -2.2000     0.6730 H     1 <1>   0.0800 
 37 H        8.8460     0.6930     0.4610 H     1 <1>   0.0800 
 38 H        8.6690     0.9080    -1.2620 H     1 <1>   0.0800 
 39 H        9.5290    -0.4780    -0.6400 H     1 <1>   0.0800 
@<TRIPOS>BOND
  1   1   2  2   
  2   1   3  2   
  3   1   4  1   
  4   1   5  1   
  5   4   6  2   
  6   4  21  1   
  7   5   7  1   
  8   5  22  1   
  9   5  23  1   
 10   6   7  1   
 11   6  24  1   
 12   7   8  1   
 13   7  25  1   
 14   8   9  1   
 15   8  10  am  
 16   9  11  ar  
 17   9  12  ar  
 18  10  13  2   
 19  10  14  1   
 20  11  15  ar  
 21  11  26  1   
 22  12  16  ar  
 23  12  27  1   
 24  14  28  1   
 25  14  29  1   
 26  14  30  1   
 27  15  17  ar  
 28  15  31  1   
 29  16  17  ar  
 30  16  32  1   
 31  17  18  1   
 32  18  19  1   
 33  18  20  1   
 34  18  33  1   
 35  19  34  1   
 36  19  35  1   
 37  19  36  1   
 38  20  37  1   
 39  20  38  1   
 40  20  39  1   
@<TRIPOS>SUBSTRUCTURE
  1 ****   9 GROUP 4 **** **** 0

# MOE 2024.06 (io_trps.svl 2023.06)
