@<TRIPOS>MOLECULE
NONAME
32 32 1 0 0 
SMALL
USER_CHARGES


@<TRIPOS>ATOM
  1 O       -0.5400    -0.6380     0.4870 O.2   1 <1>  -0.5700 
  2 C       -1.6750    -0.3020     0.3370 C.2   1 <1>   0.4480 
  3 C       -2.1310     0.3550    -0.9440 C.3   1 <1>  -0.0380 
  4 C       -2.7090    -0.5160     1.4210 C.3   1 <1>  -0.1790 
  5 C       -2.3640     1.8290    -0.7030 C.2   1 <1>   0.3280 
  6 N       -3.5490     2.2570    -0.5760 N.2   1 <1>  -0.4920 
  7 C       -1.0910     2.6640    -0.6290 C.3   1 <1>  -0.1790 
  8 N       -3.8510     3.5970    -0.3480 N.pl3 1 <1>  -0.4580 
  9 C       -5.0700     4.1980    -0.1330 C.ar  1 <1>   0.7200 
 10 N       -6.1700     3.4480    -0.1000 N.ar  1 <1>  -0.6200 
 11 N       -4.9980     5.5150     0.0280 N.ar  1 <1>  -0.6200 
 12 C       -7.2940     4.0850     0.1100 C.ar  1 <1>   0.1670 
 13 C       -6.1360     6.1300     0.2360 C.ar  1 <1>   0.1670 
 14 C       -7.3290     5.4480     0.2860 C.ar  1 <1>  -0.1500 
 15 C       -8.5550     3.2500     0.1480 C.3   1 <1>  -0.0970 
 16 C       -6.0820     7.6320     0.4200 C.3   1 <1>  -0.0970 
 17 H       -1.3890     0.2200    -1.7090 H     1 <1>   0.0800 
 18 H       -3.0410    -0.1110    -1.2750 H     1 <1>   0.0800 
 19 H       -3.1220     0.4270     1.7290 H     1 <1>   0.0800 
 20 H       -2.2530    -0.9910     2.2700 H     1 <1>   0.0800 
 21 H       -3.5010    -1.1430     1.0540 H     1 <1>   0.0800 
 22 H       -0.5700     2.6110    -1.5680 H     1 <1>   0.0800 
 23 H       -0.4480     2.2800     0.1420 H     1 <1>   0.0800 
 24 H       -1.2900     3.6950    -0.4130 H     1 <1>   0.0800 
 25 H       -3.1040     4.2890    -0.3370 H     1 <1>   0.4000 
 26 H       -8.2560     5.9600     0.4570 H     1 <1>   0.1500 
 27 H       -9.4200     3.8620     0.3260 H     1 <1>   0.0800 
 28 H       -8.4760     2.5190     0.9320 H     1 <1>   0.0800 
 29 H       -8.6750     2.7390    -0.7900 H     1 <1>   0.0800 
 30 H       -7.0630     8.0370     0.5830 H     1 <1>   0.0800 
 31 H       -5.6580     8.0860    -0.4560 H     1 <1>   0.0800 
 32 H       -5.4620     7.8680     1.2670 H     1 <1>   0.0800 
@<TRIPOS>BOND
  1   1   2  2   
  2   2   3  1   
  3   2   4  1   
  4   3   5  1   
  5   3  17  1   
  6   3  18  1   
  7   4  19  1   
  8   4  20  1   
  9   4  21  1   
 10   5   6  2   
 11   5   7  1   
 12   6   8  1   
 13   7  22  1   
 14   7  23  1   
 15   7  24  1   
 16   8   9  1   
 17   8  25  1   
 18   9  10  ar  
 19   9  11  ar  
 20  10  12  ar  
 21  11  13  ar  
 22  12  14  ar  
 23  12  15  1   
 24  13  14  ar  
 25  13  16  1   
 26  14  26  1   
 27  15  27  1   
 28  15  28  1   
 29  15  29  1   
 30  16  30  1   
 31  16  31  1   
 32  16  32  1   
@<TRIPOS>SUBSTRUCTURE
  1 ****   8 GROUP 4 **** **** 0

# MOE 2024.06 (io_trps.svl 2023.06)
