@<TRIPOS>MOLECULE
NONAME
46 48 1 0 0 
SMALL
USER_CHARGES


@<TRIPOS>ATOM
  1 S       -0.4810     0.7520     1.2680 S.o2  1 <1>   1.4470 
  2 O       -1.1790     1.3070     2.4090 O.2   1 <1>  -0.6500 
  3 O        0.1260    -0.5550     1.4120 O.2   1 <1>  -0.6500 
  4 N       -1.6230     0.6460     0.0220 N.am  1 <1>  -0.8490 
  5 C        0.7500     1.9500     0.6950 C.ar  1 <1>  -0.0090 
  6 C       -2.5940    -0.4300     0.2790 C.3   1 <1>   0.1960 
  7 C       -2.3560     1.9080    -0.1900 C.3   1 <1>   0.1960 
  8 C        1.4560     1.7610    -0.4900 C.ar  1 <1>   0.0830 
  9 C        1.0290     3.0950     1.4350 C.ar  1 <1>  -0.1500 
 10 C       -3.5820    -0.6120    -0.8910 C.3   1 <1>   0.2090 
 11 C       -3.3390     1.8140    -1.3750 C.3   1 <1>   0.2090 
 12 O        1.2210     0.6770    -1.2550 O.3   1 <1>  -0.3630 
 13 C        2.3950     2.6840    -0.9220 C.ar  1 <1>  -0.1500 
 14 C        1.9700     4.0200     1.0150 C.ar  1 <1>  -0.1500 
 15 N       -4.2840     0.6610    -1.2330 N.pl3 1 <1>  -0.8380 
 16 C        2.1730    -0.3600    -1.1900 C.3   1 <1>   0.0400 
 17 C        2.6610     3.8150    -0.1750 C.ar  1 <1>   0.0830 
 18 C       -5.5080     0.8800    -0.6310 C.ar  1 <1>   0.4100 
 19 O        3.5970     4.6670    -0.6610 O.3   1 <1>  -0.3630 
 20 N       -5.5460     1.7360     0.3830 N.ar  1 <1>  -0.6200 
 21 C       -6.6290     0.1960    -1.0950 C.ar  1 <1>  -0.1500 
 22 C        3.9660     5.8340     0.0380 C.3   1 <1>   0.0400 
 23 C       -6.7290     1.9090     0.9490 C.ar  1 <1>   0.1600 
 24 C       -7.8530     0.3850    -0.4990 C.ar  1 <1>  -0.1500 
 25 C       -7.8940     1.2720     0.5570 C.ar  1 <1>  -0.1500 
 26 H       -3.1510    -0.2130     1.1770 H     1 <1>   0.0800 
 27 H       -2.0700    -1.3580     0.4290 H     1 <1>   0.0800 
 28 H       -1.6580     2.7020    -0.3920 H     1 <1>   0.0800 
 29 H       -2.9080     2.1690     0.6980 H     1 <1>   0.0800 
 30 H        0.5010     3.2660     2.3590 H     1 <1>   0.1500 
 31 H       -4.3040    -1.3660    -0.6270 H     1 <1>   0.0800 
 32 H       -3.0420    -0.9580    -1.7550 H     1 <1>   0.0800 
 33 H       -2.7790     1.6970    -2.2860 H     1 <1>   0.0800 
 34 H       -3.8970     2.7310    -1.4480 H     1 <1>   0.0800 
 35 H        2.9190     2.5250    -1.8460 H     1 <1>   0.1500 
 36 H        2.1490     4.8870     1.6220 H     1 <1>   0.1500 
 37 H        1.8310    -1.1690    -1.8100 H     1 <1>   0.0800 
 38 H        2.2570    -0.6930    -0.1700 H     1 <1>   0.0800 
 39 H        3.1190     0.0060    -1.5460 H     1 <1>   0.0800 
 40 H       -6.5140    -0.4740    -1.9260 H     1 <1>   0.1500 
 41 H        4.7260     6.3380    -0.5310 H     1 <1>   0.0800 
 42 H        4.3550     5.5560     1.0020 H     1 <1>   0.0800 
 43 H        3.1030     6.4690     0.1380 H     1 <1>   0.0800 
 44 H       -6.7730     2.5990     1.7740 H     1 <1>   0.1500 
 45 H       -8.7350    -0.1300    -0.8380 H     1 <1>   0.1500 
 46 H       -8.8180     1.4690     1.0700 H     1 <1>   0.1500 
@<TRIPOS>BOND
  1   1   2  2   
  2   1   3  2   
  3   1   4  am  
  4   1   5  1   
  5   4   6  1   
  6   4   7  1   
  7   5   8  ar  
  8   5   9  ar  
  9   6  10  1   
 10   6  26  1   
 11   6  27  1   
 12   7  11  1   
 13   7  28  1   
 14   7  29  1   
 15   8  12  1   
 16   8  13  ar  
 17   9  14  ar  
 18   9  30  1   
 19  10  15  1   
 20  10  31  1   
 21  10  32  1   
 22  11  15  1   
 23  11  33  1   
 24  11  34  1   
 25  12  16  1   
 26  13  17  ar  
 27  13  35  1   
 28  14  17  ar  
 29  14  36  1   
 30  15  18  1   
 31  16  37  1   
 32  16  38  1   
 33  16  39  1   
 34  17  19  1   
 35  18  20  ar  
 36  18  21  ar  
 37  19  22  1   
 38  20  23  ar  
 39  21  24  ar  
 40  21  40  1   
 41  22  41  1   
 42  22  42  1   
 43  22  43  1   
 44  23  25  ar  
 45  23  44  1   
 46  24  25  ar  
 47  24  45  1   
 48  25  46  1   
@<TRIPOS>SUBSTRUCTURE
  1 ****   7 GROUP 4 **** **** 0

# MOE 2024.06 (io_trps.svl 2023.06)
