@<TRIPOS>MOLECULE
NONAME
54 56 1 0 0 
SMALL
USER_CHARGES


@<TRIPOS>ATOM
  1 CL       0.6800    -0.6430     1.3210 Cl    1 <1>  -0.1770 
  2 C        2.1900    -1.3870     0.8630 C.ar  1 <1>   0.1770 
  3 C        2.1950    -2.6880     0.4010 C.ar  1 <1>  -0.1500 
  4 C        3.3640    -0.6690     0.9680 C.ar  1 <1>  -0.1500 
  5 C        3.3940    -3.2760     0.0390 C.ar  1 <1>  -0.1500 
  6 C        4.5570    -1.2670     0.6040 C.ar  1 <1>  -0.1500 
  7 C        4.6100    -2.5830     0.1290 C.ar  1 <1>   0.0860 
  8 C        5.8770    -3.1740    -0.2420 C.2   1 <1>   0.3030 
  9 N        7.0150    -2.6030    -0.2000 N.2   1 <1>  -0.4920 
 10 C        5.9690    -4.6000    -0.7420 C.3   1 <1>  -0.0990 
 11 N        8.0010    -3.4450    -0.6170 N.pl3 1 <1>  -0.4270 
 12 C        7.4620    -4.7650    -0.9850 C.3   1 <1>   0.2090 
 13 C        9.3650    -3.1010    -0.7090 C.ar  1 <1>   0.1000 
 14 C       10.3440    -4.0330    -1.0450 C.ar  1 <1>  -0.1500 
 15 C        9.7810    -1.7970    -0.4630 C.ar  1 <1>  -0.1500 
 16 C       11.6780    -3.6730    -1.1260 C.ar  1 <1>  -0.1500 
 17 C       11.1140    -1.4390    -0.5450 C.ar  1 <1>  -0.1500 
 18 C       12.0910    -2.3700    -0.8720 C.ar  1 <1>  -0.0090 
 19 S       13.8360    -1.8960    -0.9710 S.o2  1 <1>   1.4470 
 20 O       14.7170    -3.0360    -0.8130 O.2   1 <1>  -0.6500 
 21 O       14.0850    -0.9730    -2.0520 O.2   1 <1>  -0.6500 
 22 N       14.1210    -1.0600     0.4590 N.am  1 <1>  -0.9140 
 23 C       14.9850     0.1140     0.4010 C.3   1 <1>   0.1960 
 24 C       16.4320    -0.1750    -0.0340 C.3   1 <1>  -0.1600 
 25 C       17.1890    -1.1860     0.8360 C.3   1 <1>   0.3430 
 26 N       17.2610    -2.5330     0.1950 N.4   1 <1>  -0.9590 
 27 C       17.6410    -3.5890     1.1790 C.3   1 <1>   0.2630 
 28 C       18.1870    -2.5620    -0.9800 C.3   1 <1>   0.2630 
 29 H        1.2680    -3.2280     0.3280 H     1 <1>   0.1500 
 30 H        3.3410     0.3440     1.3310 H     1 <1>   0.1500 
 31 H        3.3750    -4.2890    -0.3190 H     1 <1>   0.1500 
 32 H        5.4720    -0.7050     0.6860 H     1 <1>   0.1500 
 33 H        5.4210    -4.7250    -1.6570 H     1 <1>   0.0800 
 34 H        5.6270    -5.2950     0.0020 H     1 <1>   0.0800 
 35 H        7.6740    -4.9710    -2.0200 H     1 <1>   0.0800 
 36 H        7.8820    -5.5220    -0.3470 H     1 <1>   0.0800 
 37 H       10.0710    -5.0510    -1.2460 H     1 <1>   0.1500 
 38 H        9.0460    -1.0560    -0.2060 H     1 <1>   0.1500 
 39 H       12.4080    -4.4190    -1.3900 H     1 <1>   0.1500 
 40 H       11.3950    -0.4180    -0.3500 H     1 <1>   0.1500 
 41 H       14.4140    -1.7450     1.1480 H     1 <1>   0.4200 
 42 H       14.9930     0.5750     1.3760 H     1 <1>   0.0800 
 43 H       14.5520     0.8310    -0.2800 H     1 <1>   0.0800 
 44 H       16.9560     0.7600     0.0470 H     1 <1>   0.0800 
 45 H       16.4610    -0.4370    -1.0760 H     1 <1>   0.0800 
 46 H       16.7020    -1.2590     1.7950 H     1 <1>   0.0800 
 47 H       18.1910    -0.8270     1.0050 H     1 <1>   0.0800 
 48 H       16.3140    -2.7760    -0.1720 H     1 <1>   0.4500 
 49 H       18.6270    -3.4000     1.5720 H     1 <1>   0.0800 
 50 H       17.6390    -4.5570     0.7030 H     1 <1>   0.0800 
 51 H       16.9390    -3.6100     1.9960 H     1 <1>   0.0800 
 52 H       19.1900    -2.3140    -0.6750 H     1 <1>   0.0800 
 53 H       17.8680    -1.8560    -1.7300 H     1 <1>   0.0800 
 54 H       18.1920    -3.5440    -1.4240 H     1 <1>   0.0800 
@<TRIPOS>BOND
  1   1   2  1   
  2   2   3  ar  
  3   2   4  ar  
  4   3   5  ar  
  5   3  29  1   
  6   4   6  ar  
  7   4  30  1   
  8   5   7  ar  
  9   5  31  1   
 10   6   7  ar  
 11   6  32  1   
 12   7   8  1   
 13   8   9  2   
 14   8  10  1   
 15   9  11  1   
 16  10  12  1   
 17  10  33  1   
 18  10  34  1   
 19  11  12  1   
 20  11  13  1   
 21  12  35  1   
 22  12  36  1   
 23  13  14  ar  
 24  13  15  ar  
 25  14  16  ar  
 26  14  37  1   
 27  15  17  ar  
 28  15  38  1   
 29  16  18  ar  
 30  16  39  1   
 31  17  18  ar  
 32  17  40  1   
 33  18  19  1   
 34  19  20  2   
 35  19  21  2   
 36  19  22  am  
 37  22  23  1   
 38  22  41  1   
 39  23  24  1   
 40  23  42  1   
 41  23  43  1   
 42  24  25  1   
 43  24  44  1   
 44  24  45  1   
 45  25  26  1   
 46  25  46  1   
 47  25  47  1   
 48  26  27  1   
 49  26  28  1   
 50  26  48  1   
 51  27  49  1   
 52  27  50  1   
 53  27  51  1   
 54  28  52  1   
 55  28  53  1   
 56  28  54  1   
@<TRIPOS>SUBSTRUCTURE
  1 ****  15 GROUP 4 **** **** 0

# MOE 2024.06 (io_trps.svl 2023.06)
