@<TRIPOS>MOLECULE
NONAME
36 37 1 0 0 
SMALL
USER_CHARGES


@<TRIPOS>ATOM
  1 F        0.4120    -0.2640    -0.3100 F     1 <1>  -0.1900 
  2 C        0.9860    -1.4070    -0.0330 C.ar  1 <1>   0.1900 
  3 C        0.2510    -2.4450     0.5140 C.ar  1 <1>   0.1900 
  4 C        2.3340    -1.5520    -0.2980 C.ar  1 <1>  -0.1500 
  5 F       -1.0270    -2.2980     0.7610 F     1 <1>  -0.1900 
  6 C        0.8540    -3.6540     0.8050 C.ar  1 <1>  -0.1500 
  7 C        2.9630    -2.7610    -0.0090 C.ar  1 <1>   0.1170 
  8 C        2.2080    -3.8020     0.5380 C.ar  1 <1>  -0.1500 
  9 N        4.3310    -2.8870    -0.2960 N.am  1 <1>  -0.5470 
 10 C        5.2840    -3.7020     0.2550 C.2   1 <1>   0.5690 
 11 O        5.0540    -4.4670     1.1580 O.2   1 <1>  -0.5700 
 12 C        6.7040    -3.6030    -0.3070 C.3   1 <1>  -0.0190 
 13 C        7.4780    -4.9340    -0.2070 C.3   1 <1>  -0.1600 
 14 C        7.4960    -2.4830     0.3940 C.3   1 <1>  -0.1600 
 15 C        8.9050    -4.8020    -0.7450 C.3   1 <1>   0.1400 
 16 C        8.9250    -2.3740    -0.1460 C.3   1 <1>   0.1400 
 17 N        9.6010    -3.6950    -0.0320 N.am  1 <1>  -0.6600 
 18 C       10.7520    -3.8320     0.7030 C.2   1 <1>   0.5690 
 19 O       11.2920    -2.8930     1.2360 O.2   1 <1>  -0.5700 
 20 C       11.4020    -5.1860     0.8760 C.3   1 <1>  -0.1790 
 21 H        2.8800    -0.7290    -0.7190 H     1 <1>   0.1500 
 22 H        0.2790    -4.4570     1.2290 H     1 <1>   0.1500 
 23 H        2.6770    -4.7440     0.7600 H     1 <1>   0.1500 
 24 H        4.6820    -2.2260    -0.9860 H     1 <1>   0.3700 
 25 H        6.6250    -3.3550    -1.3510 H     1 <1>   0.0800 
 26 H        6.9570    -5.6970    -0.7580 H     1 <1>   0.0800 
 27 H        7.5270    -5.2520     0.8200 H     1 <1>   0.0800 
 28 H        7.5420    -2.6800     1.4520 H     1 <1>   0.0800 
 29 H        6.9980    -1.5390     0.2610 H     1 <1>   0.0800 
 30 H        8.8800    -4.5770    -1.7980 H     1 <1>   0.0800 
 31 H        9.4200    -5.7360    -0.6200 H     1 <1>   0.0800 
 32 H        9.4600    -1.6210     0.4080 H     1 <1>   0.0800 
 33 H        8.9120    -2.0760    -1.1800 H     1 <1>   0.0800 
 34 H       11.7070    -5.5690    -0.0780 H     1 <1>   0.0800 
 35 H       10.7120    -5.8630     1.3430 H     1 <1>   0.0800 
 36 H       12.2690    -5.0930     1.5040 H     1 <1>   0.0800 
@<TRIPOS>BOND
  1   1   2  1   
  2   2   3  ar  
  3   2   4  ar  
  4   3   5  1   
  5   3   6  ar  
  6   4   7  ar  
  7   4  21  1   
  8   6   8  ar  
  9   6  22  1   
 10   7   8  ar  
 11   7   9  1   
 12   8  23  1   
 13   9  10  am  
 14   9  24  1   
 15  10  11  2   
 16  10  12  1   
 17  12  13  1   
 18  12  14  1   
 19  12  25  1   
 20  13  15  1   
 21  13  26  1   
 22  13  27  1   
 23  14  16  1   
 24  14  28  1   
 25  14  29  1   
 26  15  17  1   
 27  15  30  1   
 28  15  31  1   
 29  16  17  1   
 30  16  32  1   
 31  16  33  1   
 32  17  18  am  
 33  18  19  2   
 34  18  20  1   
 35  20  34  1   
 36  20  35  1   
 37  20  36  1   
@<TRIPOS>SUBSTRUCTURE
  1 ****  10 GROUP 4 **** **** 0

# MOE 2024.06 (io_trps.svl 2023.06)
