@<TRIPOS>MOLECULE
NONAME
43 45 1 0 0 
SMALL
USER_CHARGES


@<TRIPOS>ATOM
  1 F        0.3410     0.9280     1.0260 F     1 <1>  -0.1900 
  2 C        0.7120     1.8620     0.1840 C.ar  1 <1>   0.1900 
  3 C       -0.1940     2.8770    -0.1350 C.ar  1 <1>   0.1170 
  4 C        1.9850     1.7830    -0.3460 C.ar  1 <1>  -0.1500 
  5 N       -1.4750     2.8810     0.4490 N.am  1 <1>  -0.5470 
  6 C        0.2270     3.8450    -1.0490 C.ar  1 <1>  -0.1500 
  7 C        2.3530     2.7700    -1.2390 C.ar  1 <1>   0.1900 
  8 C       -2.3940     3.8740     0.6280 C.2   1 <1>   0.6900 
  9 C        1.4990     3.7970    -1.6000 C.ar  1 <1>  -0.1500 
 10 F        3.5500     2.7300    -1.7620 F     1 <1>  -0.1900 
 11 O       -2.1300     5.0290     0.3550 O.2   1 <1>  -0.5700 
 12 N       -3.6190     3.5480     1.1490 N.am  1 <1>  -0.6600 
 13 C       -4.5450     4.6100     1.6530 C.3   1 <1>   0.1400 
 14 C       -4.2910     2.2300     0.9340 C.3   1 <1>   0.1400 
 15 C       -5.7530     4.7670     0.7210 C.3   1 <1>   0.1400 
 16 C       -5.5220     2.3760     0.0220 C.3   1 <1>   0.1400 
 17 N       -6.4400     3.4530     0.5110 N.am  1 <1>  -0.6600 
 18 C       -7.8000     3.3150     0.6880 C.2   1 <1>   0.5690 
 19 O       -8.4610     4.2490     1.0900 O.2   1 <1>  -0.5700 
 20 C       -8.5160     1.9660     0.4040 C.3   1 <1>   0.2610 
 21 O       -8.3100     1.5420    -0.9180 O.3   1 <1>  -0.5600 
 22 C      -10.0420     1.9860     0.5150 C.3   1 <1>  -0.1600 
 23 C       -9.2590     2.1240    -1.7540 C.3   1 <1>   0.1200 
 24 C      -10.4900     2.3780    -0.8850 C.3   1 <1>  -0.1600 
 25 H        2.6600     0.9920    -0.0790 H     1 <1>   0.1500 
 26 H       -1.6890     2.0520     0.9970 H     1 <1>   0.3700 
 27 H       -0.4370     4.6410    -1.3350 H     1 <1>   0.1500 
 28 H        1.8250     4.5450    -2.3010 H     1 <1>   0.1500 
 29 H       -4.0320     5.5540     1.7330 H     1 <1>   0.0800 
 30 H       -4.8900     4.3430     2.6360 H     1 <1>   0.0800 
 31 H       -4.6020     1.8360     1.8850 H     1 <1>   0.0800 
 32 H       -3.6160     1.5230     0.4860 H     1 <1>   0.0800 
 33 H       -5.4180     5.1480    -0.2290 H     1 <1>   0.0800 
 34 H       -6.4290     5.4900     1.1430 H     1 <1>   0.0800 
 35 H       -6.0250     1.4290    -0.0260 H     1 <1>   0.0800 
 36 H       -5.1970     2.6240    -0.9740 H     1 <1>   0.0800 
 37 H       -8.1080     1.2210     1.0620 H     1 <1>   0.0800 
 38 H      -10.4020     2.6600     1.2730 H     1 <1>   0.0800 
 39 H      -10.3850     0.9930     0.7450 H     1 <1>   0.0800 
 40 H       -9.4640     1.4490    -2.5660 H     1 <1>   0.0800 
 41 H       -8.8540     3.0480    -2.1320 H     1 <1>   0.0800 
 42 H      -10.7510     3.4210    -0.9270 H     1 <1>   0.0800 
 43 H      -11.3290     1.7910    -1.2140 H     1 <1>   0.0800 
@<TRIPOS>BOND
  1   1   2  1   
  2   2   3  ar  
  3   2   4  ar  
  4   3   5  1   
  5   3   6  ar  
  6   4   7  ar  
  7   4  25  1   
  8   5   8  am  
  9   5  26  1   
 10   6   9  ar  
 11   6  27  1   
 12   7   9  ar  
 13   7  10  1   
 14   8  11  2   
 15   8  12  am  
 16   9  28  1   
 17  12  13  1   
 18  12  14  1   
 19  13  15  1   
 20  13  29  1   
 21  13  30  1   
 22  14  16  1   
 23  14  31  1   
 24  14  32  1   
 25  15  17  1   
 26  15  33  1   
 27  15  34  1   
 28  16  17  1   
 29  16  35  1   
 30  16  36  1   
 31  17  18  am  
 32  18  19  2   
 33  18  20  1   
 34  20  21  1   
 35  20  22  1   
 36  20  37  1   
 37  21  23  1   
 38  22  24  1   
 39  22  38  1   
 40  22  39  1   
 41  23  24  1   
 42  23  40  1   
 43  23  41  1   
 44  24  42  1   
 45  24  43  1   
@<TRIPOS>SUBSTRUCTURE
  1 ****  12 GROUP 4 **** **** 0

# MOE 2024.06 (io_trps.svl 2023.06)
