@<TRIPOS>MOLECULE
NONAME
50 51 1 0 0 
SMALL
USER_CHARGES


@<TRIPOS>ATOM
  1 O        1.7330     1.0580     2.5990 O.2   1 <1>  -0.5700 
  2 C        1.0380     0.3840     1.8790 C.2   1 <1>   0.5690 
  3 N        1.2250     0.2830     0.5350 N.am  1 <1>  -0.7300 
  4 C       -0.0920    -0.4030     2.5220 C.3   1 <1>   0.0450 
  5 C        2.2990     0.8120    -0.3290 C.3   1 <1>   0.3640 
  6 C       -0.9630    -1.1500     1.5130 C.ar  1 <1>  -0.1440 
  7 C        3.4800    -0.1540    -0.3340 C.ar  1 <1>  -0.1440 
  8 C        2.7080     2.2390     0.0350 C.3   1 <1>  -0.2400 
  9 C       -0.5640    -2.3870     1.0300 C.ar  1 <1>  -0.1500 
 10 C       -2.1470    -0.5900     1.0570 C.ar  1 <1>  -0.1500 
 11 C        3.8420    -0.8000    -1.5060 C.ar  1 <1>  -0.1500 
 12 C        4.2120    -0.4080     0.8160 C.ar  1 <1>  -0.1500 
 13 C       -1.3410    -3.0540     0.1000 C.ar  1 <1>  -0.1500 
 14 C       -2.9260    -1.2570     0.1270 C.ar  1 <1>  -0.1500 
 15 C        4.9120    -1.6790    -1.5500 C.ar  1 <1>   0.0830 
 16 C        5.2760    -1.2910     0.7970 C.ar  1 <1>  -0.1500 
 17 C       -2.5230    -2.4970    -0.3590 C.ar  1 <1>   0.0830 
 18 O        5.1550    -2.2200    -2.7790 O.3   1 <1>  -0.3630 
 19 C        5.6400    -1.9460    -0.3780 C.ar  1 <1>   0.0830 
 20 O       -3.2220    -3.2150    -1.2720 O.3   1 <1>  -0.3630 
 21 C        6.4630    -2.5600    -3.1840 C.3   1 <1>   0.0400 
 22 O        6.6680    -2.8450    -0.3990 O.3   1 <1>  -0.3630 
 23 C       -4.4480    -2.7520    -1.7860 C.3   1 <1>   0.1200 
 24 C        7.3460    -3.2380     0.7740 C.3   1 <1>   0.0400 
 25 C       -4.9670    -3.7910    -2.7740 C.3   1 <1>  -0.2400 
 26 H        0.6150    -0.3810     0.0510 H     1 <1>   0.3700 
 27 H       -0.6950     0.2790     3.0910 H     1 <1>   0.0800 
 28 H        0.3390    -1.1040     3.2120 H     1 <1>   0.0800 
 29 H        1.8980     0.8530    -1.3280 H     1 <1>   0.0800 
 30 H        3.2160     2.2700     0.9800 H     1 <1>   0.0800 
 31 H        1.8420     2.8740     0.0740 H     1 <1>   0.0800 
 32 H        3.3790     2.6180    -0.7130 H     1 <1>   0.0800 
 33 H        0.3530    -2.8370     1.3720 H     1 <1>   0.1500 
 34 H       -2.4680     0.3700     1.4220 H     1 <1>   0.1500 
 35 H        3.2960    -0.6250    -2.4150 H     1 <1>   0.1500 
 36 H        3.9510     0.0840     1.7380 H     1 <1>   0.1500 
 37 H       -1.0350    -4.0130    -0.2780 H     1 <1>   0.1500 
 38 H       -3.8370    -0.7970    -0.2040 H     1 <1>   0.1500 
 39 H        5.8050    -1.4510     1.7160 H     1 <1>   0.1500 
 40 H        6.4780    -2.6150    -4.2570 H     1 <1>   0.0800 
 41 H        6.7160    -3.5180    -2.7670 H     1 <1>   0.0800 
 42 H        7.1450    -1.8010    -2.8430 H     1 <1>   0.0800 
 43 H       -4.2780    -1.8110    -2.2790 H     1 <1>   0.0800 
 44 H       -5.1360    -2.6290    -0.9670 H     1 <1>   0.0800 
 45 H        8.0720    -3.9840     0.5050 H     1 <1>   0.0800 
 46 H        6.6350    -3.6530     1.4660 H     1 <1>   0.0800 
 47 H        7.8420    -2.3810     1.1940 H     1 <1>   0.0800 
 48 H       -4.2660    -3.9190    -3.5790 H     1 <1>   0.0800 
 49 H       -5.9060    -3.4670    -3.1850 H     1 <1>   0.0800 
 50 H       -5.1170    -4.7320    -2.2760 H     1 <1>   0.0800 
@<TRIPOS>BOND
  1   1   2  2   
  2   2   3  am  
  3   2   4  1   
  4   3   5  1   
  5   3  26  1   
  6   4   6  1   
  7   4  27  1   
  8   4  28  1   
  9   5   7  1   
 10   5   8  1   
 11   5  29  1   
 12   6   9  ar  
 13   6  10  ar  
 14   7  11  ar  
 15   7  12  ar  
 16   8  30  1   
 17   8  31  1   
 18   8  32  1   
 19   9  13  ar  
 20   9  33  1   
 21  10  14  ar  
 22  10  34  1   
 23  11  15  ar  
 24  11  35  1   
 25  12  16  ar  
 26  12  36  1   
 27  13  17  ar  
 28  13  37  1   
 29  14  17  ar  
 30  14  38  1   
 31  15  18  1   
 32  15  19  ar  
 33  16  19  ar  
 34  16  39  1   
 35  17  20  1   
 36  18  21  1   
 37  19  22  1   
 38  20  23  1   
 39  21  40  1   
 40  21  41  1   
 41  21  42  1   
 42  22  24  1   
 43  23  25  1   
 44  23  43  1   
 45  23  44  1   
 46  24  45  1   
 47  24  46  1   
 48  24  47  1   
 49  25  48  1   
 50  25  49  1   
 51  25  50  1   
@<TRIPOS>SUBSTRUCTURE
  1 ****   3 GROUP 4 **** **** 0

# MOE 2024.06 (io_trps.svl 2023.06)
