@<TRIPOS>MOLECULE
NONAME
23 23 1 0 0 
SMALL
USER_CHARGES


@<TRIPOS>ATOM
  1 F       -1.2720    -0.4560    -0.9410 F     1 <1>  -0.3400 
  2 C       -1.3310     0.6460    -0.2010 C.3   1 <1>   1.1580 
  3 F       -0.2830     1.3820    -0.5630 F     1 <1>  -0.3400 
  4 F       -1.0940     0.2710     1.0520 F     1 <1>  -0.3400 
  5 C       -2.6940     1.4090    -0.3580 C.2   1 <1>  -0.0380 
  6 N       -2.6560     2.6960    -0.8860 N.pl3 1 <1>  -0.9000 
  7 C       -3.9070     0.8660     0.0000 C.2   1 <1>  -0.1240 
  8 C       -5.1810     1.5260    -0.1160 C.2   1 <1>   0.4950 
  9 C       -4.0340    -0.5500     0.5890 C.3   1 <1>  -0.0220 
 10 O       -5.3520     2.6740    -0.4690 O.2   1 <1>  -0.5700 
 11 C       -6.4450     0.7510     0.2270 C.3   1 <1>  -0.0990 
 12 C       -5.0710    -1.3800    -0.1820 C.3   1 <1>  -0.1600 
 13 C       -6.4210    -0.6640    -0.3740 C.3   1 <1>  -0.1600 
 14 H       -3.5370     3.2380    -0.9830 H     1 <1>   0.4000 
 15 H       -1.8080     3.2000    -1.1770 H     1 <1>   0.4000 
 16 H       -3.1150    -1.1020     0.5910 H     1 <1>   0.0800 
 17 H       -4.3410    -0.4680     1.6180 H     1 <1>   0.0800 
 18 H       -6.5300     0.6980     1.2970 H     1 <1>   0.0800 
 19 H       -7.3040     1.2820    -0.1430 H     1 <1>   0.0800 
 20 H       -4.6650    -1.6170    -1.1510 H     1 <1>   0.0800 
 21 H       -5.2300    -2.3130     0.3330 H     1 <1>   0.0800 
 22 H       -7.2130    -1.2490     0.0610 H     1 <1>   0.0800 
 23 H       -6.6210    -0.5880    -1.4300 H     1 <1>   0.0800 
@<TRIPOS>BOND
  1   1   2  1   
  2   2   3  1   
  3   2   4  1   
  4   2   5  1   
  5   5   6  1   
  6   5   7  2   
  7   6  14  1   
  8   6  15  1   
  9   7   8  1   
 10   7   9  1   
 11   8  10  2   
 12   8  11  1   
 13   9  12  1   
 14   9  16  1   
 15   9  17  1   
 16  11  13  1   
 17  11  18  1   
 18  11  19  1   
 19  12  13  1   
 20  12  20  1   
 21  12  21  1   
 22  13  22  1   
 23  13  23  1   
@<TRIPOS>SUBSTRUCTURE
  1 ****   7 GROUP 4 **** **** 0

# MOE 2024.06 (io_trps.svl 2023.06)
