@<TRIPOS>MOLECULE
NONAME
39 39 1 0 0 
SMALL
USER_CHARGES


@<TRIPOS>ATOM
  1 BR      -0.8610     0.0030     0.4290 Br    1 <1>  -0.1110 
  2 C       -0.7100     1.9130     0.2090 C.ar  1 <1>   0.1110 
  3 C       -1.7940     2.6240    -0.2720 C.ar  1 <1>  -0.1440 
  4 C        0.4830     2.5140     0.5570 C.ar  1 <1>  -0.1500 
  5 C       -1.6570     3.9960    -0.4050 C.ar  1 <1>  -0.1500 
  6 C       -3.0880     1.9370    -0.6340 C.3   1 <1>   0.4870 
  7 C        0.6150     3.8950     0.4280 C.ar  1 <1>   0.0820 
  8 C       -0.4750     4.6390    -0.0660 C.ar  1 <1>   0.0820 
  9 N       -3.8300     1.7240     0.6300 N.4   1 <1>  -0.9060 
 10 O        1.7710     4.5220     0.7880 O.3   1 <1>  -0.3620 
 11 O       -0.5190     5.9890    -0.2590 O.3   1 <1>  -0.3620 
 12 C       -5.1470     1.0690     0.5380 C.3   1 <1>   0.5030 
 13 C        2.9000     3.8260     1.2740 C.3   1 <1>   0.0400 
 14 C        0.6390     6.7920    -0.3420 C.3   1 <1>   0.0400 
 15 C       -6.1340     1.8980    -0.3380 C.3   1 <1>   0.1200 
 16 C       -5.6490     0.9720     1.9790 C.3   1 <1>  -0.2400 
 17 C       -4.9410    -0.3430    -0.0230 C.3   1 <1>  -0.2400 
 18 O       -7.3850     1.2930    -0.3910 O.3   1 <1>  -0.6800 
 19 H        1.2790     1.8940     0.9220 H     1 <1>   0.1500 
 20 H       -2.4630     4.6030    -0.7800 H     1 <1>   0.1500 
 21 H       -2.8820     0.9960    -1.1180 H     1 <1>   0.0800 
 22 H       -3.6540     2.5590    -1.3080 H     1 <1>   0.0800 
 23 H       -3.9270     2.6230     1.1110 H     1 <1>   0.4500 
 24 H       -3.2390     1.1460     1.2370 H     1 <1>   0.4500 
 25 H        3.6740     4.5450     1.4730 H     1 <1>   0.0800 
 26 H        3.2340     3.1310     0.5240 H     1 <1>   0.0800 
 27 H        2.6340     3.3180     2.1840 H     1 <1>   0.0800 
 28 H        0.3510     7.7600    -0.7090 H     1 <1>   0.0800 
 29 H        1.3370     6.3350    -1.0210 H     1 <1>   0.0800 
 30 H        1.0680     6.8900     0.6400 H     1 <1>   0.0800 
 31 H       -5.7780     1.9760    -1.3500 H     1 <1>   0.0800 
 32 H       -6.2700     2.8820     0.0770 H     1 <1>   0.0800 
 33 H       -5.8020     1.9490     2.4030 H     1 <1>   0.0800 
 34 H       -4.9670     0.4160     2.5980 H     1 <1>   0.0800 
 35 H       -6.5960     0.4600     2.0020 H     1 <1>   0.0800 
 36 H       -5.8680    -0.8890     0.0300 H     1 <1>   0.0800 
 37 H       -4.6510    -0.3210    -1.0580 H     1 <1>   0.0800 
 38 H       -4.2100    -0.8900     0.5450 H     1 <1>   0.0800 
 39 H       -8.0270     1.8160    -0.9180 H     1 <1>   0.4000 
@<TRIPOS>BOND
  1   1   2  1   
  2   2   3  ar  
  3   2   4  ar  
  4   3   5  ar  
  5   3   6  1   
  6   4   7  ar  
  7   4  19  1   
  8   5   8  ar  
  9   5  20  1   
 10   6   9  1   
 11   6  21  1   
 12   6  22  1   
 13   7   8  ar  
 14   7  10  1   
 15   8  11  1   
 16   9  12  1   
 17   9  23  1   
 18   9  24  1   
 19  10  13  1   
 20  11  14  1   
 21  12  15  1   
 22  12  16  1   
 23  12  17  1   
 24  13  25  1   
 25  13  26  1   
 26  13  27  1   
 27  14  28  1   
 28  14  29  1   
 29  14  30  1   
 30  15  18  1   
 31  15  31  1   
 32  15  32  1   
 33  16  33  1   
 34  16  34  1   
 35  16  35  1   
 36  17  36  1   
 37  17  37  1   
 38  17  38  1   
 39  18  39  1   
@<TRIPOS>SUBSTRUCTURE
  1 ****   3 GROUP 4 **** **** 0

# MOE 2024.06 (io_trps.svl 2023.06)
