@<TRIPOS>MOLECULE
NONAME
53 54 1 0 0 
SMALL
USER_CHARGES


@<TRIPOS>ATOM
  1 S        1.2920     2.5920     2.7440 S.o2  1 <1>   1.3330 
  2 O        0.5790     3.2550     3.8070 O.2   1 <1>  -0.6500 
  3 O        2.7300     2.6960     2.6530 O.2   1 <1>  -0.6500 
  4 N        0.6740     3.1690     1.2340 N.am  1 <1>  -0.6930 
  5 C        0.8580     0.8670     2.6970 C.3   1 <1>  -0.1350 
  6 C       -0.6550     3.0090     0.8360 C.ar  1 <1>   0.1990 
  7 C        1.5950     3.9850     0.3820 C.3   1 <1>   0.2570 
  8 C       -1.7140     3.3590     1.6670 C.ar  1 <1>  -0.1500 
  9 C       -0.9480     2.4850    -0.4200 C.ar  1 <1>  -0.1500 
 10 C        2.4580     3.1490    -0.5640 C.2   1 <1>   0.5690 
 11 C       -3.0230     3.1760     1.2620 C.ar  1 <1>  -0.1500 
 12 C       -2.2560     2.3030    -0.8330 C.ar  1 <1>  -0.1500 
 13 O        2.2430     3.2260    -1.7510 O.2   1 <1>  -0.5700 
 14 N        3.4330     2.3480    -0.0360 N.am  1 <1>  -0.5470 
 15 C       -3.3050     2.6470     0.0130 C.ar  1 <1>   0.0830 
 16 C        4.3180     1.4820    -0.6940 C.ar  1 <1>   0.1170 
 17 O       -4.6190     2.5000    -0.3060 O.3   1 <1>  -0.3630 
 18 C        5.7020     1.7150    -0.6590 C.ar  1 <1>  -0.1430 
 19 C        3.8240     0.3560    -1.3660 C.ar  1 <1>  -0.1430 
 20 C       -5.0060     2.0330    -1.5790 C.3   1 <1>   0.0400 
 21 C        6.5490     0.8220    -1.3000 C.ar  1 <1>  -0.1500 
 22 C        6.3690     2.9160     0.0340 C.3   1 <1>   0.0630 
 23 C        4.6960    -0.5120    -1.9970 C.ar  1 <1>  -0.1500 
 24 C        2.3350     0.0350    -1.4350 C.3   1 <1>  -0.0970 
 25 C        6.0560    -0.2830    -1.9650 C.ar  1 <1>  -0.1500 
 26 C        6.1400     2.9390     1.5500 C.3   1 <1>  -0.2400 
 27 C        5.9860     4.2510    -0.6150 C.3   1 <1>  -0.2400 
 28 H        1.3030     0.3950     1.8440 H     1 <1>   0.0800 
 29 H       -0.2070     0.7530     2.6400 H     1 <1>   0.0800 
 30 H        1.2080     0.3760     3.5830 H     1 <1>   0.0800 
 31 H        2.2370     4.5800     1.0080 H     1 <1>   0.0800 
 32 H        1.0100     4.6650    -0.2120 H     1 <1>   0.0800 
 33 H       -1.5210     3.7850     2.6350 H     1 <1>   0.1500 
 34 H       -0.1470     2.2140    -1.0840 H     1 <1>   0.1500 
 35 H       -3.8370     3.4470     1.9110 H     1 <1>   0.1500 
 36 H       -2.4350     1.8950    -1.8090 H     1 <1>   0.1500 
 37 H        3.5790     2.4310     0.9790 H     1 <1>   0.3700 
 38 H       -6.0800     2.0210    -1.6180 H     1 <1>   0.0800 
 39 H       -4.6250     1.0360    -1.7170 H     1 <1>   0.0800 
 40 H       -4.6210     2.7010    -2.3290 H     1 <1>   0.0800 
 41 H        7.6140     0.9770    -1.2930 H     1 <1>   0.1500 
 42 H        7.4320     2.8180    -0.0990 H     1 <1>   0.0800 
 43 H        4.3230    -1.3730    -2.5220 H     1 <1>   0.1500 
 44 H        2.1760    -0.9980    -1.6820 H     1 <1>   0.0800 
 45 H        1.8580     0.2280    -0.4930 H     1 <1>   0.0800 
 46 H        1.8720     0.6410    -2.1930 H     1 <1>   0.0800 
 47 H        6.7300    -0.9610    -2.4590 H     1 <1>   0.1500 
 48 H        5.1380     3.2320     1.7940 H     1 <1>   0.0800 
 49 H        6.8110     3.6420     2.0100 H     1 <1>   0.0800 
 50 H        6.3290     1.9660     1.9660 H     1 <1>   0.0800 
 51 H        4.9560     4.4920    -0.4390 H     1 <1>   0.0800 
 52 H        6.1450     4.1970    -1.6780 H     1 <1>   0.0800 
 53 H        6.5930     5.0440    -0.2180 H     1 <1>   0.0800 
@<TRIPOS>BOND
  1   1   2  2   
  2   1   3  2   
  3   1   4  am  
  4   1   5  1   
  5   4   6  1   
  6   4   7  1   
  7   5  28  1   
  8   5  29  1   
  9   5  30  1   
 10   6   8  ar  
 11   6   9  ar  
 12   7  10  1   
 13   7  31  1   
 14   7  32  1   
 15   8  11  ar  
 16   8  33  1   
 17   9  12  ar  
 18   9  34  1   
 19  10  13  2   
 20  10  14  am  
 21  11  15  ar  
 22  11  35  1   
 23  12  15  ar  
 24  12  36  1   
 25  14  16  1   
 26  14  37  1   
 27  15  17  1   
 28  16  18  ar  
 29  16  19  ar  
 30  17  20  1   
 31  18  21  ar  
 32  18  22  1   
 33  19  23  ar  
 34  19  24  1   
 35  20  38  1   
 36  20  39  1   
 37  20  40  1   
 38  21  25  ar  
 39  21  41  1   
 40  22  26  1   
 41  22  27  1   
 42  22  42  1   
 43  23  25  ar  
 44  23  43  1   
 45  24  44  1   
 46  24  45  1   
 47  24  46  1   
 48  25  47  1   
 49  26  48  1   
 50  26  49  1   
 51  26  50  1   
 52  27  51  1   
 53  27  52  1   
 54  27  53  1   
@<TRIPOS>SUBSTRUCTURE
  1 ****  10 GROUP 4 **** **** 0

# MOE 2024.06 (io_trps.svl 2023.06)
