@<TRIPOS>MOLECULE
NONAME
40 41 1 0 0 
SMALL
USER_CHARGES


@<TRIPOS>ATOM
  1 O        0.5310    -1.2970    -0.4350 O.3   1 <1>  -0.3630 
  2 C       -0.8060    -1.3250    -0.1870 C.ar  1 <1>   0.0820 
  3 C        1.3800    -0.3650     0.1990 C.3   1 <1>   0.1200 
  4 C       -1.5640    -2.2810    -0.8570 C.ar  1 <1>  -0.1440 
  5 C       -1.4310    -0.4480     0.6970 C.ar  1 <1>  -0.1500 
  6 C        2.8030    -0.6010    -0.2920 C.3   1 <1>   0.1200 
  7 C       -2.9300    -2.3470    -0.6370 C.ar  1 <1>  -0.1500 
  8 C       -0.9080    -3.2520    -1.8280 C.3   1 <1>  -0.0960 
  9 C       -2.7960    -0.5190     0.9150 C.ar  1 <1>  -0.1430 
 10 O        3.6540     0.3300     0.3420 O.3   1 <1>  -0.3630 
 11 C       -3.5430    -1.4720     0.2430 C.ar  1 <1>  -0.1500 
 12 C       -3.4760     0.4380     1.8780 C.3   1 <1>  -0.0970 
 13 C        4.9880     0.3440     0.0850 C.ar  1 <1>   0.0820 
 14 C        5.6170    -0.5290    -0.7980 C.ar  1 <1>  -0.1500 
 15 C        5.7410     1.2940     0.7570 C.ar  1 <1>  -0.1500 
 16 C        6.9840    -0.4410    -0.9970 C.ar  1 <1>  -0.1500 
 17 C        7.1070     1.3820     0.5580 C.ar  1 <1>  -0.1500 
 18 C        7.7370     0.5090    -0.3250 C.ar  1 <1>   0.0820 
 19 O        9.0720     0.5230    -0.5820 O.3   1 <1>  -0.3620 
 20 C        9.9240     1.4510     0.0510 C.3   1 <1>   0.0400 
 21 H        1.3210    -0.5220     1.2620 H     1 <1>   0.0800 
 22 H        1.0530     0.6250    -0.0640 H     1 <1>   0.0800 
 23 H       -0.8690     0.2980     1.2240 H     1 <1>   0.1500 
 24 H        2.8610    -0.4450    -1.3550 H     1 <1>   0.0800 
 25 H        3.1280    -1.5920    -0.0300 H     1 <1>   0.0800 
 26 H       -3.5280    -3.0800    -1.1490 H     1 <1>   0.1500 
 27 H       -0.1650    -3.8340    -1.3130 H     1 <1>   0.0800 
 28 H       -0.4320    -2.7050    -2.6220 H     1 <1>   0.0800 
 29 H       -1.6320    -3.9210    -2.2580 H     1 <1>   0.0800 
 30 H       -4.6050    -1.5370     0.4010 H     1 <1>   0.1500 
 31 H       -2.7790     0.7910     2.6170 H     1 <1>   0.0800 
 32 H       -4.2860    -0.0540     2.3840 H     1 <1>   0.0800 
 33 H       -3.8650     1.2810     1.3360 H     1 <1>   0.0800 
 34 H        5.0680    -1.2780    -1.3370 H     1 <1>   0.1500 
 35 H        5.2470     1.9640     1.4370 H     1 <1>   0.1500 
 36 H        7.4800    -1.1100    -1.6770 H     1 <1>   0.1500 
 37 H        7.6590     2.1290     1.0950 H     1 <1>   0.1500 
 38 H       10.9250     1.2790    -0.3010 H     1 <1>   0.0800 
 39 H        9.8790     1.2980     1.1150 H     1 <1>   0.0800 
 40 H        9.6120     2.4470    -0.2110 H     1 <1>   0.0800 
@<TRIPOS>BOND
  1   1   2  1   
  2   1   3  1   
  3   2   4  ar  
  4   2   5  ar  
  5   3   6  1   
  6   3  21  1   
  7   3  22  1   
  8   4   7  ar  
  9   4   8  1   
 10   5   9  ar  
 11   5  23  1   
 12   6  10  1   
 13   6  24  1   
 14   6  25  1   
 15   7  11  ar  
 16   7  26  1   
 17   8  27  1   
 18   8  28  1   
 19   8  29  1   
 20   9  11  ar  
 21   9  12  1   
 22  10  13  1   
 23  11  30  1   
 24  12  31  1   
 25  12  32  1   
 26  12  33  1   
 27  13  14  ar  
 28  13  15  ar  
 29  14  16  ar  
 30  14  34  1   
 31  15  17  ar  
 32  15  35  1   
 33  16  18  ar  
 34  16  36  1   
 35  17  18  ar  
 36  17  37  1   
 37  18  19  1   
 38  19  20  1   
 39  20  38  1   
 40  20  39  1   
 41  20  40  1   
@<TRIPOS>SUBSTRUCTURE
  1 ****   6 GROUP 4 **** **** 0

# MOE 2024.06 (io_trps.svl 2023.06)
