@<TRIPOS>MOLECULE
NONAME
41 42 1 0 0 
SMALL
USER_CHARGES


@<TRIPOS>ATOM
  1 F       -1.6970     0.6120     0.0790 F     1 <1>  -0.3400 
  2 C       -2.1700     0.9880    -1.1030 C.3   1 <1>   1.3000 
  3 F       -1.2950     1.8220    -1.6440 F     1 <1>  -0.3400 
  4 F       -2.2450    -0.0850    -1.8820 F     1 <1>  -0.3400 
  5 O       -3.4290     1.6190    -0.9760 O.3   1 <1>  -0.3630 
  6 C       -4.4310     0.9030    -0.4270 C.ar  1 <1>   0.0830 
  7 C       -5.2510     0.1310    -1.2340 C.ar  1 <1>  -0.1500 
  8 C       -4.6480     0.9550     0.9400 C.ar  1 <1>  -0.1500 
  9 C       -6.2850    -0.5960    -0.6710 C.ar  1 <1>  -0.1500 
 10 C       -5.6820     0.2280     1.5020 C.ar  1 <1>  -0.1500 
 11 C       -6.5090    -0.5480     0.7000 C.ar  1 <1>  -0.1430 
 12 C       -7.6560    -1.3270     1.3170 C.3   1 <1>   0.4870 
 13 N       -8.9370    -0.6830     0.9290 N.4   1 <1>  -0.9590 
 14 C       -9.0400     0.7650     1.3120 C.3   1 <1>   0.3430 
 15 C      -10.1620    -1.4370     1.3480 C.3   1 <1>   0.3430 
 16 C      -10.3240     1.4000     0.7240 C.3   1 <1>   0.1100 
 17 C      -11.4470    -0.7600     0.8050 C.3   1 <1>   0.1100 
 18 N      -11.1470     0.4260    -0.0360 N.3   1 <1>  -0.8100 
 19 C      -12.3640     1.0750    -0.5720 C.3   1 <1>   0.1100 
 20 C      -12.9820     0.2630    -1.7170 C.3   1 <1>   0.1200 
 21 O      -14.0650     0.9560    -2.2350 O.3   1 <1>  -0.6800 
 22 H       -5.0790     0.1010    -2.2970 H     1 <1>   0.1500 
 23 H       -4.0080     1.5610     1.5590 H     1 <1>   0.1500 
 24 H       -6.9060    -1.1960    -1.3150 H     1 <1>   0.1500 
 25 H       -5.8290     0.2760     2.5680 H     1 <1>   0.1500 
 26 H       -7.5560    -1.3390     2.3900 H     1 <1>   0.0800 
 27 H       -7.6290    -2.3440     0.9590 H     1 <1>   0.0800 
 28 H       -8.9930    -0.6500    -0.1000 H     1 <1>   0.4500 
 29 H       -8.1860     1.3080     0.9390 H     1 <1>   0.0800 
 30 H       -9.0510     0.8660     2.3840 H     1 <1>   0.0800 
 31 H      -10.2170    -1.4880     2.4220 H     1 <1>   0.0800 
 32 H      -10.1180    -2.4460     0.9720 H     1 <1>   0.0800 
 33 H      -10.0370     2.2080     0.0710 H     1 <1>   0.0800 
 34 H      -10.9050     1.8270     1.5250 H     1 <1>   0.0800 
 35 H      -12.0700    -0.4710     1.6350 H     1 <1>   0.0800 
 36 H      -11.9950    -1.4860     0.2290 H     1 <1>   0.0800 
 37 H      -12.1010     2.0410    -0.9710 H     1 <1>   0.0800 
 38 H      -13.0850     1.2150     0.2150 H     1 <1>   0.0800 
 39 H      -13.3290    -0.6990    -1.3870 H     1 <1>   0.0800 
 40 H      -12.2660     0.1400    -2.5120 H     1 <1>   0.0800 
 41 H      -14.8160     0.9680    -1.6100 H     1 <1>   0.4000 
@<TRIPOS>BOND
  1   1   2  1   
  2   2   3  1   
  3   2   4  1   
  4   2   5  1   
  5   5   6  1   
  6   6   7  ar  
  7   6   8  ar  
  8   7   9  ar  
  9   7  22  1   
 10   8  10  ar  
 11   8  23  1   
 12   9  11  ar  
 13   9  24  1   
 14  10  11  ar  
 15  10  25  1   
 16  11  12  1   
 17  12  13  1   
 18  12  26  1   
 19  12  27  1   
 20  13  14  1   
 21  13  15  1   
 22  13  28  1   
 23  14  16  1   
 24  14  29  1   
 25  14  30  1   
 26  15  17  1   
 27  15  31  1   
 28  15  32  1   
 29  16  18  1   
 30  16  33  1   
 31  16  34  1   
 32  17  18  1   
 33  17  35  1   
 34  17  36  1   
 35  18  19  1   
 36  19  20  1   
 37  19  37  1   
 38  19  38  1   
 39  20  21  1   
 40  20  39  1   
 41  20  40  1   
 42  21  41  1   
@<TRIPOS>SUBSTRUCTURE
  1 ****  11 GROUP 4 **** **** 0

# MOE 2024.06 (io_trps.svl 2023.06)
