@<TRIPOS>MOLECULE
NONAME
52 54 1 0 0 
SMALL
USER_CHARGES


@<TRIPOS>ATOM
  1 O       -5.9850     3.4350    -0.3420 O.3   1 <1>  -0.3630 
  2 C       -7.2870     3.1390    -0.0930 C.ar  1 <1>   0.0830 
  3 C       -5.2800     4.3500     0.4690 C.3   1 <1>   0.1200 
  4 C       -7.9110     2.2780    -0.9820 C.ar  1 <1>  -0.1500 
  5 C       -8.0060     3.6480     0.9850 C.ar  1 <1>  -0.1500 
  6 C       -3.8550     4.4880    -0.0830 C.3   1 <1>   0.2000 
  7 C       -9.2370     1.9220    -0.8080 C.ar  1 <1>  -0.1500 
  8 C       -9.3320     3.2920     1.1590 C.ar  1 <1>  -0.1500 
  9 O       -3.3030     3.2140    -0.2380 O.3   1 <1>  -0.6800 
 10 C       -2.9380     5.3230     0.8360 C.3   1 <1>   0.3430 
 11 C       -9.9560     2.4310     0.2700 C.ar  1 <1>   0.0830 
 12 N       -1.5040     4.9680     0.6040 N.4   1 <1>  -0.9590 
 13 O      -11.2590     2.1370     0.5200 O.3   1 <1>  -0.3620 
 14 C       -0.6260     5.2330     1.8010 C.3   1 <1>   0.3430 
 15 C       -0.9410     5.5880    -0.6510 C.3   1 <1>   0.3430 
 16 C      -11.9820     1.2680    -0.3230 C.3   1 <1>   0.0400 
 17 C        0.8450     4.8350     1.5560 C.3   1 <1>   0.2090 
 18 C        0.5280     5.1860    -0.9010 C.3   1 <1>   0.2090 
 19 N        1.3620     5.4600     0.3050 N.pl3 1 <1>  -0.8380 
 20 C        2.7380     5.4050     0.1220 C.ar  1 <1>   0.1000 
 21 C        3.3870     4.2100    -0.1710 C.ar  1 <1>  -0.1500 
 22 C        3.4920     6.5650     0.2340 C.ar  1 <1>  -0.1500 
 23 C        4.7580     4.1780    -0.3480 C.ar  1 <1>  -0.1500 
 24 C        4.8640     6.5370     0.0580 C.ar  1 <1>  -0.1500 
 25 C        5.4990     5.3420    -0.2340 C.ar  1 <1>  -0.1500 
 26 H       -5.2650     3.9690     1.4760 H     1 <1>   0.0800 
 27 H       -5.7940     5.2960     0.4400 H     1 <1>   0.0800 
 28 H       -7.3560     1.8850    -1.8150 H     1 <1>   0.1500 
 29 H       -7.5650     4.3160     1.6990 H     1 <1>   0.1500 
 30 H       -3.9040     4.9430    -1.0570 H     1 <1>   0.0800 
 31 H       -9.6900     1.2530    -1.5150 H     1 <1>   0.1500 
 32 H       -9.8970     3.6790     1.9880 H     1 <1>   0.1500 
 33 H       -4.0000     2.6180    -0.6050 H     1 <1>   0.4000 
 34 H       -3.1970     5.0970     1.8570 H     1 <1>   0.0800 
 35 H       -3.1040     6.3760     0.6780 H     1 <1>   0.0800 
 36 H       -1.5360     3.9440     0.4330 H     1 <1>   0.4500 
 37 H       -0.9960     4.6930     2.6560 H     1 <1>   0.0800 
 38 H       -0.6480     6.2840     2.0370 H     1 <1>   0.0800 
 39 H       -0.9820     6.6620    -0.5730 H     1 <1>   0.0800 
 40 H       -1.5310     5.2920    -1.5030 H     1 <1>   0.0800 
 41 H      -12.9810     1.1820     0.0660 H     1 <1>   0.0800 
 42 H      -11.5050     0.3040    -0.3230 H     1 <1>   0.0800 
 43 H      -12.0110     1.6860    -1.3140 H     1 <1>   0.0800 
 44 H        0.9280     3.7640     1.4870 H     1 <1>   0.0800 
 45 H        1.4480     5.1600     2.3880 H     1 <1>   0.0800 
 46 H        0.9170     5.7480    -1.7330 H     1 <1>   0.0800 
 47 H        0.5830     4.1410    -1.1520 H     1 <1>   0.0800 
 48 H        2.8200     3.3040    -0.2600 H     1 <1>   0.1500 
 49 H        2.9960     7.4900     0.4600 H     1 <1>   0.1500 
 50 H        5.2520     3.2490    -0.5750 H     1 <1>   0.1500 
 51 H        5.4380     7.4430     0.1470 H     1 <1>   0.1500 
 52 H        6.5660     5.3190    -0.3720 H     1 <1>   0.1500 
@<TRIPOS>BOND
  1   1   2  1   
  2   1   3  1   
  3   2   4  ar  
  4   2   5  ar  
  5   3   6  1   
  6   3  26  1   
  7   3  27  1   
  8   4   7  ar  
  9   4  28  1   
 10   5   8  ar  
 11   5  29  1   
 12   6   9  1   
 13   6  10  1   
 14   6  30  1   
 15   7  11  ar  
 16   7  31  1   
 17   8  11  ar  
 18   8  32  1   
 19   9  33  1   
 20  10  12  1   
 21  10  34  1   
 22  10  35  1   
 23  11  13  1   
 24  12  14  1   
 25  12  15  1   
 26  12  36  1   
 27  13  16  1   
 28  14  17  1   
 29  14  37  1   
 30  14  38  1   
 31  15  18  1   
 32  15  39  1   
 33  15  40  1   
 34  16  41  1   
 35  16  42  1   
 36  16  43  1   
 37  17  19  1   
 38  17  44  1   
 39  17  45  1   
 40  18  19  1   
 41  18  46  1   
 42  18  47  1   
 43  19  20  1   
 44  20  21  ar  
 45  20  22  ar  
 46  21  23  ar  
 47  21  48  1   
 48  22  24  ar  
 49  22  49  1   
 50  23  25  ar  
 51  23  50  1   
 52  24  25  ar  
 53  24  51  1   
 54  25  52  1   
@<TRIPOS>SUBSTRUCTURE
  1 ****   6 GROUP 4 **** **** 0

# MOE 2024.06 (io_trps.svl 2023.06)
