@<TRIPOS>MOLECULE
NONAME
58 60 1 0 0 
SMALL
USER_CHARGES


@<TRIPOS>ATOM
  1 O        0.5180    -1.6900    -0.3180 O.2   1 <1>  -0.5700 
  2 C        1.3660    -2.1340     0.4270 C.2   1 <1>   0.5690 
  3 N        2.6640    -2.2810    -0.0110 N.am  1 <1>  -0.6600 
  4 C        0.9620    -2.5080     1.8790 C.3   1 <1>   0.2610 
  5 C        3.0600    -1.9590    -1.4150 C.3   1 <1>   0.1400 
  6 C        3.7840    -2.8530     0.7990 C.3   1 <1>   0.1400 
  7 O        1.2130    -3.8630     2.1480 O.3   1 <1>  -0.5600 
  8 C       -0.5230    -2.3670     2.2140 C.3   1 <1>  -0.1600 
  9 C        4.3360    -1.1010    -1.4460 C.3   1 <1>   0.1100 
 10 C        5.0420    -1.9730     0.6980 C.3   1 <1>   0.1100 
 11 C        0.1250    -4.6330     1.7420 C.3   1 <1>   0.1200 
 12 C       -1.0980    -3.7250     1.8410 C.3   1 <1>  -0.1600 
 13 N        5.4440    -1.7450    -0.7110 N.3   1 <1>  -0.8100 
 14 C        6.6880    -0.9190    -0.7870 C.3   1 <1>   0.1710 
 15 C        7.9710    -1.6950    -0.4780 C.2   1 <1>   0.5690 
 16 O        8.9890    -1.0870    -0.2510 O.2   1 <1>  -0.5700 
 17 N        7.8810    -3.0540    -0.4990 N.am  1 <1>  -0.5470 
 18 C        8.8870    -4.0290    -0.4630 C.ar  1 <1>   0.1170 
 19 C        9.1790    -4.7450    -1.6280 C.ar  1 <1>  -0.1440 
 20 C        9.5780    -4.3240     0.7180 C.ar  1 <1>  -0.1440 
 21 C       10.1500    -5.7320    -1.6060 C.ar  1 <1>  -0.1500 
 22 C        8.4580    -4.4690    -2.9460 C.3   1 <1>  -0.0170 
 23 C       10.5480    -5.3140     0.7140 C.ar  1 <1>  -0.1500 
 24 C        9.2950    -3.6100     2.0370 C.3   1 <1>  -0.0170 
 25 C       10.8350    -6.0160    -0.4410 C.ar  1 <1>  -0.1500 
 26 C        7.1160    -5.2060    -3.0070 C.3   1 <1>  -0.2400 
 27 C        8.1350    -4.2810     2.7760 C.3   1 <1>  -0.2400 
 28 H        1.5510    -1.9190     2.5570 H     1 <1>   0.0800 
 29 H        2.2700    -1.4310    -1.9200 H     1 <1>   0.0800 
 30 H        3.2370    -2.8760    -1.9490 H     1 <1>   0.0800 
 31 H        4.0110    -3.8390     0.4340 H     1 <1>   0.0800 
 32 H        3.5100    -2.9420     1.8340 H     1 <1>   0.0800 
 33 H       -0.9980    -1.5540     1.6930 H     1 <1>   0.0800 
 34 H       -0.6240    -2.2040     3.2720 H     1 <1>   0.0800 
 35 H        4.1190    -0.1360    -1.0190 H     1 <1>   0.0800 
 36 H        4.6240    -0.9550    -2.4730 H     1 <1>   0.0800 
 37 H        5.8420    -2.4550     1.2320 H     1 <1>   0.0800 
 38 H        4.8460    -1.0300     1.1800 H     1 <1>   0.0800 
 39 H        0.0510    -5.4920     2.3860 H     1 <1>   0.0800 
 40 H        0.2960    -4.9450     0.7250 H     1 <1>   0.0800 
 41 H       -1.5940    -3.6830     0.8860 H     1 <1>   0.0800 
 42 H       -1.7920    -4.0810     2.5820 H     1 <1>   0.0800 
 43 H        6.6180    -0.0790    -0.1190 H     1 <1>   0.0800 
 44 H        6.7980    -0.5340    -1.7850 H     1 <1>   0.0800 
 45 H        6.9480    -3.3740    -0.7700 H     1 <1>   0.3700 
 46 H       10.3800    -6.2870    -2.4980 H     1 <1>   0.1500 
 47 H        9.0730    -4.7910    -3.7680 H     1 <1>   0.0800 
 48 H        8.3020    -3.4110    -3.0690 H     1 <1>   0.0800 
 49 H       11.0850    -5.5480     1.6160 H     1 <1>   0.1500 
 50 H        9.0700    -2.5740     1.8670 H     1 <1>   0.0800 
 51 H       10.1730    -3.6360     2.6570 H     1 <1>   0.0800 
 52 H       11.5900    -6.7830    -0.4320 H     1 <1>   0.1500 
 53 H        7.2730    -6.2650    -2.8970 H     1 <1>   0.0800 
 54 H        6.6370    -5.0230    -3.9510 H     1 <1>   0.0800 
 55 H        6.4650    -4.8730    -2.2190 H     1 <1>   0.0800 
 56 H        7.2480    -4.2600     2.1700 H     1 <1>   0.0800 
 57 H        7.9380    -3.7670     3.7000 H     1 <1>   0.0800 
 58 H        8.3800    -5.3050     2.9920 H     1 <1>   0.0800 
@<TRIPOS>BOND
  1   1   2  2   
  2   2   3  am  
  3   2   4  1   
  4   3   5  1   
  5   3   6  1   
  6   4   7  1   
  7   4   8  1   
  8   4  28  1   
  9   5   9  1   
 10   5  29  1   
 11   5  30  1   
 12   6  10  1   
 13   6  31  1   
 14   6  32  1   
 15   7  11  1   
 16   8  12  1   
 17   8  33  1   
 18   8  34  1   
 19   9  13  1   
 20   9  35  1   
 21   9  36  1   
 22  10  13  1   
 23  10  37  1   
 24  10  38  1   
 25  11  12  1   
 26  11  39  1   
 27  11  40  1   
 28  12  41  1   
 29  12  42  1   
 30  13  14  1   
 31  14  15  1   
 32  14  43  1   
 33  14  44  1   
 34  15  16  2   
 35  15  17  am  
 36  17  18  1   
 37  17  45  1   
 38  18  19  ar  
 39  18  20  ar  
 40  19  21  ar  
 41  19  22  1   
 42  20  23  ar  
 43  20  24  1   
 44  21  25  ar  
 45  21  46  1   
 46  22  26  1   
 47  22  47  1   
 48  22  48  1   
 49  23  25  ar  
 50  23  49  1   
 51  24  27  1   
 52  24  50  1   
 53  24  51  1   
 54  25  52  1   
 55  26  53  1   
 56  26  54  1   
 57  26  55  1   
 58  27  56  1   
 59  27  57  1   
 60  27  58  1   
@<TRIPOS>SUBSTRUCTURE
  1 ****  10 GROUP 4 **** **** 0

# MOE 2024.06 (io_trps.svl 2023.06)
