@<TRIPOS>MOLECULE
NONAME
45 46 1 0 0 
SMALL
USER_CHARGES


@<TRIPOS>ATOM
  1 CL       0.9930     0.1250     1.6550 Cl    1 <1>  -0.1770 
  2 C       -0.4350     0.7810     0.8780 C.ar  1 <1>   0.1770 
  3 C       -0.4780     2.1140     0.4740 C.ar  1 <1>   0.0830 
  4 C       -1.5160    -0.0570     0.6830 C.ar  1 <1>  -0.1500 
  5 O        0.5830     2.9350     0.6650 O.3   1 <1>  -0.3630 
  6 C       -1.6330     2.6140    -0.1180 C.ar  1 <1>  -0.1440 
  7 C       -2.6600     0.4400     0.0830 C.ar  1 <1>  -0.1500 
  8 C        1.6960     2.7500    -0.1820 C.3   1 <1>   0.1200 
  9 C       -2.7160     1.7680    -0.3120 C.ar  1 <1>  -0.1500 
 10 C       -1.7180     4.0710    -0.5510 C.3   1 <1>  -0.0960 
 11 C        2.9570     3.0030     0.6370 C.3   1 <1>   0.1200 
 12 O        4.0720     2.7770    -0.1740 O.3   1 <1>  -0.5600 
 13 C        5.2850     2.8530     0.4940 C.3   1 <1>   0.1200 
 14 C        6.3830     2.5170    -0.5220 C.3   1 <1>   0.3430 
 15 N        7.7510     2.4670     0.0900 N.4   1 <1>  -0.9590 
 16 C        8.2150     3.8110     0.5520 C.3   1 <1>   0.3430 
 17 C        8.7160     1.8630    -0.8750 C.3   1 <1>   0.3430 
 18 C        9.5650     3.6760     1.2580 C.3   1 <1>  -0.1600 
 19 C       10.0770     1.6840    -0.2000 C.3   1 <1>  -0.1600 
 20 C       10.6130     3.0090     0.3580 C.3   1 <1>  -0.1600 
 21 H       -1.4610    -1.0830     1.0000 H     1 <1>   0.1500 
 22 H       -3.5080    -0.2040    -0.0750 H     1 <1>   0.1500 
 23 H        1.6140     3.4500    -0.9940 H     1 <1>   0.0800 
 24 H        1.6940     1.7430    -0.5610 H     1 <1>   0.0800 
 25 H       -3.6150     2.1390    -0.7730 H     1 <1>   0.1500 
 26 H       -1.0080     4.2600    -1.3360 H     1 <1>   0.0800 
 27 H       -1.4910     4.7120     0.2820 H     1 <1>   0.0800 
 28 H       -2.7010     4.3130    -0.9110 H     1 <1>   0.0800 
 29 H        2.9870     2.3230     1.4710 H     1 <1>   0.0800 
 30 H        2.9780     4.0230     0.9820 H     1 <1>   0.0800 
 31 H        5.2760     2.1340     1.2960 H     1 <1>   0.0800 
 32 H        5.3960     3.8520     0.8770 H     1 <1>   0.0800 
 33 H        6.3640     3.2500    -1.3110 H     1 <1>   0.0800 
 34 H        6.1500     1.5560    -0.9500 H     1 <1>   0.0800 
 35 H        7.7240     1.8460     0.9100 H     1 <1>   0.4500 
 36 H        7.5000     4.2420     1.2340 H     1 <1>   0.0800 
 37 H        8.3170     4.4720    -0.2950 H     1 <1>   0.0800 
 38 H        8.8230     2.5050    -1.7340 H     1 <1>   0.0800 
 39 H        8.3540     0.9040    -1.2100 H     1 <1>   0.0800 
 40 H        9.4410     3.1060     2.1630 H     1 <1>   0.0800 
 41 H        9.9140     4.6550     1.5410 H     1 <1>   0.0800 
 42 H       10.7770     1.2930    -0.9180 H     1 <1>   0.0800 
 43 H        9.9930     0.9590     0.5910 H     1 <1>   0.0800 
 44 H       11.5180     2.8320     0.9170 H     1 <1>   0.0800 
 45 H       10.8580     3.6690    -0.4580 H     1 <1>   0.0800 
@<TRIPOS>BOND
  1   1   2  1   
  2   2   3  ar  
  3   2   4  ar  
  4   3   5  1   
  5   3   6  ar  
  6   4   7  ar  
  7   4  21  1   
  8   5   8  1   
  9   6   9  ar  
 10   6  10  1   
 11   7   9  ar  
 12   7  22  1   
 13   8  11  1   
 14   8  23  1   
 15   8  24  1   
 16   9  25  1   
 17  10  26  1   
 18  10  27  1   
 19  10  28  1   
 20  11  12  1   
 21  11  29  1   
 22  11  30  1   
 23  12  13  1   
 24  13  14  1   
 25  13  31  1   
 26  13  32  1   
 27  14  15  1   
 28  14  33  1   
 29  14  34  1   
 30  15  16  1   
 31  15  17  1   
 32  15  35  1   
 33  16  18  1   
 34  16  36  1   
 35  16  37  1   
 36  17  19  1   
 37  17  38  1   
 38  17  39  1   
 39  18  20  1   
 40  18  40  1   
 41  18  41  1   
 42  19  20  1   
 43  19  42  1   
 44  19  43  1   
 45  20  44  1   
 46  20  45  1   
@<TRIPOS>SUBSTRUCTURE
  1 ****  11 GROUP 4 **** **** 0

# MOE 2024.06 (io_trps.svl 2023.06)
