@<TRIPOS>MOLECULE
NONAME
37 38 1 0 0 
SMALL
USER_CHARGES


@<TRIPOS>ATOM
  1 O        0.4280     0.7000     1.6170 O.2   1 <1>  -0.5700 
  2 C        0.7670     1.3580     0.6470 C.2   1 <1>   0.5440 
  3 N       -0.1860     2.0860    -0.0110 N.am  1 <1>  -0.7300 
  4 C        2.1390     1.3780     0.1830 C.ar  1 <1>   0.0860 
  5 C       -1.6150     2.1460     0.3370 C.3   1 <1>   0.2200 
  6 C        2.9280     0.2130     0.1510 C.ar  1 <1>   0.1000 
  7 C        2.7200     2.5720    -0.2530 C.ar  1 <1>  -0.1500 
  8 C       -2.4150     1.3840    -0.7240 C.3   1 <1>  -0.1600 
  9 C       -2.0450     3.6140     0.4080 C.3   1 <1>  -0.1600 
 10 N        2.4370    -1.0070     0.5780 N.pl3 1 <1>  -0.9000 
 11 C        4.2350     0.2750    -0.3210 C.ar  1 <1>  -0.1500 
 12 C        4.0200     2.6210    -0.7160 C.ar  1 <1>  -0.1500 
 13 C       -3.9250     1.5050    -0.4720 C.3   1 <1>  -0.1600 
 14 C       -3.5560     3.7370     0.6610 C.3   1 <1>  -0.1600 
 15 C        4.7810     1.4650    -0.7520 C.ar  1 <1>  -0.1500 
 16 C       -4.3650     2.9760    -0.4020 C.3   1 <1>  -0.0800 
 17 C       -5.8650     3.0720    -0.1010 C.3   1 <1>  -0.2400 
 18 H        0.0580     2.5200    -0.9000 H     1 <1>   0.3700 
 19 H       -1.7780     1.6870     1.2990 H     1 <1>   0.0800 
 20 H        2.1420     3.4790    -0.2200 H     1 <1>   0.1500 
 21 H       -2.1330     0.3460    -0.6980 H     1 <1>   0.0800 
 22 H       -2.1890     1.7760    -1.6990 H     1 <1>   0.0800 
 23 H       -1.8050     4.1070    -0.5170 H     1 <1>   0.0800 
 24 H       -1.5110     4.1010     1.2050 H     1 <1>   0.0800 
 25 H        3.0940    -1.6900     0.9600 H     1 <1>   0.4000 
 26 H        1.5720    -0.9410     1.1440 H     1 <1>   0.4000 
 27 H        4.8220    -0.6240    -0.3500 H     1 <1>   0.1500 
 28 H        4.4450     3.5530    -1.0470 H     1 <1>   0.1500 
 29 H       -4.1680     1.0120     0.4540 H     1 <1>   0.0800 
 30 H       -4.4580     1.0030    -1.2620 H     1 <1>   0.0800 
 31 H       -3.8340     4.7770     0.6540 H     1 <1>   0.0800 
 32 H       -3.7820     3.3420     1.6370 H     1 <1>   0.0800 
 33 H        5.7940     1.4980    -1.1140 H     1 <1>   0.1500 
 34 H       -4.1840     3.4330    -1.3610 H     1 <1>   0.0800 
 35 H       -6.0910     2.6260     0.8510 H     1 <1>   0.0800 
 36 H       -6.4310     2.5640    -0.8620 H     1 <1>   0.0800 
 37 H       -6.1760     4.1010    -0.0800 H     1 <1>   0.0800 
@<TRIPOS>BOND
  1   1   2  2   
  2   2   3  am  
  3   2   4  1   
  4   3   5  1   
  5   3  18  1   
  6   4   6  ar  
  7   4   7  ar  
  8   5   8  1   
  9   5   9  1   
 10   5  19  1   
 11   6  10  1   
 12   6  11  ar  
 13   7  12  ar  
 14   7  20  1   
 15   8  13  1   
 16   8  21  1   
 17   8  22  1   
 18   9  14  1   
 19   9  23  1   
 20   9  24  1   
 21  10  25  1   
 22  10  26  1   
 23  11  15  ar  
 24  11  27  1   
 25  12  15  ar  
 26  12  28  1   
 27  13  16  1   
 28  13  29  1   
 29  13  30  1   
 30  14  16  1   
 31  14  31  1   
 32  14  32  1   
 33  15  33  1   
 34  16  17  1   
 35  16  34  1   
 36  17  35  1   
 37  17  36  1   
 38  17  37  1   
@<TRIPOS>SUBSTRUCTURE
  1 ****   3 GROUP 4 **** **** 0

# MOE 2024.06 (io_trps.svl 2023.06)
