@<TRIPOS>MOLECULE
NONAME
54 56 1 0 0 
SMALL
USER_CHARGES


@<TRIPOS>ATOM
  1 O        0.7330    -1.3040    -2.9530 O.2   1 <1>  -0.5700 
  2 C        0.7070    -2.3390    -2.3160 C.2   1 <1>   0.5440 
  3 N        1.8660    -3.0890    -2.2290 N.am  1 <1>  -0.6600 
  4 C       -0.5130    -2.7370    -1.6540 C.ar  1 <1>   0.0860 
  5 C        3.1640    -2.5570    -2.7320 C.3   1 <1>   0.1400 
  6 C        2.0260    -4.2360    -1.2870 C.3   1 <1>   0.1400 
  7 C       -0.6610    -2.5960    -0.2720 C.ar  1 <1>   0.0830 
  8 C       -1.5720    -3.2820    -2.3780 C.ar  1 <1>  -0.1500 
  9 C        4.0290    -2.1140    -1.5390 C.3   1 <1>   0.3430 
 10 C        2.9100    -3.8150    -0.0950 C.3   1 <1>   0.3430 
 11 O        0.3500    -2.0300     0.4330 O.3   1 <1>  -0.3630 
 12 C       -1.8160    -3.0400     0.3770 C.ar  1 <1>   0.0820 
 13 C       -2.7270    -3.7020    -1.7490 C.ar  1 <1>  -0.1500 
 14 N        4.2310    -3.2280    -0.5330 N.4   1 <1>  -0.9590 
 15 C        0.1340    -0.6980     0.8520 C.3   1 <1>   0.0400 
 16 O       -1.8750    -2.9240     1.7340 O.3   1 <1>  -0.3630 
 17 C       -2.8500    -3.5890    -0.3740 C.ar  1 <1>  -0.1500 
 18 C        5.0020    -2.7690     0.6610 C.3   1 <1>   0.3430 
 19 C       -3.0340    -3.2780     2.4580 C.3   1 <1>   0.0400 
 20 C        6.4570    -2.4070     0.3210 C.3   1 <1>  -0.0800 
 21 C        7.2180    -3.5890    -0.3190 C.3   1 <1>  -0.0220 
 22 C        7.1840    -1.9270     1.5920 C.3   1 <1>  -0.1600 
 23 C        8.7080    -3.3140    -0.3790 C.2   1 <1>  -0.2880 
 24 C        8.5970    -1.4140     1.2740 C.3   1 <1>  -0.0220 
 25 C        9.3130    -2.3480     0.3150 C.2   1 <1>  -0.2880 
 26 H        3.0080    -1.7190    -3.3900 H     1 <1>   0.0800 
 27 H        3.6710    -3.3190    -3.2990 H     1 <1>   0.0800 
 28 H        2.4790    -5.0620    -1.8060 H     1 <1>   0.0800 
 29 H        1.0720    -4.5740    -0.9210 H     1 <1>   0.0800 
 30 H       -1.4790    -3.3710    -3.4480 H     1 <1>   0.1500 
 31 H        3.5390    -1.2800    -1.0640 H     1 <1>   0.0800 
 32 H        4.9810    -1.7720    -1.9090 H     1 <1>   0.0800 
 33 H        3.0800    -4.6730     0.5350 H     1 <1>   0.0800 
 34 H        2.3690    -3.0880     0.4860 H     1 <1>   0.0800 
 35 H       -3.5340    -4.1210    -2.3270 H     1 <1>   0.1500 
 36 H        4.7640    -3.9740    -0.9960 H     1 <1>   0.4500 
 37 H        1.0120    -0.3550     1.3670 H     1 <1>   0.0800 
 38 H       -0.7140    -0.6680     1.5140 H     1 <1>   0.0800 
 39 H       -0.0500    -0.0870    -0.0150 H     1 <1>   0.0800 
 40 H       -3.7580    -3.9340     0.0840 H     1 <1>   0.1500 
 41 H        5.0120    -3.5510     1.4030 H     1 <1>   0.0800 
 42 H        4.5150    -1.9110     1.0970 H     1 <1>   0.0800 
 43 H       -2.8550    -3.0700     3.4980 H     1 <1>   0.0800 
 44 H       -3.2240    -4.3280     2.3250 H     1 <1>   0.0800 
 45 H       -3.8610    -2.6870     2.1060 H     1 <1>   0.0800 
 46 H        6.4640    -1.5810    -0.3680 H     1 <1>   0.0800 
 47 H        6.8640    -3.7520    -1.3210 H     1 <1>   0.0800 
 48 H        7.0660    -4.4910     0.2500 H     1 <1>   0.0800 
 49 H        7.2670    -2.7450     2.2880 H     1 <1>   0.0800 
 50 H        6.6310    -1.1370     2.0730 H     1 <1>   0.0800 
 51 H        9.2450    -3.9790    -1.0370 H     1 <1>   0.1500 
 52 H        9.1600    -1.3370     2.1890 H     1 <1>   0.0800 
 53 H        8.5470    -0.4340     0.8320 H     1 <1>   0.0800 
 54 H       10.3720    -2.1550     0.2480 H     1 <1>   0.1500 
@<TRIPOS>BOND
  1   1   2  2   
  2   2   3  am  
  3   2   4  1   
  4   3   5  1   
  5   3   6  1   
  6   4   7  ar  
  7   4   8  ar  
  8   5   9  1   
  9   5  26  1   
 10   5  27  1   
 11   6  10  1   
 12   6  28  1   
 13   6  29  1   
 14   7  11  1   
 15   7  12  ar  
 16   8  13  ar  
 17   8  30  1   
 18   9  14  1   
 19   9  31  1   
 20   9  32  1   
 21  10  14  1   
 22  10  33  1   
 23  10  34  1   
 24  11  15  1   
 25  12  16  1   
 26  12  17  ar  
 27  13  17  ar  
 28  13  35  1   
 29  14  18  1   
 30  14  36  1   
 31  15  37  1   
 32  15  38  1   
 33  15  39  1   
 34  16  19  1   
 35  17  40  1   
 36  18  20  1   
 37  18  41  1   
 38  18  42  1   
 39  19  43  1   
 40  19  44  1   
 41  19  45  1   
 42  20  21  1   
 43  20  22  1   
 44  20  46  1   
 45  21  23  1   
 46  21  47  1   
 47  21  48  1   
 48  22  24  1   
 49  22  49  1   
 50  22  50  1   
 51  23  25  2   
 52  23  51  1   
 53  24  25  1   
 54  24  52  1   
 55  24  53  1   
 56  25  54  1   
@<TRIPOS>SUBSTRUCTURE
  1 ****  10 GROUP 4 **** **** 0

# MOE 2024.06 (io_trps.svl 2023.06)
