@<TRIPOS>MOLECULE
NONAME
38 39 1 0 0 
SMALL
USER_CHARGES


@<TRIPOS>ATOM
  1 S        1.3390    -0.9280    -1.5500 S.3   1 <1>  -0.3320 
  2 C        1.2790    -1.9280    -0.0610 C.ar  1 <1>   0.1020 
  3 C       -0.3280    -0.1270    -1.6000 C.3   1 <1>   0.0700 
  4 C        1.8710    -1.4760     1.1190 C.ar  1 <1>   0.0860 
  5 C        0.6280    -3.1460    -0.1380 C.ar  1 <1>  -0.1500 
  6 C       -0.4460     0.8320    -0.4190 C.3   1 <1>   0.1200 
  7 C        2.5380    -0.1960     1.2090 C.2   1 <1>   0.5440 
  8 C        1.7790    -2.3070     2.2340 C.ar  1 <1>  -0.1500 
  9 C        0.5560    -3.9520     0.9840 C.ar  1 <1>  -0.1500 
 10 O       -1.6680     1.4900    -0.5100 O.3   1 <1>  -0.5600 
 11 O        1.9480     0.7360     1.7240 O.2   1 <1>  -0.5700 
 12 N        3.8240    -0.0080     0.7510 N.am  1 <1>  -0.6600 
 13 C        1.1330    -3.5300     2.1700 C.ar  1 <1>  -0.1500 
 14 C       -1.8880     2.3840     0.5320 C.3   1 <1>   0.0400 
 15 C        4.4910     1.3280     0.7680 C.3   1 <1>   0.1400 
 16 C        4.6300    -1.0510     0.0480 C.3   1 <1>   0.1400 
 17 C        4.9690     1.7060    -0.6430 C.3   1 <1>   0.1200 
 18 C        5.1010    -0.5340    -1.3220 C.3   1 <1>   0.1200 
 19 O        5.7670     0.6900    -1.1850 O.3   1 <1>  -0.5600 
 20 H       -1.0650    -0.9080    -1.5470 H     1 <1>   0.0800 
 21 H       -0.3970     0.4000    -2.5340 H     1 <1>   0.0800 
 22 H        0.1840    -3.4600    -1.0660 H     1 <1>   0.1500 
 23 H        0.3460     1.5620    -0.4460 H     1 <1>   0.0800 
 24 H       -0.4150     0.2920     0.5120 H     1 <1>   0.0800 
 25 H        2.2180    -1.9800     3.1610 H     1 <1>   0.1500 
 26 H        0.0520    -4.9020     0.9360 H     1 <1>   0.1500 
 27 H        1.0750    -4.1540     3.0460 H     1 <1>   0.1500 
 28 H       -2.8490     2.8440     0.3830 H     1 <1>   0.0800 
 29 H       -1.1180     3.1370     0.5230 H     1 <1>   0.0800 
 30 H       -1.8810     1.8500     1.4670 H     1 <1>   0.0800 
 31 H        5.3360     1.2940     1.4330 H     1 <1>   0.0800 
 32 H        3.8190     2.0870     1.1280 H     1 <1>   0.0800 
 33 H        4.0610    -1.9520    -0.0930 H     1 <1>   0.0800 
 34 H        5.4910    -1.2930     0.6460 H     1 <1>   0.0800 
 35 H        5.5600     2.6040    -0.6070 H     1 <1>   0.0800 
 36 H        4.1280     1.8700    -1.2940 H     1 <1>   0.0800 
 37 H        4.2640    -0.4000    -1.9850 H     1 <1>   0.0800 
 38 H        5.7860    -1.2320    -1.7670 H     1 <1>   0.0800 
@<TRIPOS>BOND
  1   1   2  1   
  2   1   3  1   
  3   2   4  ar  
  4   2   5  ar  
  5   3   6  1   
  6   3  20  1   
  7   3  21  1   
  8   4   7  1   
  9   4   8  ar  
 10   5   9  ar  
 11   5  22  1   
 12   6  10  1   
 13   6  23  1   
 14   6  24  1   
 15   7  11  2   
 16   7  12  am  
 17   8  13  ar  
 18   8  25  1   
 19   9  13  ar  
 20   9  26  1   
 21  10  14  1   
 22  12  15  1   
 23  12  16  1   
 24  13  27  1   
 25  14  28  1   
 26  14  29  1   
 27  14  30  1   
 28  15  17  1   
 29  15  31  1   
 30  15  32  1   
 31  16  18  1   
 32  16  33  1   
 33  16  34  1   
 34  17  19  1   
 35  17  35  1   
 36  17  36  1   
 37  18  19  1   
 38  18  37  1   
 39  18  38  1   
@<TRIPOS>SUBSTRUCTURE
  1 ****   7 GROUP 4 **** **** 0

# MOE 2024.06 (io_trps.svl 2023.06)
