@<TRIPOS>MOLECULE
NONAME
33 34 1 0 0 
SMALL
USER_CHARGES


@<TRIPOS>ATOM
  1 F        1.3290    -0.2930    -1.9130 F     1 <1>  -0.3400 
  2 C        1.5790    -0.1900    -0.6150 C.3   1 <1>   1.1580 
  3 F        2.7920     0.3410    -0.5170 F     1 <1>  -0.3400 
  4 F        0.7420     0.7190    -0.1360 F     1 <1>  -0.3400 
  5 C        1.4610    -1.5360     0.1130 C.2   1 <1>  -0.1670 
  6 C        0.2130    -2.2570     0.1100 C.ar  1 <1>   0.0280 
  7 C        2.5110    -2.0870     0.7750 C.2   1 <1>  -0.1360 
  8 C        0.1590    -3.4870     0.7910 C.ar  1 <1>   0.0820 
  9 C       -0.9640    -1.8330    -0.5210 C.ar  1 <1>  -0.1500 
 10 C        2.4150    -3.3350     1.4540 C.2   1 <1>   0.7060 
 11 O        1.2470    -3.9740     1.4280 O.3   1 <1>  -0.2330 
 12 C       -1.0000    -4.2440     0.8380 C.ar  1 <1>  -0.1500 
 13 C       -2.1170    -2.5880    -0.4720 C.ar  1 <1>  -0.1500 
 14 O        3.3420    -3.8390     2.0510 O.2   1 <1>  -0.5700 
 15 C       -2.1510    -3.7980     0.2050 C.ar  1 <1>   0.0830 
 16 O       -3.3290    -4.4630     0.1990 O.3   1 <1>  -0.3630 
 17 C       -3.5160    -5.7230     0.8090 C.3   1 <1>   0.1200 
 18 C       -2.9950    -6.8260    -0.1190 C.3   1 <1>  -0.1600 
 19 C       -3.2080    -8.2140     0.4980 C.3   1 <1>  -0.1600 
 20 C       -2.7010    -9.3160    -0.4360 C.3   1 <1>  -0.2400 
 21 H        3.4800    -1.6250     0.8340 H     1 <1>   0.1500 
 22 H       -1.0010    -0.9040    -1.0610 H     1 <1>   0.1500 
 23 H       -0.9770    -5.1740     1.3720 H     1 <1>   0.1500 
 24 H       -3.0130    -2.2480    -0.9610 H     1 <1>   0.1500 
 25 H       -4.5730    -5.8450     0.9620 H     1 <1>   0.0800 
 26 H       -3.0310    -5.7310     1.7690 H     1 <1>   0.0800 
 27 H       -1.9460    -6.6800    -0.3080 H     1 <1>   0.0800 
 28 H       -3.5220    -6.7680    -1.0560 H     1 <1>   0.0800 
 29 H       -4.2570    -8.3690     0.6890 H     1 <1>   0.0800 
 30 H       -2.6840    -8.2780     1.4370 H     1 <1>   0.0800 
 31 H       -3.2270    -9.2860    -1.3740 H     1 <1>   0.0800 
 32 H       -2.8570   -10.2810     0.0130 H     1 <1>   0.0800 
 33 H       -1.6480    -9.1940    -0.6250 H     1 <1>   0.0800 
@<TRIPOS>BOND
  1   1   2  1   
  2   2   3  1   
  3   2   4  1   
  4   2   5  1   
  5   5   6  1   
  6   5   7  2   
  7   6   8  ar  
  8   6   9  ar  
  9   7  10  1   
 10   7  21  1   
 11   8  11  1   
 12   8  12  ar  
 13   9  13  ar  
 14   9  22  1   
 15  10  11  1   
 16  10  14  2   
 17  12  15  ar  
 18  12  23  1   
 19  13  15  ar  
 20  13  24  1   
 21  15  16  1   
 22  16  17  1   
 23  17  18  1   
 24  17  25  1   
 25  17  26  1   
 26  18  19  1   
 27  18  27  1   
 28  18  28  1   
 29  19  20  1   
 30  19  29  1   
 31  19  30  1   
 32  20  31  1   
 33  20  32  1   
 34  20  33  1   
@<TRIPOS>SUBSTRUCTURE
  1 ****   8 GROUP 4 **** **** 0

# MOE 2024.06 (io_trps.svl 2023.06)
