@<TRIPOS>MOLECULE
NONAME
35 37 1 0 0 
SMALL
USER_CHARGES


@<TRIPOS>ATOM
  1 O        0.1430     1.2440    -1.3910 O.2   1 <1>  -0.5700 
  2 C        0.2480     1.9380    -0.4090 C.2   1 <1>   0.5690 
  3 N        1.4180     2.0900     0.2850 N.am  1 <1>  -0.5470 
  4 C       -0.9760     2.7060     0.0930 C.3   1 <1>  -0.0190 
  5 C        2.6880     1.5190     0.0930 C.ar  1 <1>   0.1170 
  6 C       -2.1340     1.7540     0.4470 C.3   1 <1>  -0.1600 
  7 C       -1.4360     3.7590    -0.9340 C.3   1 <1>  -0.1600 
  8 C        3.7920     2.1760     0.6330 C.ar  1 <1>  -0.1500 
  9 C        2.8830     0.3160    -0.5970 C.ar  1 <1>  -0.1500 
 10 C       -3.3670     2.5230     0.9420 C.3   1 <1>  -0.1600 
 11 C       -2.6680     4.5290    -0.4410 C.3   1 <1>  -0.1600 
 12 C        5.0430     1.6190     0.4640 C.ar  1 <1>   0.0830 
 13 C        4.1500    -0.2300    -0.7600 C.ar  1 <1>  -0.1500 
 14 C       -3.8130     3.5720    -0.0850 C.3   1 <1>  -0.1600 
 15 O        6.2210     2.0830     0.8960 O.3   1 <1>  -0.3630 
 16 C        5.2190     0.4490    -0.2140 C.ar  1 <1>   0.0830 
 17 C        7.2100     1.1510     0.4620 C.3   1 <1>   0.4000 
 18 O        6.5170     0.1210    -0.2410 O.3   1 <1>  -0.3630 
 19 H        1.3760     2.7630     1.0460 H     1 <1>   0.3700 
 20 H       -0.7000     3.2270     0.9920 H     1 <1>   0.0800 
 21 H       -1.8140     1.0600     1.2050 H     1 <1>   0.0800 
 22 H       -2.4020     1.1820    -0.4270 H     1 <1>   0.0800 
 23 H       -1.6750     3.2650    -1.8620 H     1 <1>   0.0800 
 24 H       -0.6340     4.4500    -1.1300 H     1 <1>   0.0800 
 25 H        3.6910     3.0990     1.1700 H     1 <1>   0.1500 
 26 H        2.0400    -0.2050    -1.0120 H     1 <1>   0.1500 
 27 H       -3.1360     3.0110     1.8740 H     1 <1>   0.0800 
 28 H       -4.1730     1.8320     1.1230 H     1 <1>   0.0800 
 29 H       -2.9960     5.2110    -1.2060 H     1 <1>   0.0800 
 30 H       -2.4060     5.1100     0.4270 H     1 <1>   0.0800 
 31 H        4.3030    -1.1510    -1.2920 H     1 <1>   0.1500 
 32 H       -4.6440     4.1330     0.3090 H     1 <1>   0.0800 
 33 H       -4.1480     3.0730    -0.9780 H     1 <1>   0.0800 
 34 H        7.7100     0.7310     1.3160 H     1 <1>   0.0800 
 35 H        7.8990     1.6400    -0.2030 H     1 <1>   0.0800 
@<TRIPOS>BOND
  1   1   2  2   
  2   2   3  am  
  3   2   4  1   
  4   3   5  1   
  5   3  19  1   
  6   4   6  1   
  7   4   7  1   
  8   4  20  1   
  9   5   8  ar  
 10   5   9  ar  
 11   6  10  1   
 12   6  21  1   
 13   6  22  1   
 14   7  11  1   
 15   7  23  1   
 16   7  24  1   
 17   8  12  ar  
 18   8  25  1   
 19   9  13  ar  
 20   9  26  1   
 21  10  14  1   
 22  10  27  1   
 23  10  28  1   
 24  11  14  1   
 25  11  29  1   
 26  11  30  1   
 27  12  15  1   
 28  12  16  ar  
 29  13  16  ar  
 30  13  31  1   
 31  14  32  1   
 32  14  33  1   
 33  15  17  1   
 34  16  18  1   
 35  17  18  1   
 36  17  34  1   
 37  17  35  1   
@<TRIPOS>SUBSTRUCTURE
  1 ****   3 GROUP 4 **** **** 0

# MOE 2024.06 (io_trps.svl 2023.06)
