@<TRIPOS>MOLECULE
NONAME
41 42 1 0 0 
SMALL
USER_CHARGES


@<TRIPOS>ATOM
  1 S        0.4150     0.4120     1.7240 S.3   1 <1>  -0.3710 
  2 C        1.7880     1.4110     1.2380 C.2   1 <1>   0.6970 
  3 C        0.7820    -0.9300     0.5430 C.3   1 <1>   0.1310 
  4 O        1.9250     2.4620     1.8280 O.2   1 <1>  -0.5700 
  5 C        2.5600     0.8210     0.1880 C.2   1 <1>   0.0290 
  6 C        2.0620    -0.4850    -0.1420 C.2   1 <1>   0.4950 
  7 C        3.6450     1.4730    -0.3810 C.2   1 <1>  -0.0380 
  8 O        2.5670    -1.2890    -0.8900 O.2   1 <1>  -0.5700 
  9 N        4.0870     2.6660     0.0940 N.pl3 1 <1>  -0.8690 
 10 C        4.4240     0.9210    -1.5740 C.3   1 <1>  -0.1020 
 11 C        5.2580     3.4920    -0.3000 C.3   1 <1>   0.2090 
 12 C        5.8850     4.1090     0.9480 C.3   1 <1>  -0.0170 
 13 C        7.0870     4.9580     0.5670 C.ar  1 <1>  -0.1430 
 14 C        8.3570     4.4030     0.5320 C.ar  1 <1>  -0.1500 
 15 C        6.9190     6.2930     0.2430 C.ar  1 <1>  -0.1500 
 16 C        9.4680     5.1660     0.1740 C.ar  1 <1>   0.0830 
 17 C        8.0110     7.0640    -0.1070 C.ar  1 <1>  -0.1500 
 18 O       10.7160     4.6130     0.1060 O.3   1 <1>  -0.3630 
 19 C        9.2860     6.5240    -0.1370 C.ar  1 <1>   0.0830 
 20 C       10.9360     3.2290     0.2650 C.3   1 <1>   0.0400 
 21 O       10.2710     7.3990    -0.4860 O.3   1 <1>  -0.3630 
 22 C       11.5660     7.2940     0.0630 C.3   1 <1>   0.0400 
 23 H        0.9200    -1.8410     1.0960 H     1 <1>   0.0800 
 24 H       -0.0360    -1.0090    -0.1490 H     1 <1>   0.0800 
 25 H        3.5490     3.1010     0.8690 H     1 <1>   0.4000 
 26 H        4.7130     1.7160    -2.2370 H     1 <1>   0.0800 
 27 H        3.8440     0.2440    -2.1690 H     1 <1>   0.0800 
 28 H        5.3070     0.4150    -1.2310 H     1 <1>   0.0800 
 29 H        5.9950     2.8890    -0.8020 H     1 <1>   0.0800 
 30 H        4.9360     4.2710    -0.9700 H     1 <1>   0.0800 
 31 H        5.1580     4.7210     1.4520 H     1 <1>   0.0800 
 32 H        6.1900     3.3260     1.6180 H     1 <1>   0.0800 
 33 H        8.4600     3.3660     0.7850 H     1 <1>   0.1500 
 34 H        5.9400     6.7400     0.2610 H     1 <1>   0.1500 
 35 H        7.8810     8.1010    -0.3580 H     1 <1>   0.1500 
 36 H       11.9820     3.0380     0.1070 H     1 <1>   0.0800 
 37 H       10.3540     2.6960    -0.4660 H     1 <1>   0.0800 
 38 H       10.6600     2.9440     1.2640 H     1 <1>   0.0800 
 39 H       12.0490     8.2490    -0.0340 H     1 <1>   0.0800 
 40 H       12.1160     6.5510    -0.4850 H     1 <1>   0.0800 
 41 H       11.4860     7.0230     1.1010 H     1 <1>   0.0800 
@<TRIPOS>BOND
  1   1   2  1   
  2   1   3  1   
  3   2   4  2   
  4   2   5  1   
  5   3   6  1   
  6   3  23  1   
  7   3  24  1   
  8   5   6  1   
  9   5   7  2   
 10   6   8  2   
 11   7   9  1   
 12   7  10  1   
 13   9  11  1   
 14   9  25  1   
 15  10  26  1   
 16  10  27  1   
 17  10  28  1   
 18  11  12  1   
 19  11  29  1   
 20  11  30  1   
 21  12  13  1   
 22  12  31  1   
 23  12  32  1   
 24  13  14  ar  
 25  13  15  ar  
 26  14  16  ar  
 27  14  33  1   
 28  15  17  ar  
 29  15  34  1   
 30  16  18  1   
 31  16  19  ar  
 32  17  19  ar  
 33  17  35  1   
 34  18  20  1   
 35  19  21  1   
 36  20  36  1   
 37  20  37  1   
 38  20  38  1   
 39  21  22  1   
 40  22  39  1   
 41  22  40  1   
 42  22  41  1   
@<TRIPOS>SUBSTRUCTURE
  1 ****  11 GROUP 4 **** **** 0

# MOE 2024.06 (io_trps.svl 2023.06)
