@<TRIPOS>MOLECULE
NONAME
31 32 1 0 0 
SMALL
USER_CHARGES


@<TRIPOS>ATOM
  1 I       -0.0420     0.4350    -0.6470 I     1 <1>  -0.0810 
  2 C        1.9630     1.1240    -0.4550 C.ar  1 <1>   0.0810 
  3 C        2.7090     0.7020     0.6310 C.ar  1 <1>  -0.1500 
  4 C        2.4670     1.9760    -1.4200 C.ar  1 <1>  -0.1500 
  5 C        4.0130     1.1510     0.7530 C.ar  1 <1>  -0.1500 
  6 C        3.7720     2.4180    -1.2860 C.ar  1 <1>  -0.1500 
  7 C        4.5490     2.0090    -0.2090 C.ar  1 <1>   0.0830 
  8 O        5.8170     2.4880    -0.1670 O.3   1 <1>  -0.3630 
  9 C        6.7290     2.0690     0.8380 C.3   1 <1>   0.1810 
 10 C        8.1130     2.6840     0.6380 C.2   1 <1>   0.5690 
 11 O        8.5770     3.2990     1.5720 O.2   1 <1>  -0.5700 
 12 N        8.8190     2.5220    -0.5310 N.am  1 <1>  -0.6600 
 13 C       10.1430     3.1830    -0.7410 C.3   1 <1>   0.1400 
 14 C        8.3450     1.7670    -1.7310 C.3   1 <1>   0.1400 
 15 C       11.1530     2.2010    -1.3560 C.3   1 <1>   0.1200 
 16 C        9.4630     0.8740    -2.2950 C.3   1 <1>   0.1200 
 17 O       10.6300     1.6130    -2.5140 O.3   1 <1>  -0.5600 
 18 H        2.2800     0.0410     1.3630 H     1 <1>   0.1500 
 19 H        1.8600     2.2880    -2.2510 H     1 <1>   0.1500 
 20 H        4.5880     0.8250     1.5990 H     1 <1>   0.1500 
 21 H        4.1970     3.0830    -2.0160 H     1 <1>   0.1500 
 22 H        6.8080     0.9990     0.8060 H     1 <1>   0.0800 
 23 H        6.3400     2.3790     1.7910 H     1 <1>   0.0800 
 24 H       10.5340     3.5540     0.1900 H     1 <1>   0.0800 
 25 H       10.0170     4.0210    -1.4030 H     1 <1>   0.0800 
 26 H        8.0380     2.4680    -2.4880 H     1 <1>   0.0800 
 27 H        7.4990     1.1500    -1.4900 H     1 <1>   0.0800 
 28 H       11.4010     1.4250    -0.6530 H     1 <1>   0.0800 
 29 H       12.0540     2.7200    -1.6290 H     1 <1>   0.0800 
 30 H        9.1610     0.4520    -3.2370 H     1 <1>   0.0800 
 31 H        9.6870     0.0710    -1.6140 H     1 <1>   0.0800 
@<TRIPOS>BOND
  1   1   2  1   
  2   2   3  ar  
  3   2   4  ar  
  4   3   5  ar  
  5   3  18  1   
  6   4   6  ar  
  7   4  19  1   
  8   5   7  ar  
  9   5  20  1   
 10   6   7  ar  
 11   6  21  1   
 12   7   8  1   
 13   8   9  1   
 14   9  10  1   
 15   9  22  1   
 16   9  23  1   
 17  10  11  2   
 18  10  12  am  
 19  12  13  1   
 20  12  14  1   
 21  13  15  1   
 22  13  24  1   
 23  13  25  1   
 24  14  16  1   
 25  14  26  1   
 26  14  27  1   
 27  15  17  1   
 28  15  28  1   
 29  15  29  1   
 30  16  17  1   
 31  16  30  1   
 32  16  31  1   
@<TRIPOS>SUBSTRUCTURE
  1 ****   8 GROUP 4 **** **** 0

# MOE 2024.06 (io_trps.svl 2023.06)
