@<TRIPOS>MOLECULE
NONAME
40 42 1 0 0 
SMALL
USER_CHARGES


@<TRIPOS>ATOM
  1 O       -0.5760    -0.3290     1.6880 O.2   1 <1>  -0.5700 
  2 C       -0.9880    -1.3700     1.2400 C.2   1 <1>   0.6300 
  3 N       -0.2370    -2.2590     0.5240 N.am  1 <1>  -0.5470 
  4 C       -2.4350    -1.7520     1.4910 C.3   1 <1>  -0.1000 
  5 C        1.0990    -2.2560     0.0870 C.ar  1 <1>   0.1170 
  6 C       -3.3120    -2.2710     0.3810 C.3   1 <1>  -0.0600 
  7 C       -3.5550    -0.9150     0.9520 C.3   1 <1>  -0.1950 
  8 C        1.6430    -3.4300    -0.4440 C.ar  1 <1>  -0.1430 
  9 C        1.9030    -1.1210     0.1530 C.ar  1 <1>  -0.1500 
 10 C       -4.4960    -3.2000     0.4940 C.2   1 <1>  -0.1900 
 11 C       -3.4710     0.2480    -0.0300 C.3   1 <1>  -0.0650 
 12 C        2.9560    -3.4470    -0.8870 C.ar  1 <1>  -0.1500 
 13 C        0.8210    -4.7090    -0.5480 C.3   1 <1>  -0.0970 
 14 C        3.2120    -1.1450    -0.2900 C.ar  1 <1>  -0.1500 
 15 C       -5.7620    -2.8980     0.1790 C.2   1 <1>  -0.2880 
 16 C       -4.8300     0.4860    -0.7080 C.3   1 <1>  -0.1600 
 17 C        3.7410    -2.3100    -0.8110 C.ar  1 <1>  -0.1500 
 18 C       -6.3650    -1.6110    -0.3940 C.3   1 <1>  -0.0220 
 19 C       -5.4850    -0.7630    -1.3440 C.3   1 <1>  -0.1600 
 20 H       -0.7440    -3.1010     0.2700 H     1 <1>   0.3700 
 21 H       -2.5680    -2.1760     2.4690 H     1 <1>   0.1000 
 22 H       -2.8450    -2.3480    -0.5860 H     1 <1>   0.1000 
 23 H       -4.3660    -0.7820     1.6470 H     1 <1>   0.1000 
 24 H        1.5140    -0.2020     0.5490 H     1 <1>   0.1500 
 25 H       -4.2180    -4.1700     0.8690 H     1 <1>   0.1500 
 26 H       -2.7230     0.0500    -0.7780 H     1 <1>   0.0800 
 27 H       -3.1730     1.1370     0.4990 H     1 <1>   0.0800 
 28 H        3.3830    -4.3460    -1.2960 H     1 <1>   0.1500 
 29 H       -0.0210    -4.5560    -1.2000 H     1 <1>   0.0800 
 30 H        0.4710    -5.0040     0.4250 H     1 <1>   0.0800 
 31 H        1.4110    -5.5150    -0.9480 H     1 <1>   0.0800 
 32 H        3.8170    -0.2570    -0.2280 H     1 <1>   0.1500 
 33 H       -6.5340    -3.6330     0.3300 H     1 <1>   0.1500 
 34 H       -4.6760     1.2180    -1.4830 H     1 <1>   0.0800 
 35 H       -5.5090     0.9250     0.0020 H     1 <1>   0.0800 
 36 H        4.7600    -2.3330    -1.1570 H     1 <1>   0.1500 
 37 H       -6.7430    -1.0080     0.4120 H     1 <1>   0.0800 
 38 H       -7.2220    -1.9160    -0.9690 H     1 <1>   0.0800 
 39 H       -4.7510    -1.3790    -1.8340 H     1 <1>   0.0800 
 40 H       -6.1360    -0.4010    -2.1210 H     1 <1>   0.0800 
@<TRIPOS>BOND
  1   1   2  2   
  2   2   3  am  
  3   2   4  1   
  4   3   5  1   
  5   3  20  1   
  6   4   6  1   
  7   4   7  1   
  8   4  21  1   
  9   5   8  ar  
 10   5   9  ar  
 11   6   7  1   
 12   6  10  1   
 13   6  22  1   
 14   7  11  1   
 15   7  23  1   
 16   8  12  ar  
 17   8  13  1   
 18   9  14  ar  
 19   9  24  1   
 20  10  15  2   
 21  10  25  1   
 22  11  16  1   
 23  11  26  1   
 24  11  27  1   
 25  12  17  ar  
 26  12  28  1   
 27  13  29  1   
 28  13  30  1   
 29  13  31  1   
 30  14  17  ar  
 31  14  32  1   
 32  15  18  1   
 33  15  33  1   
 34  16  19  1   
 35  16  34  1   
 36  16  35  1   
 37  17  36  1   
 38  18  19  1   
 39  18  37  1   
 40  18  38  1   
 41  19  39  1   
 42  19  40  1   
@<TRIPOS>SUBSTRUCTURE
  1 ****   3 GROUP 4 **** **** 0

# MOE 2024.06 (io_trps.svl 2023.06)
