@<TRIPOS>MOLECULE
Structure1641
26 26 1 0 0 
SMALL
USER_CHARGES


@<TRIPOS>ATOM
  1 O        0.1860     0.9090    -0.0790 O.co2 1 <1>  -0.9000 
  2 C       -0.3880     1.4470     0.8730 C.2   1 <1>   0.9060 
  3 O       -0.3380     1.0370     2.0230 O.co2 1 <1>  -0.9000 
  4 C       -1.4610     2.4050     0.5230 C.3   1 <1>  -0.2660 
  5 C       -2.6190     1.4980     0.1830 C.3   1 <1>   0.5660 
  6 N       -2.2820     0.7020    -0.9980 N.4   1 <1>  -0.8530 
  7 C       -3.9040     2.2430    -0.1380 C.ar  1 <1>  -0.1440 
  8 C       -5.0760     1.8670     0.5040 C.ar  1 <1>  -0.1500 
  9 C       -3.9420     3.2780    -1.0640 C.ar  1 <1>  -0.1500 
 10 C       -6.2730     2.5030     0.2230 C.ar  1 <1>  -0.1440 
 11 C       -5.1360     3.9170    -1.3460 C.ar  1 <1>  -0.1500 
 12 C       -6.2980     3.5300    -0.7050 C.ar  1 <1>  -0.1500 
 13 C       -7.5500     2.0870     0.9330 C.3   1 <1>  -0.0970 
 14 H       -1.1550     3.0300    -0.2930 H     1 <1>   0.0800 
 15 H       -1.6910     3.0080     1.3810 H     1 <1>   0.0800 
 16 H       -2.7820     0.8410     1.0240 H     1 <1>   0.0800 
 17 H       -2.3940     1.2610    -1.8390 H     1 <1>   0.4500 
 18 H       -2.8210    -0.1590    -1.0360 H     1 <1>   0.4500 
 19 H       -1.2630     0.4750    -0.8880 H     1 <1>   0.4500 
 20 H       -5.0650     1.0750     1.2340 H     1 <1>   0.1500 
 21 H       -3.0520     3.6070    -1.5730 H     1 <1>   0.1500 
 22 H       -5.1640     4.7210    -2.0620 H     1 <1>   0.1500 
 23 H       -7.2220     4.0350    -0.9300 H     1 <1>   0.1500 
 24 H       -7.5200     1.0430     1.1860 H     1 <1>   0.0800 
 25 H       -8.4040     2.2580     0.3030 H     1 <1>   0.0800 
 26 H       -7.6660     2.6590     1.8360 H     1 <1>   0.0800 
@<TRIPOS>BOND
  1   1   2  ar  
  2   2   3  ar  
  3   2   4  1   
  4   4   5  1   
  5   4  14  1   
  6   4  15  1   
  7   5   6  1   
  8   5   7  1   
  9   5  16  1   
 10   6  17  1   
 11   6  18  1   
 12   6  19  1   
 13   7   8  ar  
 14   7   9  ar  
 15   8  10  ar  
 16   8  20  1   
 17   9  11  ar  
 18   9  21  1   
 19  10  12  ar  
 20  10  13  1   
 21  11  12  ar  
 22  11  22  1   
 23  12  23  1   
 24  13  24  1   
 25  13  25  1   
 26  13  26  1   
@<TRIPOS>SUBSTRUCTURE
  1 ****   7 GROUP 4 **** **** 0

# MOE 2024.06 (io_trps.svl 2023.06)
