@<TRIPOS>MOLECULE
NONAME
35 36 1 0 0 
SMALL
USER_CHARGES


@<TRIPOS>ATOM
  1 BR      -0.4960     1.1330     2.3150 Br    1 <1>  -0.1110 
  2 C        1.1020     1.5060     1.2990 C.ar  1 <1>   0.1110 
  3 C        1.4510     2.8160     1.0150 C.ar  1 <1>   0.0830 
  4 C        1.8620     0.4370     0.8770 C.ar  1 <1>  -0.1500 
  5 O        0.6480     3.8170     1.4620 O.3   1 <1>  -0.3630 
  6 C        2.6140     3.0300     0.2830 C.ar  1 <1>  -0.1500 
  7 C        3.0190     0.6670     0.1460 C.ar  1 <1>  -0.1430 
  8 C        0.8830     5.1650     1.1190 C.3   1 <1>   0.0400 
  9 C        3.4140     1.9770    -0.1580 C.ar  1 <1>  -0.0090 
 10 C        3.8270    -0.5440    -0.3070 C.3   1 <1>  -0.0960 
 11 S        4.9340     2.3700    -1.0880 S.o2  1 <1>   1.4470 
 12 O        4.9920     1.5940    -2.3070 O.2   1 <1>  -0.6500 
 13 O        5.1020     3.8060    -1.1690 O.2   1 <1>  -0.6500 
 14 N        6.1790     1.8070    -0.0850 N.am  1 <1>  -0.8490 
 15 C        6.3210     2.5960     1.1490 C.3   1 <1>   0.1960 
 16 C        7.4670     1.7850    -0.7950 C.3   1 <1>   0.1960 
 17 C        7.4710     2.0560     2.0190 C.3   1 <1>   0.1200 
 18 C        8.5980     1.2770     0.1190 C.3   1 <1>   0.1200 
 19 O        8.6660     2.0380     1.2920 O.3   1 <1>  -0.5600 
 20 H        1.5430    -0.5610     1.1210 H     1 <1>   0.1500 
 21 H        2.9180     4.0320     0.0440 H     1 <1>   0.1500 
 22 H        0.0950     5.7590     1.5470 H     1 <1>   0.0800 
 23 H        0.8720     5.2620     0.0480 H     1 <1>   0.0800 
 24 H        1.8300     5.4710     1.5250 H     1 <1>   0.0800 
 25 H        3.3730    -1.4600     0.0250 H     1 <1>   0.0800 
 26 H        4.8240    -0.5070     0.0940 H     1 <1>   0.0800 
 27 H        3.8830    -0.5760    -1.3810 H     1 <1>   0.0800 
 28 H        5.4060     2.5530     1.7150 H     1 <1>   0.0800 
 29 H        6.5220     3.6290     0.9140 H     1 <1>   0.0800 
 30 H        7.7140     2.7740    -1.1470 H     1 <1>   0.0800 
 31 H        7.3970     1.1370    -1.6520 H     1 <1>   0.0800 
 32 H        7.2550     1.0570     2.3540 H     1 <1>   0.0800 
 33 H        7.6180     2.6870     2.8770 H     1 <1>   0.0800 
 34 H        9.5460     1.3590    -0.3820 H     1 <1>   0.0800 
 35 H        8.4320     0.2480     0.3850 H     1 <1>   0.0800 
@<TRIPOS>BOND
  1   1   2  1   
  2   2   3  ar  
  3   2   4  ar  
  4   3   5  1   
  5   3   6  ar  
  6   4   7  ar  
  7   4  20  1   
  8   5   8  1   
  9   6   9  ar  
 10   6  21  1   
 11   7   9  ar  
 12   7  10  1   
 13   8  22  1   
 14   8  23  1   
 15   8  24  1   
 16   9  11  1   
 17  10  25  1   
 18  10  26  1   
 19  10  27  1   
 20  11  12  2   
 21  11  13  2   
 22  11  14  am  
 23  14  15  1   
 24  14  16  1   
 25  15  17  1   
 26  15  28  1   
 27  15  29  1   
 28  16  18  1   
 29  16  30  1   
 30  16  31  1   
 31  17  19  1   
 32  17  32  1   
 33  17  33  1   
 34  18  19  1   
 35  18  34  1   
 36  18  35  1   
@<TRIPOS>SUBSTRUCTURE
  1 ****   9 GROUP 4 **** **** 0

# MOE 2024.06 (io_trps.svl 2023.06)
