@<TRIPOS>MOLECULE
NONAME
49 50 1 0 0 
SMALL
USER_CHARGES


@<TRIPOS>ATOM
  1 N        0.0900    -0.0640    -0.0120 N.ar  1 <1>  -0.6200 
  2 C        0.2120     1.2380    -0.0260 C.ar  1 <1>   0.7200 
  3 C        1.2160    -0.7270     0.0180 C.ar  1 <1>   0.7200 
  4 N        1.3500     1.8870    -0.0140 N.ar  1 <1>  -0.6200 
  5 N       -0.9510     1.9880    -0.0530 N.pl3 1 <1>  -0.8380 
  6 N        2.4050    -0.1830     0.0310 N.ar  1 <1>  -0.6200 
  7 N        1.1470    -2.1090     0.0380 N.pl3 1 <1>  -0.8380 
  8 C        2.3980     1.1190     0.0080 C.ar  1 <1>   0.7200 
  9 C       -0.9450     3.4600    -0.2610 C.3   1 <1>   0.2090 
 10 C       -2.2930     1.3680     0.1110 C.3   1 <1>   0.2090 
 11 C        2.3480    -2.9580     0.2610 C.3   1 <1>   0.2090 
 12 C       -0.1350    -2.8380    -0.1450 C.3   1 <1>   0.2090 
 13 N        3.5840     1.7970     0.0310 N.pl3 1 <1>  -0.6000 
 14 C       -0.9340     4.1610     1.0940 C.3   1 <1>  -0.2400 
 15 C       -2.8580     1.0150    -1.2610 C.3   1 <1>  -0.2400 
 16 C        2.9390    -3.3590    -1.0880 C.3   1 <1>  -0.2400 
 17 C       -0.7670    -3.0980     1.2200 C.3   1 <1>  -0.2400 
 18 C        4.9170     1.3750    -0.0340 C.ar  1 <1>   0.1000 
 19 C        5.8870     2.0930     0.6580 C.ar  1 <1>  -0.1500 
 20 C        5.3190     0.2750    -0.7850 C.ar  1 <1>  -0.1500 
 21 C        7.2180     1.7190     0.6090 C.ar  1 <1>  -0.1500 
 22 C        6.6490    -0.1030    -0.8360 C.ar  1 <1>  -0.1500 
 23 C        7.6020     0.6180    -0.1380 C.ar  1 <1>  -0.1500 
 24 H       -1.8190     3.7520    -0.8190 H     1 <1>   0.0800 
 25 H       -0.0820     3.7540    -0.8350 H     1 <1>   0.0800 
 26 H       -2.9510     2.0540     0.6150 H     1 <1>   0.0800 
 27 H       -2.2230     0.4810     0.7190 H     1 <1>   0.0800 
 28 H        2.0740    -3.8360     0.8180 H     1 <1>   0.0800 
 29 H        3.0840    -2.4240     0.8390 H     1 <1>   0.0800 
 30 H        0.0460    -3.7710    -0.6500 H     1 <1>   0.0800 
 31 H       -0.8080    -2.2630    -0.7580 H     1 <1>   0.0800 
 32 H        3.4230     2.7880     0.1760 H     1 <1>   0.4000 
 33 H       -1.8100     3.9030     1.6590 H     1 <1>   0.0800 
 34 H       -0.9170     5.2250     0.9510 H     1 <1>   0.0800 
 35 H       -0.0570     3.8740     1.6460 H     1 <1>   0.0800 
 36 H       -2.9630     1.8980    -1.8650 H     1 <1>   0.0800 
 37 H       -3.8240     0.5580    -1.1480 H     1 <1>   0.0800 
 38 H       -2.2050     0.3200    -1.7570 H     1 <1>   0.0800 
 39 H        2.2290    -3.9300    -1.6560 H     1 <1>   0.0800 
 40 H        3.8190    -3.9540    -0.9340 H     1 <1>   0.0800 
 41 H        3.2130    -2.4790    -1.6410 H     1 <1>   0.0800 
 42 H       -0.1170    -3.6980     1.8290 H     1 <1>   0.0800 
 43 H       -1.6990    -3.6170     1.0940 H     1 <1>   0.0800 
 44 H       -0.9590    -2.1640     1.7160 H     1 <1>   0.0800 
 45 H        5.5970     2.9460     1.2420 H     1 <1>   0.1500 
 46 H        4.5880    -0.2860    -1.3360 H     1 <1>   0.1500 
 47 H        7.9560     2.2820     1.1520 H     1 <1>   0.1500 
 48 H        6.9400    -0.9590    -1.4200 H     1 <1>   0.1500 
 49 H        8.6360     0.3250    -0.1760 H     1 <1>   0.1500 
@<TRIPOS>BOND
  1   1   2  ar  
  2   1   3  ar  
  3   2   4  ar  
  4   2   5  1   
  5   3   6  ar  
  6   3   7  1   
  7   4   8  ar  
  8   5   9  1   
  9   5  10  1   
 10   6   8  ar  
 11   7  11  1   
 12   7  12  1   
 13   8  13  1   
 14   9  14  1   
 15   9  24  1   
 16   9  25  1   
 17  10  15  1   
 18  10  26  1   
 19  10  27  1   
 20  11  16  1   
 21  11  28  1   
 22  11  29  1   
 23  12  17  1   
 24  12  30  1   
 25  12  31  1   
 26  13  18  1   
 27  13  32  1   
 28  14  33  1   
 29  14  34  1   
 30  14  35  1   
 31  15  36  1   
 32  15  37  1   
 33  15  38  1   
 34  16  39  1   
 35  16  40  1   
 36  16  41  1   
 37  17  42  1   
 38  17  43  1   
 39  17  44  1   
 40  18  19  ar  
 41  18  20  ar  
 42  19  21  ar  
 43  19  45  1   
 44  20  22  ar  
 45  20  46  1   
 46  21  23  ar  
 47  21  47  1   
 48  22  23  ar  
 49  22  48  1   
 50  23  49  1   
@<TRIPOS>SUBSTRUCTURE
  1 ****   6 GROUP 4 **** **** 0

# MOE 2024.06 (io_trps.svl 2023.06)
