@<TRIPOS>MOLECULE
NONAME
27 27 1 0 0 
SMALL
USER_CHARGES


@<TRIPOS>ATOM
  1 CL      -0.3040     1.1500     2.6900 Cl    1 <1>  -0.1770 
  2 C       -0.8350     2.0040     1.2580 C.ar  1 <1>   0.1770 
  3 C        0.0910     2.6010     0.4110 C.ar  1 <1>   0.0830 
  4 C       -2.1910     2.0660     1.0030 C.ar  1 <1>  -0.1500 
  5 O        1.4110     2.5050     0.7210 O.3   1 <1>  -0.3630 
  6 C       -0.3820     3.2700    -0.7140 C.ar  1 <1>  -0.1500 
  7 C       -2.6720     2.7350    -0.1160 C.ar  1 <1>  -0.0090 
  8 C        2.4120     3.0640    -0.1000 C.3   1 <1>   0.0400 
  9 C       -1.7440     3.3300    -0.9660 C.ar  1 <1>  -0.1500 
 10 S       -4.4530     2.8200    -0.4530 S.o2  1 <1>   1.4470 
 11 O       -4.7230     3.8560    -1.4270 O.2   1 <1>  -0.6500 
 12 O       -4.9510     1.4820    -0.6800 O.2   1 <1>  -0.6500 
 13 N       -5.1000     3.3550     1.0260 N.am  1 <1>  -0.8490 
 14 C       -6.5400     3.1030     1.1170 C.3   1 <1>   0.1160 
 15 C       -4.8200     4.7680     1.3000 C.3   1 <1>   0.1160 
 16 H       -2.8790     1.5900     1.6800 H     1 <1>   0.1500 
 17 H        0.2900     3.7470    -1.4040 H     1 <1>   0.1500 
 18 H        3.3660     2.8500     0.3460 H     1 <1>   0.0800 
 19 H        2.2660     4.1280    -0.1560 H     1 <1>   0.0800 
 20 H        2.3560     2.6130    -1.0750 H     1 <1>   0.0800 
 21 H       -2.0950     3.8500    -1.8420 H     1 <1>   0.1500 
 22 H       -6.7370     2.0470     1.0200 H     1 <1>   0.0800 
 23 H       -7.0630     3.6250     0.3320 H     1 <1>   0.0800 
 24 H       -6.9160     3.4270     2.0720 H     1 <1>   0.0800 
 25 H       -3.7580     4.9470     1.2740 H     1 <1>   0.0800 
 26 H       -5.1830     5.0330     2.2780 H     1 <1>   0.0800 
 27 H       -5.2970     5.3980     0.5660 H     1 <1>   0.0800 
@<TRIPOS>BOND
  1   1   2  1   
  2   2   3  ar  
  3   2   4  ar  
  4   3   5  1   
  5   3   6  ar  
  6   4   7  ar  
  7   4  16  1   
  8   5   8  1   
  9   6   9  ar  
 10   6  17  1   
 11   7   9  ar  
 12   7  10  1   
 13   8  18  1   
 14   8  19  1   
 15   8  20  1   
 16   9  21  1   
 17  10  11  2   
 18  10  12  2   
 19  10  13  am  
 20  13  14  1   
 21  13  15  1   
 22  14  22  1   
 23  14  23  1   
 24  14  24  1   
 25  15  25  1   
 26  15  26  1   
 27  15  27  1   
@<TRIPOS>SUBSTRUCTURE
  1 ****   7 GROUP 4 **** **** 0

# MOE 2024.06 (io_trps.svl 2023.06)
