@<TRIPOS>MOLECULE
NONAME
42 44 1 0 0 
SMALL
USER_CHARGES


@<TRIPOS>ATOM
  1 O       -0.7080     0.8240    -1.3460 O.2   1 <1>  -0.5700 
  2 C       -1.6570     1.2200    -0.7150 C.2   1 <1>   0.5690 
  3 N       -2.9690     0.9730    -1.0800 N.am  1 <1>  -0.4690 
  4 C       -1.3860     2.0040     0.5500 C.3   1 <1>  -0.0990 
  5 C       -4.0420     1.4920    -0.3500 C.2   1 <1>  -0.0290 
  6 C       -3.2060     0.1580    -2.3120 C.3   1 <1>   0.0600 
  7 C       -2.4860     3.0240     0.8710 C.3   1 <1>   0.2020 
  8 C       -3.8780     2.4630     0.5870 C.2   1 <1>  -0.1240 
  9 C       -5.4440     0.9400    -0.6400 C.3   1 <1>  -0.0220 
 10 C       -2.2970     4.3550     0.1350 C.ar  1 <1>  -0.1440 
 11 C       -4.9480     3.0360     1.3420 C.2   1 <1>   0.4950 
 12 C       -6.4520     1.1770     0.5060 C.3   1 <1>   0.0000 
 13 C       -2.1070     4.4250    -1.2400 C.ar  1 <1>  -0.1500 
 14 C       -2.3270     5.5370     0.8630 C.ar  1 <1>  -0.1500 
 15 O       -4.8040     3.8100     2.2580 O.2   1 <1>  -0.5700 
 16 C       -6.3660     2.6400     0.9800 C.3   1 <1>  -0.0990 
 17 C       -6.1500     0.2250     1.6800 C.3   1 <1>  -0.2400 
 18 C       -7.8770     0.8860     0.0090 C.3   1 <1>  -0.2400 
 19 C       -1.9370     5.6460    -1.8680 C.ar  1 <1>  -0.1500 
 20 C       -2.1580     6.7600     0.2370 C.ar  1 <1>  -0.1500 
 21 C       -1.9600     6.8160    -1.1300 C.ar  1 <1>  -0.1500 
 22 H       -0.4380     2.5020     0.4700 H     1 <1>   0.0800 
 23 H       -1.3220     1.2950     1.3530 H     1 <1>   0.0800 
 24 H       -2.3360     0.1560    -2.9470 H     1 <1>   0.0800 
 25 H       -4.0220     0.5670    -2.8790 H     1 <1>   0.0800 
 26 H       -3.4300    -0.8570    -2.0350 H     1 <1>   0.0800 
 27 H       -2.4020     3.2140     1.9270 H     1 <1>   0.0800 
 28 H       -5.3930    -0.1180    -0.8240 H     1 <1>   0.0800 
 29 H       -5.8040     1.4130    -1.5370 H     1 <1>   0.0800 
 30 H       -2.0920     3.5360    -1.8430 H     1 <1>   0.1500 
 31 H       -2.4930     5.5150     1.9270 H     1 <1>   0.1500 
 32 H       -6.7000     3.3020     0.2020 H     1 <1>   0.0800 
 33 H       -7.0010     2.7910     1.8340 H     1 <1>   0.0800 
 34 H       -5.1500     0.3620     2.0510 H     1 <1>   0.0800 
 35 H       -6.2500    -0.8010     1.3700 H     1 <1>   0.0800 
 36 H       -6.8350     0.3970     2.4920 H     1 <1>   0.0800 
 37 H       -8.1380     1.5370    -0.8070 H     1 <1>   0.0800 
 38 H       -8.5910     1.0380     0.8000 H     1 <1>   0.0800 
 39 H       -7.9610    -0.1310    -0.3300 H     1 <1>   0.0800 
 40 H       -1.7870     5.6850    -2.9330 H     1 <1>   0.1500 
 41 H       -2.1850     7.6660     0.8150 H     1 <1>   0.1500 
 42 H       -1.8270     7.7650    -1.6180 H     1 <1>   0.1500 
@<TRIPOS>BOND
  1   1   2  2   
  2   2   3  am  
  3   2   4  1   
  4   3   5  1   
  5   3   6  1   
  6   4   7  1   
  7   4  22  1   
  8   4  23  1   
  9   5   8  2   
 10   5   9  1   
 11   6  24  1   
 12   6  25  1   
 13   6  26  1   
 14   7   8  1   
 15   7  10  1   
 16   7  27  1   
 17   8  11  1   
 18   9  12  1   
 19   9  28  1   
 20   9  29  1   
 21  10  13  ar  
 22  10  14  ar  
 23  11  15  2   
 24  11  16  1   
 25  12  16  1   
 26  12  17  1   
 27  12  18  1   
 28  13  19  ar  
 29  13  30  1   
 30  14  20  ar  
 31  14  31  1   
 32  16  32  1   
 33  16  33  1   
 34  17  34  1   
 35  17  35  1   
 36  17  36  1   
 37  18  37  1   
 38  18  38  1   
 39  18  39  1   
 40  19  21  ar  
 41  19  40  1   
 42  20  21  ar  
 43  20  41  1   
 44  21  42  1   
@<TRIPOS>SUBSTRUCTURE
  1 ****   8 GROUP 4 **** **** 0

# MOE 2024.06 (io_trps.svl 2023.06)
