@<TRIPOS>MOLECULE
NONAME
31 32 1 0 0 
SMALL
USER_CHARGES


@<TRIPOS>ATOM
  1 O        0.0220     0.1840    -0.0660 O.3   1 <1>  -0.2800 
  2 C        0.7770     1.2290     0.1400 C.2   1 <1>   0.4250 
  3 C       -1.1870     0.6160     0.0660 C.2   1 <1>   0.2980 
  4 N        0.0420     2.2660     0.3850 N.2   1 <1>  -0.3380 
  5 C        2.2230     1.1750     0.0630 C.ar  1 <1>   0.0530 
  6 N       -1.2240     1.8630     0.3380 N.2   1 <1>  -0.3380 
  7 C       -2.3460    -0.3520    -0.1070 C.3   1 <1>   0.0200 
  8 C        2.9700    -0.0170     0.1710 C.ar  1 <1>   0.1000 
  9 C        2.9320     2.3640    -0.1300 C.ar  1 <1>  -0.1500 
 10 C       -3.7230     0.3110     0.0630 C.3   1 <1>  -0.1600 
 11 N        2.3880    -1.2570     0.3780 N.pl3 1 <1>  -0.9000 
 12 C        4.3570     0.0260     0.0790 C.ar  1 <1>  -0.1500 
 13 C        4.3090     2.3930    -0.2210 C.ar  1 <1>  -0.1500 
 14 C       -4.8650    -0.6970    -0.1220 C.3   1 <1>  -0.1600 
 15 C        5.0270     1.2160    -0.1170 C.ar  1 <1>  -0.1500 
 16 C       -6.2270    -0.0190     0.0510 C.3   1 <1>  -0.2400 
 17 H       -2.2380    -1.1400     0.6160 H     1 <1>   0.0800 
 18 H       -2.2780    -0.7860    -1.0880 H     1 <1>   0.0800 
 19 H        2.3900     3.2910    -0.2110 H     1 <1>   0.1500 
 20 H       -3.8240     1.1050    -0.6590 H     1 <1>   0.0800 
 21 H       -3.7850     0.7490     1.0450 H     1 <1>   0.0800 
 22 H        2.9100    -2.0940     0.1020 H     1 <1>   0.4000 
 23 H        1.3780    -1.3360     0.2140 H     1 <1>   0.4000 
 24 H        4.9170    -0.8860     0.1680 H     1 <1>   0.1500 
 25 H        4.8240     3.3260    -0.3710 H     1 <1>   0.1500 
 26 H       -4.7720    -1.4890     0.6020 H     1 <1>   0.0800 
 27 H       -4.8110    -1.1330    -1.1050 H     1 <1>   0.0800 
 28 H        6.1010     1.2300    -0.1860 H     1 <1>   0.1500 
 29 H       -6.3140     0.4070     1.0350 H     1 <1>   0.0800 
 30 H       -7.0160    -0.7380    -0.0810 H     1 <1>   0.0800 
 31 H       -6.3530     0.7630    -0.6770 H     1 <1>   0.0800 
@<TRIPOS>BOND
  1   1   2  1   
  2   1   3  1   
  3   2   4  2   
  4   2   5  1   
  5   3   6  2   
  6   3   7  1   
  7   4   6  1   
  8   5   8  ar  
  9   5   9  ar  
 10   7  10  1   
 11   7  17  1   
 12   7  18  1   
 13   8  11  1   
 14   8  12  ar  
 15   9  13  ar  
 16   9  19  1   
 17  10  14  1   
 18  10  20  1   
 19  10  21  1   
 20  11  22  1   
 21  11  23  1   
 22  12  15  ar  
 23  12  24  1   
 24  13  15  ar  
 25  13  25  1   
 26  14  16  1   
 27  14  26  1   
 28  14  27  1   
 29  15  28  1   
 30  16  29  1   
 31  16  30  1   
 32  16  31  1   
@<TRIPOS>SUBSTRUCTURE
  1 ****   1 GROUP 4 **** **** 0

# MOE 2024.06 (io_trps.svl 2023.06)
