@<TRIPOS>MOLECULE
NONAME
38 38 1 0 0 
SMALL
USER_CHARGES


@<TRIPOS>ATOM
  1 O        0.3600    -0.2690     0.1000 O.3   1 <1>  -0.3630 
  2 C       -0.8690    -0.8440     0.1420 C.ar  1 <1>   0.0830 
  3 C        1.5350    -1.0310     0.2160 C.3   1 <1>   0.1200 
  4 C       -1.0860    -2.2000     0.3740 C.ar  1 <1>  -0.1500 
  5 C       -1.9490     0.0000    -0.0650 C.ar  1 <1>  -0.1500 
  6 C        2.7130    -0.0610     0.0790 C.3   1 <1>   0.3430 
  7 C       -2.3850    -2.6990     0.3940 C.ar  1 <1>   0.0830 
  8 C       -3.2400    -0.4960    -0.0460 C.ar  1 <1>  -0.1500 
  9 N        4.0540    -0.7250     0.2240 N.4   1 <1>  -0.9590 
 10 O       -2.6930    -4.0030     0.6130 O.3   1 <1>  -0.3630 
 11 C       -3.4540    -1.8430     0.1830 C.ar  1 <1>  -0.1500 
 12 C        5.1120     0.3170     0.3310 C.3   1 <1>   0.3430 
 13 C        4.3360    -1.6770    -0.8870 C.3   1 <1>   0.3430 
 14 C       -1.7020    -4.9690     0.8800 C.3   1 <1>   0.0400 
 15 C        6.3770    -0.2960     0.9190 C.3   1 <1>  -0.2400 
 16 C        4.2920    -3.0940    -0.3310 C.3   1 <1>  -0.2400 
 17 H        1.5330    -1.7600    -0.5740 H     1 <1>   0.0800 
 18 H        1.5330    -1.5020     1.1830 H     1 <1>   0.0800 
 19 H       -0.2640    -2.8630     0.5390 H     1 <1>   0.1500 
 20 H       -1.7780     1.0460    -0.2420 H     1 <1>   0.1500 
 21 H        2.6080     0.6930     0.8420 H     1 <1>   0.0800 
 22 H        2.6530     0.4230    -0.8820 H     1 <1>   0.0800 
 23 H       -4.0750     0.1630    -0.2080 H     1 <1>   0.1500 
 24 H        4.0680    -1.2540     1.1060 H     1 <1>   0.4500 
 25 H       -4.4530    -2.2390     0.2000 H     1 <1>   0.1500 
 26 H        4.7770     1.1100     0.9820 H     1 <1>   0.0800 
 27 H        5.3190     0.7430    -0.6390 H     1 <1>   0.0800 
 28 H        5.3130    -1.4900    -1.3040 H     1 <1>   0.0800 
 29 H        3.6090    -1.5640    -1.6770 H     1 <1>   0.0800 
 30 H       -2.1920    -5.9140     1.0330 H     1 <1>   0.0800 
 31 H       -1.1700    -4.6860     1.7710 H     1 <1>   0.0800 
 32 H       -1.0410    -5.0350     0.0340 H     1 <1>   0.0800 
 33 H        7.1170     0.4760     1.0400 H     1 <1>   0.0800 
 34 H        6.1830    -0.7200     1.8880 H     1 <1>   0.0800 
 35 H        6.7930    -1.0470     0.2720 H     1 <1>   0.0800 
 36 H        4.4970    -3.7900    -1.1260 H     1 <1>   0.0800 
 37 H        5.0450    -3.2300     0.4260 H     1 <1>   0.0800 
 38 H        3.3250    -3.3290     0.0720 H     1 <1>   0.0800 
@<TRIPOS>BOND
  1   1   2  1   
  2   1   3  1   
  3   2   4  ar  
  4   2   5  ar  
  5   3   6  1   
  6   3  17  1   
  7   3  18  1   
  8   4   7  ar  
  9   4  19  1   
 10   5   8  ar  
 11   5  20  1   
 12   6   9  1   
 13   6  21  1   
 14   6  22  1   
 15   7  10  1   
 16   7  11  ar  
 17   8  11  ar  
 18   8  23  1   
 19   9  12  1   
 20   9  13  1   
 21   9  24  1   
 22  10  14  1   
 23  11  25  1   
 24  12  15  1   
 25  12  26  1   
 26  12  27  1   
 27  13  16  1   
 28  13  28  1   
 29  13  29  1   
 30  14  30  1   
 31  14  31  1   
 32  14  32  1   
 33  15  33  1   
 34  15  34  1   
 35  15  35  1   
 36  16  36  1   
 37  16  37  1   
 38  16  38  1   
@<TRIPOS>SUBSTRUCTURE
  1 ****   3 GROUP 4 **** **** 0

# MOE 2024.06 (io_trps.svl 2023.06)
