@<TRIPOS>MOLECULE
NONAME
32 32 1 0 0 
SMALL
USER_CHARGES


@<TRIPOS>ATOM
  1 BR       0.3380     0.8620     1.7690 Br    1 <1>  -0.1110 
  2 C        1.8410     1.5120     0.7480 C.ar  1 <1>   0.1110 
  3 C        1.8870     2.8410     0.3530 C.ar  1 <1>   0.0820 
  4 C        2.8390     0.6060     0.4380 C.ar  1 <1>  -0.1500 
  5 O        0.8570     3.6640     0.6720 O.3   1 <1>  -0.3630 
  6 C        3.0050     3.2750    -0.3710 C.ar  1 <1>   0.0820 
  7 C        3.9340     1.0370    -0.2960 C.ar  1 <1>  -0.1440 
  8 C       -0.1550     3.7750    -0.3010 C.3   1 <1>   0.1200 
  9 O        3.2150     4.5480    -0.7980 O.3   1 <1>  -0.3630 
 10 C        4.0010     2.3660    -0.6980 C.ar  1 <1>  -0.1500 
 11 C        5.0520     0.0810    -0.6490 C.3   1 <1>   0.4860 
 12 C       -1.2200     4.7280     0.2310 C.3   1 <1>  -0.2400 
 13 C        2.8250     5.6440     0.0050 C.3   1 <1>   0.0400 
 14 N        6.0870     0.2370     0.3970 N.4   1 <1>  -0.9060 
 15 C        7.2830    -0.6300     0.1870 C.3   1 <1>   0.2630 
 16 H        2.7360    -0.4130     0.7710 H     1 <1>   0.1500 
 17 H       -0.5700     2.7970    -0.4770 H     1 <1>   0.0800 
 18 H        0.2830     4.1530    -1.2090 H     1 <1>   0.0800 
 19 H        4.8330     2.7320    -1.2760 H     1 <1>   0.1500 
 20 H        5.4530     0.3270    -1.6190 H     1 <1>   0.0800 
 21 H        4.6810    -0.9310    -0.6690 H     1 <1>   0.0800 
 22 H       -1.6380     4.3400     1.1430 H     1 <1>   0.0800 
 23 H       -2.0100     4.8310    -0.4910 H     1 <1>   0.0800 
 24 H       -0.7940     5.6980     0.4140 H     1 <1>   0.0800 
 25 H        3.4090     6.4980    -0.2860 H     1 <1>   0.0800 
 26 H        3.0050     5.4100     1.0390 H     1 <1>   0.0800 
 27 H        1.7840     5.8480    -0.1610 H     1 <1>   0.0800 
 28 H        5.6470     0.0440     1.3070 H     1 <1>   0.4500 
 29 H        6.3530     1.2300     0.4260 H     1 <1>   0.4500 
 30 H        7.0000    -1.6700     0.1870 H     1 <1>   0.0800 
 31 H        8.0010    -0.4710     0.9770 H     1 <1>   0.0800 
 32 H        7.7550    -0.3990    -0.7550 H     1 <1>   0.0800 
@<TRIPOS>BOND
  1   1   2  1   
  2   2   3  ar  
  3   2   4  ar  
  4   3   5  1   
  5   3   6  ar  
  6   4   7  ar  
  7   4  16  1   
  8   5   8  1   
  9   6   9  1   
 10   6  10  ar  
 11   7  10  ar  
 12   7  11  1   
 13   8  12  1   
 14   8  17  1   
 15   8  18  1   
 16   9  13  1   
 17  10  19  1   
 18  11  14  1   
 19  11  20  1   
 20  11  21  1   
 21  12  22  1   
 22  12  23  1   
 23  12  24  1   
 24  13  25  1   
 25  13  26  1   
 26  13  27  1   
 27  14  15  1   
 28  14  28  1   
 29  14  29  1   
 30  15  30  1   
 31  15  31  1   
 32  15  32  1   
@<TRIPOS>SUBSTRUCTURE
  1 ****   3 GROUP 4 **** **** 0

# MOE 2024.06 (io_trps.svl 2023.06)
