@<TRIPOS>MOLECULE
NONAME
35 35 1 0 0 
SMALL
USER_CHARGES


@<TRIPOS>ATOM
  1 CL      -0.3590     0.2540     0.7660 Cl    1 <1>  -0.1770 
  2 C        1.2900     0.7800     0.5390 C.ar  1 <1>   0.1770 
  3 C        1.5430     2.0960     0.2030 C.ar  1 <1>  -0.1500 
  4 C        2.3180    -0.1290     0.6980 C.ar  1 <1>  -0.1500 
  5 C        2.8500     2.5210     0.0210 C.ar  1 <1>  -0.1440 
  6 C        3.6250     0.2870     0.5180 C.ar  1 <1>  -0.1500 
  7 C        3.8970     1.6140     0.1780 C.ar  1 <1>   0.0830 
  8 C        3.1190     3.9730    -0.3490 C.3   1 <1>  -0.0960 
  9 O        5.1600     2.0810    -0.0130 O.3   1 <1>  -0.3630 
 10 C        6.2870     1.2500     0.1100 C.3   1 <1>   0.1200 
 11 C        7.5170     2.1210    -0.1640 C.3   1 <1>   0.3430 
 12 N        8.8140     1.3740    -0.0210 N.4   1 <1>  -0.9590 
 13 C        9.9450     2.3640    -0.0370 C.3   1 <1>   0.3430 
 14 C        8.9790     0.3380    -1.0950 C.3   1 <1>   0.2630 
 15 C       11.2910     1.7500     0.3760 C.3   1 <1>   0.1200 
 16 O       12.2250     2.7690     0.3850 O.3   1 <1>  -0.6800 
 17 H        0.7150     2.7730     0.0880 H     1 <1>   0.1500 
 18 H        2.0890    -1.1470     0.9600 H     1 <1>   0.1500 
 19 H        4.4060    -0.4370     0.6480 H     1 <1>   0.1500 
 20 H        2.2020     4.5320    -0.4220 H     1 <1>   0.0800 
 21 H        3.6230     4.0220    -1.2970 H     1 <1>   0.0800 
 22 H        3.7380     4.4330     0.4000 H     1 <1>   0.0800 
 23 H        6.1950     0.4600    -0.6140 H     1 <1>   0.0800 
 24 H        6.3060     0.8610     1.1130 H     1 <1>   0.0800 
 25 H        7.5020     2.9420     0.5340 H     1 <1>   0.0800 
 26 H        7.4420     2.5260    -1.1600 H     1 <1>   0.0800 
 27 H        8.8170     0.9150     0.9020 H     1 <1>   0.4500 
 28 H        9.7270     3.1660     0.6490 H     1 <1>   0.0800 
 29 H       10.0450     2.7860    -1.0240 H     1 <1>   0.0800 
 30 H        8.9850     0.8050    -2.0670 H     1 <1>   0.0800 
 31 H        8.1700    -0.3740    -1.0620 H     1 <1>   0.0800 
 32 H        9.9050    -0.1970    -0.9660 H     1 <1>   0.0800 
 33 H       11.6210     1.0060    -0.3290 H     1 <1>   0.0800 
 34 H       11.2420     1.3370     1.3690 H     1 <1>   0.0800 
 35 H       13.1150     2.4500     0.6530 H     1 <1>   0.4000 
@<TRIPOS>BOND
  1   1   2  1   
  2   2   3  ar  
  3   2   4  ar  
  4   3   5  ar  
  5   3  17  1   
  6   4   6  ar  
  7   4  18  1   
  8   5   7  ar  
  9   5   8  1   
 10   6   7  ar  
 11   6  19  1   
 12   7   9  1   
 13   8  20  1   
 14   8  21  1   
 15   8  22  1   
 16   9  10  1   
 17  10  11  1   
 18  10  23  1   
 19  10  24  1   
 20  11  12  1   
 21  11  25  1   
 22  11  26  1   
 23  12  13  1   
 24  12  14  1   
 25  12  27  1   
 26  13  15  1   
 27  13  28  1   
 28  13  29  1   
 29  14  30  1   
 30  14  31  1   
 31  14  32  1   
 32  15  16  1   
 33  15  33  1   
 34  15  34  1   
 35  16  35  1   
@<TRIPOS>SUBSTRUCTURE
  1 ****   9 GROUP 4 **** **** 0

# MOE 2024.06 (io_trps.svl 2023.06)
