@<TRIPOS>MOLECULE
NONAME
45 46 1 0 0 
SMALL
USER_CHARGES


@<TRIPOS>ATOM
  1 O        0.4060    -2.5580     2.3550 O.co2 1 <1>  -0.9000 
  2 C       -0.5060    -3.2420     1.8900 C.2   1 <1>   0.9060 
  3 O       -0.7900    -4.3500     2.3660 O.co2 1 <1>  -0.9000 
  4 C       -1.2990    -2.7340     0.6920 C.3   1 <1>  -0.1860 
  5 C       -2.0190    -3.8470    -0.1260 C.3   1 <1>  -0.0190 
  6 C       -0.4350    -1.8530    -0.2340 C.3   1 <1>  -0.0220 
  7 C       -1.0620    -4.8540    -0.7950 C.2   1 <1>   0.5690 
  8 C       -2.9920    -3.1850    -1.1300 C.3   1 <1>  -0.0220 
  9 C       -1.2120    -1.4370    -1.4750 C.2   1 <1>  -0.2880 
 10 O       -1.0480    -4.9820    -1.9990 O.2   1 <1>  -0.5700 
 11 N       -0.2830    -5.6150     0.0260 N.am  1 <1>  -0.5470 
 12 C       -2.3500    -2.0170    -1.8660 C.2   1 <1>  -0.2880 
 13 C        0.7310    -6.5530    -0.2060 C.ar  1 <1>   0.1170 
 14 C        1.6250    -6.8070     0.8250 C.ar  1 <1>  -0.1500 
 15 C        0.8810    -7.2450    -1.4030 C.ar  1 <1>  -0.1500 
 16 C        2.6480    -7.7260     0.6740 C.ar  1 <1>  -0.1500 
 17 C        1.9020    -8.1660    -1.5610 C.ar  1 <1>  -0.1500 
 18 C        2.7920    -8.4140    -0.5280 C.ar  1 <1>   0.0830 
 19 O        3.7660    -9.3330    -0.7650 O.3   1 <1>  -0.3620 
 20 C        4.7350    -9.6230     0.2160 C.3   1 <1>   0.1200 
 21 C        5.6930   -10.6700    -0.3520 C.3   1 <1>  -0.1600 
 22 C        6.7820   -11.0370     0.6640 C.3   1 <1>  -0.1600 
 23 C        7.7390   -12.0850     0.0900 C.3   1 <1>  -0.2400 
 24 H       -2.0570    -2.1020     1.1130 H     1 <1>   0.0800 
 25 H       -2.6210    -4.4210     0.5560 H     1 <1>   0.0800 
 26 H        0.4530    -2.3860    -0.5280 H     1 <1>   0.0800 
 27 H       -0.1270    -0.9760     0.3100 H     1 <1>   0.0800 
 28 H       -3.8510    -2.8160    -0.5990 H     1 <1>   0.0800 
 29 H       -3.3390    -3.9170    -1.8380 H     1 <1>   0.0800 
 30 H       -0.7470    -0.6280    -2.0120 H     1 <1>   0.1500 
 31 H       -0.3860    -5.3460     1.0250 H     1 <1>   0.3700 
 32 H       -2.8990    -1.7070    -2.7380 H     1 <1>   0.1500 
 33 H        1.5120    -6.2680     1.7520 H     1 <1>   0.1500 
 34 H        0.1980    -7.0640    -2.2120 H     1 <1>   0.1500 
 35 H        3.3140    -7.8850     1.4990 H     1 <1>   0.1500 
 36 H        2.0140    -8.6960    -2.4880 H     1 <1>   0.1500 
 37 H        4.2310   -10.0020     1.0880 H     1 <1>   0.0800 
 38 H        5.2610    -8.7140     0.4520 H     1 <1>   0.0800 
 39 H        6.1520   -10.2770    -1.2430 H     1 <1>   0.0800 
 40 H        5.1330   -11.5520    -0.6130 H     1 <1>   0.0800 
 41 H        6.3260   -11.4270     1.5590 H     1 <1>   0.0800 
 42 H        7.3420   -10.1560     0.9300 H     1 <1>   0.0800 
 43 H        7.2040   -12.9840    -0.1640 H     1 <1>   0.0800 
 44 H        8.4950   -12.3310     0.8150 H     1 <1>   0.0800 
 45 H        8.2230   -11.7090    -0.7940 H     1 <1>   0.0800 
@<TRIPOS>BOND
  1   1   2  ar  
  2   2   3  ar  
  3   2   4  1   
  4   4   5  1   
  5   4   6  1   
  6   4  24  1   
  7   5   7  1   
  8   5   8  1   
  9   5  25  1   
 10   6   9  1   
 11   6  26  1   
 12   6  27  1   
 13   7  10  2   
 14   7  11  am  
 15   8  12  1   
 16   8  28  1   
 17   8  29  1   
 18   9  12  2   
 19   9  30  1   
 20  11  13  1   
 21  11  31  1   
 22  12  32  1   
 23  13  14  ar  
 24  13  15  ar  
 25  14  16  ar  
 26  14  33  1   
 27  15  17  ar  
 28  15  34  1   
 29  16  18  ar  
 30  16  35  1   
 31  17  18  ar  
 32  17  36  1   
 33  18  19  1   
 34  19  20  1   
 35  20  21  1   
 36  20  37  1   
 37  20  38  1   
 38  21  22  1   
 39  21  39  1   
 40  21  40  1   
 41  22  23  1   
 42  22  41  1   
 43  22  42  1   
 44  23  43  1   
 45  23  44  1   
 46  23  45  1   
@<TRIPOS>SUBSTRUCTURE
  1 ****  13 GROUP 4 **** **** 0

# MOE 2024.06 (io_trps.svl 2023.06)
