@<TRIPOS>MOLECULE
NONAME
57 60 1 0 0 
SMALL
USER_CHARGES


@<TRIPOS>ATOM
  1 O        5.3000     3.1240    -0.6420 O.co2 1 <1>  -0.9000 
  2 C        5.4010     2.8070     0.5450 C.2   1 <1>   0.9060 
  3 O        6.4360     3.0850     1.1660 O.co2 1 <1>  -0.9000 
  4 C        4.3420     1.9720     1.2650 C.3   1 <1>  -0.1860 
  5 C        3.8790     0.6520     0.5500 C.3   1 <1>  -0.0190 
  6 C        3.1150     2.8240     1.6830 C.3   1 <1>  -0.0800 
  7 C        4.6650     0.2400    -0.7130 C.2   1 <1>   0.5690 
  8 C        2.3380     0.7010     0.3470 C.3   1 <1>  -0.0800 
  9 C        2.3210     3.2390     0.4290 C.3   1 <1>  -0.1600 
 10 C        2.1880     1.9490     2.5520 C.3   1 <1>  -0.1600 
 11 O        4.0750     0.0700    -1.7570 O.2   1 <1>  -0.5700 
 12 N        6.0180     0.0010    -0.6700 N.am  1 <1>  -0.6600 
 13 C        1.9500     1.9950    -0.4040 C.3   1 <1>  -0.1600 
 14 C        1.6650     0.7440     1.7360 C.3   1 <1>  -0.1600 
 15 C        6.8470     0.4970    -1.8000 C.3   1 <1>   0.1400 
 16 C        6.8020    -0.4780     0.5020 C.3   1 <1>   0.1400 
 17 C        7.8200     1.5840    -1.3140 C.3   1 <1>   0.3430 
 18 C        7.8830     0.5250     0.9500 C.3   1 <1>   0.3430 
 19 N        8.6960     1.1450    -0.1620 N.4   1 <1>  -0.9590 
 20 C        9.3550     2.3540     0.4220 C.3   1 <1>   0.3430 
 21 C       10.3250     3.0330    -0.5480 C.3   1 <1>  -0.0170 
 22 C       11.1040     4.1040     0.1930 C.ar  1 <1>  -0.1440 
 23 C       10.4410     5.2160     0.6910 C.ar  1 <1>  -0.1500 
 24 C       12.4730     3.9850     0.3850 C.ar  1 <1>  -0.1500 
 25 C       11.1370     6.1950     1.3770 C.ar  1 <1>  -0.1500 
 26 C       13.1690     4.9660     1.0710 C.ar  1 <1>  -0.1500 
 27 C       12.5020     6.0710     1.5680 C.ar  1 <1>  -0.1500 
 28 H        4.8200     1.6690     2.1770 H     1 <1>   0.0800 
 29 H        4.0400    -0.1510     1.2420 H     1 <1>   0.0800 
 30 H        3.4350     3.6950     2.2300 H     1 <1>   0.0800 
 31 H        1.9990    -0.1630    -0.2000 H     1 <1>   0.0800 
 32 H        2.9030     3.9160    -0.1730 H     1 <1>   0.0800 
 33 H        1.4270     3.7600     0.7240 H     1 <1>   0.0800 
 34 H        1.3580     2.5370     2.9010 H     1 <1>   0.0800 
 35 H        2.7270     1.6000     3.4150 H     1 <1>   0.0800 
 36 H        0.8950     1.9980    -0.6120 H     1 <1>   0.0800 
 37 H        2.4670     2.0370    -1.3470 H     1 <1>   0.0800 
 38 H        1.8570    -0.1700     2.2700 H     1 <1>   0.0800 
 39 H        0.5990     0.8300     1.6110 H     1 <1>   0.0800 
 40 H        6.2130     0.9300    -2.5560 H     1 <1>   0.0800 
 41 H        7.3840    -0.3210    -2.2430 H     1 <1>   0.0800 
 42 H        7.2750    -1.4060     0.2360 H     1 <1>   0.0800 
 43 H        6.1490    -0.6800     1.3310 H     1 <1>   0.0800 
 44 H        7.2560     2.4490    -1.0180 H     1 <1>   0.0800 
 45 H        8.4340     1.8870    -2.1440 H     1 <1>   0.0800 
 46 H        8.5460     0.0290     1.6380 H     1 <1>   0.0800 
 47 H        7.3960     1.2950     1.5150 H     1 <1>   0.0800 
 48 H        9.3880     0.4710    -0.4990 H     1 <1>   0.4500 
 49 H        9.9010     2.0730     1.3080 H     1 <1>   0.0800 
 50 H        8.6030     3.0690     0.7200 H     1 <1>   0.0800 
 51 H        9.7830     3.5030    -1.3490 H     1 <1>   0.0800 
 52 H       11.0040     2.3090    -0.9590 H     1 <1>   0.0800 
 53 H        9.3770     5.3300     0.5520 H     1 <1>   0.1500 
 54 H       13.0110     3.1350     0.0040 H     1 <1>   0.1500 
 55 H       10.6150     7.0540     1.7620 H     1 <1>   0.1500 
 56 H       14.2310     4.8710     1.2180 H     1 <1>   0.1500 
 57 H       13.0430     6.8330     2.1010 H     1 <1>   0.1500 
@<TRIPOS>BOND
  1   1   2  ar  
  2   2   3  ar  
  3   2   4  1   
  4   4   5  1   
  5   4   6  1   
  6   4  28  1   
  7   5   7  1   
  8   5   8  1   
  9   5  29  1   
 10   6   9  1   
 11   6  10  1   
 12   6  30  1   
 13   7  11  2   
 14   7  12  am  
 15   8  13  1   
 16   8  14  1   
 17   8  31  1   
 18   9  13  1   
 19   9  32  1   
 20   9  33  1   
 21  10  14  1   
 22  10  34  1   
 23  10  35  1   
 24  12  15  1   
 25  12  16  1   
 26  13  36  1   
 27  13  37  1   
 28  14  38  1   
 29  14  39  1   
 30  15  17  1   
 31  15  40  1   
 32  15  41  1   
 33  16  18  1   
 34  16  42  1   
 35  16  43  1   
 36  17  19  1   
 37  17  44  1   
 38  17  45  1   
 39  18  19  1   
 40  18  46  1   
 41  18  47  1   
 42  19  20  1   
 43  19  48  1   
 44  20  21  1   
 45  20  49  1   
 46  20  50  1   
 47  21  22  1   
 48  21  51  1   
 49  21  52  1   
 50  22  23  ar  
 51  22  24  ar  
 52  23  25  ar  
 53  23  53  1   
 54  24  26  ar  
 55  24  54  1   
 56  25  27  ar  
 57  25  55  1   
 58  26  27  ar  
 59  26  56  1   
 60  27  57  1   
@<TRIPOS>SUBSTRUCTURE
  1 ****   3 GROUP 4 **** **** 0

# MOE 2024.06 (io_trps.svl 2023.06)
