@<TRIPOS>MOLECULE
NONAME
49 50 1 0 0 
SMALL
USER_CHARGES


@<TRIPOS>ATOM
  1 S        0.1130    -0.3100    -0.0750 S.o2  1 <1>   1.4470 
  2 O        0.8150     0.0090     1.1480 O.2   1 <1>  -0.6500 
  3 O        0.6730    -1.2880    -0.9780 O.2   1 <1>  -0.6500 
  4 N        0.0770     1.1730    -0.9680 N.am  1 <1>  -0.6930 
  5 C       -1.6330    -0.6890     0.2360 C.ar  1 <1>  -0.0090 
  6 C       -0.8980     2.1460    -0.7680 C.ar  1 <1>   0.1990 
  7 C        1.0870     1.3530    -2.0590 C.3   1 <1>   0.2570 
  8 C       -2.3310    -0.0590     1.2620 C.ar  1 <1>  -0.1500 
  9 C       -2.3270    -1.5960    -0.5580 C.ar  1 <1>  -0.1500 
 10 C       -0.7090     3.2380     0.0830 C.ar  1 <1>  -0.1430 
 11 C       -2.1060     2.0210    -1.4440 C.ar  1 <1>  -0.1500 
 12 C        2.5380     1.5860    -1.6120 C.2   1 <1>   0.5690 
 13 C       -3.6700    -0.3240     1.4890 C.ar  1 <1>  -0.1500 
 14 C       -3.6660    -1.8680    -0.3370 C.ar  1 <1>  -0.1500 
 15 C       -1.7290     4.1620     0.2480 C.ar  1 <1>  -0.1500 
 16 C        0.5970     3.4540     0.8370 C.3   1 <1>  -0.0960 
 17 C       -3.1190     2.9450    -1.2740 C.ar  1 <1>  -0.1500 
 18 O        3.3050     2.0130    -2.4430 O.2   1 <1>  -0.5700 
 19 N        2.9300     1.3240    -0.3300 N.am  1 <1>  -0.7300 
 20 C       -4.3390    -1.2310     0.6880 C.ar  1 <1>  -0.1500 
 21 C       -2.9300     4.0180    -0.4240 C.ar  1 <1>  -0.1500 
 22 C        4.2760     1.4220     0.2640 C.3   1 <1>   0.2200 
 23 C        4.7690     2.8770     0.2150 C.3   1 <1>  -0.1600 
 24 C        5.2090     0.4320    -0.4350 C.3   1 <1>  -0.2400 
 25 C        6.0390     3.1110     1.0460 C.3   1 <1>  -0.2400 
 26 H        0.7980     2.1970    -2.6580 H     1 <1>   0.0800 
 27 H        1.0730     0.4910    -2.7010 H     1 <1>   0.0800 
 28 H       -1.8200     0.6530     1.8880 H     1 <1>   0.1500 
 29 H       -1.8120    -2.1000    -1.3600 H     1 <1>   0.1500 
 30 H       -2.2560     1.1880    -2.1060 H     1 <1>   0.1500 
 31 H       -4.1910     0.1770     2.2880 H     1 <1>   0.1500 
 32 H       -4.1830    -2.5760    -0.9620 H     1 <1>   0.1500 
 33 H       -1.5970     5.0070     0.9020 H     1 <1>   0.1500 
 34 H        0.8390     2.5890     1.4260 H     1 <1>   0.0800 
 35 H        0.5290     4.2970     1.4990 H     1 <1>   0.0800 
 36 H        1.3940     3.6400     0.1400 H     1 <1>   0.0800 
 37 H       -4.0510     2.8300    -1.8000 H     1 <1>   0.1500 
 38 H        2.2270     0.9620     0.3290 H     1 <1>   0.3700 
 39 H       -5.3810    -1.4400     0.8630 H     1 <1>   0.1500 
 40 H       -3.7160     4.7420    -0.2860 H     1 <1>   0.1500 
 41 H        4.1910     1.1300     1.2980 H     1 <1>   0.0800 
 42 H        3.9940     3.5170     0.5960 H     1 <1>   0.0800 
 43 H        4.9630     3.1590    -0.8050 H     1 <1>   0.0800 
 44 H        5.3880     0.7340    -1.4510 H     1 <1>   0.0800 
 45 H        4.7730    -0.5500    -0.4290 H     1 <1>   0.0800 
 46 H        6.1510     0.3840     0.0770 H     1 <1>   0.0800 
 47 H        5.8820     2.8140     2.0680 H     1 <1>   0.0800 
 48 H        6.2960     4.1560     1.0290 H     1 <1>   0.0800 
 49 H        6.8670     2.5560     0.6440 H     1 <1>   0.0800 
@<TRIPOS>BOND
  1   1   2  2   
  2   1   3  2   
  3   1   4  am  
  4   1   5  1   
  5   4   6  1   
  6   4   7  1   
  7   5   8  ar  
  8   5   9  ar  
  9   6  10  ar  
 10   6  11  ar  
 11   7  12  1   
 12   7  26  1   
 13   7  27  1   
 14   8  13  ar  
 15   8  28  1   
 16   9  14  ar  
 17   9  29  1   
 18  10  15  ar  
 19  10  16  1   
 20  11  17  ar  
 21  11  30  1   
 22  12  18  2   
 23  12  19  am  
 24  13  20  ar  
 25  13  31  1   
 26  14  20  ar  
 27  14  32  1   
 28  15  21  ar  
 29  15  33  1   
 30  16  34  1   
 31  16  35  1   
 32  16  36  1   
 33  17  21  ar  
 34  17  37  1   
 35  19  22  1   
 36  19  38  1   
 37  20  39  1   
 38  21  40  1   
 39  22  23  1   
 40  22  24  1   
 41  22  41  1   
 42  23  25  1   
 43  23  42  1   
 44  23  43  1   
 45  24  44  1   
 46  24  45  1   
 47  24  46  1   
 48  25  47  1   
 49  25  48  1   
 50  25  49  1   
@<TRIPOS>SUBSTRUCTURE
  1 ****   4 GROUP 4 **** **** 0

# MOE 2024.06 (io_trps.svl 2023.06)
