@<TRIPOS>MOLECULE
NONAME
36 37 1 0 0 
SMALL
USER_CHARGES


@<TRIPOS>ATOM
  1 O        0.5720    -0.6040     0.4610 O.2   1 <1>  -0.5700 
  2 C        0.2760    -1.6550    -0.0740 C.2   1 <1>   0.5440 
  3 N        1.1730    -2.1980    -0.9490 N.am  1 <1>  -0.7300 
  4 C       -0.9990    -2.2850     0.2120 C.ar  1 <1>   0.0860 
  5 C        2.5450    -1.6810    -1.2050 C.3   1 <1>   0.1400 
  6 C       -1.2220    -3.6710     0.1230 C.ar  1 <1>   0.3920 
  7 C       -2.0800    -1.5020     0.6030 C.ar  1 <1>  -0.1500 
  8 C        3.5120    -2.0940    -0.0870 C.3   1 <1>   0.2000 
  9 O       -0.1920    -4.4730    -0.2280 O.3   1 <1>  -0.3630 
 10 N       -2.3870    -4.2730     0.3680 N.ar  1 <1>  -0.6200 
 11 C       -3.2840    -2.1150     0.8630 C.ar  1 <1>  -0.1500 
 12 O        4.8170    -1.8180    -0.4740 O.3   1 <1>  -0.5600 
 13 C        3.5350    -3.5860     0.2280 C.3   1 <1>  -0.1600 
 14 C       -0.3220    -5.8770    -0.3120 C.3   1 <1>   0.1200 
 15 C       -3.3830    -3.4870     0.7300 C.ar  1 <1>   0.1600 
 16 C        5.7060    -2.5550     0.3010 C.3   1 <1>   0.1200 
 17 C        4.9490    -3.8070     0.7420 C.3   1 <1>  -0.1600 
 18 C        1.0320    -6.4550    -0.7130 C.3   1 <1>  -0.2400 
 19 H        1.0040    -3.1660    -1.2430 H     1 <1>   0.3700 
 20 H        2.5150    -0.6070    -1.2630 H     1 <1>   0.0800 
 21 H        2.8950    -2.0690    -2.1450 H     1 <1>   0.0800 
 22 H       -1.9690    -0.4340     0.6980 H     1 <1>   0.1500 
 23 H        3.3090    -1.5220     0.8030 H     1 <1>   0.0800 
 24 H       -4.1390    -1.5380     1.1650 H     1 <1>   0.1500 
 25 H        3.3770    -4.1500    -0.6740 H     1 <1>   0.0800 
 26 H        2.7820    -3.8480     0.9500 H     1 <1>   0.0800 
 27 H       -1.0730    -6.1060    -1.0490 H     1 <1>   0.0800 
 28 H       -0.6310    -6.2490     0.6500 H     1 <1>   0.0800 
 29 H       -4.3300    -3.9600     0.9330 H     1 <1>   0.1500 
 30 H        5.9910    -1.9530     1.1470 H     1 <1>   0.0800 
 31 H        6.5700    -2.7880    -0.2960 H     1 <1>   0.0800 
 32 H        5.3880    -4.6940     0.3210 H     1 <1>   0.0800 
 33 H        4.9660    -3.8810     1.8150 H     1 <1>   0.0800 
 34 H        1.3400    -6.0610    -1.6640 H     1 <1>   0.0800 
 35 H        0.9580    -7.5240    -0.7930 H     1 <1>   0.0800 
 36 H        1.7700    -6.2210     0.0340 H     1 <1>   0.0800 
@<TRIPOS>BOND
  1   1   2  2   
  2   2   3  am  
  3   2   4  1   
  4   3   5  1   
  5   3  19  1   
  6   4   6  ar  
  7   4   7  ar  
  8   5   8  1   
  9   5  20  1   
 10   5  21  1   
 11   6   9  1   
 12   6  10  ar  
 13   7  11  ar  
 14   7  22  1   
 15   8  12  1   
 16   8  13  1   
 17   8  23  1   
 18   9  14  1   
 19  10  15  ar  
 20  11  15  ar  
 21  11  24  1   
 22  12  16  1   
 23  13  17  1   
 24  13  25  1   
 25  13  26  1   
 26  14  18  1   
 27  14  27  1   
 28  14  28  1   
 29  15  29  1   
 30  16  17  1   
 31  16  30  1   
 32  16  31  1   
 33  17  32  1   
 34  17  33  1   
 35  18  34  1   
 36  18  35  1   
 37  18  36  1   
@<TRIPOS>SUBSTRUCTURE
  1 ****   3 GROUP 4 **** **** 0

# MOE 2024.06 (io_trps.svl 2023.06)
