@<TRIPOS>MOLECULE
NONAME
35 36 1 0 0 
SMALL
USER_CHARGES


@<TRIPOS>ATOM
  1 S        0.1630    -0.0080     1.4770 S.o2  1 <1>   1.2950 
  2 O       -0.4650    -1.2030     0.9510 O.2   1 <1>  -0.6500 
  3 O        0.1010     0.2630     2.9000 O.2   1 <1>  -0.6500 
  4 N       -0.4750     1.3940     0.6160 N.pl3 1 <1>   0.3170 
  5 C        1.8930     0.0340     0.9480 C.ar  1 <1>  -0.0090 
  6 C       -0.6470     2.6370     1.1260 C.2   1 <1>   0.0360 
  7 C       -0.7770     1.5440    -0.6980 C.2   1 <1>  -0.3020 
  8 C        2.3140    -0.6620    -0.1790 C.ar  1 <1>  -0.1500 
  9 C        2.8350     0.7920     1.6330 C.ar  1 <1>  -0.1500 
 10 N       -1.0220     3.5270     0.2650 N.2   1 <1>  -0.5650 
 11 C       -1.1070     2.8390    -0.8870 C.2   1 <1>   0.0770 
 12 C        3.6260    -0.6060    -0.6210 C.ar  1 <1>  -0.1430 
 13 C        4.1490     0.8600     1.2080 C.ar  1 <1>  -0.1500 
 14 C        4.5550     0.1620     0.0740 C.ar  1 <1>   0.0830 
 15 C        4.0430    -1.3860    -1.8600 C.3   1 <1>  -0.0970 
 16 O        5.8280     0.1910    -0.3950 O.3   1 <1>  -0.3620 
 17 C        6.8450     0.9250     0.2480 C.3   1 <1>   0.1200 
 18 C        8.1430     0.7280    -0.5350 C.3   1 <1>  -0.1600 
 19 C        9.3040     1.4980     0.1060 C.3   1 <1>  -0.2400 
 20 H       -0.4780     2.8390     2.1700 H     1 <1>   0.1500 
 21 H       -0.7400     0.7320    -1.4020 H     1 <1>   0.1500 
 22 H        1.6020    -1.2620    -0.7200 H     1 <1>   0.1500 
 23 H        2.5420     1.3370     2.5160 H     1 <1>   0.1500 
 24 H       -1.4050     3.3230    -1.8050 H     1 <1>   0.1500 
 25 H        4.8400     1.4590     1.7700 H     1 <1>   0.1500 
 26 H        3.2180    -1.9340    -2.2760 H     1 <1>   0.0800 
 27 H        4.8230    -2.0810    -1.6050 H     1 <1>   0.0800 
 28 H        4.4190    -0.7090    -2.6070 H     1 <1>   0.0800 
 29 H        6.9470     0.5550     1.2530 H     1 <1>   0.0800 
 30 H        6.5610     1.9630     0.2560 H     1 <1>   0.0800 
 31 H        8.0040     1.0720    -1.5450 H     1 <1>   0.0800 
 32 H        8.3850    -0.3210    -0.5590 H     1 <1>   0.0800 
 33 H        9.0910     2.5530     0.1260 H     1 <1>   0.0800 
 34 H       10.2040     1.3430    -0.4620 H     1 <1>   0.0800 
 35 H        9.4720     1.1580     1.1120 H     1 <1>   0.0800 
@<TRIPOS>BOND
  1   1   2  2   
  2   1   3  2   
  3   1   4  1   
  4   1   5  1   
  5   4   6  1   
  6   4   7  1   
  7   5   8  ar  
  8   5   9  ar  
  9   6  10  2   
 10   6  20  1   
 11   7  11  2   
 12   7  21  1   
 13   8  12  ar  
 14   8  22  1   
 15   9  13  ar  
 16   9  23  1   
 17  10  11  1   
 18  11  24  1   
 19  12  14  ar  
 20  12  15  1   
 21  13  14  ar  
 22  13  25  1   
 23  14  16  1   
 24  15  26  1   
 25  15  27  1   
 26  15  28  1   
 27  16  17  1   
 28  17  18  1   
 29  17  29  1   
 30  17  30  1   
 31  18  19  1   
 32  18  31  1   
 33  18  32  1   
 34  19  33  1   
 35  19  34  1   
 36  19  35  1   
@<TRIPOS>SUBSTRUCTURE
  1 ****   5 GROUP 4 **** **** 0

# MOE 2024.06 (io_trps.svl 2023.06)
