@<TRIPOS>MOLECULE
NONAME
44 45 1 0 0 
SMALL
USER_CHARGES


@<TRIPOS>ATOM
  1 O        1.0020     1.2910     1.3860 O.3   1 <1>  -0.5600 
  2 C        0.2580     2.2440     2.0890 C.3   1 <1>   0.1200 
  3 C        0.4920     1.0260     0.1080 C.3   1 <1>   0.1200 
  4 C        0.2180     3.5740     1.3140 C.3   1 <1>   0.1100 
  5 C        0.4610     2.3130    -0.7360 C.3   1 <1>   0.1100 
  6 N       -0.3040     3.3730    -0.0530 N.3   1 <1>  -0.8100 
  7 C       -0.3280     4.6240    -0.8210 C.3   1 <1>   0.3100 
  8 C       -1.5430     5.3870    -0.4240 C.1   1 <1>  -0.2000 
  9 C       -2.5960     5.8270    -0.0910 C.1   1 <1>  -0.2000 
 10 C       -3.9990     6.1610     0.3200 C.3   1 <1>   0.4800 
 11 O       -4.6440     5.0050     0.8090 O.3   1 <1>  -0.5600 
 12 C       -3.9710     7.1710     1.4780 C.3   1 <1>  -0.1600 
 13 C       -4.8040     6.7400    -0.8610 C.3   1 <1>  -0.1600 
 14 C       -4.5820     3.8200     0.0600 C.3   1 <1>   0.1200 
 15 C       -5.3760     7.6390     1.8990 C.3   1 <1>  -0.1600 
 16 C       -6.2160     7.1950    -0.4510 C.3   1 <1>  -0.1600 
 17 C       -3.6980     2.8170     0.8020 C.3   1 <1>   0.0400 
 18 C       -6.1540     8.2050     0.7030 C.3   1 <1>  -0.1600 
 19 C       -3.4050     1.6430    -0.0610 C.1   1 <1>   0.3570 
 20 N       -3.1990     0.7400    -0.7230 N.1   1 <1>  -0.5570 
 21 H        0.7260     2.3840     3.0470 H     1 <1>   0.0800 
 22 H       -0.7370     1.8630     2.2380 H     1 <1>   0.0800 
 23 H       -0.4980     0.6150     0.2070 H     1 <1>   0.0800 
 24 H        1.1270     0.2910    -0.3540 H     1 <1>   0.0800 
 25 H        1.2130     3.9830     1.2750 H     1 <1>   0.0800 
 26 H       -0.4120     4.2690     1.8430 H     1 <1>   0.0800 
 27 H        0.0000     2.0940    -1.6830 H     1 <1>   0.0800 
 28 H        1.4710     2.6400    -0.9140 H     1 <1>   0.0800 
 29 H       -0.3970     4.4060    -1.8730 H     1 <1>   0.0800 
 30 H        0.5640     5.2010    -0.6450 H     1 <1>   0.0800 
 31 H       -3.4000     8.0290     1.1720 H     1 <1>   0.0800 
 32 H       -3.4660     6.7290     2.3180 H     1 <1>   0.0800 
 33 H       -4.8660     6.0240    -1.6580 H     1 <1>   0.0800 
 34 H       -4.2710     7.5910    -1.2460 H     1 <1>   0.0800 
 35 H       -4.2010     4.0130    -0.9280 H     1 <1>   0.0800 
 36 H       -5.5840     3.4360    -0.0290 H     1 <1>   0.0800 
 37 H       -5.2930     8.3890     2.6660 H     1 <1>   0.0800 
 38 H       -5.9180     6.8050     2.3130 H     1 <1>   0.0800 
 39 H       -6.7920     6.3390    -0.1440 H     1 <1>   0.0800 
 40 H       -6.7120     7.6420    -1.2950 H     1 <1>   0.0800 
 41 H       -4.1970     2.4830     1.6920 H     1 <1>   0.0800 
 42 H       -2.7670     3.2720     1.0760 H     1 <1>   0.0800 
 43 H       -5.6770     9.1080     0.3630 H     1 <1>   0.0800 
 44 H       -7.1530     8.4580     1.0130 H     1 <1>   0.0800 
@<TRIPOS>BOND
  1   1   2  1   
  2   1   3  1   
  3   2   4  1   
  4   2  21  1   
  5   2  22  1   
  6   3   5  1   
  7   3  23  1   
  8   3  24  1   
  9   4   6  1   
 10   4  25  1   
 11   4  26  1   
 12   5   6  1   
 13   5  27  1   
 14   5  28  1   
 15   6   7  1   
 16   7   8  1   
 17   7  29  1   
 18   7  30  1   
 19   8   9  3   
 20   9  10  1   
 21  10  11  1   
 22  10  12  1   
 23  10  13  1   
 24  11  14  1   
 25  12  15  1   
 26  12  31  1   
 27  12  32  1   
 28  13  16  1   
 29  13  33  1   
 30  13  34  1   
 31  14  17  1   
 32  14  35  1   
 33  14  36  1   
 34  15  18  1   
 35  15  37  1   
 36  15  38  1   
 37  16  18  1   
 38  16  39  1   
 39  16  40  1   
 40  17  19  1   
 41  17  41  1   
 42  17  42  1   
 43  18  43  1   
 44  18  44  1   
 45  19  20  3   
@<TRIPOS>SUBSTRUCTURE
  1 ****   9 GROUP 4 **** **** 0

# MOE 2024.06 (io_trps.svl 2023.06)
