@<TRIPOS>MOLECULE
NONAME
48 49 1 0 0 
SMALL
USER_CHARGES


@<TRIPOS>ATOM
  1 CL       3.3000     0.9870    -2.8390 Cl    1 <1>  -0.1770 
  2 C        2.8950     1.4620    -1.2040 C.ar  1 <1>   0.1770 
  3 C        2.9610     0.5400    -0.1660 C.ar  1 <1>   0.0820 
  4 C        2.5160     2.7720    -0.9830 C.ar  1 <1>  -0.1500 
  5 O        3.3450    -0.7310    -0.4530 O.3   1 <1>  -0.3630 
  6 C        2.6310     0.9690     1.1160 C.ar  1 <1>  -0.1500 
  7 C        2.1930     3.2100     0.2950 C.ar  1 <1>  -0.0090 
  8 C        3.4190    -1.7290     0.5380 C.3   1 <1>   0.1200 
  9 C        2.2540     2.2850     1.3330 C.ar  1 <1>  -0.1500 
 10 S        1.7150     4.9360     0.5880 S.o2  1 <1>   1.4470 
 11 C        3.8700    -3.0240    -0.1310 C.3   1 <1>  -0.2400 
 12 O        1.7570     5.2310     2.0040 O.2   1 <1>  -0.6500 
 13 O        0.5150     5.2250    -0.1640 O.2   1 <1>  -0.6500 
 14 N        2.9780     5.8060    -0.1340 N.am  1 <1>  -0.8490 
 15 C        4.2450     5.6530     0.6000 C.3   1 <1>   0.1960 
 16 C        2.6320     7.2250    -0.2660 C.3   1 <1>   0.1960 
 17 C        5.3940     6.3000    -0.1850 C.3   1 <1>  -0.0190 
 18 C        3.7180     7.9670    -1.0550 C.3   1 <1>  -0.1600 
 19 C        6.7160     6.0930     0.5360 C.2   1 <1>   0.5690 
 20 C        5.1040     7.7930    -0.4180 C.3   1 <1>  -0.1600 
 21 O        6.7480     6.0960     1.7420 O.2   1 <1>  -0.5700 
 22 N        7.8350     5.9060    -0.2050 N.am  1 <1>  -0.7300 
 23 C        9.1810     5.7170     0.3470 C.3   1 <1>   0.2780 
 24 C       10.1480     6.3740    -0.6130 C.2   1 <1>  -0.2880 
 25 C       11.0610     5.7350    -1.3520 C.2   1 <1>  -0.3000 
 26 H        2.4740     3.4570    -1.8120 H     1 <1>   0.1500 
 27 H        2.6620     0.2990     1.9550 H     1 <1>   0.1500 
 28 H        2.4440    -1.8490     0.9770 H     1 <1>   0.0800 
 29 H        4.1320    -1.4190     1.2830 H     1 <1>   0.0800 
 30 H        2.0040     2.6030     2.3330 H     1 <1>   0.1500 
 31 H        3.1610    -3.3160    -0.8860 H     1 <1>   0.0800 
 32 H        3.9370    -3.8090     0.5990 H     1 <1>   0.0800 
 33 H        4.8370    -2.8900    -0.5820 H     1 <1>   0.0800 
 34 H        4.4680     4.6090     0.7380 H     1 <1>   0.0800 
 35 H        4.1650     6.1080     1.5760 H     1 <1>   0.0800 
 36 H        2.5160     7.6660     0.7110 H     1 <1>   0.0800 
 37 H        1.6950     7.3250    -0.7910 H     1 <1>   0.0800 
 38 H        5.4540     5.8030    -1.1360 H     1 <1>   0.0800 
 39 H        3.4700     9.0120    -1.1020 H     1 <1>   0.0800 
 40 H        3.7290     7.5880    -2.0620 H     1 <1>   0.0800 
 41 H        5.8580     8.2230    -1.0550 H     1 <1>   0.0800 
 42 H        5.1300     8.3110     0.5260 H     1 <1>   0.0800 
 43 H        7.8000     5.9110    -1.2250 H     1 <1>   0.3700 
 44 H        9.3870     4.6630     0.4300 H     1 <1>   0.0800 
 45 H        9.2560     6.1640     1.3250 H     1 <1>   0.0800 
 46 H       10.0260     7.4440    -0.6410 H     1 <1>   0.1500 
 47 H       11.7390     6.2290    -2.0260 H     1 <1>   0.1500 
 48 H       11.2090     4.6680    -1.3470 H     1 <1>   0.1500 
@<TRIPOS>BOND
  1   1   2  1   
  2   2   3  ar  
  3   2   4  ar  
  4   3   5  1   
  5   3   6  ar  
  6   4   7  ar  
  7   4  26  1   
  8   5   8  1   
  9   6   9  ar  
 10   6  27  1   
 11   7   9  ar  
 12   7  10  1   
 13   8  11  1   
 14   8  28  1   
 15   8  29  1   
 16   9  30  1   
 17  10  12  2   
 18  10  13  2   
 19  10  14  am  
 20  11  31  1   
 21  11  32  1   
 22  11  33  1   
 23  14  15  1   
 24  14  16  1   
 25  15  17  1   
 26  15  34  1   
 27  15  35  1   
 28  16  18  1   
 29  16  36  1   
 30  16  37  1   
 31  17  19  1   
 32  17  20  1   
 33  17  38  1   
 34  18  20  1   
 35  18  39  1   
 36  18  40  1   
 37  19  21  2   
 38  19  22  am  
 39  20  41  1   
 40  20  42  1   
 41  22  23  1   
 42  22  43  1   
 43  23  24  1   
 44  23  44  1   
 45  23  45  1   
 46  24  25  2   
 47  24  46  1   
 48  25  47  1   
 49  25  48  1   
@<TRIPOS>SUBSTRUCTURE
  1 ****  15 GROUP 4 **** **** 0

# MOE 2024.06 (io_trps.svl 2023.06)
