@<TRIPOS>MOLECULE
NONAME
37 38 1 0 0 
SMALL
USER_CHARGES


@<TRIPOS>ATOM
  1 BR      -0.6040    -0.4530    -2.0170 Br    1 <1>  -0.1110 
  2 C       -0.2520    -1.9700    -0.8850 C.ar  1 <1>   0.1110 
  3 C        1.0520    -2.3930    -0.7270 C.ar  1 <1>  -0.1500 
  4 C       -1.3180    -2.5900    -0.2610 C.ar  1 <1>  -0.1500 
  5 C        1.3170    -3.4890     0.0890 C.ar  1 <1>   0.1170 
  6 C       -1.0570    -3.6780     0.5540 C.ar  1 <1>  -0.1500 
  7 N        2.6140    -3.9790     0.3140 N.am  1 <1>  -0.5470 
  8 C        0.2470    -4.1170     0.7240 C.ar  1 <1>  -0.1500 
  9 C        3.7650    -3.8380    -0.4130 C.2   1 <1>   0.5690 
 10 O        3.8200    -3.2440    -1.4610 O.2   1 <1>  -0.5700 
 11 C        5.0280    -4.4840     0.1420 C.3   1 <1>  -0.0190 
 12 C        6.2890    -3.7810    -0.3850 C.3   1 <1>   0.1960 
 13 C        5.0830    -5.9860    -0.1900 C.3   1 <1>  -0.1600 
 14 N        7.4960    -4.3770     0.2140 N.am  1 <1>  -0.8490 
 15 C        6.4040    -6.5860     0.3120 C.3   1 <1>  -0.1600 
 16 S        8.9010    -3.5150    -0.1800 S.o2  1 <1>   1.3330 
 17 C        7.6170    -5.7860    -0.1790 C.3   1 <1>   0.1960 
 18 O        8.7640    -3.0410    -1.5370 O.2   1 <1>  -0.6500 
 19 O       10.0420    -4.3190     0.1920 O.2   1 <1>  -0.6500 
 20 C        8.8420    -2.1270     0.9340 C.3   1 <1>  -0.1350 
 21 H        1.8390    -1.8690    -1.2340 H     1 <1>   0.1500 
 22 H       -2.3200    -2.2300    -0.4100 H     1 <1>   0.1500 
 23 H       -1.8680    -4.1810     1.0530 H     1 <1>   0.1500 
 24 H        2.6980    -4.5760     1.1350 H     1 <1>   0.3700 
 25 H        0.4300    -4.9650     1.3580 H     1 <1>   0.1500 
 26 H        5.0170    -4.3600     1.2100 H     1 <1>   0.0800 
 27 H        6.2340    -2.7350    -0.1370 H     1 <1>   0.0800 
 28 H        6.3330    -3.8630    -1.4600 H     1 <1>   0.0800 
 29 H        5.0170    -6.1150    -1.2580 H     1 <1>   0.0800 
 30 H        4.2540    -6.5030     0.2600 H     1 <1>   0.0800 
 31 H        6.4920    -7.6030    -0.0270 H     1 <1>   0.0800 
 32 H        6.4160    -6.5980     1.3880 H     1 <1>   0.0800 
 33 H        8.5050    -6.2130     0.2570 H     1 <1>   0.0800 
 34 H        7.7030    -5.8590    -1.2520 H     1 <1>   0.0800 
 35 H        7.9770    -1.5260     0.7410 H     1 <1>   0.0800 
 36 H        9.7170    -1.5210     0.8060 H     1 <1>   0.0800 
 37 H        8.8090    -2.4730     1.9480 H     1 <1>   0.0800 
@<TRIPOS>BOND
  1   1   2  1   
  2   2   3  ar  
  3   2   4  ar  
  4   3   5  ar  
  5   3  21  1   
  6   4   6  ar  
  7   4  22  1   
  8   5   7  1   
  9   5   8  ar  
 10   6   8  ar  
 11   6  23  1   
 12   7   9  am  
 13   7  24  1   
 14   8  25  1   
 15   9  10  2   
 16   9  11  1   
 17  11  12  1   
 18  11  13  1   
 19  11  26  1   
 20  12  14  1   
 21  12  27  1   
 22  12  28  1   
 23  13  15  1   
 24  13  29  1   
 25  13  30  1   
 26  14  16  am  
 27  14  17  1   
 28  15  17  1   
 29  15  31  1   
 30  15  32  1   
 31  16  18  2   
 32  16  19  2   
 33  16  20  1   
 34  17  33  1   
 35  17  34  1   
 36  20  35  1   
 37  20  36  1   
 38  20  37  1   
@<TRIPOS>SUBSTRUCTURE
  1 ****   9 GROUP 4 **** **** 0

# MOE 2024.06 (io_trps.svl 2023.06)
