@<TRIPOS>MOLECULE
NONAME
24 24 1 0 0 
SMALL
USER_CHARGES


@<TRIPOS>ATOM
  1 S       -0.1890    -0.0180    -0.5890 S.3   1 <1>  -0.0800 
  2 C       -1.4440     0.9940     0.0940 C.2   1 <1>   0.1040 
  3 C        1.1110     1.0310     0.0030 C.2   1 <1>  -0.0450 
  4 N       -2.7560     0.5900    -0.0980 N.am  1 <1>  -0.4940 
  5 C       -0.8770     2.0500     0.7220 C.2   1 <1>  -0.1500 
  6 C        2.4680     0.6720    -0.2810 C.2   1 <1>   0.5940 
  7 C        0.5390     2.0720     0.6720 C.2   1 <1>  -0.1500 
  8 C       -3.9050     1.1930     0.3270 C.2   1 <1>   0.5690 
  9 O        2.7890    -0.3010    -0.9210 O.2   1 <1>  -0.5700 
 10 C        3.5910     1.5550     0.2450 C.3   1 <1>  -0.0990 
 11 O       -3.9260     2.2160     0.9620 O.2   1 <1>  -0.5700 
 12 C       -5.2120     0.5290    -0.0260 C.3   1 <1>  -0.1790 
 13 C        3.8670     2.7640    -0.6630 C.3   1 <1>  -0.2400 
 14 H       -2.8720    -0.2720    -0.6270 H     1 <1>   0.3700 
 15 H       -1.4370     2.8210     1.2240 H     1 <1>   0.1500 
 16 H        1.0830     2.8730     1.1410 H     1 <1>   0.1500 
 17 H        4.4840     0.9600     0.3200 H     1 <1>   0.0800 
 18 H        3.3450     1.8910     1.2350 H     1 <1>   0.0800 
 19 H       -5.2480    -0.4560     0.3990 H     1 <1>   0.0800 
 20 H       -5.3140     0.4680    -1.0930 H     1 <1>   0.0800 
 21 H       -6.0290     1.1060     0.3680 H     1 <1>   0.0800 
 22 H        4.1400     2.4300    -1.6490 H     1 <1>   0.0800 
 23 H        4.6760     3.3500    -0.2640 H     1 <1>   0.0800 
 24 H        2.9940     3.3890    -0.7410 H     1 <1>   0.0800 
@<TRIPOS>BOND
  1   1   2  1   
  2   1   3  1   
  3   2   4  1   
  4   2   5  2   
  5   3   6  1   
  6   3   7  2   
  7   4   8  am  
  8   4  14  1   
  9   5   7  1   
 10   5  15  1   
 11   6   9  2   
 12   6  10  1   
 13   7  16  1   
 14   8  11  2   
 15   8  12  1   
 16  10  13  1   
 17  10  17  1   
 18  10  18  1   
 19  12  19  1   
 20  12  20  1   
 21  12  21  1   
 22  13  22  1   
 23  13  23  1   
 24  13  24  1   
@<TRIPOS>SUBSTRUCTURE
  1 ****   2 GROUP 4 **** **** 0

# MOE 2024.06 (io_trps.svl 2023.06)
