@<TRIPOS>MOLECULE
NONAME
40 41 1 0 0 
SMALL
USER_CHARGES


@<TRIPOS>ATOM
  1 O        0.7230     1.3120    -1.9100 O.2   1 <1>  -0.5700 
  2 C        1.0070     1.6610    -0.7800 C.2   1 <1>   0.7160 
  3 N        2.0310     1.0230    -0.1080 N.am  1 <1>  -0.6600 
  4 C        0.2660     2.7350    -0.1730 C.2   1 <1>  -0.0860 
  5 C        2.6960    -0.1690    -0.7000 C.3   1 <1>   0.1400 
  6 C        2.4200     1.3570     1.2890 C.3   1 <1>   0.1400 
  7 C        0.3610     4.0850    -0.4660 C.2   1 <1>   0.1080 
  8 C       -0.6760     2.7410     0.7920 C.2   1 <1>  -0.0400 
  9 C        3.7940     0.2280    -1.6910 C.3   1 <1>  -0.1600 
 10 C        3.2890     2.6170     1.3630 C.3   1 <1>  -0.1600 
 11 N       -0.4250     4.7640     0.2820 N.2   1 <1>  -0.4100 
 12 C        1.2640     4.6970    -1.5240 C.3   1 <1>   0.0210 
 13 O       -1.0870     3.9530     1.0780 O.3   1 <1>  -0.0190 
 14 C       -1.2960     1.5770     1.5390 C.3   1 <1>  -0.0600 
 15 C        5.0730     0.8000    -1.0580 C.3   1 <1>  -0.1600 
 16 C        4.7510     2.4350     0.9260 C.3   1 <1>  -0.1600 
 17 C        0.5830     4.7070    -2.8960 C.3   1 <1>  -0.2400 
 18 C        4.9640     2.2620    -0.5880 C.3   1 <1>  -0.1600 
 19 H        1.9560    -0.7510    -1.2240 H     1 <1>   0.0800 
 20 H        3.1080    -0.7960     0.0710 H     1 <1>   0.0800 
 21 H        2.9460     0.5330     1.7380 H     1 <1>   0.0800 
 22 H        1.5300     1.5170     1.8700 H     1 <1>   0.0800 
 23 H        3.3960     0.9110    -2.4220 H     1 <1>   0.0800 
 24 H        4.0710    -0.6650    -2.2230 H     1 <1>   0.0800 
 25 H        3.3030     2.9260     2.3930 H     1 <1>   0.0800 
 26 H        2.8330     3.4190     0.8120 H     1 <1>   0.0800 
 27 H        2.1830     4.1420    -1.5810 H     1 <1>   0.0800 
 28 H        1.5030     5.7060    -1.2360 H     1 <1>   0.0800 
 29 H       -0.8840     0.6450     1.1960 H     1 <1>   0.0800 
 30 H       -2.3580     1.5670     1.3730 H     1 <1>   0.0800 
 31 H       -1.1090     1.6780     2.5920 H     1 <1>   0.0800 
 32 H        5.8330     0.7700    -1.8210 H     1 <1>   0.0800 
 33 H        5.4130     0.1610    -0.2630 H     1 <1>   0.0800 
 34 H        5.2030     1.6240     1.4700 H     1 <1>   0.0800 
 35 H        5.2740     3.3290     1.2200 H     1 <1>   0.0800 
 36 H        0.3570     3.7020    -3.2060 H     1 <1>   0.0800 
 37 H        1.2280     5.1580    -3.6280 H     1 <1>   0.0800 
 38 H       -0.3340     5.2670    -2.8470 H     1 <1>   0.0800 
 39 H        4.2090     2.7880    -1.1440 H     1 <1>   0.0800 
 40 H        5.9020     2.7350    -0.8250 H     1 <1>   0.0800 
@<TRIPOS>BOND
  1   1   2  2   
  2   2   3  am  
  3   2   4  1   
  4   3   5  1   
  5   3   6  1   
  6   4   7  1   
  7   4   8  2   
  8   5   9  1   
  9   5  19  1   
 10   5  20  1   
 11   6  10  1   
 12   6  21  1   
 13   6  22  1   
 14   7  11  2   
 15   7  12  1   
 16   8  13  1   
 17   8  14  1   
 18   9  15  1   
 19   9  23  1   
 20   9  24  1   
 21  10  16  1   
 22  10  25  1   
 23  10  26  1   
 24  11  13  1   
 25  12  17  1   
 26  12  27  1   
 27  12  28  1   
 28  14  29  1   
 29  14  30  1   
 30  14  31  1   
 31  15  18  1   
 32  15  32  1   
 33  15  33  1   
 34  16  18  1   
 35  16  34  1   
 36  16  35  1   
 37  17  36  1   
 38  17  37  1   
 39  17  38  1   
 40  18  39  1   
 41  18  40  1   
@<TRIPOS>SUBSTRUCTURE
  1 ****   2 GROUP 4 **** **** 0

# MOE 2024.06 (io_trps.svl 2023.06)
