@<TRIPOS>MOLECULE
NONAME
50 52 1 0 0 
SMALL
USER_CHARGES


@<TRIPOS>ATOM
  1 S       -0.0590    -0.1460    -0.4100 S.o2  1 <1>   1.4470 
  2 O        0.0910    -0.5780    -1.7820 O.2   1 <1>  -0.6500 
  3 O       -0.1460    -1.1220     0.6500 O.2   1 <1>  -0.6500 
  4 N       -1.5450     0.6770    -0.3830 N.am  1 <1>  -0.8490 
  5 C        1.1420     1.1470     0.0070 C.ar  1 <1>  -0.0090 
  6 C       -1.6870     1.6320    -1.5040 C.3   1 <1>   0.1960 
  7 C       -2.6660    -0.2900    -0.3940 C.3   1 <1>   0.1960 
  8 C        2.0570     1.6130    -0.9320 C.ar  1 <1>  -0.1500 
  9 C        1.1590     1.7210     1.2730 C.ar  1 <1>  -0.1500 
 10 C       -3.0240     2.4150    -1.4460 C.3   1 <1>   0.3430 
 11 C       -4.0570     0.3880    -0.4740 C.3   1 <1>   0.3430 
 12 C        2.9520     2.6240    -0.6260 C.ar  1 <1>  -0.1500 
 13 C        2.0500     2.7320     1.5880 C.ar  1 <1>  -0.1500 
 14 N       -3.9550     1.8890    -0.3840 N.4   1 <1>  -0.9590 
 15 C        2.9500     3.1930     0.6430 C.ar  1 <1>   0.0820 
 16 C       -5.2700     2.6010    -0.3920 C.3   1 <1>   0.3430 
 17 O        3.7860     4.1860     1.0280 O.3   1 <1>  -0.3630 
 18 C       -6.0980     2.3020     0.8600 C.3   1 <1>  -0.0170 
 19 C        4.7890     4.6820     0.1680 C.3   1 <1>   0.0400 
 20 C       -7.3630     3.1370     0.8070 C.ar  1 <1>  -0.1430 
 21 C       -8.4990     2.6460     0.1820 C.ar  1 <1>  -0.1500 
 22 C       -7.3900     4.4020     1.3750 C.ar  1 <1>  -0.1500 
 23 C       -9.6480     3.4160     0.1180 C.ar  1 <1>  -0.1500 
 24 C       -8.5380     5.1710     1.3110 C.ar  1 <1>  -0.1500 
 25 C       -9.6670     4.6790     0.6810 C.ar  1 <1>  -0.1500 
 26 H       -1.6340     1.1070    -2.4440 H     1 <1>   0.0800 
 27 H       -0.8730     2.3380    -1.4880 H     1 <1>   0.0800 
 28 H       -2.6300    -0.8850     0.5050 H     1 <1>   0.0800 
 29 H       -2.5590    -0.9700    -1.2250 H     1 <1>   0.0800 
 30 H        2.0740     1.1780    -1.9180 H     1 <1>   0.1500 
 31 H        0.4710     1.3710     2.0240 H     1 <1>   0.1500 
 32 H       -3.4980     2.3600    -2.4120 H     1 <1>   0.0800 
 33 H       -2.8070     3.4530    -1.2520 H     1 <1>   0.0800 
 34 H       -4.6710     0.0070     0.3250 H     1 <1>   0.0800 
 35 H       -4.5260     0.1110    -1.4040 H     1 <1>   0.0800 
 36 H        3.6420     2.9520    -1.3810 H     1 <1>   0.1500 
 37 H        2.0580     3.1690     2.5710 H     1 <1>   0.1500 
 38 H       -3.4650     2.0710     0.5070 H     1 <1>   0.4500 
 39 H       -5.8360     2.3230    -1.2660 H     1 <1>   0.0800 
 40 H       -5.1020     3.6650    -0.4350 H     1 <1>   0.0800 
 41 H       -5.5410     2.5550     1.7450 H     1 <1>   0.0800 
 42 H       -6.3660     1.2630     0.9050 H     1 <1>   0.0800 
 43 H        5.3360     5.4400     0.6970 H     1 <1>   0.0800 
 44 H        4.3240     5.1080    -0.7030 H     1 <1>   0.0800 
 45 H        5.4490     3.8760    -0.1010 H     1 <1>   0.0800 
 46 H       -8.5100     1.6650    -0.2590 H     1 <1>   0.1500 
 47 H       -6.5260     4.8040     1.8750 H     1 <1>   0.1500 
 48 H      -10.5300     3.0340    -0.3670 H     1 <1>   0.1500 
 49 H       -8.5570     6.1520     1.7530 H     1 <1>   0.1500 
 50 H      -10.5610     5.2780     0.6330 H     1 <1>   0.1500 
@<TRIPOS>BOND
  1   1   2  2   
  2   1   3  2   
  3   1   4  am  
  4   1   5  1   
  5   4   6  1   
  6   4   7  1   
  7   5   8  ar  
  8   5   9  ar  
  9   6  10  1   
 10   6  26  1   
 11   6  27  1   
 12   7  11  1   
 13   7  28  1   
 14   7  29  1   
 15   8  12  ar  
 16   8  30  1   
 17   9  13  ar  
 18   9  31  1   
 19  10  14  1   
 20  10  32  1   
 21  10  33  1   
 22  11  14  1   
 23  11  34  1   
 24  11  35  1   
 25  12  15  ar  
 26  12  36  1   
 27  13  15  ar  
 28  13  37  1   
 29  14  16  1   
 30  14  38  1   
 31  15  17  1   
 32  16  18  1   
 33  16  39  1   
 34  16  40  1   
 35  17  19  1   
 36  18  20  1   
 37  18  41  1   
 38  18  42  1   
 39  19  43  1   
 40  19  44  1   
 41  19  45  1   
 42  20  21  ar  
 43  20  22  ar  
 44  21  23  ar  
 45  21  46  1   
 46  22  24  ar  
 47  22  47  1   
 48  23  25  ar  
 49  23  48  1   
 50  24  25  ar  
 51  24  49  1   
 52  25  50  1   
@<TRIPOS>SUBSTRUCTURE
  1 ****  10 GROUP 4 **** **** 0

# MOE 2024.06 (io_trps.svl 2023.06)
