@<TRIPOS>MOLECULE
NONAME
49 50 1 0 0 
SMALL
USER_CHARGES


@<TRIPOS>ATOM
  1 CL      -2.0750    -2.2850    -2.8750 Cl    1 <1>  -0.1770 
  2 C       -3.2310    -1.8920    -1.6310 C.ar  1 <1>   0.1770 
  3 C       -4.4250    -1.2920    -1.9780 C.ar  1 <1>  -0.1500 
  4 C       -2.9390    -2.1850    -0.3130 C.ar  1 <1>  -0.1500 
  5 C       -5.3390    -0.9800    -0.9840 C.ar  1 <1>  -0.1500 
  6 C       -3.8610    -1.8670     0.6710 C.ar  1 <1>  -0.1500 
  7 C       -5.0730    -1.2580     0.3550 C.ar  1 <1>  -0.0090 
  8 S       -6.2770    -0.8500     1.6540 S.o2  1 <1>   1.4470 
  9 O       -5.6310    -0.7610     2.9430 O.2   1 <1>  -0.6500 
 10 O       -7.4440    -1.6920     1.4950 O.2   1 <1>  -0.6500 
 11 N       -6.8060     0.7180     1.2870 N.am  1 <1>  -0.8490 
 12 C       -7.8780     1.1130     2.2510 C.3   1 <1>   0.2570 
 13 C       -5.7020     1.6890     1.3120 C.3   1 <1>   0.1960 
 14 C       -8.9740     2.0400     1.6990 C.2   1 <1>   0.5690 
 15 C       -6.0910     2.9750     0.5870 C.3   1 <1>  -0.2400 
 16 O       -9.1660     3.0790     2.2860 O.2   1 <1>  -0.5700 
 17 N       -9.7510     1.7040     0.6090 N.am  1 <1>  -0.6600 
 18 C       -9.6990     0.3930    -0.1070 C.3   1 <1>   0.1400 
 19 C      -10.8010     2.6340     0.0910 C.3   1 <1>   0.1400 
 20 C      -11.0860    -0.2780    -0.1220 C.3   1 <1>   0.3430 
 21 C      -12.1790     1.9480     0.0890 C.3   1 <1>   0.3430 
 22 N      -12.1610     0.6330    -0.6560 N.4   1 <1>  -0.9590 
 23 C      -13.4800    -0.0490    -0.6210 C.3   1 <1>   0.3430 
 24 C      -14.4700     0.6980    -1.5070 C.3   1 <1>  -0.2400 
 25 H       -4.6310    -1.0750    -3.0110 H     1 <1>   0.1500 
 26 H       -2.0030    -2.6550    -0.0660 H     1 <1>   0.1500 
 27 H       -6.2710    -0.5120    -1.2510 H     1 <1>   0.1500 
 28 H       -3.6340    -2.0960     1.7000 H     1 <1>   0.1500 
 29 H       -7.4370     1.5780     3.1170 H     1 <1>   0.0800 
 30 H       -8.3920     0.2410     2.6150 H     1 <1>   0.0800 
 31 H       -4.8470     1.2800     0.8010 H     1 <1>   0.0800 
 32 H       -5.4000     1.9010     2.3260 H     1 <1>   0.0800 
 33 H       -6.7890     3.5520     1.1640 H     1 <1>   0.0800 
 34 H       -6.5100     2.7530    -0.3770 H     1 <1>   0.0800 
 35 H       -5.2140     3.5800     0.4450 H     1 <1>   0.0800 
 36 H       -9.0110    -0.2760     0.3640 H     1 <1>   0.0800 
 37 H       -9.3570     0.5520    -1.1140 H     1 <1>   0.0800 
 38 H      -10.5420     2.9420    -0.9070 H     1 <1>   0.0800 
 39 H      -10.8570     3.5240     0.6960 H     1 <1>   0.0800 
 40 H      -11.3290    -0.5710     0.8870 H     1 <1>   0.0800 
 41 H      -11.0330    -1.1750    -0.7180 H     1 <1>   0.0800 
 42 H      -12.8970     2.6150    -0.3570 H     1 <1>   0.0800 
 43 H      -12.4750     1.7820     1.1120 H     1 <1>   0.0800 
 44 H      -11.9370     0.8350    -1.6400 H     1 <1>   0.4500 
 45 H      -13.8490    -0.0980     0.3920 H     1 <1>   0.0800 
 46 H      -13.3780    -1.0580    -0.9910 H     1 <1>   0.0800 
 47 H      -14.6810     1.6800    -1.1230 H     1 <1>   0.0800 
 48 H      -15.3970     0.1540    -1.5310 H     1 <1>   0.0800 
 49 H      -14.1040     0.7710    -2.5160 H     1 <1>   0.0800 
@<TRIPOS>BOND
  1   1   2  1   
  2   2   3  ar  
  3   2   4  ar  
  4   3   5  ar  
  5   3  25  1   
  6   4   6  ar  
  7   4  26  1   
  8   5   7  ar  
  9   5  27  1   
 10   6   7  ar  
 11   6  28  1   
 12   7   8  1   
 13   8   9  2   
 14   8  10  2   
 15   8  11  am  
 16  11  12  1   
 17  11  13  1   
 18  12  14  1   
 19  12  29  1   
 20  12  30  1   
 21  13  15  1   
 22  13  31  1   
 23  13  32  1   
 24  14  16  2   
 25  14  17  am  
 26  15  33  1   
 27  15  34  1   
 28  15  35  1   
 29  17  18  1   
 30  17  19  1   
 31  18  20  1   
 32  18  36  1   
 33  18  37  1   
 34  19  21  1   
 35  19  38  1   
 36  19  39  1   
 37  20  22  1   
 38  20  40  1   
 39  20  41  1   
 40  21  22  1   
 41  21  42  1   
 42  21  43  1   
 43  22  23  1   
 44  22  44  1   
 45  23  24  1   
 46  23  45  1   
 47  23  46  1   
 48  24  47  1   
 49  24  48  1   
 50  24  49  1   
@<TRIPOS>SUBSTRUCTURE
  1 ****  11 GROUP 4 **** **** 0

# MOE 2024.06 (io_trps.svl 2023.06)
