@<TRIPOS>MOLECULE
NONAME
34 34 1 0 0 
SMALL
USER_CHARGES


@<TRIPOS>ATOM
  1 CL       0.3500    -1.1950     2.3130 Cl    1 <1>  -0.1770 
  2 C        1.0320    -2.0530     0.9500 C.ar  1 <1>   0.1770 
  3 C        0.2360    -2.8760     0.1610 C.ar  1 <1>   0.0830 
  4 C        2.3790    -1.8850     0.6900 C.ar  1 <1>  -0.1500 
  5 O       -1.0800    -2.9950     0.4770 O.3   1 <1>  -0.3630 
  6 C        0.8290    -3.5370    -0.9120 C.ar  1 <1>  -0.1500 
  7 C        2.9640    -2.5520    -0.3770 C.ar  1 <1>  -0.1430 
  8 C       -1.9700    -3.7630    -0.3030 C.3   1 <1>   0.0400 
  9 C        2.1800    -3.3740    -1.1760 C.ar  1 <1>  -0.1500 
 10 C        4.4420    -2.3880    -0.6580 C.3   1 <1>   0.4870 
 11 N        5.1440    -3.3940     0.1690 N.4   1 <1>  -0.9060 
 12 C        6.6030    -3.4380     0.0840 C.3   1 <1>   0.5030 
 13 C        7.0530    -4.5500     1.0260 C.3   1 <1>  -0.2400 
 14 C        7.0260    -3.7650    -1.3480 C.3   1 <1>  -0.2400 
 15 C        7.1870    -2.1020     0.5390 C.3   1 <1>  -0.2400 
 16 H        2.9430    -1.2290     1.3310 H     1 <1>   0.1500 
 17 H        0.2500    -4.1800    -1.5510 H     1 <1>   0.1500 
 18 H       -2.9490    -3.6830     0.1350 H     1 <1>   0.0800 
 19 H       -1.6500    -4.7900    -0.2920 H     1 <1>   0.0800 
 20 H       -1.9870    -3.3710    -1.3040 H     1 <1>   0.0800 
 21 H        2.6050    -3.8970    -2.0170 H     1 <1>   0.1500 
 22 H        4.7570    -1.3910    -0.3960 H     1 <1>   0.0800 
 23 H        4.6370    -2.5530    -1.7050 H     1 <1>   0.0800 
 24 H        4.7750    -4.3170    -0.0740 H     1 <1>   0.4500 
 25 H        4.8810    -3.2390     1.1460 H     1 <1>   0.4500 
 26 H        6.7610    -4.3440     2.0400 H     1 <1>   0.0800 
 27 H        8.1260    -4.6330     1.0070 H     1 <1>   0.0800 
 28 H        6.6500    -5.5010     0.7270 H     1 <1>   0.0800 
 29 H        6.5780    -4.6830    -1.6860 H     1 <1>   0.0800 
 30 H        8.0940    -3.8910    -1.3880 H     1 <1>   0.0800 
 31 H        6.7760    -2.9730    -2.0290 H     1 <1>   0.0800 
 32 H        8.2610    -2.1680     0.5670 H     1 <1>   0.0800 
 33 H        6.9380    -1.3050    -0.1380 H     1 <1>   0.0800 
 34 H        6.8520    -1.8480     1.5290 H     1 <1>   0.0800 
@<TRIPOS>BOND
  1   1   2  1   
  2   2   3  ar  
  3   2   4  ar  
  4   3   5  1   
  5   3   6  ar  
  6   4   7  ar  
  7   4  16  1   
  8   5   8  1   
  9   6   9  ar  
 10   6  17  1   
 11   7   9  ar  
 12   7  10  1   
 13   8  18  1   
 14   8  19  1   
 15   8  20  1   
 16   9  21  1   
 17  10  11  1   
 18  10  22  1   
 19  10  23  1   
 20  11  12  1   
 21  11  24  1   
 22  11  25  1   
 23  12  13  1   
 24  12  14  1   
 25  12  15  1   
 26  13  26  1   
 27  13  27  1   
 28  13  28  1   
 29  14  29  1   
 30  14  30  1   
 31  14  31  1   
 32  15  32  1   
 33  15  33  1   
 34  15  34  1   
@<TRIPOS>SUBSTRUCTURE
  1 ****   7 GROUP 4 **** **** 0

# MOE 2024.06 (io_trps.svl 2023.06)
