@<TRIPOS>MOLECULE
NONAME
47 49 1 0 0 
SMALL
USER_CHARGES


@<TRIPOS>ATOM
  1 O        1.4850    -1.1620    -0.4840 O.2   1 <1>  -0.5700 
  2 C        0.4100    -1.2820    -1.0290 C.2   1 <1>   0.5690 
  3 N       -0.7600    -1.0700    -0.3550 N.am  1 <1>  -0.6600 
  4 C        0.3600    -1.6510    -2.5340 C.3   1 <1>   0.2610 
  5 C       -2.0220    -0.8420    -1.1070 C.3   1 <1>   0.1400 
  6 C       -0.8140    -0.9780     1.1260 C.3   1 <1>   0.2840 
  7 O       -0.8940    -1.4120    -3.1510 O.3   1 <1>  -0.5600 
  8 C        0.6440    -3.1330    -2.7800 C.3   1 <1>  -0.0990 
  9 C       -1.7040    -0.4420    -2.5560 C.3   1 <1>   0.1200 
 10 C       -1.2210     0.4240     1.5540 C.ar  1 <1>  -0.1440 
 11 C        2.0110    -3.5370    -2.2730 C.2   1 <1>   0.5690 
 12 C       -2.4320     0.6510     2.1910 C.ar  1 <1>  -0.1500 
 13 C       -0.3730     1.4920     1.3040 C.ar  1 <1>  -0.1500 
 14 O        2.9710    -3.2770    -2.9510 O.2   1 <1>  -0.5700 
 15 N        2.1780    -4.1790    -1.0860 N.am  1 <1>  -0.5470 
 16 C       -2.7910     1.9320     2.5720 C.ar  1 <1>  -0.1500 
 17 C       -0.7310     2.7740     1.6850 C.ar  1 <1>  -0.1500 
 18 C        1.2430    -4.5190    -0.1030 C.ar  1 <1>   0.1170 
 19 C       -1.9410     2.9940     2.3190 C.ar  1 <1>  -0.1500 
 20 C        1.2940    -3.9010     1.1390 C.ar  1 <1>  -0.1500 
 21 C        0.2650    -5.4760    -0.3370 C.ar  1 <1>  -0.1500 
 22 C        0.3810    -4.2160     2.1320 C.ar  1 <1>  -0.1440 
 23 C       -0.6520    -5.7960     0.6470 C.ar  1 <1>  -0.1500 
 24 C       -0.5950    -5.1670     1.8790 C.ar  1 <1>  -0.1500 
 25 C        0.4450    -3.5370     3.4880 C.3   1 <1>  -0.0970 
 26 H        1.0900    -1.0520    -3.0490 H     1 <1>   0.0800 
 27 H       -2.5880    -0.0510    -0.6460 H     1 <1>   0.0800 
 28 H       -2.6160    -1.7390    -1.0970 H     1 <1>   0.0800 
 29 H        0.1490    -1.2080     1.5470 H     1 <1>   0.0800 
 30 H       -1.5140    -1.7050     1.4970 H     1 <1>   0.0800 
 31 H        0.6160    -3.3210    -3.8370 H     1 <1>   0.0800 
 32 H       -0.1210    -3.7200    -2.3130 H     1 <1>   0.0800 
 33 H       -1.1950     0.5060    -2.5900 H     1 <1>   0.0800 
 34 H       -2.6100    -0.3710    -3.1310 H     1 <1>   0.0800 
 35 H       -3.1010    -0.1670     2.3930 H     1 <1>   0.1500 
 36 H        0.5690     1.3220     0.8090 H     1 <1>   0.1500 
 37 H        3.1590    -4.2380    -0.8140 H     1 <1>   0.3700 
 38 H       -3.7310     2.1040     3.0660 H     1 <1>   0.1500 
 39 H       -0.0670     3.5970     1.4870 H     1 <1>   0.1500 
 40 H       -2.2190     3.9910     2.6150 H     1 <1>   0.1500 
 41 H        2.0530    -3.1590     1.3150 H     1 <1>   0.1500 
 42 H        0.2280    -5.9730    -1.2900 H     1 <1>   0.1500 
 43 H       -1.4090    -6.5380     0.4580 H     1 <1>   0.1500 
 44 H       -1.3090    -5.4240     2.6410 H     1 <1>   0.1500 
 45 H        1.1250    -2.7040     3.4690 H     1 <1>   0.0800 
 46 H        0.7820    -4.2380     4.2300 H     1 <1>   0.0800 
 47 H       -0.5280    -3.1760     3.7680 H     1 <1>   0.0800 
@<TRIPOS>BOND
  1   1   2  2   
  2   2   3  am  
  3   2   4  1   
  4   3   5  1   
  5   3   6  1   
  6   4   7  1   
  7   4   8  1   
  8   4  26  1   
  9   5   9  1   
 10   5  27  1   
 11   5  28  1   
 12   6  10  1   
 13   6  29  1   
 14   6  30  1   
 15   7   9  1   
 16   8  11  1   
 17   8  31  1   
 18   8  32  1   
 19   9  33  1   
 20   9  34  1   
 21  10  12  ar  
 22  10  13  ar  
 23  11  14  2   
 24  11  15  am  
 25  12  16  ar  
 26  12  35  1   
 27  13  17  ar  
 28  13  36  1   
 29  15  18  1   
 30  15  37  1   
 31  16  19  ar  
 32  16  38  1   
 33  17  19  ar  
 34  17  39  1   
 35  18  20  ar  
 36  18  21  ar  
 37  19  40  1   
 38  20  22  ar  
 39  20  41  1   
 40  21  23  ar  
 41  21  42  1   
 42  22  24  ar  
 43  22  25  1   
 44  23  24  ar  
 45  23  43  1   
 46  24  44  1   
 47  25  45  1   
 48  25  46  1   
 49  25  47  1   
@<TRIPOS>SUBSTRUCTURE
  1 ****   3 GROUP 4 **** **** 0

# MOE 2024.06 (io_trps.svl 2023.06)
