@<TRIPOS>MOLECULE
NONAME
37 39 1 0 0 
SMALL
USER_CHARGES


@<TRIPOS>ATOM
  1 O       -0.1720     2.0830    -2.4910 O.2   1 <1>  -0.5700 
  2 C       -0.1010     2.3570    -1.3150 C.2   1 <1>   0.5690 
  3 N        1.0550     2.1430    -0.6000 N.am  1 <1>  -0.6600 
  4 C       -1.3350     2.9730    -0.6710 C.3   1 <1>   0.1570 
  5 C        1.3300     2.7270     0.7520 C.3   1 <1>   0.1400 
  6 C        2.1410     1.3080    -1.2030 C.3   1 <1>   0.1400 
  7 N       -2.4800     2.0370    -0.6880 N.pl3 1 <1>   0.0480 
  8 C        2.8340     2.7970     1.0330 C.3   1 <1>  -0.1600 
  9 C        2.8630     0.5100    -0.1130 C.3   1 <1>  -0.1600 
 10 C       -2.5860     0.8470    -0.0030 C.ar  1 <1>  -0.1520 
 11 C       -3.6830     2.2740    -1.2860 C.2   1 <1>  -0.3020 
 12 C        3.5070     1.4170     0.9500 C.3   1 <1>  -0.1600 
 13 C       -3.8750     0.3510    -0.1820 C.ar  1 <1>   0.0000 
 14 C       -1.6570     0.1400     0.7660 C.ar  1 <1>  -0.1500 
 15 C       -4.5610     1.2720    -1.0090 C.2   1 <1>   0.0190 
 16 C       -4.2470    -0.8550     0.4230 C.ar  1 <1>  -0.1500 
 17 C       -2.0340    -1.0440     1.3560 C.ar  1 <1>  -0.1500 
 18 C       -5.9210     1.1180    -1.4320 C.1   1 <1>   0.5380 
 19 C       -3.3310    -1.5410     1.1860 C.ar  1 <1>  -0.1500 
 20 N       -7.0070     0.9960    -1.7620 N.1   1 <1>  -0.5570 
 21 H       -1.6000     3.8530    -1.2240 H     1 <1>   0.0800 
 22 H       -1.1520     3.2510     0.3460 H     1 <1>   0.0800 
 23 H        0.8570     2.1190     1.5040 H     1 <1>   0.0800 
 24 H        0.9240     3.7220     0.8080 H     1 <1>   0.0800 
 25 H        2.8370     1.9500    -1.7150 H     1 <1>   0.0800 
 26 H        1.7220     0.6260    -1.9240 H     1 <1>   0.0800 
 27 H        3.0020     3.2210     2.0080 H     1 <1>   0.0800 
 28 H        3.2820     3.4610     0.3140 H     1 <1>   0.0800 
 29 H        3.6170    -0.1100    -0.5630 H     1 <1>   0.0800 
 30 H        2.1460    -0.1430     0.3530 H     1 <1>   0.0800 
 31 H       -3.8580     3.1500    -1.8860 H     1 <1>   0.1500 
 32 H        3.4470     0.9250     1.9060 H     1 <1>   0.0800 
 33 H        4.5500     1.5570     0.7230 H     1 <1>   0.0800 
 34 H       -0.6570     0.5110     0.8890 H     1 <1>   0.1500 
 35 H       -5.2440    -1.2320     0.2850 H     1 <1>   0.1500 
 36 H       -1.3340    -1.6030     1.9510 H     1 <1>   0.1500 
 37 H       -3.6030    -2.4700     1.6570 H     1 <1>   0.1500 
@<TRIPOS>BOND
  1   1   2  2   
  2   2   3  am  
  3   2   4  1   
  4   3   5  1   
  5   3   6  1   
  6   4   7  1   
  7   4  21  1   
  8   4  22  1   
  9   5   8  1   
 10   5  23  1   
 11   5  24  1   
 12   6   9  1   
 13   6  25  1   
 14   6  26  1   
 15   7  10  1   
 16   7  11  1   
 17   8  12  1   
 18   8  27  1   
 19   8  28  1   
 20   9  12  1   
 21   9  29  1   
 22   9  30  1   
 23  10  13  ar  
 24  10  14  ar  
 25  11  15  2   
 26  11  31  1   
 27  12  32  1   
 28  12  33  1   
 29  13  15  1   
 30  13  16  ar  
 31  14  17  ar  
 32  14  34  1   
 33  15  18  1   
 34  16  19  ar  
 35  16  35  1   
 36  17  19  ar  
 37  17  36  1   
 38  18  20  3   
 39  19  37  1   
@<TRIPOS>SUBSTRUCTURE
  1 ****  10 GROUP 4 **** **** 0

# MOE 2024.06 (io_trps.svl 2023.06)
