@<TRIPOS>MOLECULE
NONAME
42 43 1 0 0 
SMALL
USER_CHARGES


@<TRIPOS>ATOM
  1 O       -1.1180     1.3840    -1.2620 O.2   1 <1>  -0.5700 
  2 C       -0.6000     1.6060    -0.1830 C.2   1 <1>   0.6900 
  3 N        0.7250     1.9470    -0.0890 N.am  1 <1>  -0.6600 
  4 N       -1.3490     1.5040     0.9430 N.am  1 <1>  -0.7300 
  5 C        1.3810     2.4890     1.1340 C.3   1 <1>   0.1400 
  6 C        1.6120     1.9090    -1.2860 C.3   1 <1>   0.1400 
  7 C       -2.7620     1.0470     0.9820 C.3   1 <1>   0.1400 
  8 C        1.9080     3.9010     0.8560 C.3   1 <1>  -0.1600 
  9 C        2.1380     3.3160    -1.5860 C.3   1 <1>  -0.1600 
 10 C       -3.6870     2.1030     0.3750 C.3   1 <1>   0.1200 
 11 C        2.8380     3.9300    -0.3650 C.3   1 <1>  -0.1600 
 12 O       -5.0240     1.7400     0.6510 O.3   1 <1>  -0.3630 
 13 C       -6.0570     2.5130     0.2270 C.ar  1 <1>   0.0820 
 14 C       -7.3290     2.1200     0.6140 C.ar  1 <1>  -0.1500 
 15 C       -5.9030     3.6550    -0.5560 C.ar  1 <1>  -0.1500 
 16 C       -8.4360     2.8540     0.2280 C.ar  1 <1>  -0.1500 
 17 C       -7.0120     4.3890    -0.9420 C.ar  1 <1>  -0.1500 
 18 C       -8.2880     3.9910    -0.5500 C.ar  1 <1>   0.0820 
 19 O       -9.4250     4.6550    -0.8850 O.3   1 <1>  -0.3630 
 20 C       -9.3820     5.8190    -1.6800 C.3   1 <1>   0.0400 
 21 H       -0.8470     1.4940     1.8260 H     1 <1>   0.3700 
 22 H        2.1980     1.8420     1.4050 H     1 <1>   0.0800 
 23 H        0.6950     2.5270     1.9600 H     1 <1>   0.0800 
 24 H        1.0840     1.5310    -2.1450 H     1 <1>   0.0800 
 25 H        2.4360     1.2450    -1.0880 H     1 <1>   0.0800 
 26 H       -3.0440     0.8680     2.0040 H     1 <1>   0.0800 
 27 H       -2.8530     0.1300     0.4240 H     1 <1>   0.0800 
 28 H        2.4360     4.2610     1.7200 H     1 <1>   0.0800 
 29 H        1.0700     4.5550     0.6870 H     1 <1>   0.0800 
 30 H        1.3100     3.9360    -1.8820 H     1 <1>   0.0800 
 31 H        2.8240     3.2700    -2.4130 H     1 <1>   0.0800 
 32 H       -3.5550     2.1440    -0.6920 H     1 <1>   0.0800 
 33 H       -3.5020     3.0640     0.8200 H     1 <1>   0.0800 
 34 H        3.7320     3.3710    -0.1480 H     1 <1>   0.0800 
 35 H        3.1230     4.9450    -0.5820 H     1 <1>   0.0800 
 36 H       -7.4440     1.2380     1.2160 H     1 <1>   0.1500 
 37 H       -4.9320     3.9830    -0.8760 H     1 <1>   0.1500 
 38 H       -9.4220     2.5500     0.5270 H     1 <1>   0.1500 
 39 H       -6.8630     5.2640    -1.5460 H     1 <1>   0.1500 
 40 H      -10.3890     6.1660    -1.8180 H     1 <1>   0.0800 
 41 H       -8.9460     5.5750    -2.6320 H     1 <1>   0.0800 
 42 H       -8.8030     6.5680    -1.1690 H     1 <1>   0.0800 
@<TRIPOS>BOND
  1   1   2  2   
  2   2   3  am  
  3   2   4  am  
  4   3   5  1   
  5   3   6  1   
  6   4   7  1   
  7   4  21  1   
  8   5   8  1   
  9   5  22  1   
 10   5  23  1   
 11   6   9  1   
 12   6  24  1   
 13   6  25  1   
 14   7  10  1   
 15   7  26  1   
 16   7  27  1   
 17   8  11  1   
 18   8  28  1   
 19   8  29  1   
 20   9  11  1   
 21   9  30  1   
 22   9  31  1   
 23  10  12  1   
 24  10  32  1   
 25  10  33  1   
 26  11  34  1   
 27  11  35  1   
 28  12  13  1   
 29  13  14  ar  
 30  13  15  ar  
 31  14  16  ar  
 32  14  36  1   
 33  15  17  ar  
 34  15  37  1   
 35  16  18  ar  
 36  16  38  1   
 37  17  18  ar  
 38  17  39  1   
 39  18  19  1   
 40  19  20  1   
 41  20  40  1   
 42  20  41  1   
 43  20  42  1   
@<TRIPOS>SUBSTRUCTURE
  1 ****  10 GROUP 4 **** **** 0

# MOE 2024.06 (io_trps.svl 2023.06)
