@<TRIPOS>MOLECULE
NONAME
46 48 1 0 0 
SMALL
USER_CHARGES


@<TRIPOS>ATOM
  1 O        0.9560     0.0300     1.8640 O.3   1 <1>  -0.3630 
  2 C        1.6430    -1.0040     1.3220 C.ar  1 <1>   0.0830 
  3 C        1.0530     1.3420     1.3550 C.3   1 <1>   0.0400 
  4 C        2.6160    -0.8570     0.3380 C.ar  1 <1>  -0.1500 
  5 C        1.3380    -2.2690     1.7950 C.ar  1 <1>  -0.1500 
  6 C        3.2810    -1.9700    -0.1600 C.ar  1 <1>  -0.1430 
  7 C        1.9890    -3.3810     1.2940 C.ar  1 <1>  -0.1500 
  8 C        2.9570    -3.2320     0.3180 C.ar  1 <1>  -0.1500 
  9 C        4.3640    -1.8110    -1.2080 C.3   1 <1>   0.4860 
 10 N        5.5560    -1.1970    -0.5710 N.4   1 <1>  -0.9590 
 11 C        6.6540    -0.8400    -1.5240 C.3   1 <1>   0.3430 
 12 C        6.0890    -1.9600     0.6080 C.3   1 <1>   0.3430 
 13 C        7.7890    -0.0740    -0.8010 C.3   1 <1>   0.1100 
 14 C        7.2350    -1.1820     1.3020 C.3   1 <1>   0.1100 
 15 N        7.5120     0.1180     0.6470 N.3   1 <1>  -0.8100 
 16 C        8.5960     0.8520     1.3310 C.3   1 <1>   0.2530 
 17 C        8.7320     2.2510     0.7510 C.ar  1 <1>  -0.1430 
 18 C        9.8720     2.6680     0.0910 C.ar  1 <1>  -0.1500 
 19 C        7.7130     3.1770     0.8530 C.ar  1 <1>  -0.1500 
 20 C        9.9300     3.9520    -0.4270 C.ar  1 <1>   0.1600 
 21 C        7.8730     4.4360     0.2990 C.ar  1 <1>   0.1600 
 22 N        8.9550     4.8420    -0.3430 N.ar  1 <1>  -0.6200 
 23 H        0.3660     1.9620     1.9040 H     1 <1>   0.0800 
 24 H        0.7840     1.3350     0.3140 H     1 <1>   0.0800 
 25 H        2.0570     1.7000     1.4970 H     1 <1>   0.0800 
 26 H        2.8560     0.1210    -0.0360 H     1 <1>   0.1500 
 27 H        0.5840    -2.3740     2.5550 H     1 <1>   0.1500 
 28 H        1.7350    -4.3600     1.6660 H     1 <1>   0.1500 
 29 H        3.4490    -4.1130    -0.0600 H     1 <1>   0.1500 
 30 H        4.0010    -1.1810    -2.0040 H     1 <1>   0.0800 
 31 H        4.6180    -2.7730    -1.6220 H     1 <1>   0.0800 
 32 H        5.2790    -0.2970    -0.1520 H     1 <1>   0.4500 
 33 H        6.2680    -0.2190    -2.3160 H     1 <1>   0.0800 
 34 H        7.0590    -1.7310    -1.9730 H     1 <1>   0.0800 
 35 H        6.4520    -2.9240     0.2920 H     1 <1>   0.0800 
 36 H        5.3020    -2.1260     1.3250 H     1 <1>   0.0800 
 37 H        7.9030     0.8850    -1.2790 H     1 <1>   0.0800 
 38 H        8.7150    -0.6080    -0.9310 H     1 <1>   0.0800 
 39 H        8.1240    -1.7910     1.3020 H     1 <1>   0.0800 
 40 H        6.9610    -1.0130     2.3300 H     1 <1>   0.0800 
 41 H        9.5250     0.3160     1.2350 H     1 <1>   0.0800 
 42 H        8.3660     0.9390     2.3800 H     1 <1>   0.0800 
 43 H       10.7160     2.0140    -0.0260 H     1 <1>   0.1500 
 44 H        6.7980     2.9250     1.3570 H     1 <1>   0.1500 
 45 H       10.8250     4.2630    -0.9380 H     1 <1>   0.1500 
 46 H        7.0690     5.1460     0.3900 H     1 <1>   0.1500 
@<TRIPOS>BOND
  1   1   2  1   
  2   1   3  1   
  3   2   4  ar  
  4   2   5  ar  
  5   3  23  1   
  6   3  24  1   
  7   3  25  1   
  8   4   6  ar  
  9   4  26  1   
 10   5   7  ar  
 11   5  27  1   
 12   6   8  ar  
 13   6   9  1   
 14   7   8  ar  
 15   7  28  1   
 16   8  29  1   
 17   9  10  1   
 18   9  30  1   
 19   9  31  1   
 20  10  11  1   
 21  10  12  1   
 22  10  32  1   
 23  11  13  1   
 24  11  33  1   
 25  11  34  1   
 26  12  14  1   
 27  12  35  1   
 28  12  36  1   
 29  13  15  1   
 30  13  37  1   
 31  13  38  1   
 32  14  15  1   
 33  14  39  1   
 34  14  40  1   
 35  15  16  1   
 36  16  17  1   
 37  16  41  1   
 38  16  42  1   
 39  17  18  ar  
 40  17  19  ar  
 41  18  20  ar  
 42  18  43  1   
 43  19  21  ar  
 44  19  44  1   
 45  20  22  ar  
 46  20  45  1   
 47  21  22  ar  
 48  21  46  1   
@<TRIPOS>SUBSTRUCTURE
  1 ****  10 GROUP 4 **** **** 0

# MOE 2024.06 (io_trps.svl 2023.06)
