@<TRIPOS>MOLECULE
NONAME
37 38 1 0 0 
SMALL
USER_CHARGES


@<TRIPOS>ATOM
  1 BR      -0.0880    -0.1110    -0.1480 Br    1 <1>  -0.1110 
  2 C        0.8550     1.5570     0.0360 C.ar  1 <1>   0.1110 
  3 C        0.1350     2.7340     0.0080 C.ar  1 <1>  -0.1500 
  4 C        2.2260     1.5320     0.1910 C.ar  1 <1>  -0.1500 
  5 C        0.7950     3.9520     0.1460 C.ar  1 <1>  -0.0090 
  6 C        2.8920     2.7370     0.3170 C.ar  1 <1>  -0.1500 
  7 S       -0.0980     5.5300     0.1110 S.o2  1 <1>   1.4470 
  8 C        2.1820     3.9390     0.2900 C.ar  1 <1>   0.0830 
  9 O       -0.0270     6.1320    -1.2020 O.2   1 <1>  -0.6500 
 10 O        0.1390     6.3240     1.2940 O.2   1 <1>  -0.6500 
 11 N       -1.7040     5.0930     0.3350 N.am  1 <1>  -0.9140 
 12 O        2.7990     5.1430     0.3960 O.3   1 <1>  -0.3620 
 13 C       -2.6300     6.0580    -0.2220 C.3   1 <1>   0.1960 
 14 C        4.1950     5.2700     0.5550 C.3   1 <1>   0.0400 
 15 C       -4.0480     5.6520     0.1680 C.3   1 <1>  -0.1600 
 16 C       -5.0760     6.6060    -0.4510 C.3   1 <1>   0.0960 
 17 N       -6.4410     6.2100    -0.0580 N.pl3 1 <1>   0.0480 
 18 C       -7.1800     6.6870     0.9690 C.2   1 <1>   0.0360 
 19 C       -7.2240     5.2840    -0.6400 C.2   1 <1>  -0.3020 
 20 N       -8.3470     6.1400     1.0760 N.2   1 <1>  -0.5650 
 21 C       -8.3780     5.2550     0.0630 C.2   1 <1>   0.0770 
 22 H       -0.9310     2.6900    -0.1240 H     1 <1>   0.1500 
 23 H        2.7530     0.5950     0.2090 H     1 <1>   0.1500 
 24 H        3.9600     2.7190     0.4320 H     1 <1>   0.1500 
 25 H       -1.7960     5.1420     1.3490 H     1 <1>   0.4200 
 26 H       -2.5360     6.0670    -1.2970 H     1 <1>   0.0800 
 27 H       -2.4050     7.0440     0.1520 H     1 <1>   0.0800 
 28 H        4.4280     6.3180     0.6190 H     1 <1>   0.0800 
 29 H        4.6860     4.8390    -0.3000 H     1 <1>   0.0800 
 30 H        4.4910     4.7750     1.4630 H     1 <1>   0.0800 
 31 H       -4.1450     5.6720     1.2390 H     1 <1>   0.0800 
 32 H       -4.2370     4.6530    -0.1870 H     1 <1>   0.0800 
 33 H       -5.0090     6.5830    -1.5250 H     1 <1>   0.0800 
 34 H       -4.9010     7.6140    -0.1180 H     1 <1>   0.0800 
 35 H       -6.8140     7.4520     1.6300 H     1 <1>   0.1500 
 36 H       -6.9300     4.7080    -1.4980 H     1 <1>   0.1500 
 37 H       -9.2420     4.6350    -0.1100 H     1 <1>   0.1500 
@<TRIPOS>BOND
  1   1   2  1   
  2   2   3  ar  
  3   2   4  ar  
  4   3   5  ar  
  5   3  22  1   
  6   4   6  ar  
  7   4  23  1   
  8   5   7  1   
  9   5   8  ar  
 10   6   8  ar  
 11   6  24  1   
 12   7   9  2   
 13   7  10  2   
 14   7  11  am  
 15   8  12  1   
 16  11  13  1   
 17  11  25  1   
 18  12  14  1   
 19  13  15  1   
 20  13  26  1   
 21  13  27  1   
 22  14  28  1   
 23  14  29  1   
 24  14  30  1   
 25  15  16  1   
 26  15  31  1   
 27  15  32  1   
 28  16  17  1   
 29  16  33  1   
 30  16  34  1   
 31  17  18  1   
 32  17  19  1   
 33  18  20  2   
 34  18  35  1   
 35  19  21  2   
 36  19  36  1   
 37  20  21  1   
 38  21  37  1   
@<TRIPOS>SUBSTRUCTURE
  1 ****  11 GROUP 4 **** **** 0

# MOE 2024.06 (io_trps.svl 2023.06)
