@<TRIPOS>MOLECULE
NONAME
34 34 1 0 0 
SMALL
USER_CHARGES


@<TRIPOS>ATOM
  1 O        0.4630     0.7950    -1.3400 O.2   1 <1>  -0.5700 
  2 C        0.3000     1.7070    -0.5540 C.2   1 <1>   0.5440 
  3 N        1.3410     2.1480     0.2180 N.am  1 <1>  -0.7300 
  4 C       -0.9920     2.3520    -0.4140 C.ar  1 <1>   0.0860 
  5 C        2.7270     1.6750     0.2790 C.3   1 <1>   0.3000 
  6 C       -2.1530     1.6580    -0.0500 C.ar  1 <1>  -0.1440 
  7 C       -1.0930     3.7260    -0.6310 C.ar  1 <1>  -0.1500 
  8 C        3.4340     2.5420     1.3190 C.3   1 <1>  -0.2400 
  9 C        2.7570     0.2130     0.7250 C.3   1 <1>  -0.2400 
 10 C        3.4000     1.8600    -1.0820 C.3   1 <1>  -0.2400 
 11 C       -3.3540     2.3340     0.0870 C.ar  1 <1>  -0.1500 
 12 C       -2.1180     0.1550     0.2010 C.3   1 <1>  -0.0970 
 13 C       -2.2920     4.4030    -0.4920 C.ar  1 <1>  -0.1430 
 14 C       -3.4250     3.6980    -0.1300 C.ar  1 <1>  -0.1500 
 15 C       -2.3790     5.8990    -0.7340 C.3   1 <1>  -0.0970 
 16 H        1.1340     2.8720     0.9030 H     1 <1>   0.3700 
 17 H       -0.2080     4.2640    -0.9210 H     1 <1>   0.1500 
 18 H        2.9680     2.4320     2.2830 H     1 <1>   0.0800 
 19 H        3.4110     3.5770     1.0280 H     1 <1>   0.0800 
 20 H        4.4630     2.2430     1.4100 H     1 <1>   0.0800 
 21 H        2.2410     0.0940     1.6600 H     1 <1>   0.0800 
 22 H        3.7720    -0.1160     0.8490 H     1 <1>   0.0800 
 23 H        2.2940    -0.4170    -0.0120 H     1 <1>   0.0800 
 24 H        3.3270     2.8840    -1.4020 H     1 <1>   0.0800 
 25 H        2.9390     1.2310    -1.8210 H     1 <1>   0.0800 
 26 H        4.4380     1.5920    -1.0220 H     1 <1>   0.0800 
 27 H       -4.2480     1.8030     0.3640 H     1 <1>   0.1500 
 28 H       -1.3380    -0.0870     0.9000 H     1 <1>   0.0800 
 29 H       -1.9250    -0.3630    -0.7220 H     1 <1>   0.0800 
 30 H       -3.0520    -0.1950     0.6000 H     1 <1>   0.0800 
 31 H       -4.3660     4.2070    -0.0180 H     1 <1>   0.1500 
 32 H       -1.4280     6.2970    -1.0380 H     1 <1>   0.0800 
 33 H       -2.6890     6.3980     0.1660 H     1 <1>   0.0800 
 34 H       -3.0970     6.1010    -1.5090 H     1 <1>   0.0800 
@<TRIPOS>BOND
  1   1   2  2   
  2   2   3  am  
  3   2   4  1   
  4   3   5  1   
  5   3  16  1   
  6   4   6  ar  
  7   4   7  ar  
  8   5   8  1   
  9   5   9  1   
 10   5  10  1   
 11   6  11  ar  
 12   6  12  1   
 13   7  13  ar  
 14   7  17  1   
 15   8  18  1   
 16   8  19  1   
 17   8  20  1   
 18   9  21  1   
 19   9  22  1   
 20   9  23  1   
 21  10  24  1   
 22  10  25  1   
 23  10  26  1   
 24  11  14  ar  
 25  11  27  1   
 26  12  28  1   
 27  12  29  1   
 28  12  30  1   
 29  13  14  ar  
 30  13  15  1   
 31  14  31  1   
 32  15  32  1   
 33  15  33  1   
 34  15  34  1   
@<TRIPOS>SUBSTRUCTURE
  1 ****   4 GROUP 4 **** **** 0

# MOE 2024.06 (io_trps.svl 2023.06)
