@<TRIPOS>MOLECULE
NONAME
30 33 1 0 0 
SMALL
USER_CHARGES


@<TRIPOS>ATOM
  1 S       -0.8170    -0.4790     1.8970 S.3   1 <1>  -0.0800 
  2 C        0.7170     0.2790     1.4530 C.2   1 <1>   0.1660 
  3 C       -1.6820     0.7220     0.9540 C.2   1 <1>  -0.1400 
  4 N        1.9230    -0.1920     1.8860 N.2   1 <1>  -0.5760 
  5 C        0.5220     1.3640     0.6430 C.2   1 <1>  -0.0010 
  6 C       -0.8660     1.5910     0.3760 C.2   1 <1>  -0.1810 
  7 C       -3.1430     0.9150     0.7060 C.3   1 <1>   0.0200 
  8 C        2.9560     0.4660     1.4790 C.2   1 <1>   0.3980 
  9 C        1.6780     2.0640     0.2140 C.2   1 <1>   0.1870 
 10 C       -1.6370     2.6050    -0.4240 C.3   1 <1>   0.0210 
 11 C       -3.1160     2.1680    -0.2110 C.3   1 <1>  -0.1600 
 12 N        2.8790     1.5970     0.6440 N.pl3 1 <1>   0.2940 
 13 C        4.3180    -0.0230     1.9360 C.3   1 <1>  -0.1790 
 14 N        1.8030     3.1180    -0.5500 N.2   1 <1>  -0.3380 
 15 C        3.7030     2.4790     0.0570 C.2   1 <1>   0.2420 
 16 N        3.1030     3.3770    -0.6450 N.2   1 <1>  -0.3380 
 17 S        5.4980     2.4390     0.2170 S.3   1 <1>  -0.2860 
 18 C        6.0590     3.8780    -0.7980 C.3   1 <1>  -0.0100 
 19 H       -3.6640     1.1050     1.6280 H     1 <1>   0.0800 
 20 H       -3.5600     0.0600     0.2030 H     1 <1>   0.0800 
 21 H       -1.3560     2.5560    -1.4610 H     1 <1>   0.0800 
 22 H       -1.4590     3.5960    -0.0430 H     1 <1>   0.0800 
 23 H       -3.6700     2.9680     0.2470 H     1 <1>   0.0800 
 24 H       -3.5680     1.9370    -1.1600 H     1 <1>   0.0800 
 25 H        4.8170     0.7410     2.5030 H     1 <1>   0.0800 
 26 H        4.9200    -0.2960     1.0890 H     1 <1>   0.0800 
 27 H        4.2100    -0.8900     2.5640 H     1 <1>   0.0800 
 28 H        5.6190     4.7670    -0.3820 H     1 <1>   0.0800 
 29 H        5.7220     3.7210    -1.8070 H     1 <1>   0.0800 
 30 H        7.1320     3.9190    -0.7490 H     1 <1>   0.0800 
@<TRIPOS>BOND
  1   1   2  1   
  2   1   3  1   
  3   2   4  1   
  4   2   5  2   
  5   3   6  2   
  6   3   7  1   
  7   4   8  2   
  8   5   6  1   
  9   5   9  1   
 10   6  10  1   
 11   7  11  1   
 12   7  19  1   
 13   7  20  1   
 14   8  12  1   
 15   8  13  1   
 16   9  12  1   
 17   9  14  2   
 18  10  11  1   
 19  10  21  1   
 20  10  22  1   
 21  11  23  1   
 22  11  24  1   
 23  12  15  1   
 24  13  25  1   
 25  13  26  1   
 26  13  27  1   
 27  14  16  1   
 28  15  16  2   
 29  15  17  1   
 30  17  18  1   
 31  18  28  1   
 32  18  29  1   
 33  18  30  1   
@<TRIPOS>SUBSTRUCTURE
  1 ****   9 GROUP 4 **** **** 0

# MOE 2024.06 (io_trps.svl 2023.06)
