@<TRIPOS>MOLECULE
NONAME
34 35 1 0 0 
SMALL
USER_CHARGES


@<TRIPOS>ATOM
  1 O        1.0000    -1.0710     1.1530 O.2   1 <1>  -0.5700 
  2 C        0.6800    -2.0080     0.4580 C.2   1 <1>   0.6300 
  3 N        1.3370    -2.2960    -0.7110 N.am  1 <1>  -0.6600 
  4 C       -0.4790    -2.8810     0.9340 C.3   1 <1>  -0.1000 
  5 C        2.4130    -1.3910    -1.2060 C.3   1 <1>   0.2840 
  6 C        1.0320    -3.4720    -1.5700 C.3   1 <1>   0.1400 
  7 C       -1.8170    -2.8680     0.2510 C.3   1 <1>  -0.1950 
  8 C       -1.6790    -2.2600     1.6060 C.3   1 <1>  -0.2000 
  9 C        3.7810    -2.0050    -0.9570 C.ar  1 <1>  -0.1440 
 10 C        1.7550    -4.7140    -1.0530 C.3   1 <1>  -0.2400 
 11 C       -2.6180    -4.1580     0.0660 C.3   1 <1>  -0.1450 
 12 C        4.6120    -2.4110    -1.9820 C.ar  1 <1>  -0.1500 
 13 C        4.2590    -2.1890     0.3250 C.ar  1 <1>  -0.1500 
 14 C        5.8440    -2.9680    -1.6830 C.ar  1 <1>   0.1600 
 15 C        5.5070    -2.7570     0.5160 C.ar  1 <1>   0.1600 
 16 N        6.3110    -3.1530    -0.4590 N.ar  1 <1>  -0.6200 
 17 H       -0.1250    -3.8000     1.3630 H     1 <1>   0.1000 
 18 H        2.3610    -0.4380    -0.7070 H     1 <1>   0.0800 
 19 H        2.2710    -1.2080    -2.2560 H     1 <1>   0.0800 
 20 H        1.3390    -3.2720    -2.5830 H     1 <1>   0.0800 
 21 H       -0.0290    -3.6500    -1.5850 H     1 <1>   0.0800 
 22 H       -1.9410    -2.1840    -0.5720 H     1 <1>   0.1000 
 23 H       -1.7110    -1.1880     1.7020 H     1 <1>   0.1000 
 24 H       -2.0970    -2.7600     2.4610 H     1 <1>   0.1000 
 25 H        2.8210    -4.5760    -1.0860 H     1 <1>   0.0800 
 26 H        1.5080    -5.5590    -1.6700 H     1 <1>   0.0800 
 27 H        1.4610    -4.9340    -0.0440 H     1 <1>   0.0800 
 28 H       -2.4850    -4.8140     0.9080 H     1 <1>   0.0800 
 29 H       -2.2970    -4.6680    -0.8240 H     1 <1>   0.0800 
 30 H       -3.6640    -3.9270    -0.0270 H     1 <1>   0.0800 
 31 H        4.3140    -2.3020    -3.0090 H     1 <1>   0.1500 
 32 H        3.6650    -1.8960     1.1730 H     1 <1>   0.1500 
 33 H        6.4790    -3.2800    -2.4940 H     1 <1>   0.1500 
 34 H        5.8600    -2.8930     1.5230 H     1 <1>   0.1500 
@<TRIPOS>BOND
  1   1   2  2   
  2   2   3  am  
  3   2   4  1   
  4   3   5  1   
  5   3   6  1   
  6   4   7  1   
  7   4   8  1   
  8   4  17  1   
  9   5   9  1   
 10   5  18  1   
 11   5  19  1   
 12   6  10  1   
 13   6  20  1   
 14   6  21  1   
 15   7   8  1   
 16   7  11  1   
 17   7  22  1   
 18   8  23  1   
 19   8  24  1   
 20   9  12  ar  
 21   9  13  ar  
 22  10  25  1   
 23  10  26  1   
 24  10  27  1   
 25  11  28  1   
 26  11  29  1   
 27  11  30  1   
 28  12  14  ar  
 29  12  31  1   
 30  13  15  ar  
 31  13  32  1   
 32  14  16  ar  
 33  14  33  1   
 34  15  16  ar  
 35  15  34  1   
@<TRIPOS>SUBSTRUCTURE
  1 ****   3 GROUP 4 **** **** 0

# MOE 2024.06 (io_trps.svl 2023.06)
