@<TRIPOS>MOLECULE
NONAME
43 44 1 0 0 
SMALL
USER_CHARGES


@<TRIPOS>ATOM
  1 CL      -0.2890     0.0230     0.9560 Cl    1 <1>  -0.1770 
  2 C       -1.9640     0.1360     0.4750 C.ar  1 <1>   0.1770 
  3 C       -2.8220    -0.9080     0.7660 C.ar  1 <1>  -0.1500 
  4 C       -2.4010     1.2650    -0.1900 C.ar  1 <1>  -0.1500 
  5 C       -4.1530    -0.8250     0.3920 C.ar  1 <1>  -0.1440 
  6 C       -3.7290     1.3650    -0.5710 C.ar  1 <1>  -0.1440 
  7 C       -4.6030     0.3220    -0.2620 C.ar  1 <1>   0.0830 
  8 C       -5.0890    -1.9870     0.6950 C.3   1 <1>  -0.0960 
  9 C       -4.2020     2.6010    -1.3240 C.3   1 <1>  -0.0960 
 10 O       -5.9040     0.4230    -0.6120 O.3   1 <1>  -0.3630 
 11 C       -6.7510     1.0140     0.3440 C.3   1 <1>   0.1200 
 12 C       -8.1250     1.1970    -0.2960 C.3   1 <1>  -0.1600 
 13 C       -9.1150     1.8010     0.7030 C.3   1 <1>   0.1100 
 14 N      -10.3630     2.1920     0.0260 N.3   1 <1>  -0.8100 
 15 C      -11.1300     3.1540     0.8410 C.3   1 <1>   0.1100 
 16 C      -11.1900     1.0320    -0.3730 C.3   1 <1>   0.1100 
 17 C      -12.3910     3.6370     0.0960 C.3   1 <1>   0.3430 
 18 C      -12.4530     1.4840    -1.1340 C.3   1 <1>   0.3430 
 19 N      -13.2450     2.4850    -0.3450 N.4   1 <1>  -0.9060 
 20 H       -2.4400    -1.7730     1.2770 H     1 <1>   0.1500 
 21 H       -1.7010     2.0520    -0.4050 H     1 <1>   0.1500 
 22 H       -4.5310    -2.8910     0.8650 H     1 <1>   0.0800 
 23 H       -5.7530    -2.1550    -0.1330 H     1 <1>   0.0800 
 24 H       -5.6710    -1.7710     1.5720 H     1 <1>   0.0800 
 25 H       -3.3700     3.1290    -1.7530 H     1 <1>   0.0800 
 26 H       -4.7230     3.2610    -0.6560 H     1 <1>   0.0800 
 27 H       -4.8660     2.3180    -2.1210 H     1 <1>   0.0800 
 28 H       -6.3310     1.9610     0.6350 H     1 <1>   0.0800 
 29 H       -6.8010     0.3620     1.1980 H     1 <1>   0.0800 
 30 H       -8.4710     0.2360    -0.6290 H     1 <1>   0.0800 
 31 H       -8.0260     1.8560    -1.1400 H     1 <1>   0.0800 
 32 H       -8.6600     2.6780     1.1340 H     1 <1>   0.0800 
 33 H       -9.3200     1.1040     1.5000 H     1 <1>   0.0800 
 34 H      -10.5120     4.0100     1.0550 H     1 <1>   0.0800 
 35 H      -11.4080     2.7040     1.7800 H     1 <1>   0.0800 
 36 H      -11.4690     0.4600     0.4950 H     1 <1>   0.0800 
 37 H      -10.6240     0.3890    -1.0250 H     1 <1>   0.0800 
 38 H      -12.0750     4.2030    -0.7650 H     1 <1>   0.0800 
 39 H      -12.9560     4.2940     0.7370 H     1 <1>   0.0800 
 40 H      -13.0610     0.6240    -1.3600 H     1 <1>   0.0800 
 41 H      -12.1410     1.9250    -2.0670 H     1 <1>   0.0800 
 42 H      -14.0330     2.8280    -0.9060 H     1 <1>   0.4500 
 43 H      -13.6310     2.0210     0.4850 H     1 <1>   0.4500 
@<TRIPOS>BOND
  1   1   2  1   
  2   2   3  ar  
  3   2   4  ar  
  4   3   5  ar  
  5   3  20  1   
  6   4   6  ar  
  7   4  21  1   
  8   5   7  ar  
  9   5   8  1   
 10   6   7  ar  
 11   6   9  1   
 12   7  10  1   
 13   8  22  1   
 14   8  23  1   
 15   8  24  1   
 16   9  25  1   
 17   9  26  1   
 18   9  27  1   
 19  10  11  1   
 20  11  12  1   
 21  11  28  1   
 22  11  29  1   
 23  12  13  1   
 24  12  30  1   
 25  12  31  1   
 26  13  14  1   
 27  13  32  1   
 28  13  33  1   
 29  14  15  1   
 30  14  16  1   
 31  15  17  1   
 32  15  34  1   
 33  15  35  1   
 34  16  18  1   
 35  16  36  1   
 36  16  37  1   
 37  17  19  1   
 38  17  38  1   
 39  17  39  1   
 40  18  19  1   
 41  18  40  1   
 42  18  41  1   
 43  19  42  1   
 44  19  43  1   
@<TRIPOS>SUBSTRUCTURE
  1 ****  11 GROUP 4 **** **** 0

# MOE 2024.06 (io_trps.svl 2023.06)
