@<TRIPOS>MOLECULE
NONAME
35 36 1 0 0 
SMALL
USER_CHARGES


@<TRIPOS>ATOM
  1 F        1.9160    -2.3470    -1.8210 F     1 <1>  -0.1900 
  2 C        1.0400    -2.4740    -0.8570 C.ar  1 <1>   0.1900 
  3 C       -0.2100    -2.9950    -1.1470 C.ar  1 <1>   0.1900 
  4 C        1.3830    -2.0840     0.4340 C.ar  1 <1>   0.0860 
  5 F       -0.4880    -3.3600    -2.3740 F     1 <1>  -0.1900 
  6 C       -1.1790    -3.1430    -0.1650 C.ar  1 <1>  -0.1440 
  7 C        2.6830    -1.5470     0.7630 C.2   1 <1>   0.5440 
  8 C        0.3980    -2.2270     1.4140 C.ar  1 <1>  -0.1500 
  9 C       -0.8550    -2.7470     1.1260 C.ar  1 <1>  -0.1500 
 10 C       -2.5530    -3.7140    -0.4840 C.3   1 <1>  -0.0960 
 11 O        2.7540    -0.3880     1.1240 O.2   1 <1>  -0.5700 
 12 N        3.8300    -2.3150     0.7270 N.am  1 <1>  -0.6600 
 13 C        3.8430    -3.7930     0.5390 C.3   1 <1>   0.1400 
 14 C        5.1810    -1.7130     0.9020 C.3   1 <1>   0.1400 
 15 C        4.7130    -4.1560    -0.6690 C.3   1 <1>  -0.1600 
 16 C        6.0620    -2.0630    -0.3020 C.3   1 <1>  -0.1600 
 17 C        6.1310    -3.5800    -0.5350 C.3   1 <1>  -0.0800 
 18 C        6.9620    -3.8970    -1.7830 C.3   1 <1>  -0.2400 
 19 H        0.6290    -1.9170     2.4200 H     1 <1>   0.1500 
 20 H       -1.5820    -2.8390     1.9160 H     1 <1>   0.1500 
 21 H       -3.0470    -3.0970    -1.2130 H     1 <1>   0.0800 
 22 H       -3.1680    -3.7600     0.3970 H     1 <1>   0.0800 
 23 H       -2.4540    -4.7080    -0.8840 H     1 <1>   0.0800 
 24 H        2.8480    -4.1760     0.3960 H     1 <1>   0.0800 
 25 H        4.2490    -4.2490     1.4260 H     1 <1>   0.0800 
 26 H        5.6210    -2.0970     1.8050 H     1 <1>   0.0800 
 27 H        5.1140    -0.6420     0.9930 H     1 <1>   0.0800 
 28 H        4.2450    -3.7750    -1.5600 H     1 <1>   0.0800 
 29 H        4.7620    -5.2260    -0.7560 H     1 <1>   0.0800 
 30 H        7.0500    -1.6730    -0.1370 H     1 <1>   0.0800 
 31 H        5.6580    -1.5740    -1.1720 H     1 <1>   0.0800 
 32 H        6.6080    -4.0360     0.3170 H     1 <1>   0.0800 
 33 H        6.5160    -3.4570    -2.6570 H     1 <1>   0.0800 
 34 H        7.0250    -4.9610    -1.9300 H     1 <1>   0.0800 
 35 H        7.9600    -3.5110    -1.6760 H     1 <1>   0.0800 
@<TRIPOS>BOND
  1   1   2  1   
  2   2   3  ar  
  3   2   4  ar  
  4   3   5  1   
  5   3   6  ar  
  6   4   7  1   
  7   4   8  ar  
  8   6   9  ar  
  9   6  10  1   
 10   7  11  2   
 11   7  12  am  
 12   8   9  ar  
 13   8  19  1   
 14   9  20  1   
 15  10  21  1   
 16  10  22  1   
 17  10  23  1   
 18  12  13  1   
 19  12  14  1   
 20  13  15  1   
 21  13  24  1   
 22  13  25  1   
 23  14  16  1   
 24  14  26  1   
 25  14  27  1   
 26  15  17  1   
 27  15  28  1   
 28  15  29  1   
 29  16  17  1   
 30  16  30  1   
 31  16  31  1   
 32  17  18  1   
 33  17  32  1   
 34  18  33  1   
 35  18  34  1   
 36  18  35  1   
@<TRIPOS>SUBSTRUCTURE
  1 ****   4 GROUP 4 **** **** 0

# MOE 2024.06 (io_trps.svl 2023.06)
