@<TRIPOS>MOLECULE
NONAME
42 43 1 0 0 
SMALL
USER_CHARGES


@<TRIPOS>ATOM
  1 O        0.3110     0.0250    -0.2510 O.2   1 <1>  -0.5700 
  2 C        0.1780    -1.1600    -0.4820 C.2   1 <1>   0.6900 
  3 N       -1.0310    -1.7850    -0.4090 N.am  1 <1>  -0.5470 
  4 N        1.2540    -1.9180    -0.8100 N.am  1 <1>  -0.7300 
  5 C       -2.3190    -1.2770    -0.1740 C.ar  1 <1>   0.1170 
  6 C        2.6410    -1.4070    -0.9300 C.3   1 <1>   0.1400 
  7 C       -3.2920    -2.1290     0.3370 C.ar  1 <1>  -0.1500 
  8 C       -2.6750     0.0400    -0.4490 C.ar  1 <1>  -0.1500 
  9 C        3.4570    -1.8240     0.2950 C.3   1 <1>  -0.0220 
 10 C       -4.5790    -1.6790     0.5700 C.ar  1 <1>  -0.1500 
 11 C       -3.9610     0.4970    -0.2160 C.ar  1 <1>  -0.1500 
 12 C        4.9110    -1.3880     0.1690 C.2   1 <1>  -0.2760 
 13 C       -4.9240    -0.3660     0.2980 C.ar  1 <1>   0.0830 
 14 C        5.9010    -2.2450    -0.1010 C.2   1 <1>  -0.2880 
 15 C        5.1530     0.1030     0.3980 C.3   1 <1>  -0.0220 
 16 O       -6.2080    -0.0040     0.5570 O.3   1 <1>  -0.3630 
 17 C        7.3680    -1.8590    -0.2000 C.3   1 <1>  -0.0220 
 18 C        6.5520     0.5320    -0.0700 C.3   1 <1>  -0.1600 
 19 C       -6.6400     1.3220     0.3480 C.3   1 <1>   0.0400 
 20 C        7.6220    -0.4650     0.3900 C.3   1 <1>  -0.1600 
 21 H       -0.9740    -2.7950    -0.4500 H     1 <1>   0.3700 
 22 H        1.1260    -2.8990    -1.0470 H     1 <1>   0.3700 
 23 H        2.6270    -0.3330    -1.0130 H     1 <1>   0.0800 
 24 H        3.0930    -1.8040    -1.8210 H     1 <1>   0.0800 
 25 H       -3.0450    -3.1510     0.5580 H     1 <1>   0.1500 
 26 H       -1.9450     0.7180    -0.8520 H     1 <1>   0.1500 
 27 H        3.4190    -2.8950     0.3870 H     1 <1>   0.0800 
 28 H        3.0260    -1.3950     1.1830 H     1 <1>   0.0800 
 29 H       -5.3260    -2.3420     0.9670 H     1 <1>   0.1500 
 30 H       -4.1880     1.5210    -0.4410 H     1 <1>   0.1500 
 31 H        5.7380    -3.2950    -0.2750 H     1 <1>   0.1500 
 32 H        5.0470     0.3100     1.4490 H     1 <1>   0.0800 
 33 H        4.4240     0.6930    -0.1280 H     1 <1>   0.0800 
 34 H        7.6610    -1.8760    -1.2350 H     1 <1>   0.0800 
 35 H        7.9680    -2.5790     0.3290 H     1 <1>   0.0800 
 36 H        6.7730     1.5130     0.3120 H     1 <1>   0.0800 
 37 H        6.5610     0.5840    -1.1460 H     1 <1>   0.0800 
 38 H       -7.6750     1.3850     0.6310 H     1 <1>   0.0800 
 39 H       -6.5300     1.5650    -0.6940 H     1 <1>   0.0800 
 40 H       -6.0520     1.9810     0.9620 H     1 <1>   0.0800 
 41 H        8.5990    -0.1220     0.0970 H     1 <1>   0.0800 
 42 H        7.6000    -0.5300     1.4640 H     1 <1>   0.0800 
@<TRIPOS>BOND
  1   1   2  2   
  2   2   3  am  
  3   2   4  am  
  4   3   5  1   
  5   3  21  1   
  6   4   6  1   
  7   4  22  1   
  8   5   7  ar  
  9   5   8  ar  
 10   6   9  1   
 11   6  23  1   
 12   6  24  1   
 13   7  10  ar  
 14   7  25  1   
 15   8  11  ar  
 16   8  26  1   
 17   9  12  1   
 18   9  27  1   
 19   9  28  1   
 20  10  13  ar  
 21  10  29  1   
 22  11  13  ar  
 23  11  30  1   
 24  12  14  2   
 25  12  15  1   
 26  13  16  1   
 27  14  17  1   
 28  14  31  1   
 29  15  18  1   
 30  15  32  1   
 31  15  33  1   
 32  16  19  1   
 33  17  20  1   
 34  17  34  1   
 35  17  35  1   
 36  18  20  1   
 37  18  36  1   
 38  18  37  1   
 39  19  38  1   
 40  19  39  1   
 41  19  40  1   
 42  20  41  1   
 43  20  42  1   
@<TRIPOS>SUBSTRUCTURE
  1 ****   2 GROUP 4 **** **** 0

# MOE 2024.06 (io_trps.svl 2023.06)
