@<TRIPOS>MOLECULE
NONAME
36 35 1 0 0 
SMALL
USER_CHARGES


@<TRIPOS>ATOM
  1 SI       0.2480     1.8460    -0.6730 Si    1 <1>   0.5390 
  2 O       -0.9750     1.1160     0.1870 O.3   1 <1>  -0.4470 
  3 C        1.7600     0.8750    -0.5210 C.3   1 <1>  -0.3200 
  4 C       -0.2400     2.0150    -2.4010 C.3   1 <1>  -0.3210 
  5 C        0.5180     3.4840     0.0320 C.3   1 <1>  -0.3200 
  6 C       -1.4530    -0.1100    -0.0070 C.2   1 <1>   0.7060 
  7 O       -1.0180    -0.7930    -0.9080 O.2   1 <1>  -0.5700 
  8 C       -2.5080    -0.5170     0.8750 C.2   1 <1>  -0.1360 
  9 C       -2.9530    -1.7530     1.2210 C.2   1 <1>  -0.1360 
 10 C       -2.4670    -3.0580     0.8820 C.2   1 <1>   0.7060 
 11 O       -3.1740    -4.0390     0.9500 O.2   1 <1>  -0.5700 
 12 O       -1.1920    -3.1770     0.5330 O.3   1 <1>  -0.4470 
 13 SI      -0.4130    -4.5460     0.0110 Si    1 <1>   0.5390 
 14 C       -0.4070    -5.7830     1.3230 C.3   1 <1>  -0.3200 
 15 C        1.2840    -4.0890    -0.3900 C.3   1 <1>  -0.3210 
 16 C       -1.2270    -5.1790    -1.4680 C.3   1 <1>  -0.3210 
 17 H        2.5870     1.3270    -1.0370 H     1 <1>   0.0800 
 18 H        1.6450    -0.1130    -0.9270 H     1 <1>   0.0800 
 19 H        2.0610     0.7530     0.5030 H     1 <1>   0.0800 
 20 H        0.5110     2.5100    -2.9880 H     1 <1>   0.0800 
 21 H       -1.1450     2.5810    -2.5120 H     1 <1>   0.0800 
 22 H       -0.4130     1.0610    -2.8630 H     1 <1>   0.0800 
 23 H        0.7960     3.4330     1.0680 H     1 <1>   0.0800 
 24 H       -0.3640     4.0940    -0.0230 H     1 <1>   0.0800 
 25 H        1.2990     4.0190    -0.4750 H     1 <1>   0.0800 
 26 H       -3.0070     0.3310     1.3030 H     1 <1>   0.1500 
 27 H       -3.8120    -1.8200     1.8620 H     1 <1>   0.1500 
 28 H        0.1150    -6.6770     1.0370 H     1 <1>   0.0800 
 29 H       -1.4020    -6.0810     1.5970 H     1 <1>   0.0800 
 30 H        0.0630    -5.4190     2.2170 H     1 <1>   0.0800 
 31 H        1.3190    -3.3270    -1.1480 H     1 <1>   0.0800 
 32 H        1.8560    -4.9210    -0.7550 H     1 <1>   0.0800 
 33 H        1.8060    -3.6980     0.4630 H     1 <1>   0.0800 
 34 H       -0.7330    -6.0450    -1.8670 H     1 <1>   0.0800 
 35 H       -1.2550    -4.4460    -2.2530 H     1 <1>   0.0800 
 36 H       -2.2450    -5.4630    -1.2750 H     1 <1>   0.0800 
@<TRIPOS>BOND
  1   1   2  1   
  2   1   3  1   
  3   1   4  1   
  4   1   5  1   
  5   2   6  1   
  6   3  17  1   
  7   3  18  1   
  8   3  19  1   
  9   4  20  1   
 10   4  21  1   
 11   4  22  1   
 12   5  23  1   
 13   5  24  1   
 14   5  25  1   
 15   6   7  2   
 16   6   8  1   
 17   8   9  2   
 18   8  26  1   
 19   9  10  1   
 20   9  27  1   
 21  10  11  2   
 22  10  12  1   
 23  12  13  1   
 24  13  14  1   
 25  13  15  1   
 26  13  16  1   
 27  14  28  1   
 28  14  29  1   
 29  14  30  1   
 30  15  31  1   
 31  15  32  1   
 32  15  33  1   
 33  16  34  1   
 34  16  35  1   
 35  16  36  1   
@<TRIPOS>SUBSTRUCTURE
  1 ****   7 GROUP 4 **** **** 0

# MOE 2024.06 (io_trps.svl 2023.06)
