@<TRIPOS>MOLECULE
NONAME
55 57 1 0 0 
SMALL
USER_CHARGES


@<TRIPOS>ATOM
  1 O       -2.0530    -0.3480    -1.3730 O.3   1 <1>  -0.3630 
  2 C       -2.4180     0.7440    -0.6420 C.ar  1 <1>   0.0830 
  3 C       -0.8500    -0.4080    -2.1090 C.3   1 <1>   0.0400 
  4 C       -1.8050     2.0050    -0.6300 C.ar  1 <1>   0.0830 
  5 C       -3.5290     0.5360     0.1580 C.ar  1 <1>  -0.1500 
  6 O       -0.7270     2.3220    -1.3830 O.3   1 <1>  -0.5330 
  7 C       -2.3050     3.0190     0.1840 C.ar  1 <1>   0.0830 
  8 C       -4.0480     1.5460     0.9530 C.ar  1 <1>  -0.1430 
  9 O       -1.6530     4.2190     0.1590 O.3   1 <1>  -0.3630 
 10 C       -3.4280     2.7870     0.9720 C.ar  1 <1>  -0.1500 
 11 C       -5.2960     1.2900     1.7760 C.3   1 <1>   0.4860 
 12 C       -1.8730     5.2030     1.1480 C.3   1 <1>   0.0400 
 13 N       -6.4360     1.0800     0.8440 N.4   1 <1>  -0.9590 
 14 C       -6.6810     2.2860    -0.0340 C.3   1 <1>   0.3430 
 15 C       -7.6930     0.6710     1.5680 C.3   1 <1>   0.3430 
 16 C       -7.8530     2.0850    -1.0180 C.3   1 <1>   0.2090 
 17 C       -8.8690     0.4070     0.6060 C.3   1 <1>   0.2090 
 18 N       -9.0660     1.5450    -0.3350 N.pl3 1 <1>  -0.8380 
 19 C      -10.1400     2.4000    -0.0850 C.ar  1 <1>   0.1000 
 20 C      -11.4080     2.1560    -0.6240 C.ar  1 <1>  -0.1430 
 21 C       -9.9540     3.5060     0.7370 C.ar  1 <1>  -0.1500 
 22 C      -12.4660     3.0070    -0.3140 C.ar  1 <1>  -0.1430 
 23 C      -11.6300     0.9570    -1.5490 C.3   1 <1>  -0.0970 
 24 C      -11.0000     4.3550     1.0320 C.ar  1 <1>  -0.1500 
 25 C      -12.2530     4.1030     0.5090 C.ar  1 <1>  -0.1500 
 26 C      -13.8750     2.7810    -0.8490 C.3   1 <1>  -0.0970 
 27 H       -0.7460    -1.4020    -2.5040 H     1 <1>   0.0800 
 28 H       -0.0270    -0.1860    -1.4540 H     1 <1>   0.0800 
 29 H       -0.8990     0.3020    -2.9160 H     1 <1>   0.0800 
 30 H       -3.9730    -0.4430     0.1390 H     1 <1>   0.1500 
 31 H       -0.4740     3.2510    -1.2050 H     1 <1>   0.4500 
 32 H       -3.8220     3.5700     1.5930 H     1 <1>   0.1500 
 33 H       -5.4920     2.1290     2.4230 H     1 <1>   0.0800 
 34 H       -5.1460     0.4130     2.3850 H     1 <1>   0.0800 
 35 H       -1.7240     4.7640     2.1190 H     1 <1>   0.0800 
 36 H       -2.8700     5.5900     1.0440 H     1 <1>   0.0800 
 37 H       -1.1610     5.9940     0.9950 H     1 <1>   0.0800 
 38 H       -6.1700     0.3150     0.2100 H     1 <1>   0.4500 
 39 H       -5.7930     2.5170    -0.6000 H     1 <1>   0.0800 
 40 H       -6.9070     3.1390     0.5830 H     1 <1>   0.0800 
 41 H       -7.9910     1.4540     2.2460 H     1 <1>   0.0800 
 42 H       -7.5140    -0.2190     2.1490 H     1 <1>   0.0800 
 43 H       -7.5590     1.4030    -1.7970 H     1 <1>   0.0800 
 44 H       -8.0940     3.0240    -1.4870 H     1 <1>   0.0800 
 45 H       -9.7710     0.2550     1.1760 H     1 <1>   0.0800 
 46 H       -8.6870    -0.4900     0.0400 H     1 <1>   0.0800 
 47 H       -8.9890     3.7070     1.1550 H     1 <1>   0.1500 
 48 H      -10.7200     0.6650    -2.0390 H     1 <1>   0.0800 
 49 H      -12.3370     1.1910    -2.3230 H     1 <1>   0.0800 
 50 H      -11.9980     0.1240    -0.9800 H     1 <1>   0.0800 
 51 H      -10.8490     5.2100     1.6670 H     1 <1>   0.1500 
 52 H      -13.0640     4.7690     0.7470 H     1 <1>   0.1500 
 53 H      -14.1780     1.7630    -0.6830 H     1 <1>   0.0800 
 54 H      -13.9040     2.9910    -1.9030 H     1 <1>   0.0800 
 55 H      -14.5830     3.4220    -0.3570 H     1 <1>   0.0800 
@<TRIPOS>BOND
  1   1   2  1   
  2   1   3  1   
  3   2   4  ar  
  4   2   5  ar  
  5   3  27  1   
  6   3  28  1   
  7   3  29  1   
  8   4   6  1   
  9   4   7  ar  
 10   5   8  ar  
 11   5  30  1   
 12   6  31  1   
 13   7   9  1   
 14   7  10  ar  
 15   8  10  ar  
 16   8  11  1   
 17   9  12  1   
 18  10  32  1   
 19  11  13  1   
 20  11  33  1   
 21  11  34  1   
 22  12  35  1   
 23  12  36  1   
 24  12  37  1   
 25  13  14  1   
 26  13  15  1   
 27  13  38  1   
 28  14  16  1   
 29  14  39  1   
 30  14  40  1   
 31  15  17  1   
 32  15  41  1   
 33  15  42  1   
 34  16  18  1   
 35  16  43  1   
 36  16  44  1   
 37  17  18  1   
 38  17  45  1   
 39  17  46  1   
 40  18  19  1   
 41  19  20  ar  
 42  19  21  ar  
 43  20  22  ar  
 44  20  23  1   
 45  21  24  ar  
 46  21  47  1   
 47  22  25  ar  
 48  22  26  1   
 49  23  48  1   
 50  23  49  1   
 51  23  50  1   
 52  24  25  ar  
 53  24  51  1   
 54  25  52  1   
 55  26  53  1   
 56  26  54  1   
 57  26  55  1   
@<TRIPOS>SUBSTRUCTURE
  1 ****  14 GROUP 4 **** **** 0

# MOE 2024.06 (io_trps.svl 2023.06)
