@<TRIPOS>MOLECULE
NONAME
45 45 1 0 0 
SMALL
USER_CHARGES


@<TRIPOS>ATOM
  1 O        1.9290     1.2770    -1.7740 O.2   1 <1>  -0.5700 
  2 C        0.8870     1.5060    -1.2080 C.2   1 <1>   0.5690 
  3 N        0.5210     0.8950    -0.0470 N.am  1 <1>  -0.7300 
  4 C       -0.0510     2.5300    -1.8280 C.3   1 <1>   0.0440 
  5 C        1.2500    -0.1200     0.7350 C.3   1 <1>   0.2200 
  6 C       -1.4480     2.5150    -1.2110 C.ar  1 <1>  -0.1440 
  7 C        2.6000     0.4450     1.2030 C.3   1 <1>  -0.1600 
  8 C        1.3760    -1.3980    -0.0940 C.3   1 <1>  -0.2400 
  9 C       -1.7400     3.3180    -0.1210 C.ar  1 <1>  -0.1500 
 10 C       -2.4320     1.6860    -1.7200 C.ar  1 <1>  -0.1500 
 11 C        3.3010    -0.4440     2.2410 C.3   1 <1>  -0.2400 
 12 C       -2.9930     3.3050     0.4690 C.ar  1 <1>   0.0820 
 13 C       -3.6880     1.6540    -1.1410 C.ar  1 <1>  -0.1500 
 14 O       -3.1300     4.1500     1.5300 O.3   1 <1>  -0.3630 
 15 C       -3.9870     2.4510    -0.0380 C.ar  1 <1>   0.0820 
 16 C       -4.3700     4.7440     1.8430 C.3   1 <1>   0.0400 
 17 O       -5.2120     2.4000     0.5630 O.3   1 <1>  -0.3630 
 18 C       -6.2140     1.4950     0.1600 C.3   1 <1>   0.1200 
 19 C       -7.4210     1.6820     1.0790 C.3   1 <1>  -0.1600 
 20 C       -8.5620     0.7300     0.7040 C.3   1 <1>  -0.2400 
 21 H       -0.3990     1.1430     0.3300 H     1 <1>   0.3700 
 22 H       -0.1180     2.3310    -2.8810 H     1 <1>   0.0800 
 23 H        0.3900     3.5020    -1.7100 H     1 <1>   0.0800 
 24 H        0.6580    -0.3410     1.6080 H     1 <1>   0.0800 
 25 H        2.4340     1.4120     1.6430 H     1 <1>   0.0800 
 26 H        3.2520     0.5730     0.3560 H     1 <1>   0.0800 
 27 H        2.0250    -1.2380    -0.9360 H     1 <1>   0.0800 
 28 H        0.4080    -1.7060    -0.4470 H     1 <1>   0.0800 
 29 H        1.7830    -2.1920     0.5030 H     1 <1>   0.0800 
 30 H       -0.9900     3.9710     0.2900 H     1 <1>   0.1500 
 31 H       -2.2230     1.0560    -2.5670 H     1 <1>   0.1500 
 32 H        2.6610    -0.6080     3.0900 H     1 <1>   0.0800 
 33 H        4.2020     0.0360     2.5800 H     1 <1>   0.0800 
 34 H        3.5670    -1.3940     1.8130 H     1 <1>   0.0800 
 35 H       -4.4170     0.9930    -1.5700 H     1 <1>   0.1500 
 36 H       -4.1840     5.6060     2.4560 H     1 <1>   0.0800 
 37 H       -4.9680     4.0340     2.3860 H     1 <1>   0.0800 
 38 H       -4.8600     5.0380     0.9310 H     1 <1>   0.0800 
 39 H       -5.8230     0.4950     0.2440 H     1 <1>   0.0800 
 40 H       -6.4780     1.7110    -0.8610 H     1 <1>   0.0800 
 41 H       -7.7680     2.6980     1.0040 H     1 <1>   0.0800 
 42 H       -7.1220     1.4940     2.0960 H     1 <1>   0.0800 
 43 H       -8.8890     0.9120    -0.3050 H     1 <1>   0.0800 
 44 H       -9.3970     0.8800     1.3660 H     1 <1>   0.0800 
 45 H       -8.2410    -0.2940     0.7870 H     1 <1>   0.0800 
@<TRIPOS>BOND
  1   1   2  2   
  2   2   3  am  
  3   2   4  1   
  4   3   5  1   
  5   3  21  1   
  6   4   6  1   
  7   4  22  1   
  8   4  23  1   
  9   5   7  1   
 10   5   8  1   
 11   5  24  1   
 12   6   9  ar  
 13   6  10  ar  
 14   7  11  1   
 15   7  25  1   
 16   7  26  1   
 17   8  27  1   
 18   8  28  1   
 19   8  29  1   
 20   9  12  ar  
 21   9  30  1   
 22  10  13  ar  
 23  10  31  1   
 24  11  32  1   
 25  11  33  1   
 26  11  34  1   
 27  12  14  1   
 28  12  15  ar  
 29  13  15  ar  
 30  13  35  1   
 31  14  16  1   
 32  15  17  1   
 33  16  36  1   
 34  16  37  1   
 35  16  38  1   
 36  17  18  1   
 37  18  19  1   
 38  18  39  1   
 39  18  40  1   
 40  19  20  1   
 41  19  41  1   
 42  19  42  1   
 43  20  43  1   
 44  20  44  1   
 45  20  45  1   
@<TRIPOS>SUBSTRUCTURE
  1 ****   6 GROUP 4 **** **** 0

# MOE 2024.06 (io_trps.svl 2023.06)
