@<TRIPOS>MOLECULE
NONAME
45 46 1 0 0 
SMALL
USER_CHARGES


@<TRIPOS>ATOM
  1 O        0.3250    -2.8720    -1.8050 O.2   1 <1>  -0.5700 
  2 C        0.3780    -2.4710    -0.6720 C.2   1 <1>   0.6590 
  3 O       -0.5220    -1.6440    -0.1630 O.3   1 <1>  -0.4300 
  4 C        1.5100    -2.8810     0.2640 C.3   1 <1>  -0.0190 
  5 C       -1.6130    -1.1830    -0.9270 C.3   1 <1>   0.1200 
  6 C        2.8020    -2.1160    -0.0790 C.3   1 <1>  -0.1600 
  7 C        1.7630    -4.4020     0.2170 C.3   1 <1>  -0.1600 
  8 C       -2.4470    -0.2550    -0.0510 C.3   1 <1>  -0.2400 
  9 C        3.9840    -2.5710     0.7730 C.3   1 <1>   0.3430 
 10 C        2.9640    -4.8110     1.0660 C.3   1 <1>   0.3430 
 11 N        4.1620    -4.0460     0.6280 N.4   1 <1>  -0.9590 
 12 C        5.3990    -4.5220     1.3070 C.3   1 <1>   0.4860 
 13 C        6.5940    -3.8710     0.6400 C.ar  1 <1>  -0.1440 
 14 C        6.9050    -4.1810    -0.6760 C.ar  1 <1>  -0.1500 
 15 C        7.3810    -2.9550     1.3280 C.ar  1 <1>  -0.1500 
 16 C        7.9750    -3.5650    -1.2930 C.ar  1 <1>   0.0820 
 17 C        8.4600    -2.3450     0.7080 C.ar  1 <1>  -0.1500 
 18 O        8.2500    -3.8630    -2.5720 O.3   1 <1>  -0.5330 
 19 C        8.7670    -2.6430    -0.6160 C.ar  1 <1>   0.0820 
 20 O        9.8050    -2.0850    -1.3020 O.3   1 <1>  -0.3620 
 21 C       10.6960    -1.1890    -0.6730 C.3   1 <1>   0.0400 
 22 H        1.2130    -2.6190     1.2650 H     1 <1>   0.0800 
 23 H       -2.1910    -2.0350    -1.2480 H     1 <1>   0.0800 
 24 H       -1.2310    -0.6620    -1.7890 H     1 <1>   0.0800 
 25 H        2.6440    -1.0620     0.0760 H     1 <1>   0.0800 
 26 H        3.0430    -2.2510    -1.1200 H     1 <1>   0.0800 
 27 H        1.9280    -4.7180    -0.8000 H     1 <1>   0.0800 
 28 H        0.8880    -4.9180     0.5720 H     1 <1>   0.0800 
 29 H       -2.8150    -0.7860     0.8090 H     1 <1>   0.0800 
 30 H       -3.2880     0.1110    -0.6100 H     1 <1>   0.0800 
 31 H       -1.8570     0.5860     0.2680 H     1 <1>   0.0800 
 32 H        3.8060    -2.3220     1.8060 H     1 <1>   0.0800 
 33 H        4.8750    -2.0550     0.4480 H     1 <1>   0.0800 
 34 H        3.1370    -5.8700     0.9520 H     1 <1>   0.0800 
 35 H        2.7590    -4.6090     2.1050 H     1 <1>   0.0800 
 36 H        4.3050    -4.2210    -0.3760 H     1 <1>   0.4500 
 37 H        5.4850    -5.5930     1.2160 H     1 <1>   0.0800 
 38 H        5.3740    -4.2680     2.3540 H     1 <1>   0.0800 
 39 H        6.3380    -4.8960    -1.2450 H     1 <1>   0.1500 
 40 H        7.1670    -2.7060     2.3540 H     1 <1>   0.1500 
 41 H        9.0500    -1.6430     1.2690 H     1 <1>   0.1500 
 42 H        9.0420    -3.3630    -2.8620 H     1 <1>   0.4500 
 43 H       11.4410    -0.8990    -1.3930 H     1 <1>   0.0800 
 44 H       11.1660    -1.6870     0.1570 H     1 <1>   0.0800 
 45 H       10.1500    -0.3220    -0.3460 H     1 <1>   0.0800 
@<TRIPOS>BOND
  1   1   2  2   
  2   2   3  1   
  3   2   4  1   
  4   3   5  1   
  5   4   6  1   
  6   4   7  1   
  7   4  22  1   
  8   5   8  1   
  9   5  23  1   
 10   5  24  1   
 11   6   9  1   
 12   6  25  1   
 13   6  26  1   
 14   7  10  1   
 15   7  27  1   
 16   7  28  1   
 17   8  29  1   
 18   8  30  1   
 19   8  31  1   
 20   9  11  1   
 21   9  32  1   
 22   9  33  1   
 23  10  11  1   
 24  10  34  1   
 25  10  35  1   
 26  11  12  1   
 27  11  36  1   
 28  12  13  1   
 29  12  37  1   
 30  12  38  1   
 31  13  14  ar  
 32  13  15  ar  
 33  14  16  ar  
 34  14  39  1   
 35  15  17  ar  
 36  15  40  1   
 37  16  18  1   
 38  16  19  ar  
 39  17  19  ar  
 40  17  41  1   
 41  18  42  1   
 42  19  20  1   
 43  20  21  1   
 44  21  43  1   
 45  21  44  1   
 46  21  45  1   
@<TRIPOS>SUBSTRUCTURE
  1 ****   9 GROUP 4 **** **** 0

# MOE 2024.06 (io_trps.svl 2023.06)
