@<TRIPOS>MOLECULE
NONAME
34 35 1 0 0 
SMALL
USER_CHARGES


@<TRIPOS>ATOM
  1 BR      -0.4660    -0.8020    -1.8480 Br    1 <1>  -0.1110 
  2 C       -2.1710    -0.3510    -1.0720 C.ar  1 <1>   0.1110 
  3 C       -2.6370    -1.0990    -0.0100 C.ar  1 <1>  -0.1500 
  4 C       -2.8840     0.7110    -1.5960 C.ar  1 <1>  -0.1500 
  5 C       -3.8630    -0.7550     0.5260 C.ar  1 <1>   0.1770 
  6 C       -4.1090     1.0380    -1.0380 C.ar  1 <1>  -0.1500 
  7 CL      -4.4760    -1.6930     1.8730 Cl    1 <1>  -0.1770 
  8 C       -4.6260     0.3070     0.0330 C.ar  1 <1>   0.1170 
  9 N       -5.8650     0.5950     0.6390 N.am  1 <1>  -0.5470 
 10 C       -6.9310     1.3460     0.2540 C.2   1 <1>   0.6900 
 11 O       -6.9510     2.0000    -0.7700 O.2   1 <1>  -0.5700 
 12 N       -8.0520     1.3060     1.0290 N.am  1 <1>  -0.6600 
 13 C       -8.8500     2.5620     1.1470 C.3   1 <1>   0.1400 
 14 C       -8.8980     0.0840     0.9330 C.3   1 <1>   0.1400 
 15 C       -9.8300     2.6900    -0.0370 C.3   1 <1>   0.3430 
 16 C       -9.8800     0.2100    -0.2520 C.3   1 <1>   0.3430 
 17 N      -10.7080     1.4700    -0.1840 N.4   1 <1>  -0.9590 
 18 C      -11.5750     1.5970    -1.3940 C.3   1 <1>   0.2630 
 19 H       -2.0670    -1.9200     0.3840 H     1 <1>   0.1500 
 20 H       -2.4860     1.2740    -2.4230 H     1 <1>   0.1500 
 21 H       -4.6540     1.8700    -1.4450 H     1 <1>   0.1500 
 22 H       -6.0020     0.1450     1.5430 H     1 <1>   0.3700 
 23 H       -8.1850     3.4100     1.1480 H     1 <1>   0.0800 
 24 H       -9.3870     2.5650     2.0800 H     1 <1>   0.0800 
 25 H       -9.4400    -0.0540     1.8530 H     1 <1>   0.0800 
 26 H       -8.2740    -0.7820     0.7850 H     1 <1>   0.0800 
 27 H       -9.2500     2.8280    -0.9360 H     1 <1>   0.0800 
 28 H      -10.4390     3.5690     0.1000 H     1 <1>   0.0800 
 29 H      -10.5260    -0.6530    -0.2700 H     1 <1>   0.0800 
 30 H       -9.3040     0.2100    -1.1640 H     1 <1>   0.0800 
 31 H      -11.3060     1.4120     0.6520 H     1 <1>   0.4500 
 32 H      -10.9670     1.6640    -2.2830 H     1 <1>   0.0800 
 33 H      -12.1850     2.4830    -1.3270 H     1 <1>   0.0800 
 34 H      -12.2230     0.7400    -1.4830 H     1 <1>   0.0800 
@<TRIPOS>BOND
  1   1   2  1   
  2   2   3  ar  
  3   2   4  ar  
  4   3   5  ar  
  5   3  19  1   
  6   4   6  ar  
  7   4  20  1   
  8   5   7  1   
  9   5   8  ar  
 10   6   8  ar  
 11   6  21  1   
 12   8   9  1   
 13   9  10  am  
 14   9  22  1   
 15  10  11  2   
 16  10  12  am  
 17  12  13  1   
 18  12  14  1   
 19  13  15  1   
 20  13  23  1   
 21  13  24  1   
 22  14  16  1   
 23  14  25  1   
 24  14  26  1   
 25  15  17  1   
 26  15  27  1   
 27  15  28  1   
 28  16  17  1   
 29  16  29  1   
 30  16  30  1   
 31  17  18  1   
 32  17  31  1   
 33  18  32  1   
 34  18  33  1   
 35  18  34  1   
@<TRIPOS>SUBSTRUCTURE
  1 ****   9 GROUP 4 **** **** 0

# MOE 2024.06 (io_trps.svl 2023.06)
