@<TRIPOS>MOLECULE
NONAME
38 40 1 0 0 
SMALL
USER_CHARGES


@<TRIPOS>ATOM
  1 BR       0.2030    -0.9640     2.8660 Br    1 <1>  -0.1110 
  2 C       -0.7400    -1.9310     1.4910 C.ar  1 <1>   0.1110 
  3 C       -0.0040    -2.6000     0.4980 C.ar  1 <1>   0.0280 
  4 C       -2.1230    -1.9260     1.5610 C.ar  1 <1>  -0.1500 
  5 C       -0.7390    -3.2950    -0.4720 C.ar  1 <1>  -0.1500 
  6 C        1.4350    -2.5500     0.4740 C.2   1 <1>  -0.1780 
  7 C       -2.7940    -2.6290     0.5820 C.ar  1 <1>   0.0830 
  8 C       -2.1170    -3.2920    -0.4030 C.ar  1 <1>   0.0830 
  9 C        2.3360    -3.5480     0.2550 C.2   1 <1>   0.0790 
 10 O       -4.1090    -2.7830     0.4220 O.3   1 <1>  -0.3630 
 11 O       -2.9850    -3.8890    -1.2290 O.3   1 <1>  -0.3630 
 12 C        1.9480    -4.9020     0.0030 C.1   1 <1>   0.4920 
 13 C        3.7610    -3.3400     0.2790 C.2   1 <1>   0.6160 
 14 C       -4.2910    -3.6000    -0.7330 C.3   1 <1>   0.4000 
 15 N        1.5830    -5.9670    -0.1820 N.1   1 <1>  -0.5570 
 16 O        4.5070    -3.9850    -0.4300 O.2   1 <1>  -0.5700 
 17 N        4.3120    -2.3900     1.0960 N.am  1 <1>  -0.7300 
 18 C        5.7730    -2.1050     1.2050 C.3   1 <1>   0.1400 
 19 C        6.3150    -1.3820    -0.0370 C.3   1 <1>   0.2000 
 20 O        7.6000    -0.9260     0.2260 O.3   1 <1>  -0.5600 
 21 C        5.5570    -0.1210    -0.4380 C.3   1 <1>  -0.1600 
 22 C        7.9420     0.0740    -0.6790 C.3   1 <1>   0.1200 
 23 C        6.6290     0.7260    -1.1070 C.3   1 <1>  -0.1600 
 24 H       -2.6560    -1.4060     2.3360 H     1 <1>   0.1500 
 25 H       -0.2580    -3.8250    -1.2740 H     1 <1>   0.1500 
 26 H        1.8150    -1.5610     0.6620 H     1 <1>   0.1500 
 27 H       -4.7830    -4.5150    -0.4540 H     1 <1>   0.0800 
 28 H       -4.8490    -3.0580    -1.4760 H     1 <1>   0.0800 
 29 H        3.7230    -1.8930     1.7660 H     1 <1>   0.3700 
 30 H        5.9460    -1.4920     2.0730 H     1 <1>   0.0800 
 31 H        6.3070    -3.0320     1.3260 H     1 <1>   0.0800 
 32 H        6.3780    -2.0660    -0.8670 H     1 <1>   0.0800 
 33 H        4.7360    -0.3460    -1.0950 H     1 <1>   0.0800 
 34 H        5.1880     0.3770     0.4410 H     1 <1>   0.0800 
 35 H        8.6040     0.7680    -0.1900 H     1 <1>   0.0800 
 36 H        8.4400    -0.3870    -1.5140 H     1 <1>   0.0800 
 37 H        6.5820     1.7510    -0.7820 H     1 <1>   0.0800 
 38 H        6.5400     0.6930    -2.1780 H     1 <1>   0.0800 
@<TRIPOS>BOND
  1   1   2  1   
  2   2   3  ar  
  3   2   4  ar  
  4   3   5  ar  
  5   3   6  1   
  6   4   7  ar  
  7   4  24  1   
  8   5   8  ar  
  9   5  25  1   
 10   6   9  2   
 11   6  26  1   
 12   7   8  ar  
 13   7  10  1   
 14   8  11  1   
 15   9  12  1   
 16   9  13  1   
 17  10  14  1   
 18  11  14  1   
 19  12  15  3   
 20  13  16  2   
 21  13  17  am  
 22  14  27  1   
 23  14  28  1   
 24  17  18  1   
 25  17  29  1   
 26  18  19  1   
 27  18  30  1   
 28  18  31  1   
 29  19  20  1   
 30  19  21  1   
 31  19  32  1   
 32  20  22  1   
 33  21  23  1   
 34  21  33  1   
 35  21  34  1   
 36  22  23  1   
 37  22  35  1   
 38  22  36  1   
 39  23  37  1   
 40  23  38  1   
@<TRIPOS>SUBSTRUCTURE
  1 ****   6 GROUP 4 **** **** 0

# MOE 2024.06 (io_trps.svl 2023.06)
