@<TRIPOS>MOLECULE
NONAME
46 48 1 0 0 
SMALL
USER_CHARGES


@<TRIPOS>ATOM
  1 CL      -0.9090     2.3700     3.1020 Cl    1 <1>  -0.1770 
  2 C       -0.3560     3.3870     1.7980 C.ar  1 <1>   0.1770 
  3 C        0.3020     2.8180     0.7250 C.ar  1 <1>  -0.1500 
  4 C       -0.5840     4.7490     1.8560 C.ar  1 <1>  -0.1500 
  5 C        0.7440     3.6270    -0.3080 C.ar  1 <1>  -0.1500 
  6 C       -0.1420     5.5560     0.8210 C.ar  1 <1>  -0.1500 
  7 C        0.5280     5.0000    -0.2620 C.ar  1 <1>  -0.1430 
  8 C        1.0250     5.8850    -1.3920 C.3   1 <1>   0.4870 
  9 N        2.1990     6.6620    -0.9200 N.4   1 <1>  -0.9590 
 10 C        2.6870     7.6840    -1.9040 C.3   1 <1>   0.3430 
 11 C        3.3340     5.8250    -0.4050 C.3   1 <1>   0.3430 
 12 C        3.8670     8.5010    -1.3250 C.3   1 <1>   0.1100 
 13 C        4.4350     6.7120     0.2280 C.3   1 <1>   0.1100 
 14 N        4.1460     8.1600     0.0930 N.3   1 <1>  -0.8100 
 15 C        5.2290     8.9820     0.6690 C.3   1 <1>   0.2530 
 16 C        4.8240    10.4590     0.6980 C.ar  1 <1>  -0.1430 
 17 C        5.4840    11.4680    -0.0190 C.ar  1 <1>  -0.1430 
 18 C        3.7350    10.7860     1.4930 C.ar  1 <1>  -0.1500 
 19 C        5.0140    12.7770     0.0910 C.ar  1 <1>  -0.1500 
 20 C        6.7040    11.1790    -0.9170 C.3   1 <1>   1.1630 
 21 C        3.2850    12.0880     1.5900 C.ar  1 <1>  -0.1500 
 22 C        3.9260    13.0850     0.8860 C.ar  1 <1>  -0.1500 
 23 F        7.7090    10.6350    -0.2420 F     1 <1>  -0.3400 
 24 F        6.4080    10.3270    -1.8930 F     1 <1>  -0.3400 
 25 F        7.2030    12.2550    -1.5140 F     1 <1>  -0.3400 
 26 H        0.4600     1.7530     0.7050 H     1 <1>   0.1500 
 27 H       -1.1040     5.1630     2.7020 H     1 <1>   0.1500 
 28 H        1.2510     3.1720    -1.1430 H     1 <1>   0.1500 
 29 H       -0.3320     6.6150     0.8740 H     1 <1>   0.1500 
 30 H        0.2350     6.5540    -1.6930 H     1 <1>   0.0800 
 31 H        1.2980     5.2780    -2.2390 H     1 <1>   0.0800 
 32 H        1.9240     7.2160    -0.0950 H     1 <1>   0.4500 
 33 H        1.8880     8.3620    -2.1520 H     1 <1>   0.0800 
 34 H        3.0050     7.2030    -2.8140 H     1 <1>   0.0800 
 35 H        3.7600     5.2480    -1.2080 H     1 <1>   0.0800 
 36 H        2.9760     5.1340     0.3410 H     1 <1>   0.0800 
 37 H        3.6260     9.5480    -1.4120 H     1 <1>   0.0800 
 38 H        4.7440     8.3220    -1.9240 H     1 <1>   0.0800 
 39 H        5.3800     6.4800    -0.2350 H     1 <1>   0.0800 
 40 H        4.5190     6.4640     1.2730 H     1 <1>   0.0800 
 41 H        6.1380     8.8140     0.1220 H     1 <1>   0.0800 
 42 H        5.4050     8.6690     1.6850 H     1 <1>   0.0800 
 43 H        3.2270    10.0150     2.0470 H     1 <1>   0.1500 
 44 H        5.4900    13.5840    -0.4410 H     1 <1>   0.1500 
 45 H        2.4390    12.3250     2.2130 H     1 <1>   0.1500 
 46 H        3.5810    14.1030     0.9580 H     1 <1>   0.1500 
@<TRIPOS>BOND
  1   1   2  1   
  2   2   3  ar  
  3   2   4  ar  
  4   3   5  ar  
  5   3  26  1   
  6   4   6  ar  
  7   4  27  1   
  8   5   7  ar  
  9   5  28  1   
 10   6   7  ar  
 11   6  29  1   
 12   7   8  1   
 13   8   9  1   
 14   8  30  1   
 15   8  31  1   
 16   9  10  1   
 17   9  11  1   
 18   9  32  1   
 19  10  12  1   
 20  10  33  1   
 21  10  34  1   
 22  11  13  1   
 23  11  35  1   
 24  11  36  1   
 25  12  14  1   
 26  12  37  1   
 27  12  38  1   
 28  13  14  1   
 29  13  39  1   
 30  13  40  1   
 31  14  15  1   
 32  15  16  1   
 33  15  41  1   
 34  15  42  1   
 35  16  17  ar  
 36  16  18  ar  
 37  17  19  ar  
 38  17  20  1   
 39  18  21  ar  
 40  18  43  1   
 41  19  22  ar  
 42  19  44  1   
 43  20  23  1   
 44  20  24  1   
 45  20  25  1   
 46  21  22  ar  
 47  21  45  1   
 48  22  46  1   
@<TRIPOS>SUBSTRUCTURE
  1 ****  14 GROUP 4 **** **** 0

# MOE 2024.06 (io_trps.svl 2023.06)
