@<TRIPOS>MOLECULE
NONAME
39 40 1 0 0 
SMALL
USER_CHARGES


@<TRIPOS>ATOM
  1 BR       0.3400    -0.6320     0.2250 Br    1 <1>  -0.1110 
  2 C       -1.5220    -1.1100     0.0980 C.ar  1 <1>   0.1110 
  3 C       -1.9620    -2.2950     0.6570 C.ar  1 <1>   0.1600 
  4 C       -2.3900    -0.2620    -0.5500 C.ar  1 <1>  -0.1500 
  5 N       -3.2250    -2.7010     0.6160 N.ar  1 <1>  -0.6200 
  6 C       -3.7030    -0.6810    -0.5940 C.ar  1 <1>  -0.1500 
  7 C       -4.0760    -1.8920    -0.0030 C.ar  1 <1>   0.4270 
  8 N       -5.3590    -2.3960     0.0050 N.am  1 <1>  -0.5470 
  9 C       -6.5620    -1.8900    -0.3970 C.2   1 <1>   0.5690 
 10 O       -6.6820    -0.7870    -0.8750 O.2   1 <1>  -0.5700 
 11 C       -7.8040    -2.7860    -0.2110 C.3   1 <1>   0.1710 
 12 N       -9.1170    -2.0830    -0.1050 N.3   1 <1>  -0.8100 
 13 C      -10.2740    -3.0050    -0.0980 C.3   1 <1>   0.1100 
 14 C       -9.1860    -1.1350     1.0350 C.3   1 <1>   0.1100 
 15 C      -11.6240    -2.2420    -0.0550 C.3   1 <1>   0.3430 
 16 C      -10.5130    -0.3360     1.0460 C.3   1 <1>   0.3430 
 17 N      -11.4110    -0.7570    -0.0840 N.4   1 <1>  -0.9590 
 18 C      -12.6710     0.0140    -0.2040 C.3   1 <1>   0.3430 
 19 C      -12.3600     1.4470    -0.6180 C.3   1 <1>  -0.2400 
 20 H       -1.2490    -2.9290     1.1540 H     1 <1>   0.1500 
 21 H       -2.0590     0.6610    -0.9910 H     1 <1>   0.1500 
 22 H       -4.4300    -0.0670    -1.0900 H     1 <1>   0.1500 
 23 H       -5.3550    -3.3230     0.4230 H     1 <1>   0.3700 
 24 H       -7.6600    -3.3900     0.6670 H     1 <1>   0.0800 
 25 H       -7.8390    -3.4460    -1.0600 H     1 <1>   0.0800 
 26 H      -10.2130    -3.6660     0.7500 H     1 <1>   0.0800 
 27 H      -10.2500    -3.6130    -0.9860 H     1 <1>   0.0800 
 28 H       -8.3740    -0.4310     0.9780 H     1 <1>   0.0800 
 29 H       -9.0840    -1.6700     1.9650 H     1 <1>   0.0800 
 30 H      -12.1590    -2.5200     0.8380 H     1 <1>   0.0800 
 31 H      -12.2190    -2.5440    -0.9010 H     1 <1>   0.0800 
 32 H      -10.2790     0.7120     0.9560 H     1 <1>   0.0800 
 33 H      -11.0090    -0.4820     1.9900 H     1 <1>   0.0800 
 34 H      -10.8230    -0.6090    -0.9210 H     1 <1>   0.4500 
 35 H      -13.2060     0.0050     0.7320 H     1 <1>   0.0800 
 36 H      -13.2990    -0.4370    -0.9570 H     1 <1>   0.0800 
 37 H      -11.8240     1.9720     0.1510 H     1 <1>   0.0800 
 38 H      -13.2830     1.9730    -0.7880 H     1 <1>   0.0800 
 39 H      -11.7950     1.4670    -1.5340 H     1 <1>   0.0800 
@<TRIPOS>BOND
  1   1   2  1   
  2   2   3  ar  
  3   2   4  ar  
  4   3   5  ar  
  5   3  20  1   
  6   4   6  ar  
  7   4  21  1   
  8   5   7  ar  
  9   6   7  ar  
 10   6  22  1   
 11   7   8  1   
 12   8   9  am  
 13   8  23  1   
 14   9  10  2   
 15   9  11  1   
 16  11  12  1   
 17  11  24  1   
 18  11  25  1   
 19  12  13  1   
 20  12  14  1   
 21  13  15  1   
 22  13  26  1   
 23  13  27  1   
 24  14  16  1   
 25  14  28  1   
 26  14  29  1   
 27  15  17  1   
 28  15  30  1   
 29  15  31  1   
 30  16  17  1   
 31  16  32  1   
 32  16  33  1   
 33  17  18  1   
 34  17  34  1   
 35  18  19  1   
 36  18  35  1   
 37  18  36  1   
 38  19  37  1   
 39  19  38  1   
 40  19  39  1   
@<TRIPOS>SUBSTRUCTURE
  1 ****   9 GROUP 4 **** **** 0

# MOE 2024.06 (io_trps.svl 2023.06)
