@<TRIPOS>MOLECULE
NONAME
47 49 1 0 0 
SMALL
USER_CHARGES


@<TRIPOS>ATOM
  1 O       -1.7960    -0.3190    -0.8290 O.2   1 <1>  -0.5700 
  2 C       -1.4700     0.8530    -0.8450 C.2   1 <1>   0.5440 
  3 N       -0.1290     1.1730    -0.8370 N.am  1 <1>  -0.6600 
  4 C       -2.5050     1.8700    -0.8520 C.ar  1 <1>   0.0860 
  5 C        0.9340     0.1420    -1.0400 C.3   1 <1>   0.1400 
  6 C        0.4140     2.4810    -0.3610 C.3   1 <1>   0.1400 
  7 C       -3.5650     1.8030     0.0480 C.ar  1 <1>  -0.1500 
  8 C       -2.4870     2.9350    -1.7530 C.ar  1 <1>  -0.1500 
  9 C        1.8500     0.0630     0.1920 C.3   1 <1>   0.1200 
 10 C        1.3680     2.2700     0.8270 C.3   1 <1>   0.1200 
 11 C       -4.5760     2.7530     0.0640 C.ar  1 <1>   0.1170 
 12 C       -3.4790     3.8990    -1.7410 C.ar  1 <1>  -0.1500 
 13 O        2.3550     1.3300     0.5110 O.3   1 <1>  -0.5600 
 14 N       -5.6360     2.6700     0.9710 N.am  1 <1>  -0.5470 
 15 C       -4.5170     3.8090    -0.8330 C.ar  1 <1>  -0.1500 
 16 C       -6.5200     1.6670     1.2230 C.2   1 <1>   0.5690 
 17 O       -7.3440     1.8130     2.0880 O.2   1 <1>  -0.5700 
 18 C       -6.5160     0.3730     0.4300 C.3   1 <1>  -0.0990 
 19 C       -6.0180    -0.8040     1.2750 C.3   1 <1>  -0.0170 
 20 C       -5.9560    -2.0670     0.4340 C.ar  1 <1>  -0.1430 
 21 C       -4.8200    -2.3560    -0.3060 C.ar  1 <1>  -0.1500 
 22 C       -7.0340    -2.9380     0.3930 C.ar  1 <1>  -0.1500 
 23 C       -4.7620    -3.5030    -1.0780 C.ar  1 <1>  -0.1500 
 24 C       -6.9770    -4.0860    -0.3780 C.ar  1 <1>  -0.1500 
 25 C       -5.8400    -4.3690    -1.1150 C.ar  1 <1>  -0.1500 
 26 H        1.5220     0.4050    -1.9010 H     1 <1>   0.0800 
 27 H        0.5000    -0.8260    -1.2230 H     1 <1>   0.0800 
 28 H       -0.3800     3.1370    -0.0530 H     1 <1>   0.0800 
 29 H        0.9500     2.9560    -1.1640 H     1 <1>   0.0800 
 30 H       -3.5890     0.9890     0.7480 H     1 <1>   0.1500 
 31 H       -1.6870     2.9980    -2.4700 H     1 <1>   0.1500 
 32 H        2.6850    -0.5840    -0.0080 H     1 <1>   0.0800 
 33 H        1.3090    -0.3210     1.0390 H     1 <1>   0.0800 
 34 H        0.8270     1.9230     1.6900 H     1 <1>   0.0800 
 35 H        1.8630     3.1920     1.0760 H     1 <1>   0.0800 
 36 H       -3.4450     4.7160    -2.4420 H     1 <1>   0.1500 
 37 H       -5.8430     3.5110     1.5110 H     1 <1>   0.3700 
 38 H       -5.2910     4.5560    -0.8270 H     1 <1>   0.1500 
 39 H       -5.9140     0.4710    -0.4530 H     1 <1>   0.0800 
 40 H       -7.5220     0.1730     0.1100 H     1 <1>   0.0800 
 41 H       -6.6800    -0.9530     2.1110 H     1 <1>   0.0800 
 42 H       -5.0420    -0.5910     1.6710 H     1 <1>   0.0800 
 43 H       -3.9730    -1.6920    -0.2900 H     1 <1>   0.1500 
 44 H       -7.9220    -2.7240     0.9610 H     1 <1>   0.1500 
 45 H       -3.8750    -3.7170    -1.6490 H     1 <1>   0.1500 
 46 H       -7.8170    -4.7580    -0.4050 H     1 <1>   0.1500 
 47 H       -5.7940    -5.2600    -1.7150 H     1 <1>   0.1500 
@<TRIPOS>BOND
  1   1   2  2   
  2   2   3  am  
  3   2   4  1   
  4   3   5  1   
  5   3   6  1   
  6   4   7  ar  
  7   4   8  ar  
  8   5   9  1   
  9   5  26  1   
 10   5  27  1   
 11   6  10  1   
 12   6  28  1   
 13   6  29  1   
 14   7  11  ar  
 15   7  30  1   
 16   8  12  ar  
 17   8  31  1   
 18   9  13  1   
 19   9  32  1   
 20   9  33  1   
 21  10  13  1   
 22  10  34  1   
 23  10  35  1   
 24  11  14  1   
 25  11  15  ar  
 26  12  15  ar  
 27  12  36  1   
 28  14  16  am  
 29  14  37  1   
 30  15  38  1   
 31  16  17  2   
 32  16  18  1   
 33  18  19  1   
 34  18  39  1   
 35  18  40  1   
 36  19  20  1   
 37  19  41  1   
 38  19  42  1   
 39  20  21  ar  
 40  20  22  ar  
 41  21  23  ar  
 42  21  43  1   
 43  22  24  ar  
 44  22  44  1   
 45  23  25  ar  
 46  23  45  1   
 47  24  25  ar  
 48  24  46  1   
 49  25  47  1   
@<TRIPOS>SUBSTRUCTURE
  1 ****   7 GROUP 4 **** **** 0

# MOE 2024.06 (io_trps.svl 2023.06)
