@<TRIPOS>MOLECULE
NONAME
40 41 1 0 0 
SMALL
USER_CHARGES


@<TRIPOS>ATOM
  1 S        0.3150     0.2400    -0.3730 S.3   1 <1>  -0.2860 
  2 C       -1.2160    -0.6970    -0.4060 C.2   1 <1>   0.2420 
  3 C        1.5610    -1.0120    -0.9410 C.3   1 <1>   0.1310 
  4 N       -1.2810    -1.9330    -0.7510 N.2   1 <1>  -0.3380 
  5 N       -2.3930    -0.1700    -0.0730 N.pl3 1 <1>   0.0480 
  6 C        2.9550    -0.4200    -0.9060 C.2   1 <1>   0.6590 
  7 N       -2.5710    -2.2670    -0.6480 N.2   1 <1>  -0.3380 
  8 C       -3.2170    -1.2180    -0.2480 C.2   1 <1>   0.0060 
  9 C       -2.6840     1.2130     0.3670 C.3   1 <1>   0.0960 
 10 O        3.5640    -0.1740    -1.9160 O.2   1 <1>  -0.5700 
 11 O        3.4710    -0.2060     0.2980 O.3   1 <1>  -0.4300 
 12 C       -4.7220    -1.1580     0.0050 C.3   1 <1>   0.1000 
 13 C       -2.9800     2.1130    -0.8370 C.3   1 <1>  -0.2400 
 14 C        4.7570     0.3450     0.4590 C.3   1 <1>   0.1200 
 15 C       -5.0820    -1.3470     1.4780 C.3   1 <1>  -0.1600 
 16 C       -5.5380    -2.2460    -0.6920 C.3   1 <1>  -0.1600 
 17 C        5.0410     0.4560     1.9540 C.3   1 <1>  -0.2400 
 18 C       -6.5470    -1.8000     1.4900 C.3   1 <1>  -0.1600 
 19 C       -6.8630    -2.2840     0.0690 C.3   1 <1>  -0.1600 
 20 H        1.2920    -1.2970    -1.9400 H     1 <1>   0.0800 
 21 H        1.4900    -1.8570    -0.2820 H     1 <1>   0.0800 
 22 H       -1.8350     1.5920     0.9080 H     1 <1>   0.0800 
 23 H       -3.5250     1.2000     1.0350 H     1 <1>   0.0800 
 24 H       -5.1030    -0.2070    -0.3250 H     1 <1>   0.0800 
 25 H       -2.1280     2.1500    -1.4930 H     1 <1>   0.0800 
 26 H       -3.1920     3.1120    -0.5000 H     1 <1>   0.0800 
 27 H       -3.8320     1.7480    -1.3820 H     1 <1>   0.0800 
 28 H        4.7740     1.3140    -0.0120 H     1 <1>   0.0800 
 29 H        5.4690    -0.3040    -0.0240 H     1 <1>   0.0800 
 30 H       -4.9350    -0.4500     2.0520 H     1 <1>   0.0800 
 31 H       -4.4680    -2.1310     1.8890 H     1 <1>   0.0800 
 32 H       -5.0460    -3.1980    -0.5830 H     1 <1>   0.0800 
 33 H       -5.6720    -2.0400    -1.7400 H     1 <1>   0.0800 
 34 H        4.3150     1.0970     2.4210 H     1 <1>   0.0800 
 35 H        6.0190     0.8760     2.1070 H     1 <1>   0.0800 
 36 H        5.0100    -0.5170     2.4100 H     1 <1>   0.0800 
 37 H       -7.1920    -0.9770     1.7470 H     1 <1>   0.0800 
 38 H       -6.6890    -2.5900     2.2080 H     1 <1>   0.0800 
 39 H       -7.2810    -3.2770     0.0710 H     1 <1>   0.0800 
 40 H       -7.5650    -1.6120    -0.3930 H     1 <1>   0.0800 
@<TRIPOS>BOND
  1   1   2  1   
  2   1   3  1   
  3   2   4  2   
  4   2   5  1   
  5   3   6  1   
  6   3  20  1   
  7   3  21  1   
  8   4   7  1   
  9   5   8  1   
 10   5   9  1   
 11   6  10  2   
 12   6  11  1   
 13   7   8  2   
 14   8  12  1   
 15   9  13  1   
 16   9  22  1   
 17   9  23  1   
 18  11  14  1   
 19  12  15  1   
 20  12  16  1   
 21  12  24  1   
 22  13  25  1   
 23  13  26  1   
 24  13  27  1   
 25  14  17  1   
 26  14  28  1   
 27  14  29  1   
 28  15  18  1   
 29  15  30  1   
 30  15  31  1   
 31  16  19  1   
 32  16  32  1   
 33  16  33  1   
 34  17  34  1   
 35  17  35  1   
 36  17  36  1   
 37  18  19  1   
 38  18  37  1   
 39  18  38  1   
 40  19  39  1   
 41  19  40  1   
@<TRIPOS>SUBSTRUCTURE
  1 ****   2 GROUP 4 **** **** 0

# MOE 2024.06 (io_trps.svl 2023.06)
