@<TRIPOS>MOLECULE
NONAME
46 49 1 0 0 
SMALL
USER_CHARGES


@<TRIPOS>ATOM
  1 F       -1.5490     0.8120     0.4360 F     1 <1>  -0.1900 
  2 C       -2.1590     1.9400     0.1910 C.ar  1 <1>   0.1900 
  3 C       -2.0160     2.5180    -1.0560 C.ar  1 <1>  -0.1500 
  4 C       -2.9240     2.5140     1.1880 C.ar  1 <1>  -0.1500 
  5 C       -2.6680     3.7130    -1.3130 C.ar  1 <1>  -0.1500 
  6 C       -3.5690     3.7090     0.9190 C.ar  1 <1>  -0.1500 
  7 C       -3.4450     4.3110    -0.3280 C.ar  1 <1>  -0.1430 
  8 C       -4.1850     5.6080    -0.6030 C.3   1 <1>   0.2840 
  9 N       -5.5930     5.2650    -0.8630 N.am  1 <1>  -0.7300 
 10 C       -6.5850     5.4100     0.0480 C.2   1 <1>   0.5690 
 11 O       -6.4380     6.0590     1.0540 O.2   1 <1>  -0.5700 
 12 C       -7.9120     4.7220    -0.2080 C.3   1 <1>  -0.0990 
 13 C       -7.9720     3.2400     0.2350 C.3   1 <1>   0.0000 
 14 C       -6.9880     2.3550    -0.5690 C.3   1 <1>  -0.1600 
 15 C       -7.6430     3.0930     1.7400 C.3   1 <1>  -0.1600 
 16 C       -9.4050     2.7060    -0.0030 C.3   1 <1>  -0.1600 
 17 C       -7.0960     0.8810    -0.1380 C.3   1 <1>  -0.0800 
 18 C       -7.7520     1.6220     2.1840 C.3   1 <1>  -0.0800 
 19 C       -9.5260     1.2340     0.4330 C.3   1 <1>  -0.0800 
 20 C       -6.7650     0.7710     1.3620 C.3   1 <1>  -0.1600 
 21 C       -8.5330     0.3840    -0.3790 C.3   1 <1>  -0.1600 
 22 C       -9.1860     1.1210     1.9300 C.3   1 <1>  -0.1600 
 23 H       -1.4110     2.0390    -1.8040 H     1 <1>   0.1500 
 24 H       -3.0120     2.0370     2.1460 H     1 <1>   0.1500 
 25 H       -2.5680     4.1720    -2.2820 H     1 <1>   0.1500 
 26 H       -4.1770     4.1730     1.6790 H     1 <1>   0.1500 
 27 H       -3.7710     6.1130    -1.4580 H     1 <1>   0.0800 
 28 H       -4.1090     6.2650     0.2480 H     1 <1>   0.0800 
 29 H       -5.7300     4.6130    -1.6340 H     1 <1>   0.3700 
 30 H       -8.1400     4.7960    -1.2540 H     1 <1>   0.0800 
 31 H       -8.6670     5.2760     0.3210 H     1 <1>   0.0800 
 32 H       -5.9760     2.6750    -0.4050 H     1 <1>   0.0800 
 33 H       -7.1950     2.4340    -1.6220 H     1 <1>   0.0800 
 34 H       -6.6460     3.4430     1.9400 H     1 <1>   0.0800 
 35 H       -8.3180     3.6960     2.3230 H     1 <1>   0.0800 
 36 H       -9.6600     2.7900    -1.0450 H     1 <1>   0.0800 
 37 H      -10.1120     3.2970     0.5530 H     1 <1>   0.0800 
 38 H       -6.4040     0.2830    -0.7050 H     1 <1>   0.0800 
 39 H       -7.5180     1.5400     3.2310 H     1 <1>   0.0800 
 40 H      -10.5290     0.8840     0.2610 H     1 <1>   0.0800 
 41 H       -5.7590     1.1100     1.5380 H     1 <1>   0.0800 
 42 H       -6.8230    -0.2570     1.6740 H     1 <1>   0.0800 
 43 H       -8.6140    -0.6490    -0.0880 H     1 <1>   0.0800 
 44 H       -8.7700     0.4470    -1.4270 H     1 <1>   0.0800 
 45 H       -9.8820     1.7040     2.5080 H     1 <1>   0.0800 
 46 H       -9.2750     0.0970     2.2480 H     1 <1>   0.0800 
@<TRIPOS>BOND
  1   1   2  1   
  2   2   3  ar  
  3   2   4  ar  
  4   3   5  ar  
  5   3  23  1   
  6   4   6  ar  
  7   4  24  1   
  8   5   7  ar  
  9   5  25  1   
 10   6   7  ar  
 11   6  26  1   
 12   7   8  1   
 13   8   9  1   
 14   8  27  1   
 15   8  28  1   
 16   9  10  am  
 17   9  29  1   
 18  10  11  2   
 19  10  12  1   
 20  12  13  1   
 21  12  30  1   
 22  12  31  1   
 23  13  14  1   
 24  13  15  1   
 25  13  16  1   
 26  14  17  1   
 27  14  32  1   
 28  14  33  1   
 29  15  18  1   
 30  15  34  1   
 31  15  35  1   
 32  16  19  1   
 33  16  36  1   
 34  16  37  1   
 35  17  20  1   
 36  17  21  1   
 37  17  38  1   
 38  18  20  1   
 39  18  22  1   
 40  18  39  1   
 41  19  21  1   
 42  19  22  1   
 43  19  40  1   
 44  20  41  1   
 45  20  42  1   
 46  21  43  1   
 47  21  44  1   
 48  22  45  1   
 49  22  46  1   
@<TRIPOS>SUBSTRUCTURE
  1 ****  14 GROUP 4 **** **** 0

# MOE 2024.06 (io_trps.svl 2023.06)
