@<TRIPOS>MOLECULE
NONAME
40 42 1 0 0 
SMALL
USER_CHARGES


@<TRIPOS>ATOM
  1 CL       0.9660     1.9060     2.5050 Cl    1 <1>  -0.1770 
  2 C        1.9400     1.6690     1.0760 C.ar  1 <1>   0.1770 
  3 C        3.1400     0.9970     1.1800 C.ar  1 <1>  -0.1500 
  4 C        1.4910     2.1600    -0.1360 C.ar  1 <1>  -0.1500 
  5 C        3.9220     0.8030     0.0500 C.ar  1 <1>   0.1000 
  6 C        2.2660     1.9710    -1.2680 C.ar  1 <1>  -0.1500 
  7 N        5.1290     0.1240     0.1610 N.pl3 1 <1>  -0.8380 
  8 C        3.4720     1.2970    -1.1720 C.ar  1 <1>  -0.1500 
  9 C        6.3680     0.9400     0.0080 C.3   1 <1>   0.2090 
 10 C        5.1950    -1.2270    -0.4640 C.3   1 <1>   0.2090 
 11 C        7.6000     0.1560     0.5070 C.3   1 <1>   0.3430 
 12 C        6.4340    -1.9990     0.0400 C.3   1 <1>   0.3430 
 13 N        7.7150    -1.2160    -0.1230 N.4   1 <1>  -0.9590 
 14 C        8.8860    -1.9650     0.4050 C.3   1 <1>   0.4860 
 15 C       10.1530    -1.2150     0.0360 C.ar  1 <1>  -0.1430 
 16 C       10.6290    -1.2440    -1.2700 C.ar  1 <1>  -0.1500 
 17 C       10.8430    -0.4940     1.0040 C.ar  1 <1>  -0.1500 
 18 C       11.7770    -0.5480    -1.6090 C.ar  1 <1>  -0.1500 
 19 C       11.9910     0.2030     0.6680 C.ar  1 <1>  -0.1500 
 20 C       12.4450     0.1710    -0.6360 C.ar  1 <1>   0.1770 
 21 CL      13.8880     1.0520    -1.0620 Cl    1 <1>  -0.1770 
 22 H        3.4670     0.6250     2.1320 H     1 <1>   0.1500 
 23 H        0.5510     2.6810    -0.1880 H     1 <1>   0.1500 
 24 H        1.9290     2.3480    -2.2180 H     1 <1>   0.1500 
 25 H        4.0690     1.1540    -2.0530 H     1 <1>   0.1500 
 26 H        6.2670     1.8480     0.5790 H     1 <1>   0.0800 
 27 H        6.4990     1.2130    -1.0250 H     1 <1>   0.0800 
 28 H        5.2310    -1.1310    -1.5350 H     1 <1>   0.0800 
 29 H        4.3030    -1.7770    -0.2110 H     1 <1>   0.0800 
 30 H        7.5160     0.0540     1.5760 H     1 <1>   0.0800 
 31 H        8.4870     0.7320     0.2990 H     1 <1>   0.0800 
 32 H        6.5020    -2.9340    -0.4910 H     1 <1>   0.0800 
 33 H        6.2800    -2.2220     1.0830 H     1 <1>   0.0800 
 34 H        7.8800    -1.0670    -1.1260 H     1 <1>   0.4500 
 35 H        8.9210    -2.9530    -0.0250 H     1 <1>   0.0800 
 36 H        8.8140    -2.0630     1.4770 H     1 <1>   0.0800 
 37 H       10.1230    -1.8080    -2.0370 H     1 <1>   0.1500 
 38 H       10.5030    -0.4680     2.0270 H     1 <1>   0.1500 
 39 H       12.1600    -0.5590    -2.6150 H     1 <1>   0.1500 
 40 H       12.5380     0.7650     1.4050 H     1 <1>   0.1500 
@<TRIPOS>BOND
  1   1   2  1   
  2   2   3  ar  
  3   2   4  ar  
  4   3   5  ar  
  5   3  22  1   
  6   4   6  ar  
  7   4  23  1   
  8   5   7  1   
  9   5   8  ar  
 10   6   8  ar  
 11   6  24  1   
 12   7   9  1   
 13   7  10  1   
 14   8  25  1   
 15   9  11  1   
 16   9  26  1   
 17   9  27  1   
 18  10  12  1   
 19  10  28  1   
 20  10  29  1   
 21  11  13  1   
 22  11  30  1   
 23  11  31  1   
 24  12  13  1   
 25  12  32  1   
 26  12  33  1   
 27  13  14  1   
 28  13  34  1   
 29  14  15  1   
 30  14  35  1   
 31  14  36  1   
 32  15  16  ar  
 33  15  17  ar  
 34  16  18  ar  
 35  16  37  1   
 36  17  19  ar  
 37  17  38  1   
 38  18  20  ar  
 39  18  39  1   
 40  19  20  ar  
 41  19  40  1   
 42  20  21  1   
@<TRIPOS>SUBSTRUCTURE
  1 ****  11 GROUP 4 **** **** 0

# MOE 2024.06 (io_trps.svl 2023.06)
