@<TRIPOS>MOLECULE
NONAME
42 43 1 0 0 
SMALL
USER_CHARGES


@<TRIPOS>ATOM
  1 O        0.3450    -0.2630     0.4050 O.2   1 <1>  -0.5700 
  2 C        0.3070    -1.4180     0.0320 C.2   1 <1>   0.6340 
  3 O       -0.8830    -1.9720    -0.2270 O.3   1 <1>  -0.4300 
  4 C        1.4970    -2.2310    -0.1460 C.ar  1 <1>   0.0860 
  5 C       -2.0900    -1.2510    -0.0790 C.3   1 <1>   0.0400 
  6 C        2.7640    -1.7020     0.1010 C.ar  1 <1>  -0.1500 
  7 C        1.4330    -3.5610    -0.5670 C.ar  1 <1>  -0.1500 
  8 C        3.9270    -2.4410    -0.0560 C.ar  1 <1>   0.1170 
  9 C        2.5780    -4.3180    -0.7280 C.ar  1 <1>  -0.1500 
 10 N        5.1540    -1.8230     0.2290 N.am  1 <1>  -0.5470 
 11 C        3.8170    -3.7630    -0.4720 C.ar  1 <1>  -0.1500 
 12 C        6.4330    -2.1310    -0.1540 C.2   1 <1>   0.5690 
 13 O        6.7040    -3.0630    -0.8700 O.2   1 <1>  -0.5700 
 14 C        7.5490    -1.2180     0.3570 C.3   1 <1>  -0.0190 
 15 C        7.6210     0.0810    -0.4690 C.3   1 <1>  -0.1600 
 16 C        8.9310    -1.9060     0.3700 C.3   1 <1>  -0.1600 
 17 C        8.7350     1.0080     0.0260 C.3   1 <1>   0.1400 
 18 C       10.0310    -0.9610     0.8590 C.3   1 <1>   0.1400 
 19 N       10.0300     0.2740     0.0260 N.am  1 <1>  -0.6600 
 20 C       11.0910     0.7230    -0.7180 C.2   1 <1>   0.5690 
 21 O       11.0430     1.7470    -1.3570 O.2   1 <1>  -0.5700 
 22 C       12.3850    -0.0560    -0.7700 C.3   1 <1>  -0.1790 
 23 H       -2.9080    -1.8970    -0.3420 H     1 <1>   0.0800 
 24 H       -2.0670    -0.3960    -0.7320 H     1 <1>   0.0800 
 25 H       -2.1830    -0.9330     0.9450 H     1 <1>   0.0800 
 26 H        2.8350    -0.6790     0.4230 H     1 <1>   0.1500 
 27 H        0.4760    -4.0110    -0.7710 H     1 <1>   0.1500 
 28 H        2.5080    -5.3430    -1.0530 H     1 <1>   0.1500 
 29 H        5.0710    -0.9650     0.7700 H     1 <1>   0.3700 
 30 H        4.6970    -4.3690    -0.5970 H     1 <1>   0.1500 
 31 H        7.3110    -0.9570     1.3730 H     1 <1>   0.0800 
 32 H        6.6840     0.6050    -0.4200 H     1 <1>   0.0800 
 33 H        7.8060    -0.1580    -1.5030 H     1 <1>   0.0800 
 34 H        9.1820    -2.2410    -0.6220 H     1 <1>   0.0800 
 35 H        8.8960    -2.7730     1.0050 H     1 <1>   0.0800 
 36 H        8.5240     1.3450     1.0260 H     1 <1>   0.0800 
 37 H        8.7880     1.8750    -0.6100 H     1 <1>   0.0800 
 38 H       10.9790    -1.4650     0.8150 H     1 <1>   0.0800 
 39 H        9.8500    -0.6890     1.8850 H     1 <1>   0.0800 
 40 H       12.8150    -0.1150     0.2120 H     1 <1>   0.0800 
 41 H       13.0800     0.4400    -1.4210 H     1 <1>   0.0800 
 42 H       12.2010    -1.0420    -1.1520 H     1 <1>   0.0800 
@<TRIPOS>BOND
  1   1   2  2   
  2   2   3  1   
  3   2   4  1   
  4   3   5  1   
  5   4   6  ar  
  6   4   7  ar  
  7   5  23  1   
  8   5  24  1   
  9   5  25  1   
 10   6   8  ar  
 11   6  26  1   
 12   7   9  ar  
 13   7  27  1   
 14   8  10  1   
 15   8  11  ar  
 16   9  11  ar  
 17   9  28  1   
 18  10  12  am  
 19  10  29  1   
 20  11  30  1   
 21  12  13  2   
 22  12  14  1   
 23  14  15  1   
 24  14  16  1   
 25  14  31  1   
 26  15  17  1   
 27  15  32  1   
 28  15  33  1   
 29  16  18  1   
 30  16  34  1   
 31  16  35  1   
 32  17  19  1   
 33  17  36  1   
 34  17  37  1   
 35  18  19  1   
 36  18  38  1   
 37  18  39  1   
 38  19  20  am  
 39  20  21  2   
 40  20  22  1   
 41  22  40  1   
 42  22  41  1   
 43  22  42  1   
@<TRIPOS>SUBSTRUCTURE
  1 ****  10 GROUP 4 **** **** 0

# MOE 2024.06 (io_trps.svl 2023.06)
