@<TRIPOS>MOLECULE
NONAME
35 35 1 0 0 
SMALL
USER_CHARGES


@<TRIPOS>ATOM
  1 S       -0.0900    -0.0030     0.6590 S.o2  1 <1>   1.3330 
  2 O       -1.0450    -0.9180     1.2360 O.2   1 <1>  -0.6500 
  3 O        0.4700     1.0630     1.4550 O.2   1 <1>  -0.6500 
  4 N        1.2260    -0.9350     0.1240 N.am  1 <1>  -0.8490 
  5 C       -0.7750     0.6550    -0.8460 C.3   1 <1>  -0.1350 
  6 C        1.4850    -2.0560     1.0500 C.3   1 <1>   0.1960 
  7 C        2.4430    -0.1250    -0.0900 C.3   1 <1>   0.1960 
  8 C        2.6680    -2.9350     0.5930 C.3   1 <1>   0.3430 
  9 C        3.6300    -0.9810    -0.5800 C.3   1 <1>   0.3430 
 10 N        3.9210    -2.1310     0.3530 N.4   1 <1>  -0.9590 
 11 C        5.0660    -2.9910    -0.0600 C.3   1 <1>   0.4230 
 12 C        6.3720    -2.2010     0.1200 C.3   1 <1>  -0.1600 
 13 C        4.8910    -3.5090    -1.4920 C.3   1 <1>  -0.2400 
 14 C        7.6260    -3.0820     0.0150 C.3   1 <1>  -0.2400 
 15 H       -1.0720    -0.1440    -1.4970 H     1 <1>   0.0800 
 16 H       -0.0580     1.2710    -1.3510 H     1 <1>   0.0800 
 17 H       -1.6390     1.2510    -0.6220 H     1 <1>   0.0800 
 18 H        0.6120    -2.6840     1.1070 H     1 <1>   0.0800 
 19 H        1.6750    -1.6750     2.0410 H     1 <1>   0.0800 
 20 H        2.7280     0.3690     0.8250 H     1 <1>   0.0800 
 21 H        2.2400     0.6390    -0.8220 H     1 <1>   0.0800 
 22 H        2.3770    -3.4350    -0.3150 H     1 <1>   0.0800 
 23 H        2.8530    -3.6900     1.3400 H     1 <1>   0.0800 
 24 H        4.5010    -0.3530    -0.6730 H     1 <1>   0.0800 
 25 H        3.3890    -1.3590    -1.5600 H     1 <1>   0.0800 
 26 H        4.1810    -1.7200     1.2580 H     1 <1>   0.4500 
 27 H        5.1060    -3.8420     0.6030 H     1 <1>   0.0800 
 28 H        6.3790    -1.7470     1.0960 H     1 <1>   0.0800 
 29 H        6.4440    -1.4210    -0.6170 H     1 <1>   0.0800 
 30 H        4.9950    -2.7200    -2.2150 H     1 <1>   0.0800 
 31 H        3.9420    -3.9950    -1.6250 H     1 <1>   0.0800 
 32 H        5.6500    -4.2410    -1.7030 H     1 <1>   0.0800 
 33 H        7.5860    -3.8950     0.7200 H     1 <1>   0.0800 
 34 H        8.5030    -2.4960     0.2320 H     1 <1>   0.0800 
 35 H        7.7410    -3.4860    -0.9750 H     1 <1>   0.0800 
@<TRIPOS>BOND
  1   1   2  2   
  2   1   3  2   
  3   1   4  am  
  4   1   5  1   
  5   4   6  1   
  6   4   7  1   
  7   5  15  1   
  8   5  16  1   
  9   5  17  1   
 10   6   8  1   
 11   6  18  1   
 12   6  19  1   
 13   7   9  1   
 14   7  20  1   
 15   7  21  1   
 16   8  10  1   
 17   8  22  1   
 18   8  23  1   
 19   9  10  1   
 20   9  24  1   
 21   9  25  1   
 22  10  11  1   
 23  10  26  1   
 24  11  12  1   
 25  11  13  1   
 26  11  27  1   
 27  12  14  1   
 28  12  28  1   
 29  12  29  1   
 30  13  30  1   
 31  13  31  1   
 32  13  32  1   
 33  14  33  1   
 34  14  34  1   
 35  14  35  1   
@<TRIPOS>SUBSTRUCTURE
  1 ****   9 GROUP 4 **** **** 0

# MOE 2024.06 (io_trps.svl 2023.06)
