@<TRIPOS>MOLECULE
NONAME
47 50 1 0 0 
SMALL
USER_CHARGES


@<TRIPOS>ATOM
  1 O       -1.3120     0.3440     0.3940 O.2   1 <1>  -0.5700 
  2 C       -1.5890     1.0370    -0.5630 C.2   1 <1>   0.5440 
  3 N       -1.9150     0.3820    -1.7010 N.am  1 <1>  -0.8000 
  4 C       -1.5800     2.4830    -0.4930 C.ar  1 <1>   0.0860 
  5 C       -2.1160     3.1690     0.6100 C.ar  1 <1>   0.1170 
  6 C       -1.0320     3.2340    -1.5360 C.ar  1 <1>  -0.1500 
  7 N       -2.7070     2.4690     1.6680 N.am  1 <1>  -0.5470 
  8 C       -2.0450     4.5580     0.6540 C.ar  1 <1>  -0.1500 
  9 C       -0.9950     4.6140    -1.4920 C.ar  1 <1>  -0.1500 
 10 C       -3.9420     2.5480     2.2400 C.2   1 <1>   0.5690 
 11 C       -1.4990     5.2790    -0.3880 C.ar  1 <1>  -0.1500 
 12 O       -4.1970     1.8520     3.1890 O.2   1 <1>  -0.5700 
 13 C       -5.0250     3.4810     1.7130 C.3   1 <1>  -0.0990 
 14 C       -5.9510     2.8730     0.6330 C.3   1 <1>   0.0000 
 15 C       -5.1610     2.4390    -0.6250 C.3   1 <1>  -0.1600 
 16 C       -6.9880     3.9410     0.2090 C.3   1 <1>  -0.1600 
 17 C       -6.7150     1.6420     1.1750 C.3   1 <1>  -0.1600 
 18 C       -6.1070     1.8800    -1.7030 C.3   1 <1>  -0.0800 
 19 C       -7.9440     3.3880    -0.8630 C.3   1 <1>  -0.0800 
 20 C       -7.6710     1.0760     0.1070 C.3   1 <1>  -0.0800 
 21 C       -7.1270     2.9630    -2.0970 C.3   1 <1>  -0.1600 
 22 C       -6.8550     0.6610    -1.1320 C.3   1 <1>  -0.1600 
 23 C       -8.6840     2.1630    -0.2950 C.3   1 <1>  -0.1600 
 24 H       -1.9450    -0.6390    -1.6830 H     1 <1>   0.3700 
 25 H       -2.2940     0.8370    -2.5300 H     1 <1>   0.3700 
 26 H       -0.6190     2.7260    -2.3890 H     1 <1>   0.1500 
 27 H       -2.2150     1.6080     1.9400 H     1 <1>   0.3700 
 28 H       -2.4160     5.0790     1.5180 H     1 <1>   0.1500 
 29 H       -0.5670     5.1730    -2.3070 H     1 <1>   0.1500 
 30 H       -1.4590     6.3550    -0.3430 H     1 <1>   0.1500 
 31 H       -4.5800     4.3750     1.3300 H     1 <1>   0.0800 
 32 H       -5.6260     3.7740     2.5540 H     1 <1>   0.0800 
 33 H       -4.4540     1.6720    -0.3650 H     1 <1>   0.0800 
 34 H       -4.6150     3.2760    -1.0240 H     1 <1>   0.0800 
 35 H       -6.4830     4.8080    -0.1810 H     1 <1>   0.0800 
 36 H       -7.5600     4.2550     1.0650 H     1 <1>   0.0800 
 37 H       -6.0220     0.8720     1.4660 H     1 <1>   0.0800 
 38 H       -7.2770     1.9160     2.0510 H     1 <1>   0.0800 
 39 H       -5.5400     1.5840    -2.5690 H     1 <1>   0.0800 
 40 H       -8.6570     4.1460    -1.1420 H     1 <1>   0.0800 
 41 H       -8.1910     0.2220     0.5030 H     1 <1>   0.0800 
 42 H       -7.7880     2.5830    -2.8570 H     1 <1>   0.0800 
 43 H       -6.6150     3.8160    -2.5060 H     1 <1>   0.0800 
 44 H       -6.1500    -0.1060    -0.8610 H     1 <1>   0.0800 
 45 H       -7.5130     0.2520    -1.8790 H     1 <1>   0.0800 
 46 H       -9.3630     1.7730    -1.0330 H     1 <1>   0.0800 
 47 H       -9.2650     2.4530     0.5630 H     1 <1>   0.0800 
@<TRIPOS>BOND
  1   1   2  2   
  2   2   3  am  
  3   2   4  1   
  4   3  24  1   
  5   3  25  1   
  6   4   5  ar  
  7   4   6  ar  
  8   5   7  1   
  9   5   8  ar  
 10   6   9  ar  
 11   6  26  1   
 12   7  10  am  
 13   7  27  1   
 14   8  11  ar  
 15   8  28  1   
 16   9  11  ar  
 17   9  29  1   
 18  10  12  2   
 19  10  13  1   
 20  11  30  1   
 21  13  14  1   
 22  13  31  1   
 23  13  32  1   
 24  14  15  1   
 25  14  16  1   
 26  14  17  1   
 27  15  18  1   
 28  15  33  1   
 29  15  34  1   
 30  16  19  1   
 31  16  35  1   
 32  16  36  1   
 33  17  20  1   
 34  17  37  1   
 35  17  38  1   
 36  18  21  1   
 37  18  22  1   
 38  18  39  1   
 39  19  21  1   
 40  19  23  1   
 41  19  40  1   
 42  20  22  1   
 43  20  23  1   
 44  20  41  1   
 45  21  42  1   
 46  21  43  1   
 47  22  44  1   
 48  22  45  1   
 49  23  46  1   
 50  23  47  1   
@<TRIPOS>SUBSTRUCTURE
  1 ****  15 GROUP 4 **** **** 0

# MOE 2024.06 (io_trps.svl 2023.06)
