@<TRIPOS>MOLECULE
NONAME
47 50 1 0 0 
SMALL
USER_CHARGES


@<TRIPOS>ATOM
  1 O        0.1490    -1.1700    -0.8590 O.2   1 <1>  -0.5750 
  2 C        0.7830    -2.0320    -0.2870 C.2   1 <1>   0.6860 
  3 N        0.1310    -2.9200     0.5580 N.am  1 <1>  -0.4260 
  4 N        2.1550    -2.1320    -0.4840 N.am  1 <1>  -0.4420 
  5 C        0.8210    -3.9180     1.2260 C.2   1 <1>   0.6990 
  6 C       -1.3530    -3.0860     0.4030 C.3   1 <1>   0.1930 
  7 C        2.8240    -3.1750     0.1260 C.2   1 <1>   0.4200 
  8 C        2.8640    -1.1860    -1.3950 C.3   1 <1>   0.0510 
  9 O        0.2460    -4.6540     2.0110 O.2   1 <1>  -0.5750 
 10 C        2.2180    -4.0540     0.9620 C.2   1 <1>   0.2700 
 11 C       -1.6850    -4.1070    -0.6820 C.2   1 <1>   0.6550 
 12 N        4.1450    -3.5140     0.0080 N.pl3 1 <1>  -0.7040 
 13 N        3.2210    -4.9410     1.3620 N.pl3 1 <1>  -0.7680 
 14 O       -0.8230    -4.7460    -1.2390 O.2   1 <1>  -0.5750 
 15 O       -2.9720    -4.2500    -0.9680 O.3   1 <1>  -0.4360 
 16 C        4.3310    -4.5880     0.7650 C.cat 1 <1>   1.0690 
 17 C        3.3960    -6.1560     2.1780 C.3   1 <1>   0.3470 
 18 C       -3.4210    -5.1590    -1.9520 C.3   1 <1>   0.0310 
 19 N        5.3630    -5.3800     1.0390 N.pl3 1 <1>  -0.5800 
 20 C        4.9000    -6.4620     1.9590 C.3   1 <1>   0.1600 
 21 C        6.6400    -5.3310     0.4770 C.ar  1 <1>   0.3040 
 22 C        6.8700    -5.7120    -0.8470 C.ar  1 <1>  -0.1520 
 23 C        7.6960    -4.8670     1.2510 C.ar  1 <1>  -0.1580 
 24 C        8.1480    -5.6040    -1.3710 C.ar  1 <1>  -0.1580 
 25 C        5.7610    -6.2580    -1.7430 C.3   1 <1>  -0.1050 
 26 C        8.9670    -4.7650     0.7200 C.ar  1 <1>  -0.1580 
 27 C        9.1910    -5.1310    -0.5940 C.ar  1 <1>  -0.1580 
 28 H       -1.8110    -2.1480     0.1490 H     1 <1>   0.0720 
 29 H       -1.7850    -3.4160     1.3310 H     1 <1>   0.0720 
 30 H        2.3370    -0.2470    -1.4460 H     1 <1>   0.0720 
 31 H        2.9140    -1.6050    -2.3850 H     1 <1>   0.0720 
 32 H        3.8590    -0.9910    -1.0360 H     1 <1>   0.0720 
 33 H        4.8690    -3.0710    -0.5540 H     1 <1>   0.4440 
 34 H        2.7730    -6.9560     1.8150 H     1 <1>   0.0720 
 35 H        3.1780    -5.9590     3.2140 H     1 <1>   0.0720 
 36 H       -4.4940    -5.1040    -2.0040 H     1 <1>   0.0720 
 37 H       -3.1140    -6.1530    -1.6750 H     1 <1>   0.0720 
 38 H       -2.9910    -4.8870    -2.9010 H     1 <1>   0.0720 
 39 H        5.0340    -7.4290     1.5040 H     1 <1>   0.0720 
 40 H        5.4410    -6.4250     2.8900 H     1 <1>   0.0720 
 41 H        7.5270    -4.5800     2.2730 H     1 <1>   0.1420 
 42 H        8.3500    -5.8900    -2.3900 H     1 <1>   0.1420 
 43 H        5.1180    -5.4640    -2.0740 H     1 <1>   0.0720 
 44 H        5.1770    -6.9930    -1.2190 H     1 <1>   0.0720 
 45 H        6.1780    -6.7350    -2.6140 H     1 <1>   0.0720 
 46 H        9.7840    -4.4030     1.3220 H     1 <1>   0.1420 
 47 H       10.1810    -5.0530    -1.0130 H     1 <1>   0.1420 
@<TRIPOS>BOND
  1   1   2  2   
  2   2   3  am  
  3   2   4  am  
  4   3   5  am  
  5   3   6  1   
  6   4   7  1   
  7   4   8  1   
  8   5   9  2   
  9   5  10  1   
 10   6  11  1   
 11   6  28  1   
 12   6  29  1   
 13   7  10  2   
 14   7  12  1   
 15   8  30  1   
 16   8  31  1   
 17   8  32  1   
 18  10  13  1   
 19  11  14  2   
 20  11  15  1   
 21  12  16  ar  
 22  12  33  1   
 23  13  16  ar  
 24  13  17  1   
 25  15  18  1   
 26  16  19  ar  
 27  17  20  1   
 28  17  34  1   
 29  17  35  1   
 30  18  36  1   
 31  18  37  1   
 32  18  38  1   
 33  19  20  1   
 34  19  21  1   
 35  20  39  1   
 36  20  40  1   
 37  21  22  ar  
 38  21  23  ar  
 39  22  24  ar  
 40  22  25  1   
 41  23  26  ar  
 42  23  41  1   
 43  24  27  ar  
 44  24  42  1   
 45  25  43  1   
 46  25  44  1   
 47  25  45  1   
 48  26  27  ar  
 49  26  46  1   
 50  27  47  1   
@<TRIPOS>SUBSTRUCTURE
  1 ****   7 GROUP 4 **** **** 0

# MOE 2024.06 (io_trps.svl 2023.06)
