@<TRIPOS>MOLECULE
NONAME
31 32 1 0 0 
SMALL
USER_CHARGES


@<TRIPOS>ATOM
  1 S        0.0370    -0.7660     1.5280 S.3   1 <1>  -0.2860 
  2 C       -1.7610    -0.8400     1.5350 C.2   1 <1>   0.2420 
  3 C        0.5460    -1.1820    -0.1970 C.3   1 <1>   0.2140 
  4 N       -2.4750    -0.6590     2.5880 N.2   1 <1>  -0.3380 
  5 N       -2.4910    -1.0880     0.4530 N.pl3 1 <1>   0.0330 
  6 C        2.0660    -1.1770    -0.2780 C.ar  1 <1>  -0.1440 
  7 N       -3.7490    -0.7910     2.1960 N.2   1 <1>  -0.3380 
  8 C       -3.7380    -1.0430     0.9300 C.2   1 <1>   0.0070 
  9 C        2.8300    -2.2980     0.0380 C.ar  1 <1>  -0.1440 
 10 C        2.6990    -0.0110    -0.6860 C.ar  1 <1>  -0.1500 
 11 C       -4.9780    -1.2650     0.0820 C.3   1 <1>   0.0200 
 12 C        4.2110    -2.2340    -0.0740 C.ar  1 <1>  -0.1500 
 13 C        2.1950    -3.5980     0.5120 C.3   1 <1>  -0.0970 
 14 C        4.0770     0.0430    -0.7940 C.ar  1 <1>  -0.1500 
 15 C       -5.1250    -0.1860    -0.9960 C.3   1 <1>  -0.2400 
 16 C        4.8340    -1.0710    -0.4890 C.ar  1 <1>  -0.1500 
 17 H        0.1220    -0.4350    -0.8420 H     1 <1>   0.0800 
 18 H        0.1380    -2.1470    -0.4330 H     1 <1>   0.0800 
 19 H       -2.1830    -1.2610    -0.5010 H     1 <1>   0.2700 
 20 H        2.1240     0.8660    -0.9220 H     1 <1>   0.1500 
 21 H       -5.8430    -1.2430     0.7230 H     1 <1>   0.0800 
 22 H       -4.9330    -2.2380    -0.3730 H     1 <1>   0.0800 
 23 H        4.8150    -3.0920     0.1640 H     1 <1>   0.1500 
 24 H        1.6200    -4.0400    -0.2810 H     1 <1>   0.0800 
 25 H        1.5540    -3.4120     1.3550 H     1 <1>   0.0800 
 26 H        2.9460    -4.3030     0.8180 H     1 <1>   0.0800 
 27 H        4.5590     0.9510    -1.1120 H     1 <1>   0.1500 
 28 H       -5.1620     0.7870    -0.5370 H     1 <1>   0.0800 
 29 H       -6.0360    -0.3390    -1.5470 H     1 <1>   0.0800 
 30 H       -4.2990    -0.2150    -1.6840 H     1 <1>   0.0800 
 31 H        5.9060    -1.0340    -0.5710 H     1 <1>   0.1500 
@<TRIPOS>BOND
  1   1   2  1   
  2   1   3  1   
  3   2   4  2   
  4   2   5  1   
  5   3   6  1   
  6   3  17  1   
  7   3  18  1   
  8   4   7  1   
  9   5   8  1   
 10   5  19  1   
 11   6   9  ar  
 12   6  10  ar  
 13   7   8  2   
 14   8  11  1   
 15   9  12  ar  
 16   9  13  1   
 17  10  14  ar  
 18  10  20  1   
 19  11  15  1   
 20  11  21  1   
 21  11  22  1   
 22  12  16  ar  
 23  12  23  1   
 24  13  24  1   
 25  13  25  1   
 26  13  26  1   
 27  14  16  ar  
 28  14  27  1   
 29  15  28  1   
 30  15  29  1   
 31  15  30  1   
 32  16  31  1   
@<TRIPOS>SUBSTRUCTURE
  1 ****   3 GROUP 4 **** **** 0

# MOE 2024.06 (io_trps.svl 2023.06)
