@<TRIPOS>MOLECULE
NONAME
58 58 1 0 0 
SMALL
USER_CHARGES


@<TRIPOS>ATOM
  1 S       -0.7430     0.3340     1.2740 S.o2  1 <1>   1.4470 
  2 O       -0.7760    -0.3870     2.5380 O.2   1 <1>  -0.6500 
  3 O       -1.4300     1.6150     1.2260 O.2   1 <1>  -0.6500 
  4 N       -1.3470    -0.5760     0.0620 N.2   1 <1>  -0.2730 
  5 C        0.9830     0.6670     0.7930 C.ar  1 <1>  -0.0090 
  6 S       -0.9730    -2.1280    -0.3350 S.o   1 <1>   0.2590 
  7 C        1.9790     0.8010     1.7550 C.ar  1 <1>  -0.1500 
  8 C        1.3520     0.8440    -0.5380 C.ar  1 <1>  -0.1500 
  9 N       -2.2410    -3.1720     0.1400 N.pl3 1 <1>  -0.6020 
 10 N        0.5070    -2.6120     0.3760 N.pl3 1 <1>  -0.6020 
 11 C        3.2920     1.0700     1.4080 C.ar  1 <1>  -0.1500 
 12 C        2.6620     1.1140    -0.8960 C.ar  1 <1>  -0.1500 
 13 C       -3.0670    -2.7640     1.2940 C.3   1 <1>   0.1900 
 14 C       -2.9280    -3.8900    -0.9510 C.3   1 <1>   0.1900 
 15 C        0.3680    -3.2330     1.7210 C.3   1 <1>   0.1900 
 16 C        1.4480    -3.2580    -0.5840 C.3   1 <1>   0.1900 
 17 C        3.6350     1.2240     0.0780 C.ar  1 <1>  -0.1500 
 18 C       -3.4710    -3.9950     2.1090 C.3   1 <1>  -0.2400 
 19 C       -4.2990    -1.9420     0.9010 C.3   1 <1>  -0.2400 
 20 C       -2.0640    -5.0630    -1.4120 C.3   1 <1>  -0.2400 
 21 C       -3.2660    -2.9830    -2.1430 C.3   1 <1>  -0.2400 
 22 C        1.4350    -2.7540     2.7090 C.3   1 <1>  -0.2400 
 23 C        0.3000    -4.7640     1.7000 C.3   1 <1>  -0.2400 
 24 C        2.8960    -3.2000    -0.0820 C.3   1 <1>  -0.2400 
 25 C        1.4260    -2.5880    -1.9700 C.3   1 <1>  -0.2400 
 26 H        1.7210     0.6920     2.7950 H     1 <1>   0.1500 
 27 H        0.6060     0.7720    -1.3100 H     1 <1>   0.1500 
 28 H        4.0440     1.1610     2.1730 H     1 <1>   0.1500 
 29 H        2.9220     1.2400    -1.9330 H     1 <1>   0.1500 
 30 H       -2.4680    -2.1500     1.9400 H     1 <1>   0.0800 
 31 H       -3.8490    -4.3020    -0.5780 H     1 <1>   0.0800 
 32 H       -0.5570    -2.8880     2.1360 H     1 <1>   0.0800 
 33 H        1.1600    -4.2860    -0.7240 H     1 <1>   0.0800 
 34 H        4.6550     1.4320    -0.1970 H     1 <1>   0.1500 
 35 H       -4.1520    -4.6230     1.5670 H     1 <1>   0.0800 
 36 H       -3.9530    -3.6820     3.0170 H     1 <1>   0.0800 
 37 H       -2.5970    -4.5620     2.3730 H     1 <1>   0.0800 
 38 H       -4.0110    -1.0810     0.3280 H     1 <1>   0.0800 
 39 H       -4.7920    -1.5930     1.7910 H     1 <1>   0.0800 
 40 H       -5.0020    -2.5290     0.3410 H     1 <1>   0.0800 
 41 H       -1.1080    -4.7200    -1.7620 H     1 <1>   0.0800 
 42 H       -2.5530    -5.5870    -2.2130 H     1 <1>   0.0800 
 43 H       -1.9230    -5.7520    -0.6010 H     1 <1>   0.0800 
 44 H       -2.3790    -2.6860    -2.6710 H     1 <1>   0.0800 
 45 H       -3.7970    -2.1070    -1.8230 H     1 <1>   0.0800 
 46 H       -3.8940    -3.5190    -2.8320 H     1 <1>   0.0800 
 47 H        2.3590    -3.2850     2.6090 H     1 <1>   0.0800 
 48 H        1.0800    -2.9150     3.7100 H     1 <1>   0.0800 
 49 H        1.6110    -1.7060     2.5860 H     1 <1>   0.0800 
 50 H        1.2410    -5.2000     1.4230 H     1 <1>   0.0800 
 51 H       -0.4600    -5.0910     1.0190 H     1 <1>   0.0800 
 52 H        0.0440    -5.1230     2.6800 H     1 <1>   0.0800 
 53 H        3.0600    -3.9200     0.6930 H     1 <1>   0.0800 
 54 H        3.1280    -2.2110     0.2730 H     1 <1>   0.0800 
 55 H        3.5820    -3.4460    -0.8710 H     1 <1>   0.0800 
 56 H        1.6180    -1.5360    -1.8820 H     1 <1>   0.0800 
 57 H        0.4920    -2.7500    -2.4730 H     1 <1>   0.0800 
 58 H        2.1860    -3.0150    -2.5980 H     1 <1>   0.0800 
@<TRIPOS>BOND
  1   1   2  2   
  2   1   3  2   
  3   1   4  1   
  4   1   5  1   
  5   4   6  2   
  6   5   7  ar  
  7   5   8  ar  
  8   6   9  1   
  9   6  10  1   
 10   7  11  ar  
 11   7  26  1   
 12   8  12  ar  
 13   8  27  1   
 14   9  13  1   
 15   9  14  1   
 16  10  15  1   
 17  10  16  1   
 18  11  17  ar  
 19  11  28  1   
 20  12  17  ar  
 21  12  29  1   
 22  13  18  1   
 23  13  19  1   
 24  13  30  1   
 25  14  20  1   
 26  14  21  1   
 27  14  31  1   
 28  15  22  1   
 29  15  23  1   
 30  15  32  1   
 31  16  24  1   
 32  16  25  1   
 33  16  33  1   
 34  17  34  1   
 35  18  35  1   
 36  18  36  1   
 37  18  37  1   
 38  19  38  1   
 39  19  39  1   
 40  19  40  1   
 41  20  41  1   
 42  20  42  1   
 43  20  43  1   
 44  21  44  1   
 45  21  45  1   
 46  21  46  1   
 47  22  47  1   
 48  22  48  1   
 49  22  49  1   
 50  23  50  1   
 51  23  51  1   
 52  23  52  1   
 53  24  53  1   
 54  24  54  1   
 55  24  55  1   
 56  25  56  1   
 57  25  57  1   
 58  25  58  1   
@<TRIPOS>SUBSTRUCTURE
  1 ****  10 GROUP 4 **** **** 0

# MOE 2024.06 (io_trps.svl 2023.06)
