@<TRIPOS>MOLECULE
NONAME
44 46 1 0 0 
SMALL
USER_CHARGES


@<TRIPOS>ATOM
  1 O        1.1170    -0.2770    -0.5830 O.2   1 <1>  -0.5750 
  2 C        1.9990     0.5220    -0.3450 C.2   1 <1>   0.6860 
  3 N        1.7050     1.8790    -0.2520 N.am  1 <1>  -0.4260 
  4 N        3.3040     0.0760    -0.1650 N.am  1 <1>  -0.4420 
  5 C        2.6990     2.8170     0.0010 C.2   1 <1>   0.6990 
  6 C        0.2930     2.3300    -0.4610 C.3   1 <1>   0.0510 
  7 C        4.2780     1.0100     0.1230 C.2   1 <1>   0.4200 
  8 C        3.6290    -1.3790    -0.2630 C.3   1 <1>   0.0510 
  9 O        2.4360     4.0070     0.0410 O.2   1 <1>  -0.5750 
 10 C        4.0290     2.3410     0.2080 C.2   1 <1>   0.2700 
 11 N        5.6030     0.7800     0.3600 N.pl3 1 <1>  -0.7040 
 12 N        5.2600     2.9510     0.5040 N.pl3 1 <1>  -0.6340 
 13 C        6.1560     1.9780     0.5820 C.cat 1 <1>   1.0690 
 14 C        5.9370     4.1330     0.7260 C.2   1 <1>   0.2330 
 15 N        7.3790     2.4440     0.8500 N.pl3 1 <1>  -0.5720 
 16 C        7.2390     3.8220     0.9370 C.2   1 <1>   0.1570 
 17 C        5.2050     5.4600     0.7000 C.3   1 <1>  -0.1100 
 18 C        8.6220     1.6490     0.9780 C.3   1 <1>   0.1590 
 19 C        8.4260     4.7280     1.2210 C.3   1 <1>  -0.1100 
 20 C        9.1960     1.3730    -0.4120 C.3   1 <1>  -0.1680 
 21 C       10.4670     0.5210    -0.3220 C.3   1 <1>  -0.1680 
 22 C       11.0310     0.2360    -1.7150 C.3   1 <1>  -0.2480 
 23 H       -0.3930     1.6140    -0.0440 H     1 <1>   0.0710 
 24 H        0.0980     2.4260    -1.5150 H     1 <1>   0.0710 
 25 H        0.1160     3.2790     0.0160 H     1 <1>   0.0710 
 26 H        2.9050    -1.8880    -0.8760 H     1 <1>   0.0710 
 27 H        3.6170    -1.8200     0.7190 H     1 <1>   0.0710 
 28 H        4.5970    -1.5200    -0.7090 H     1 <1>   0.0710 
 29 H        6.1040    -0.1050     0.3560 H     1 <1>   0.4440 
 30 H        4.4310     5.4680     1.4460 H     1 <1>   0.0710 
 31 H        4.7520     5.6110    -0.2640 H     1 <1>   0.0710 
 32 H        5.8750     6.2760     0.8940 H     1 <1>   0.0710 
 33 H        8.4070     0.7190     1.4780 H     1 <1>   0.0710 
 34 H        9.3430     2.1850     1.5730 H     1 <1>   0.0710 
 35 H        9.1820     4.5950     0.4680 H     1 <1>   0.0710 
 36 H        8.8480     4.4950     2.1820 H     1 <1>   0.0710 
 37 H        8.1290     5.7610     1.2240 H     1 <1>   0.0710 
 38 H        9.4350     2.3060    -0.8930 H     1 <1>   0.0710 
 39 H        8.4710     0.8530    -1.0130 H     1 <1>   0.0710 
 40 H       10.2530    -0.4140     0.1670 H     1 <1>   0.0710 
 41 H       11.2140     1.0380     0.2580 H     1 <1>   0.0710 
 42 H       10.3190    -0.3070    -2.3120 H     1 <1>   0.0710 
 43 H       11.9260    -0.3570    -1.6340 H     1 <1>   0.0710 
 44 H       11.2790     1.1540    -2.2190 H     1 <1>   0.0710 
@<TRIPOS>BOND
  1   1   2  2   
  2   2   3  am  
  3   2   4  am  
  4   3   5  am  
  5   3   6  1   
  6   4   7  1   
  7   4   8  1   
  8   5   9  2   
  9   5  10  1   
 10   6  23  1   
 11   6  24  1   
 12   6  25  1   
 13   7  10  2   
 14   7  11  1   
 15   8  26  1   
 16   8  27  1   
 17   8  28  1   
 18  10  12  1   
 19  11  13  ar  
 20  11  29  1   
 21  12  13  ar  
 22  12  14  1   
 23  13  15  ar  
 24  14  16  2   
 25  14  17  1   
 26  15  16  1   
 27  15  18  1   
 28  16  19  1   
 29  17  30  1   
 30  17  31  1   
 31  17  32  1   
 32  18  20  1   
 33  18  33  1   
 34  18  34  1   
 35  19  35  1   
 36  19  36  1   
 37  19  37  1   
 38  20  21  1   
 39  20  38  1   
 40  20  39  1   
 41  21  22  1   
 42  21  40  1   
 43  21  41  1   
 44  22  42  1   
 45  22  43  1   
 46  22  44  1   
@<TRIPOS>SUBSTRUCTURE
  1 ****  13 GROUP 4 **** **** 0

# MOE 2024.06 (io_trps.svl 2023.06)
