@<TRIPOS>MOLECULE
NONAME
59 61 1 0 0 
SMALL
USER_CHARGES


@<TRIPOS>ATOM
  1 O        0.5020    -3.4520    -1.5940 O.2   1 <1>  -0.5700 
  2 C       -0.1010    -2.6880    -0.8780 C.2   1 <1>   0.5690 
  3 N        0.4610    -1.5630    -0.3700 N.am  1 <1>  -0.7300 
  4 C       -1.5590    -2.9850    -0.5140 C.3   1 <1>   0.1710 
  5 C        1.8230    -1.0710    -0.6130 C.3   1 <1>   0.2200 
  6 N       -2.3670    -1.7760    -0.1770 N.3   1 <1>  -0.8100 
  7 C        2.5490    -1.0270     0.7360 C.3   1 <1>  -0.1600 
  8 C        1.7140     0.2800    -1.3330 C.3   1 <1>  -0.1600 
  9 C       -3.6520    -2.1600     0.4540 C.3   1 <1>   0.1100 
 10 C       -2.6370    -0.9640    -1.3920 C.3   1 <1>   0.1100 
 11 C        3.9750    -0.4520     0.6920 C.3   1 <1>  -0.1600 
 12 C        3.0540     0.7370    -1.9290 C.3   1 <1>  -0.1600 
 13 C       -4.5310    -0.9370     0.7810 C.3   1 <1>   0.2090 
 14 C       -3.5060     0.2720    -1.0900 C.3   1 <1>   0.2090 
 15 C        3.9860     1.0710     0.4940 C.3   1 <1>  -0.1600 
 16 C        3.9520     1.5350    -0.9710 C.3   1 <1>  -0.1600 
 17 N       -4.7900    -0.1300    -0.4460 N.pl3 1 <1>  -0.8380 
 18 C       -5.7430     0.8890    -0.3110 C.ar  1 <1>   0.1000 
 19 C       -5.5880     2.0240     0.5070 C.ar  1 <1>   0.0820 
 20 C       -6.9150     0.7530    -1.0410 C.ar  1 <1>  -0.1500 
 21 O       -4.4290     2.1550     1.2260 O.3   1 <1>  -0.3620 
 22 C       -6.6030     2.9750     0.5650 C.ar  1 <1>  -0.1500 
 23 C       -7.9180     1.7010    -0.9790 C.ar  1 <1>  -0.1500 
 24 C       -4.1990     3.2600     2.0660 C.3   1 <1>   0.1200 
 25 C       -7.7620     2.8140    -0.1750 C.ar  1 <1>  -0.1500 
 26 C       -2.8230     3.0840     2.7020 C.3   1 <1>  -0.2400 
 27 H       -0.1610    -0.9620     0.1780 H     1 <1>   0.3700 
 28 H       -1.5410    -3.6440     0.3350 H     1 <1>   0.0800 
 29 H       -2.0170    -3.5150    -1.3310 H     1 <1>   0.0800 
 30 H        2.3320    -1.7690    -1.2580 H     1 <1>   0.0800 
 31 H        2.6110    -2.0380     1.1010 H     1 <1>   0.0800 
 32 H        1.9630    -0.4640     1.4410 H     1 <1>   0.0800 
 33 H        1.3150     1.0330    -0.6770 H     1 <1>   0.0800 
 34 H        1.0270     0.1550    -2.1520 H     1 <1>   0.0800 
 35 H       -3.4540    -2.6940     1.3670 H     1 <1>   0.0800 
 36 H       -4.2030    -2.8100    -0.2040 H     1 <1>   0.0800 
 37 H       -3.1470    -1.5640    -2.1260 H     1 <1>   0.0800 
 38 H       -1.7080    -0.6320    -1.8210 H     1 <1>   0.0800 
 39 H        4.5620    -0.9410    -0.0670 H     1 <1>   0.0800 
 40 H        4.4380    -0.6650     1.6400 H     1 <1>   0.0800 
 41 H        2.8570     1.3580    -2.7860 H     1 <1>   0.0800 
 42 H        3.5930    -0.1230    -2.2910 H     1 <1>   0.0800 
 43 H       -4.0340    -0.3320     1.5180 H     1 <1>   0.0800 
 44 H       -5.4700    -1.2650     1.1910 H     1 <1>   0.0800 
 45 H       -3.7190     0.7960    -2.0050 H     1 <1>   0.0800 
 46 H       -2.9630     0.9350    -0.4400 H     1 <1>   0.0800 
 47 H        4.8820     1.4680     0.9410 H     1 <1>   0.0800 
 48 H        3.1590     1.5070     1.0260 H     1 <1>   0.0800 
 49 H        3.6390     2.5650    -0.9820 H     1 <1>   0.0800 
 50 H        4.9550     1.5110    -1.3630 H     1 <1>   0.0800 
 51 H       -7.0280    -0.1150    -1.6640 H     1 <1>   0.1500 
 52 H       -6.5170     3.8510     1.1780 H     1 <1>   0.1500 
 53 H       -8.8170     1.5710    -1.5560 H     1 <1>   0.1500 
 54 H       -4.9670     3.2820     2.8200 H     1 <1>   0.0800 
 55 H       -4.2300     4.1550     1.4690 H     1 <1>   0.0800 
 56 H       -8.5420     3.5540    -0.1240 H     1 <1>   0.1500 
 57 H       -2.7980     2.1780     3.2800 H     1 <1>   0.0800 
 58 H       -2.6140     3.9140     3.3530 H     1 <1>   0.0800 
 59 H       -2.0670     3.0450     1.9390 H     1 <1>   0.0800 
@<TRIPOS>BOND
  1   1   2  2   
  2   2   3  am  
  3   2   4  1   
  4   3   5  1   
  5   3  27  1   
  6   4   6  1   
  7   4  28  1   
  8   4  29  1   
  9   5   7  1   
 10   5   8  1   
 11   5  30  1   
 12   6   9  1   
 13   6  10  1   
 14   7  11  1   
 15   7  31  1   
 16   7  32  1   
 17   8  12  1   
 18   8  33  1   
 19   8  34  1   
 20   9  13  1   
 21   9  35  1   
 22   9  36  1   
 23  10  14  1   
 24  10  37  1   
 25  10  38  1   
 26  11  15  1   
 27  11  39  1   
 28  11  40  1   
 29  12  16  1   
 30  12  41  1   
 31  12  42  1   
 32  13  17  1   
 33  13  43  1   
 34  13  44  1   
 35  14  17  1   
 36  14  45  1   
 37  14  46  1   
 38  15  16  1   
 39  15  47  1   
 40  15  48  1   
 41  16  49  1   
 42  16  50  1   
 43  17  18  1   
 44  18  19  ar  
 45  18  20  ar  
 46  19  21  1   
 47  19  22  ar  
 48  20  23  ar  
 49  20  51  1   
 50  21  24  1   
 51  22  25  ar  
 52  22  52  1   
 53  23  25  ar  
 54  23  53  1   
 55  24  26  1   
 56  24  54  1   
 57  24  55  1   
 58  25  56  1   
 59  26  57  1   
 60  26  58  1   
 61  26  59  1   
@<TRIPOS>SUBSTRUCTURE
  1 ****  14 GROUP 4 **** **** 0

# MOE 2024.06 (io_trps.svl 2023.06)
