@<TRIPOS>MOLECULE
NONAME
46 48 1 0 0 
SMALL
USER_CHARGES


@<TRIPOS>ATOM
  1 O       -0.8610     0.2130     2.2870 O.2   1 <1>  -0.5700 
  2 C        0.2210    -0.1900     1.9290 C.2   1 <1>   0.5690 
  3 N        1.2860     0.6290     1.7660 N.am  1 <1>  -0.7300 
  4 C        0.4140    -1.6680     1.6430 C.3   1 <1>   0.0440 
  5 C        1.2770     2.0950     1.7960 C.3   1 <1>   0.2200 
  6 C        0.9080    -1.9100     0.2150 C.ar  1 <1>  -0.1440 
  7 C        1.6560     2.6040     0.3850 C.3   1 <1>  -0.0800 
  8 C        2.2050     2.5360     2.9310 C.3   1 <1>  -0.2400 
  9 C        2.2560    -1.7900    -0.1230 C.ar  1 <1>   0.0830 
 10 C       -0.0140    -2.2480    -0.7640 C.ar  1 <1>  -0.1500 
 11 C        3.0840     2.0630    -0.2240 C.3   1 <1>  -0.0800 
 12 C        1.6500     4.2750     0.2280 C.3   1 <1>  -0.1600 
 13 O        3.1310    -1.4410     0.8590 O.3   1 <1>  -0.3630 
 14 C        2.6580    -2.0170    -1.4380 C.ar  1 <1>  -0.1500 
 15 C        0.3920    -2.4720    -2.0670 C.ar  1 <1>  -0.1500 
 16 C        3.0200     3.3820    -0.4480 C.3   1 <1>  -0.1600 
 17 C        4.3800     2.4850    -1.1240 C.3   1 <1>  -0.1600 
 18 C        2.9600     4.7010    -0.6560 C.3   1 <1>  -0.0800 
 19 C        4.5200    -1.3670     0.6220 C.3   1 <1>   0.0400 
 20 C        1.7280    -2.3580    -2.4030 C.ar  1 <1>  -0.1500 
 21 C        4.3640     4.1500    -1.2890 C.3   1 <1>  -0.1600 
 22 H        2.1370     0.2030     1.3830 H     1 <1>   0.3700 
 23 H       -0.5210    -2.1730     1.7990 H     1 <1>   0.0800 
 24 H        1.1150    -2.0670     2.3510 H     1 <1>   0.0800 
 25 H        0.2790     2.4350     2.0220 H     1 <1>   0.0800 
 26 H        0.8700     2.2310    -0.2590 H     1 <1>   0.0800 
 27 H        3.2120     2.1990     2.7740 H     1 <1>   0.0800 
 28 H        1.8460     2.1310     3.8600 H     1 <1>   0.0800 
 29 H        2.2120     3.6050     3.0220 H     1 <1>   0.0800 
 30 H       -1.0590    -2.3340    -0.5170 H     1 <1>   0.1500 
 31 H        3.5760     1.6610     0.6480 H     1 <1>   0.0800 
 32 H        1.6870     4.7640     1.1870 H     1 <1>   0.0800 
 33 H        0.7400     4.5960    -0.2540 H     1 <1>   0.0800 
 34 H        3.6850    -1.9330    -1.7320 H     1 <1>   0.1500 
 35 H       -0.3330    -2.7340    -2.8190 H     1 <1>   0.1500 
 36 H        2.4450     3.2010    -1.4610 H     1 <1>   0.0800 
 37 H        3.5880     3.5660     0.5650 H     1 <1>   0.0800 
 38 H        4.3230     2.0160    -2.0960 H     1 <1>   0.0800 
 39 H        5.2980     2.1620    -0.6610 H     1 <1>   0.0800 
 40 H        2.4870     5.1140    -1.5370 H     1 <1>   0.0800 
 41 H        5.0030    -1.0990     1.5440 H     1 <1>   0.0800 
 42 H        4.7090    -0.6130    -0.1220 H     1 <1>   0.0800 
 43 H        4.8690    -2.3290     0.2930 H     1 <1>   0.0800 
 44 H        2.0420    -2.5320    -3.4180 H     1 <1>   0.1500 
 45 H        4.4560     4.4270    -2.3270 H     1 <1>   0.0800 
 46 H        5.2010     4.5840    -0.7620 H     1 <1>   0.0800 
@<TRIPOS>BOND
  1   1   2  2   
  2   2   3  am  
  3   2   4  1   
  4   3   5  1   
  5   3  22  1   
  6   4   6  1   
  7   4  23  1   
  8   4  24  1   
  9   5   7  1   
 10   5   8  1   
 11   5  25  1   
 12   6   9  ar  
 13   6  10  ar  
 14   7  11  1   
 15   7  12  1   
 16   7  26  1   
 17   8  27  1   
 18   8  28  1   
 19   8  29  1   
 20   9  13  1   
 21   9  14  ar  
 22  10  15  ar  
 23  10  30  1   
 24  11  16  1   
 25  11  17  1   
 26  11  31  1   
 27  12  18  1   
 28  12  32  1   
 29  12  33  1   
 30  13  19  1   
 31  14  20  ar  
 32  14  34  1   
 33  15  20  ar  
 34  15  35  1   
 35  16  18  1   
 36  16  36  1   
 37  16  37  1   
 38  17  21  1   
 39  17  38  1   
 40  17  39  1   
 41  18  21  1   
 42  18  40  1   
 43  19  41  1   
 44  19  42  1   
 45  19  43  1   
 46  20  44  1   
 47  21  45  1   
 48  21  46  1   
@<TRIPOS>SUBSTRUCTURE
  1 ****   3 GROUP 4 **** **** 0

# MOE 2024.06 (io_trps.svl 2023.06)
