@<TRIPOS>MOLECULE
NONAME
43 43 1 0 0 
SMALL
USER_CHARGES


@<TRIPOS>ATOM
  1 O        0.0180    -0.0680     0.5250 O.3   1 <1>  -0.3630 
  2 C       -1.1130    -0.7720     0.2720 C.ar  1 <1>   0.0830 
  3 C        1.2780    -0.5320     0.1080 C.3   1 <1>   0.1200 
  4 C       -1.1380    -1.9840    -0.4140 C.ar  1 <1>  -0.1500 
  5 C       -2.3000    -0.2280     0.7350 C.ar  1 <1>  -0.1500 
  6 C        2.3170     0.4960     0.5600 C.3   1 <1>  -0.1600 
  7 C       -2.3380    -2.6410    -0.6330 C.ar  1 <1>  -0.1440 
  8 C       -3.4990    -0.8810     0.5210 C.ar  1 <1>  -0.1500 
  9 C        3.7410     0.0850     0.1610 C.3   1 <1>  -0.1600 
 10 C       -3.5170    -2.0860    -0.1610 C.ar  1 <1>  -0.1500 
 11 C       -2.3640    -3.9630    -1.3790 C.3   1 <1>  -0.0970 
 12 C        4.7460     1.1440     0.6190 C.3   1 <1>   0.3430 
 13 N        6.1230     0.7870     0.1680 N.4   1 <1>  -0.9590 
 14 C        6.7040    -0.2980     1.0080 C.3   1 <1>   0.3430 
 15 C        7.0100     1.9830     0.1480 C.3   1 <1>   0.3430 
 16 C        7.8210    -0.9930     0.2400 C.3   1 <1>  -0.2400 
 17 C        6.6890     2.8350    -1.0740 C.3   1 <1>  -0.2400 
 18 H        1.2650    -0.6250    -0.9640 H     1 <1>   0.0800 
 19 H        1.4540    -1.4890     0.5680 H     1 <1>   0.0800 
 20 H       -0.2350    -2.4290    -0.7830 H     1 <1>   0.1500 
 21 H       -2.2770     0.7070     1.2640 H     1 <1>   0.1500 
 22 H        2.2530     0.5970     1.6310 H     1 <1>   0.0800 
 23 H        2.0720     1.4450     0.1120 H     1 <1>   0.0800 
 24 H       -4.4170    -0.4540     0.8840 H     1 <1>   0.1500 
 25 H        3.7860    -0.0160    -0.9100 H     1 <1>   0.0800 
 26 H        3.9640    -0.8660     0.6120 H     1 <1>   0.0800 
 27 H       -4.4550    -2.5880    -0.3220 H     1 <1>   0.1500 
 28 H       -1.5820    -3.9950    -2.1160 H     1 <1>   0.0800 
 29 H       -3.3060    -4.0940    -1.8800 H     1 <1>   0.0800 
 30 H       -2.2240    -4.7740    -0.6860 H     1 <1>   0.0800 
 31 H        4.7190     1.2410     1.6930 H     1 <1>   0.0800 
 32 H        4.4570     2.0910     0.1940 H     1 <1>   0.0800 
 33 H        6.0600     0.4350    -0.7960 H     1 <1>   0.4500 
 34 H        5.9460    -1.0270     1.2460 H     1 <1>   0.0800 
 35 H        7.0810     0.1070     1.9340 H     1 <1>   0.0800 
 36 H        8.0420     1.6770     0.0910 H     1 <1>   0.0800 
 37 H        6.8820     2.5600     1.0510 H     1 <1>   0.0800 
 38 H        7.4520    -1.4030    -0.6840 H     1 <1>   0.0800 
 39 H        8.2000    -1.8070     0.8330 H     1 <1>   0.0800 
 40 H        8.6400    -0.3280     0.0390 H     1 <1>   0.0800 
 41 H        7.3700     3.6670    -1.1100 H     1 <1>   0.0800 
 42 H        6.8160     2.2680    -1.9790 H     1 <1>   0.0800 
 43 H        5.6920     3.2340    -1.0330 H     1 <1>   0.0800 
@<TRIPOS>BOND
  1   1   2  1   
  2   1   3  1   
  3   2   4  ar  
  4   2   5  ar  
  5   3   6  1   
  6   3  18  1   
  7   3  19  1   
  8   4   7  ar  
  9   4  20  1   
 10   5   8  ar  
 11   5  21  1   
 12   6   9  1   
 13   6  22  1   
 14   6  23  1   
 15   7  10  ar  
 16   7  11  1   
 17   8  10  ar  
 18   8  24  1   
 19   9  12  1   
 20   9  25  1   
 21   9  26  1   
 22  10  27  1   
 23  11  28  1   
 24  11  29  1   
 25  11  30  1   
 26  12  13  1   
 27  12  31  1   
 28  12  32  1   
 29  13  14  1   
 30  13  15  1   
 31  13  33  1   
 32  14  16  1   
 33  14  34  1   
 34  14  35  1   
 35  15  17  1   
 36  15  36  1   
 37  15  37  1   
 38  16  38  1   
 39  16  39  1   
 40  16  40  1   
 41  17  41  1   
 42  17  42  1   
 43  17  43  1   
@<TRIPOS>SUBSTRUCTURE
  1 ****   3 GROUP 4 **** **** 0

# MOE 2024.06 (io_trps.svl 2023.06)
