@<TRIPOS>MOLECULE
NONAME
35 35 1 0 0 
SMALL
USER_CHARGES


@<TRIPOS>ATOM
  1 O       -2.1340     3.3110    -2.0530 O.2   1 <1>  -0.5700 
  2 C       -2.5600     2.9320    -0.9920 C.2   1 <1>   0.4230 
  3 C       -3.9730     2.7260    -0.7320 C.ar  1 <1>   0.0860 
  4 C       -1.5280     2.6700     0.0950 C.3   1 <1>  -0.0990 
  5 C       -4.9140     3.0040    -1.7250 C.ar  1 <1>  -0.1500 
  6 C       -4.4680     2.2530     0.4880 C.ar  1 <1>  -0.1500 
  7 C       -0.1280     3.0350    -0.4090 C.3   1 <1>   0.3430 
  8 C       -6.2690     2.8220    -1.5190 C.ar  1 <1>  -0.1500 
  9 C       -5.8230     2.0700     0.6980 C.ar  1 <1>  -0.1500 
 10 N        0.9200     2.8470     0.6440 N.4   1 <1>  -0.9590 
 11 C       -6.7340     2.3520    -0.3040 C.ar  1 <1>  -0.1430 
 12 C        2.1900     3.5060     0.2060 C.3   1 <1>   0.2630 
 13 C        1.1710     1.4020     0.9460 C.3   1 <1>   0.2630 
 14 C       -8.2240     2.1520    -0.0740 C.3   1 <1>  -0.0170 
 15 C       -8.8560     3.4260     0.4910 C.3   1 <1>  -0.2400 
 16 H       -1.5720     1.6290     0.3540 H     1 <1>   0.0800 
 17 H       -1.7710     3.2720     0.9510 H     1 <1>   0.0800 
 18 H       -4.5790     3.3710    -2.6810 H     1 <1>   0.1500 
 19 H       -3.8050     2.0170     1.2990 H     1 <1>   0.1500 
 20 H       -0.1420     4.0660    -0.7250 H     1 <1>   0.0800 
 21 H        0.1060     2.4370    -1.2760 H     1 <1>   0.0800 
 22 H       -6.9620     3.0500    -2.3100 H     1 <1>   0.1500 
 23 H       -6.1730     1.7060     1.6490 H     1 <1>   0.1500 
 24 H        0.6020     3.3190     1.5040 H     1 <1>   0.4500 
 25 H        2.5570     3.0500    -0.7000 H     1 <1>   0.0800 
 26 H        2.9450     3.4120     0.9700 H     1 <1>   0.0800 
 27 H        2.0230     4.5550     0.0180 H     1 <1>   0.0800 
 28 H        1.4850     0.8820     0.0550 H     1 <1>   0.0800 
 29 H        0.2770     0.9330     1.3210 H     1 <1>   0.0800 
 30 H        1.9440     1.3040     1.6910 H     1 <1>   0.0800 
 31 H       -8.3810     1.3370     0.6110 H     1 <1>   0.0800 
 32 H       -8.7030     1.8940    -1.0020 H     1 <1>   0.0800 
 33 H       -8.3980     3.6830     1.4300 H     1 <1>   0.0800 
 34 H       -9.9090     3.2780     0.6490 H     1 <1>   0.0800 
 35 H       -8.7200     4.2440    -0.1940 H     1 <1>   0.0800 
@<TRIPOS>BOND
  1   1   2  2   
  2   2   3  1   
  3   2   4  1   
  4   3   5  ar  
  5   3   6  ar  
  6   4   7  1   
  7   4  16  1   
  8   4  17  1   
  9   5   8  ar  
 10   5  18  1   
 11   6   9  ar  
 12   6  19  1   
 13   7  10  1   
 14   7  20  1   
 15   7  21  1   
 16   8  11  ar  
 17   8  22  1   
 18   9  11  ar  
 19   9  23  1   
 20  10  12  1   
 21  10  13  1   
 22  10  24  1   
 23  11  14  1   
 24  12  25  1   
 25  12  26  1   
 26  12  27  1   
 27  13  28  1   
 28  13  29  1   
 29  13  30  1   
 30  14  15  1   
 31  14  31  1   
 32  14  32  1   
 33  15  33  1   
 34  15  34  1   
 35  15  35  1   
@<TRIPOS>SUBSTRUCTURE
  1 ****   3 GROUP 4 **** **** 0

# MOE 2024.06 (io_trps.svl 2023.06)
