@<TRIPOS>MOLECULE
NONAME
36 39 1 0 0 
SMALL
USER_CHARGES


@<TRIPOS>ATOM
  1 S       -0.0290    -0.2340    -0.1940 S.3   1 <1>  -0.0800 
  2 C        1.2550     0.9210     0.0560 C.2   1 <1>   0.1660 
  3 C       -1.2420     0.9760     0.1960 C.2   1 <1>  -0.1400 
  4 N        2.5570     0.5860    -0.1020 N.2   1 <1>  -0.5760 
  5 C        0.7750     2.1340     0.4130 C.2   1 <1>  -0.0860 
  6 C       -0.6690     2.1600     0.4910 C.2   1 <1>  -0.1810 
  7 C       -2.6910     0.5350     0.1490 C.3   1 <1>   0.0200 
  8 C        3.4200     1.5210     0.1180 C.2   1 <1>   0.5140 
  9 C        1.7810     3.1240     0.6330 C.2   1 <1>   0.8060 
 10 C       -1.4740     3.3940     0.8790 C.3   1 <1>   0.0210 
 11 C       -3.5330     1.4460    -0.7520 C.3   1 <1>  -0.1600 
 12 O        3.0500     2.7600     0.4690 O.3   1 <1>  -0.3000 
 13 C        4.8440     1.3400    -0.0150 C.ar  1 <1>   0.0860 
 14 O        1.5810     4.2780     0.9560 O.2   1 <1>  -0.5700 
 15 C       -2.5270     3.7610    -0.1760 C.3   1 <1>  -0.1600 
 16 C       -3.7700     2.8540    -0.1820 C.3   1 <1>  -0.1600 
 17 C        5.5290     0.2700     0.5650 C.ar  1 <1>   0.1900 
 18 C        5.6220     2.2470    -0.7400 C.ar  1 <1>  -0.1500 
 19 F        4.8760    -0.5970     1.2890 F     1 <1>  -0.1900 
 20 C        6.8920     0.0820     0.4320 C.ar  1 <1>  -0.1500 
 21 C        6.9890     2.0790    -0.8820 C.ar  1 <1>  -0.1500 
 22 C        7.6280     0.9960    -0.3000 C.ar  1 <1>  -0.1500 
 23 H       -3.0930     0.5220     1.1470 H     1 <1>   0.0800 
 24 H       -2.7380    -0.4680    -0.2360 H     1 <1>   0.0800 
 25 H       -0.8290     4.2410     1.0020 H     1 <1>   0.0800 
 26 H       -1.9500     3.2230     1.8290 H     1 <1>   0.0800 
 27 H       -4.4920     0.9770    -0.8910 H     1 <1>   0.0800 
 28 H       -3.0680     1.5180    -1.7200 H     1 <1>   0.0800 
 29 H       -2.0710     3.7690    -1.1510 H     1 <1>   0.0800 
 30 H       -2.8560     4.7650     0.0290 H     1 <1>   0.0800 
 31 H       -4.1760     2.7830     0.8130 H     1 <1>   0.0800 
 32 H       -4.5170     3.3300    -0.7930 H     1 <1>   0.0800 
 33 H        5.1470     3.0960    -1.2030 H     1 <1>   0.1500 
 34 H        7.3650    -0.7640     0.8980 H     1 <1>   0.1500 
 35 H        7.5630     2.7930    -1.4500 H     1 <1>   0.1500 
 36 H        8.6910     0.8680    -0.4150 H     1 <1>   0.1500 
@<TRIPOS>BOND
  1   1   2  1   
  2   1   3  1   
  3   2   4  1   
  4   2   5  2   
  5   3   6  2   
  6   3   7  1   
  7   4   8  2   
  8   5   6  1   
  9   5   9  1   
 10   6  10  1   
 11   7  11  1   
 12   7  23  1   
 13   7  24  1   
 14   8  12  1   
 15   8  13  1   
 16   9  12  1   
 17   9  14  2   
 18  10  15  1   
 19  10  25  1   
 20  10  26  1   
 21  11  16  1   
 22  11  27  1   
 23  11  28  1   
 24  13  17  ar  
 25  13  18  ar  
 26  15  16  1   
 27  15  29  1   
 28  15  30  1   
 29  16  31  1   
 30  16  32  1   
 31  17  19  1   
 32  17  20  ar  
 33  18  21  ar  
 34  18  33  1   
 35  20  22  ar  
 36  20  34  1   
 37  21  22  ar  
 38  21  35  1   
 39  22  36  1   
@<TRIPOS>SUBSTRUCTURE
  1 ****   2 GROUP 4 **** **** 0

# MOE 2024.06 (io_trps.svl 2023.06)
