@<TRIPOS>MOLECULE
NONAME
49 50 1 0 0 
SMALL
USER_CHARGES


@<TRIPOS>ATOM
  1 CL      -1.5910    -0.2000     2.9780 Cl    1 <1>  -0.1770 
  2 C       -2.4840    -1.3370     2.0040 C.ar  1 <1>   0.1770 
  3 C       -3.5930    -1.9640     2.5350 C.ar  1 <1>  -0.1500 
  4 C       -2.0720    -1.5960     0.7110 C.ar  1 <1>  -0.1500 
  5 C       -4.3000    -2.8640     1.7540 C.ar  1 <1>  -0.1500 
  6 C       -2.7880    -2.4980    -0.0590 C.ar  1 <1>  -0.1500 
  7 C       -3.9130    -3.1460     0.4470 C.ar  1 <1>  -0.0090 
  8 S       -4.8670    -4.3100    -0.5700 S.o2  1 <1>   1.4470 
  9 O       -4.2700    -4.4520    -1.8800 O.2   1 <1>  -0.6500 
 10 O       -5.1720    -5.4860     0.2120 O.2   1 <1>  -0.6500 
 11 N       -6.3430    -3.5080    -0.8090 N.am  1 <1>  -0.8490 
 12 C       -7.3180    -4.4250    -1.4600 C.3   1 <1>   0.2570 
 13 C       -6.2000    -2.2880    -1.6210 C.3   1 <1>   0.1160 
 14 C       -8.7670    -3.9450    -1.3670 C.2   1 <1>   0.5690 
 15 O       -9.4830    -4.0370    -2.3350 O.2   1 <1>  -0.5700 
 16 N       -9.1730    -3.4200    -0.1750 N.am  1 <1>  -0.5470 
 17 C      -10.4240    -2.8960     0.1840 C.ar  1 <1>   0.1170 
 18 C      -11.5100    -3.7460     0.4260 C.ar  1 <1>  -0.1430 
 19 C      -10.5740    -1.5120     0.3330 C.ar  1 <1>  -0.1430 
 20 C      -12.7260    -3.2080     0.8120 C.ar  1 <1>  -0.1500 
 21 C      -11.4130    -5.2640     0.2920 C.3   1 <1>  -0.0170 
 22 C      -11.8070    -1.0020     0.7180 C.ar  1 <1>  -0.1500 
 23 C       -9.3780    -0.5920     0.0490 C.3   1 <1>  -0.0170 
 24 C      -12.8760    -1.8440     0.9580 C.ar  1 <1>  -0.1500 
 25 C      -10.7950    -5.8890     1.5460 C.3   1 <1>  -0.2400 
 26 C       -9.5690     0.8910     0.3890 C.3   1 <1>  -0.2400 
 27 H       -3.8950    -1.7510     3.5460 H     1 <1>   0.1500 
 28 H       -1.2030    -1.0980     0.3180 H     1 <1>   0.1500 
 29 H       -5.1640    -3.3600     2.1650 H     1 <1>   0.1500 
 30 H       -2.4650    -2.7030    -1.0680 H     1 <1>   0.1500 
 31 H       -7.2900    -5.3900    -0.9850 H     1 <1>   0.0800 
 32 H       -7.0580    -4.5680    -2.4950 H     1 <1>   0.0800 
 33 H       -5.5300    -1.5960    -1.1410 H     1 <1>   0.0800 
 34 H       -7.1530    -1.8010    -1.7410 H     1 <1>   0.0800 
 35 H       -5.8110    -2.5240    -2.5990 H     1 <1>   0.0800 
 36 H       -8.4220    -3.2820     0.5010 H     1 <1>   0.3700 
 37 H      -13.5670    -3.8500     1.0040 H     1 <1>   0.1500 
 38 H      -10.8360    -5.5290    -0.5740 H     1 <1>   0.0800 
 39 H      -12.3950    -5.6770     0.1430 H     1 <1>   0.0800 
 40 H      -11.9670     0.0530     0.8380 H     1 <1>   0.1500 
 41 H       -9.1400    -0.6720    -0.9980 H     1 <1>   0.0800 
 42 H       -8.5290    -0.9480     0.6060 H     1 <1>   0.0800 
 43 H      -13.8250    -1.4360     1.2560 H     1 <1>   0.1500 
 44 H       -9.7960    -5.5190     1.6940 H     1 <1>   0.0800 
 45 H      -10.7560    -6.9580     1.4450 H     1 <1>   0.0800 
 46 H      -11.3860    -5.6430     2.4100 H     1 <1>   0.0800 
 47 H      -10.3500     1.3170    -0.2150 H     1 <1>   0.0800 
 48 H       -8.6600     1.4310     0.1950 H     1 <1>   0.0800 
 49 H       -9.8190     1.0070     1.4290 H     1 <1>   0.0800 
@<TRIPOS>BOND
  1   1   2  1   
  2   2   3  ar  
  3   2   4  ar  
  4   3   5  ar  
  5   3  27  1   
  6   4   6  ar  
  7   4  28  1   
  8   5   7  ar  
  9   5  29  1   
 10   6   7  ar  
 11   6  30  1   
 12   7   8  1   
 13   8   9  2   
 14   8  10  2   
 15   8  11  am  
 16  11  12  1   
 17  11  13  1   
 18  12  14  1   
 19  12  31  1   
 20  12  32  1   
 21  13  33  1   
 22  13  34  1   
 23  13  35  1   
 24  14  15  2   
 25  14  16  am  
 26  16  17  1   
 27  16  36  1   
 28  17  18  ar  
 29  17  19  ar  
 30  18  20  ar  
 31  18  21  1   
 32  19  22  ar  
 33  19  23  1   
 34  20  24  ar  
 35  20  37  1   
 36  21  25  1   
 37  21  38  1   
 38  21  39  1   
 39  22  24  ar  
 40  22  40  1   
 41  23  26  1   
 42  23  41  1   
 43  23  42  1   
 44  24  43  1   
 45  25  44  1   
 46  25  45  1   
 47  25  46  1   
 48  26  47  1   
 49  26  48  1   
 50  26  49  1   
@<TRIPOS>SUBSTRUCTURE
  1 ****  11 GROUP 4 **** **** 0

# MOE 2024.06 (io_trps.svl 2023.06)
