@<TRIPOS>MOLECULE
Structure1884
41 42 1 0 0 
SMALL
USER_CHARGES


@<TRIPOS>ATOM
  1 F        0.4910    -0.3120    -0.2450 F     1 <1>  -0.1900 
  2 C       -0.5170    -0.9890     0.2400 C.ar  1 <1>   0.1900 
  3 C       -0.3960    -2.3770     0.3980 C.ar  1 <1>   0.0000 
  4 C       -1.6650    -0.3140     0.5800 C.ar  1 <1>  -0.1500 
  5 C       -1.4940    -3.0620     0.9170 C.ar  1 <1>  -0.1520 
  6 C        0.6050    -3.3520     0.1570 C.2   1 <1>  -0.1810 
  7 C       -2.7520    -1.0270     1.1000 C.ar  1 <1>  -0.1500 
  8 N       -1.1760    -4.3930     0.9870 N.pl3 1 <1>   0.0330 
  9 C       -2.6720    -2.3920     1.2690 C.ar  1 <1>  -0.1500 
 10 C        0.0960    -4.5510     0.5270 C.2   1 <1>  -0.3020 
 11 C        1.9800    -3.0360    -0.4210 C.3   1 <1>   0.0210 
 12 C        2.9630    -4.2180    -0.4520 C.3   1 <1>   0.1140 
 13 N        4.3450    -3.6680    -0.6680 N.am  1 <1>  -0.7300 
 14 C        2.6080    -5.2390    -1.5510 C.2   1 <1>   0.9060 
 15 C        5.3180    -3.5560     0.2560 C.2   1 <1>   0.7800 
 16 O        2.0980    -6.3280    -1.2530 O.co2 1 <1>  -0.9000 
 17 O        2.9210    -4.9640    -2.7210 O.co2 1 <1>  -0.9000 
 18 O        5.1030    -3.6150     1.4500 O.2   1 <1>  -0.5700 
 19 O        6.5450    -3.3640    -0.2290 O.3   1 <1>  -0.4300 
 20 C        7.7400    -3.2310     0.5080 C.3   1 <1>   0.2800 
 21 C        7.6790    -1.9840     1.3980 C.3   1 <1>  -0.2400 
 22 C        8.8360    -3.0470    -0.5420 C.3   1 <1>  -0.2400 
 23 C        8.0160    -4.5100     1.3070 C.3   1 <1>  -0.2400 
 24 H       -1.7270     0.7500     0.4470 H     1 <1>   0.1500 
 25 H       -3.6500    -0.4960     1.3660 H     1 <1>   0.1500 
 26 H       -1.7920    -5.1470     1.3050 H     1 <1>   0.2700 
 27 H       -3.5020    -2.9480     1.6670 H     1 <1>   0.1500 
 28 H        0.5620    -5.5220     0.4800 H     1 <1>   0.1500 
 29 H        2.4100    -2.2580     0.1830 H     1 <1>   0.0800 
 30 H        1.8590    -2.6570    -1.4210 H     1 <1>   0.0800 
 31 H        2.9350    -4.7270     0.4940 H     1 <1>   0.0800 
 32 H        4.6220    -3.7680    -1.6500 H     1 <1>   0.3700 
 33 H        8.6370    -1.8080     1.8500 H     1 <1>   0.0800 
 34 H        6.9640    -2.1100     2.1910 H     1 <1>   0.0800 
 35 H        7.4100    -1.1230     0.8150 H     1 <1>   0.0800 
 36 H        8.6440    -2.1680    -1.1300 H     1 <1>   0.0800 
 37 H        8.8730    -3.9020    -1.1940 H     1 <1>   0.0800 
 38 H        9.7950    -2.9370    -0.0690 H     1 <1>   0.0800 
 39 H        7.9740    -5.3690     0.6610 H     1 <1>   0.0800 
 40 H        7.3020    -4.6320     2.1000 H     1 <1>   0.0800 
 41 H        8.9930    -4.4630     1.7520 H     1 <1>   0.0800 
@<TRIPOS>BOND
  1   1   2  1   
  2   2   3  ar  
  3   2   4  ar  
  4   3   5  ar  
  5   3   6  1   
  6   4   7  ar  
  7   4  24  1   
  8   5   8  1   
  9   5   9  ar  
 10   6  10  2   
 11   6  11  1   
 12   7   9  ar  
 13   7  25  1   
 14   8  10  1   
 15   8  26  1   
 16   9  27  1   
 17  10  28  1   
 18  11  12  1   
 19  11  29  1   
 20  11  30  1   
 21  12  13  1   
 22  12  14  1   
 23  12  31  1   
 24  13  15  am  
 25  13  32  1   
 26  14  16  ar  
 27  14  17  ar  
 28  15  18  2   
 29  15  19  1   
 30  19  20  1   
 31  20  21  1   
 32  20  22  1   
 33  20  23  1   
 34  21  33  1   
 35  21  34  1   
 36  21  35  1   
 37  22  36  1   
 38  22  37  1   
 39  22  38  1   
 40  23  39  1   
 41  23  40  1   
 42  23  41  1   
@<TRIPOS>SUBSTRUCTURE
  1 ****  11 GROUP 4 **** **** 0

# MOE 2024.06 (io_trps.svl 2023.06)
