@<TRIPOS>MOLECULE
NONAME
45 46 1 0 0 
SMALL
USER_CHARGES


@<TRIPOS>ATOM
  1 CL      -0.9480     2.5260     3.3080 Cl    1 <1>  -0.1770 
  2 C       -0.3630     3.3370     1.8730 C.ar  1 <1>   0.1770 
  3 C       -1.0820     3.2770     0.6860 C.ar  1 <1>   0.0820 
  4 C        0.8360     4.0210     1.9610 C.ar  1 <1>  -0.1500 
  5 O       -2.2410     2.5750     0.6470 O.3   1 <1>  -0.3630 
  6 C       -0.5780     3.9480    -0.4350 C.ar  1 <1>   0.0820 
  7 C        1.3450     4.6650     0.8430 C.ar  1 <1>  -0.1440 
  8 C       -2.1320     1.2340     0.2350 C.3   1 <1>   0.1200 
  9 O       -1.1870     3.9890    -1.6490 O.3   1 <1>  -0.3630 
 10 C        0.6290     4.6230    -0.3460 C.ar  1 <1>  -0.1500 
 11 C        2.6650     5.4030     0.9080 C.3   1 <1>   0.4860 
 12 C       -3.5270     0.6190     0.2540 C.3   1 <1>  -0.2400 
 13 C       -2.5840     4.1910    -1.7230 C.3   1 <1>   0.0400 
 14 N        3.7030     4.4530     0.4680 N.4   1 <1>  -0.9060 
 15 C        5.0690     5.0040     0.4240 C.3   1 <1>   0.4860 
 16 C        5.9590     3.8690    -0.0200 C.ar  1 <1>  -0.1430 
 17 C        6.5460     3.0330     0.9180 C.ar  1 <1>  -0.1500 
 18 C        6.1860     3.6450    -1.3710 C.ar  1 <1>  -0.1500 
 19 C        7.3420     1.9790     0.5080 C.ar  1 <1>  -0.1500 
 20 C        6.9820     2.5890    -1.7750 C.ar  1 <1>  -0.1500 
 21 C        7.5610     1.7490    -0.8400 C.ar  1 <1>  -0.1430 
 22 C        8.4370     0.5930    -1.2870 C.3   1 <1>  -0.0970 
 23 H        1.3470     4.0330     2.9090 H     1 <1>   0.1500 
 24 H       -1.4780     0.7180     0.9180 H     1 <1>   0.0800 
 25 H       -1.7150     1.2130    -0.7570 H     1 <1>   0.0800 
 26 H        0.9860     5.1210    -1.2320 H     1 <1>   0.1500 
 27 H        2.8540     5.7330     1.9170 H     1 <1>   0.0800 
 28 H        2.6350     6.2620     0.2570 H     1 <1>   0.0800 
 29 H       -3.9340     0.6600     1.2490 H     1 <1>   0.0800 
 30 H       -3.4760    -0.4100    -0.0530 H     1 <1>   0.0800 
 31 H       -4.1760     1.1470    -0.4210 H     1 <1>   0.0800 
 32 H       -2.8140     4.6010    -2.6900 H     1 <1>   0.0800 
 33 H       -2.8870     4.8780    -0.9520 H     1 <1>   0.0800 
 34 H       -3.0840     3.2470    -1.6050 H     1 <1>   0.0800 
 35 H        3.4640     4.0900    -0.4620 H     1 <1>   0.4500 
 36 H        3.7020     3.6280     1.0770 H     1 <1>   0.4500 
 37 H        5.3750     5.3510     1.3980 H     1 <1>   0.0800 
 38 H        5.1320     5.8190    -0.2790 H     1 <1>   0.0800 
 39 H        6.4010     3.1860     1.9740 H     1 <1>   0.1500 
 40 H        5.7550     4.2820    -2.1250 H     1 <1>   0.1500 
 41 H        7.7980     1.3350     1.2420 H     1 <1>   0.1500 
 42 H        7.1550     2.4210    -2.8250 H     1 <1>   0.1500 
 43 H        9.4600     0.9180    -1.3610 H     1 <1>   0.0800 
 44 H        8.1200     0.2270    -2.2470 H     1 <1>   0.0800 
 45 H        8.3830    -0.2180    -0.5820 H     1 <1>   0.0800 
@<TRIPOS>BOND
  1   1   2  1   
  2   2   3  ar  
  3   2   4  ar  
  4   3   5  1   
  5   3   6  ar  
  6   4   7  ar  
  7   4  23  1   
  8   5   8  1   
  9   6   9  1   
 10   6  10  ar  
 11   7  10  ar  
 12   7  11  1   
 13   8  12  1   
 14   8  24  1   
 15   8  25  1   
 16   9  13  1   
 17  10  26  1   
 18  11  14  1   
 19  11  27  1   
 20  11  28  1   
 21  12  29  1   
 22  12  30  1   
 23  12  31  1   
 24  13  32  1   
 25  13  33  1   
 26  13  34  1   
 27  14  15  1   
 28  14  35  1   
 29  14  36  1   
 30  15  16  1   
 31  15  37  1   
 32  15  38  1   
 33  16  17  ar  
 34  16  18  ar  
 35  17  19  ar  
 36  17  39  1   
 37  18  20  ar  
 38  18  40  1   
 39  19  21  ar  
 40  19  41  1   
 41  20  21  ar  
 42  20  42  1   
 43  21  22  1   
 44  22  43  1   
 45  22  44  1   
 46  22  45  1   
@<TRIPOS>SUBSTRUCTURE
  1 ****   7 GROUP 4 **** **** 0

# MOE 2024.06 (io_trps.svl 2023.06)
