@<TRIPOS>MOLECULE
NONAME
24 24 1 0 0 
SMALL
USER_CHARGES


@<TRIPOS>ATOM
  1 BR      -0.2550     0.6450     0.8380 Br    1 <1>  -0.1110 
  2 C        1.5350     1.1600     0.3450 C.ar  1 <1>   0.1110 
  3 C        2.2800     1.9480     1.2010 C.ar  1 <1>   0.1600 
  4 C        2.0480     0.7340    -0.8590 C.ar  1 <1>  -0.1500 
  5 N        3.5170     2.3480     0.9410 N.ar  1 <1>  -0.6200 
  6 C        3.3340     1.1480    -1.1320 C.ar  1 <1>  -0.1500 
  7 C        4.0290     1.9440    -0.2160 C.ar  1 <1>   0.4270 
  8 N        5.3140     2.4020    -0.4060 N.am  1 <1>  -0.5470 
  9 C        6.2480     2.1870    -1.3740 C.2   1 <1>   0.5690 
 10 O        6.0660     1.4870    -2.3380 O.2   1 <1>  -0.5700 
 11 C        7.5900     2.8820    -1.2260 C.3   1 <1>  -0.0990 
 12 C        8.6370     2.0420    -0.4730 C.3   1 <1>  -0.1600 
 13 C        8.2730     1.8060     0.9980 C.3   1 <1>  -0.2400 
 14 H        1.8390     2.2590     2.1320 H     1 <1>   0.1500 
 15 H        1.4790     0.1210    -1.5350 H     1 <1>   0.1500 
 16 H        3.7950     0.8530    -2.0550 H     1 <1>   0.1500 
 17 H        5.6080     2.9760     0.3790 H     1 <1>   0.3700 
 18 H        7.4550     3.8270    -0.7330 H     1 <1>   0.0800 
 19 H        7.9620     3.0870    -2.2140 H     1 <1>   0.0800 
 20 H        9.5860     2.5490    -0.5190 H     1 <1>   0.0800 
 21 H        8.7510     1.0920    -0.9690 H     1 <1>   0.0800 
 22 H        8.1280     2.7420     1.5090 H     1 <1>   0.0800 
 23 H        9.0700     1.2740     1.4880 H     1 <1>   0.0800 
 24 H        7.3780     1.2150     1.0830 H     1 <1>   0.0800 
@<TRIPOS>BOND
  1   1   2  1   
  2   2   3  ar  
  3   2   4  ar  
  4   3   5  ar  
  5   3  14  1   
  6   4   6  ar  
  7   4  15  1   
  8   5   7  ar  
  9   6   7  ar  
 10   6  16  1   
 11   7   8  1   
 12   8   9  am  
 13   8  17  1   
 14   9  10  2   
 15   9  11  1   
 16  11  12  1   
 17  11  18  1   
 18  11  19  1   
 19  12  13  1   
 20  12  20  1   
 21  12  21  1   
 22  13  22  1   
 23  13  23  1   
 24  13  24  1   
@<TRIPOS>SUBSTRUCTURE
  1 ****   7 GROUP 4 **** **** 0

# MOE 2024.06 (io_trps.svl 2023.06)
