@<TRIPOS>MOLECULE
NONAME
42 43 1 0 0 
SMALL
USER_CHARGES


@<TRIPOS>ATOM
  1 O       -1.2080    -1.0660     1.3680 O.2   1 <1>  -0.5700 
  2 C       -1.7270    -0.8950     0.2860 C.2   1 <1>   0.5440 
  3 N       -1.0460    -1.3820    -0.7780 N.am  1 <1>  -0.8000 
  4 C       -2.9910    -0.1940     0.1450 C.ar  1 <1>   0.0860 
  5 C       -3.7950    -0.3210    -0.9910 C.ar  1 <1>  -0.1500 
  6 C       -3.4630     0.6460     1.1560 C.ar  1 <1>  -0.1500 
  7 C       -4.9900     0.3610    -1.1130 C.ar  1 <1>  -0.1500 
  8 C       -4.6580     1.3290     1.0350 C.ar  1 <1>  -0.1500 
  9 C       -5.4430     1.2050    -0.1040 C.ar  1 <1>   0.1170 
 10 N       -6.6470     1.9150    -0.1730 N.am  1 <1>  -0.5470 
 11 C       -7.4540     2.2310    -1.2320 C.2   1 <1>   0.5690 
 12 O       -7.2100     1.9450    -2.3770 O.2   1 <1>  -0.5700 
 13 C       -8.7270     3.0010    -0.9340 C.3   1 <1>  -0.0990 
 14 C       -9.8120     2.1010    -0.3140 C.3   1 <1>  -0.1600 
 15 C      -11.0680     2.8720     0.1370 C.3   1 <1>  -0.0800 
 16 C      -12.0130     1.9200     0.8910 C.3   1 <1>  -0.1600 
 17 C      -11.8060     3.5260    -1.0480 C.3   1 <1>  -0.1600 
 18 C      -13.2930     2.6310     1.3480 C.3   1 <1>  -0.1600 
 19 C      -13.0920     4.2320    -0.5960 C.3   1 <1>  -0.1600 
 20 C      -14.0190     3.2740     0.1610 C.3   1 <1>  -0.1600 
 21 H       -0.1450    -1.8320    -0.6110 H     1 <1>   0.3700 
 22 H       -1.2920    -1.1900    -1.7470 H     1 <1>   0.3700 
 23 H       -3.4870    -0.9700    -1.7900 H     1 <1>   0.1500 
 24 H       -2.8720     0.7590     2.0490 H     1 <1>   0.1500 
 25 H       -5.5770     0.2270    -2.0040 H     1 <1>   0.1500 
 26 H       -4.9790     1.9680     1.8370 H     1 <1>   0.1500 
 27 H       -6.9740     2.2780     0.7200 H     1 <1>   0.3700 
 28 H       -9.0820     3.4200    -1.8580 H     1 <1>   0.0800 
 29 H       -8.4950     3.8140    -0.2710 H     1 <1>   0.0800 
 30 H       -9.3960     1.5950     0.5400 H     1 <1>   0.0800 
 31 H      -10.0910     1.3450    -1.0300 H     1 <1>   0.0800 
 32 H      -10.7670     3.6490     0.8190 H     1 <1>   0.0800 
 33 H      -11.5110     1.5160     1.7540 H     1 <1>   0.0800 
 34 H      -12.2800     1.0960     0.2510 H     1 <1>   0.0800 
 35 H      -12.0560     2.7720    -1.7750 H     1 <1>   0.0800 
 36 H      -11.1750     4.2510    -1.5280 H     1 <1>   0.0800 
 37 H      -13.0430     3.3920     2.0670 H     1 <1>   0.0800 
 38 H      -13.9470     1.9240     1.8290 H     1 <1>   0.0800 
 39 H      -13.6070     4.6270    -1.4540 H     1 <1>   0.0800 
 40 H      -12.8380     5.0600     0.0450 H     1 <1>   0.0800 
 41 H      -14.8830     3.8100     0.5130 H     1 <1>   0.0800 
 42 H      -14.3590     2.5030    -0.5100 H     1 <1>   0.0800 
@<TRIPOS>BOND
  1   1   2  2   
  2   2   3  am  
  3   2   4  1   
  4   3  21  1   
  5   3  22  1   
  6   4   5  ar  
  7   4   6  ar  
  8   5   7  ar  
  9   5  23  1   
 10   6   8  ar  
 11   6  24  1   
 12   7   9  ar  
 13   7  25  1   
 14   8   9  ar  
 15   8  26  1   
 16   9  10  1   
 17  10  11  am  
 18  10  27  1   
 19  11  12  2   
 20  11  13  1   
 21  13  14  1   
 22  13  28  1   
 23  13  29  1   
 24  14  15  1   
 25  14  30  1   
 26  14  31  1   
 27  15  16  1   
 28  15  17  1   
 29  15  32  1   
 30  16  18  1   
 31  16  33  1   
 32  16  34  1   
 33  17  19  1   
 34  17  35  1   
 35  17  36  1   
 36  18  20  1   
 37  18  37  1   
 38  18  38  1   
 39  19  20  1   
 40  19  39  1   
 41  19  40  1   
 42  20  41  1   
 43  20  42  1   
@<TRIPOS>SUBSTRUCTURE
  1 ****  10 GROUP 4 **** **** 0

# MOE 2024.06 (io_trps.svl 2023.06)
