@<TRIPOS>MOLECULE
NONAME
47 48 1 0 0 
SMALL
USER_CHARGES


@<TRIPOS>ATOM
  1 CL       0.0690     0.4870    -0.3970 Cl    1 <1>  -0.1770 
  2 C        1.7820     0.2530    -0.1530 C.ar  1 <1>   0.1770 
  3 C        2.3000    -1.0280    -0.1430 C.ar  1 <1>  -0.1500 
  4 C        2.5990     1.3520     0.0290 C.ar  1 <1>  -0.1500 
  5 C        3.6580    -1.2090     0.0520 C.ar  1 <1>  -0.1500 
  6 C        3.9570     1.1630     0.2220 C.ar  1 <1>  -0.1500 
  7 C        4.5060    -0.1170     0.2330 C.ar  1 <1>   0.1170 
  8 N        5.8890    -0.2500     0.4440 N.am  1 <1>  -0.5470 
  9 C        6.7430    -1.2580     0.0950 C.2   1 <1>   0.5690 
 10 O        6.4090    -2.2480    -0.5050 O.2   1 <1>  -0.5700 
 11 C        8.2020    -1.1210     0.4770 C.3   1 <1>  -0.0990 
 12 C        9.0150    -2.2260    -0.2050 C.3   1 <1>   0.3430 
 13 N       10.4470    -2.2370     0.2310 N.4   1 <1>  -0.9590 
 14 C       11.1920    -1.0190    -0.2400 C.3   1 <1>   0.3430 
 15 C       11.0970    -3.4900    -0.2580 C.3   1 <1>   0.3430 
 16 C       12.6510    -1.0290     0.2320 C.3   1 <1>  -0.0190 
 17 C       12.5420    -3.5590     0.2410 C.3   1 <1>  -0.1600 
 18 C       13.3480     0.2020    -0.3220 C.2   1 <1>   0.6590 
 19 C       13.3560    -2.3320    -0.1930 C.3   1 <1>  -0.1600 
 20 O       12.7810     0.9520    -1.0750 O.2   1 <1>  -0.5700 
 21 O       14.5930     0.3960     0.0790 O.3   1 <1>  -0.4300 
 22 C       15.3520     1.4990    -0.3630 C.3   1 <1>   0.1200 
 23 C       16.7340     1.4080     0.2760 C.3   1 <1>  -0.2400 
 24 H        1.6470    -1.8710    -0.2850 H     1 <1>   0.1500 
 25 H        2.1720     2.3390     0.0170 H     1 <1>   0.1500 
 26 H        4.0500    -2.2100     0.0660 H     1 <1>   0.1500 
 27 H        4.5890     2.0210     0.3600 H     1 <1>   0.1500 
 28 H        6.3100     0.5600     0.8970 H     1 <1>   0.3700 
 29 H        8.2790    -1.2100     1.5440 H     1 <1>   0.0800 
 30 H        8.5450    -0.1530     0.1630 H     1 <1>   0.0800 
 31 H        8.9540    -2.1050    -1.2760 H     1 <1>   0.0800 
 32 H        8.5620    -3.1750     0.0370 H     1 <1>   0.0800 
 33 H       10.4750    -2.2640     1.2590 H     1 <1>   0.4500 
 34 H       10.7160    -0.1240     0.1260 H     1 <1>   0.0800 
 35 H       11.1770    -0.9800    -1.3180 H     1 <1>   0.0800 
 36 H       11.0900    -3.5080    -1.3370 H     1 <1>   0.0800 
 37 H       10.5530    -4.3520     0.0960 H     1 <1>   0.0800 
 38 H       12.6690    -0.9460     1.3030 H     1 <1>   0.0800 
 39 H       13.0050    -4.4470    -0.1540 H     1 <1>   0.0800 
 40 H       12.5480    -3.6470     1.3140 H     1 <1>   0.0800 
 41 H       14.3400    -2.3750     0.2450 H     1 <1>   0.0800 
 42 H       13.4760    -2.3430    -1.2640 H     1 <1>   0.0800 
 43 H       14.8480     2.4040    -0.0650 H     1 <1>   0.0800 
 44 H       15.4200     1.4610    -1.4370 H     1 <1>   0.0800 
 45 H       16.6520     1.4400     1.3470 H     1 <1>   0.0800 
 46 H       17.3350     2.2390    -0.0450 H     1 <1>   0.0800 
 47 H       17.2230     0.4980    -0.0230 H     1 <1>   0.0800 
@<TRIPOS>BOND
  1   1   2  1   
  2   2   3  ar  
  3   2   4  ar  
  4   3   5  ar  
  5   3  24  1   
  6   4   6  ar  
  7   4  25  1   
  8   5   7  ar  
  9   5  26  1   
 10   6   7  ar  
 11   6  27  1   
 12   7   8  1   
 13   8   9  am  
 14   8  28  1   
 15   9  10  2   
 16   9  11  1   
 17  11  12  1   
 18  11  29  1   
 19  11  30  1   
 20  12  13  1   
 21  12  31  1   
 22  12  32  1   
 23  13  14  1   
 24  13  15  1   
 25  13  33  1   
 26  14  16  1   
 27  14  34  1   
 28  14  35  1   
 29  15  17  1   
 30  15  36  1   
 31  15  37  1   
 32  16  18  1   
 33  16  19  1   
 34  16  38  1   
 35  17  19  1   
 36  17  39  1   
 37  17  40  1   
 38  18  20  2   
 39  18  21  1   
 40  19  41  1   
 41  19  42  1   
 42  21  22  1   
 43  22  23  1   
 44  22  43  1   
 45  22  44  1   
 46  23  45  1   
 47  23  46  1   
 48  23  47  1   
@<TRIPOS>SUBSTRUCTURE
  1 ****  11 GROUP 4 **** **** 0

# MOE 2024.06 (io_trps.svl 2023.06)
