@<TRIPOS>MOLECULE
NONAME
37 38 1 0 0 
SMALL
USER_CHARGES


@<TRIPOS>ATOM
  1 O        4.9500     5.1590    -0.7950 O.2   1 <1>  -0.5700 
  2 C        4.9540     4.0260    -0.3630 C.2   1 <1>   0.6340 
  3 O        3.7700     3.4590    -0.0900 O.3   1 <1>  -0.4300 
  4 C        6.1650     3.2590    -0.1270 C.ar  1 <1>   0.0860 
  5 C        2.5680     4.1680    -0.3110 C.3   1 <1>   0.1200 
  6 C        7.4220     3.8070    -0.3970 C.ar  1 <1>  -0.1500 
  7 C        6.1360     1.9540     0.3740 C.ar  1 <1>  -0.1500 
  8 C        1.3900     3.2880     0.1210 C.3   1 <1>   0.3430 
  9 C        8.5870     3.0950    -0.1800 C.ar  1 <1>  -0.1500 
 10 C        7.2980     1.2370     0.5930 C.ar  1 <1>  -0.1500 
 11 N        0.0620     3.9300    -0.1530 N.4   1 <1>  -0.9590 
 12 C        8.5270     1.8060     0.3160 C.ar  1 <1>  -0.1500 
 13 C       -0.1590     5.1590     0.6710 C.3   1 <1>   0.3430 
 14 C       -1.0410     2.9410     0.0440 C.3   1 <1>   0.3430 
 15 C       -1.4730     5.8270     0.2600 C.3   1 <1>  -0.1600 
 16 C       -2.3730     3.5610    -0.3820 C.3   1 <1>  -0.1600 
 17 C       -2.6610     4.8640     0.3760 C.3   1 <1>  -0.1600 
 18 H        2.5110     4.4000    -1.3610 H     1 <1>   0.0800 
 19 H        2.6110     5.0740     0.2670 H     1 <1>   0.0800 
 20 H        7.4850     4.8110    -0.7840 H     1 <1>   0.1500 
 21 H        5.1930     1.4880     0.5970 H     1 <1>   0.1500 
 22 H        1.4780     3.0750     1.1740 H     1 <1>   0.0800 
 23 H        1.4520     2.3580    -0.4200 H     1 <1>   0.0800 
 24 H        9.5420     3.5430    -0.3970 H     1 <1>   0.1500 
 25 H        7.2500     0.2320     0.9800 H     1 <1>   0.1500 
 26 H        0.0300     4.2150    -1.1410 H     1 <1>   0.4500 
 27 H        9.4330     1.2500     0.4870 H     1 <1>   0.1500 
 28 H        0.6500     5.8570     0.5290 H     1 <1>   0.0800 
 29 H       -0.2010     4.8960     1.7160 H     1 <1>   0.0800 
 30 H       -1.0940     2.6550     1.0820 H     1 <1>   0.0800 
 31 H       -0.8550     2.0560    -0.5430 H     1 <1>   0.0800 
 32 H       -1.3900     6.1890    -0.7500 H     1 <1>   0.0800 
 33 H       -1.6460     6.6810     0.8930 H     1 <1>   0.0800 
 34 H       -3.1650     2.8580    -0.1910 H     1 <1>   0.0800 
 35 H       -2.3590     3.7480    -1.4420 H     1 <1>   0.0800 
 36 H       -3.5500     5.3290    -0.0190 H     1 <1>   0.0800 
 37 H       -2.8440     4.6420     1.4140 H     1 <1>   0.0800 
@<TRIPOS>BOND
  1   1   2  2   
  2   2   3  1   
  3   2   4  1   
  4   3   5  1   
  5   4   6  ar  
  6   4   7  ar  
  7   5   8  1   
  8   5  18  1   
  9   5  19  1   
 10   6   9  ar  
 11   6  20  1   
 12   7  10  ar  
 13   7  21  1   
 14   8  11  1   
 15   8  22  1   
 16   8  23  1   
 17   9  12  ar  
 18   9  24  1   
 19  10  12  ar  
 20  10  25  1   
 21  11  13  1   
 22  11  14  1   
 23  11  26  1   
 24  12  27  1   
 25  13  15  1   
 26  13  28  1   
 27  13  29  1   
 28  14  16  1   
 29  14  30  1   
 30  14  31  1   
 31  15  17  1   
 32  15  32  1   
 33  15  33  1   
 34  16  17  1   
 35  16  34  1   
 36  16  35  1   
 37  17  36  1   
 38  17  37  1   
@<TRIPOS>SUBSTRUCTURE
  1 ****   3 GROUP 4 **** **** 0

# MOE 2024.06 (io_trps.svl 2023.06)
