@<TRIPOS>MOLECULE
NONAME
48 49 1 0 0 
SMALL
USER_CHARGES


@<TRIPOS>ATOM
  1 CL       3.7340     0.9190     2.1790 Cl    1 <1>  -0.1770 
  2 C        2.8140     2.0690     1.2440 C.ar  1 <1>   0.1770 
  3 C        1.8470     2.8320     1.8710 C.ar  1 <1>  -0.1500 
  4 C        3.0680     2.1980    -0.1080 C.ar  1 <1>  -0.1500 
  5 C        1.0970     3.7560     1.1500 C.ar  1 <1>  -0.0090 
  6 C        2.3330     3.1120    -0.8400 C.ar  1 <1>  -0.1500 
  7 S       -0.1630     4.7650     1.9740 S.o2  1 <1>   1.4470 
  8 C        1.3630     3.8830    -0.2120 C.ar  1 <1>   0.0830 
  9 O        0.1960     6.1630     1.8600 O.2   1 <1>  -0.6500 
 10 O       -0.4060     4.2240     3.2950 O.2   1 <1>  -0.6500 
 11 N       -1.5900     4.5190     1.0930 N.am  1 <1>  -0.8490 
 12 O        0.6590     4.7490    -0.9640 O.3   1 <1>  -0.3630 
 13 C       -2.6070     5.5290     1.4160 C.3   1 <1>   0.1960 
 14 C       -2.1260     3.1660     1.2610 C.3   1 <1>   0.1960 
 15 C        1.2490     6.0020    -1.2150 C.3   1 <1>   0.1200 
 16 C       -3.7950     5.4100     0.4540 C.3   1 <1>  -0.0190 
 17 C       -3.2950     2.9450     0.2950 C.3   1 <1>  -0.1600 
 18 C        0.1640     6.9260    -1.7570 C.3   1 <1>  -0.2400 
 19 C       -4.8340     6.4700     0.7800 C.2   1 <1>   0.5690 
 20 C       -4.3970     3.9930     0.5010 C.3   1 <1>  -0.1600 
 21 O       -5.2300     6.5860     1.9150 O.2   1 <1>  -0.5700 
 22 N       -5.2950     7.2630    -0.2180 N.am  1 <1>  -0.7300 
 23 C       -6.3090     8.3090    -0.0520 C.3   1 <1>   0.2780 
 24 C       -7.1310     8.3360    -1.3220 C.2   1 <1>  -0.2880 
 25 C       -7.1740     9.3470    -2.1960 C.2   1 <1>  -0.3000 
 26 H        1.6810     2.7030     2.9270 H     1 <1>   0.1500 
 27 H        3.8240     1.5910    -0.5740 H     1 <1>   0.1500 
 28 H        2.5040     3.2280    -1.8960 H     1 <1>   0.1500 
 29 H       -2.1860     6.5160     1.3190 H     1 <1>   0.0800 
 30 H       -2.9360     5.4060     2.4360 H     1 <1>   0.0800 
 31 H       -2.4560     3.0230     2.2770 H     1 <1>   0.0800 
 32 H       -1.3570     2.4410     1.0500 H     1 <1>   0.0800 
 33 H        2.0410     5.8690    -1.9310 H     1 <1>   0.0800 
 34 H        1.6500     6.3900    -0.2940 H     1 <1>   0.0800 
 35 H       -3.4230     5.5940    -0.5380 H     1 <1>   0.0800 
 36 H       -3.7000     1.9600     0.4460 H     1 <1>   0.0800 
 37 H       -2.9230     2.9970    -0.7140 H     1 <1>   0.0800 
 38 H       -0.2450     6.5260    -2.6670 H     1 <1>   0.0800 
 39 H        0.5810     7.8950    -1.9620 H     1 <1>   0.0800 
 40 H       -0.6170     7.0370    -1.0260 H     1 <1>   0.0800 
 41 H       -5.1540     3.8880    -0.2560 H     1 <1>   0.0800 
 42 H       -4.8610     3.8370     1.4610 H     1 <1>   0.0800 
 43 H       -4.9540     7.1570    -1.1730 H     1 <1>   0.3700 
 44 H       -5.8210     9.2560     0.1030 H     1 <1>   0.0800 
 45 H       -6.9360     8.0970     0.7990 H     1 <1>   0.0800 
 46 H       -7.6970     7.4290    -1.4550 H     1 <1>   0.1500 
 47 H       -7.7700     9.3390    -3.0930 H     1 <1>   0.1500 
 48 H       -6.6200    10.2640    -2.0920 H     1 <1>   0.1500 
@<TRIPOS>BOND
  1   1   2  1   
  2   2   3  ar  
  3   2   4  ar  
  4   3   5  ar  
  5   3  26  1   
  6   4   6  ar  
  7   4  27  1   
  8   5   7  1   
  9   5   8  ar  
 10   6   8  ar  
 11   6  28  1   
 12   7   9  2   
 13   7  10  2   
 14   7  11  am  
 15   8  12  1   
 16  11  13  1   
 17  11  14  1   
 18  12  15  1   
 19  13  16  1   
 20  13  29  1   
 21  13  30  1   
 22  14  17  1   
 23  14  31  1   
 24  14  32  1   
 25  15  18  1   
 26  15  33  1   
 27  15  34  1   
 28  16  19  1   
 29  16  20  1   
 30  16  35  1   
 31  17  20  1   
 32  17  36  1   
 33  17  37  1   
 34  18  38  1   
 35  18  39  1   
 36  18  40  1   
 37  19  21  2   
 38  19  22  am  
 39  20  41  1   
 40  20  42  1   
 41  22  23  1   
 42  22  43  1   
 43  23  24  1   
 44  23  44  1   
 45  23  45  1   
 46  24  25  2   
 47  24  46  1   
 48  25  47  1   
 49  25  48  1   
@<TRIPOS>SUBSTRUCTURE
  1 ****  11 GROUP 4 **** **** 0

# MOE 2024.06 (io_trps.svl 2023.06)
