@<TRIPOS>MOLECULE
NONAME
25 25 1 0 0 
SMALL
USER_CHARGES


@<TRIPOS>ATOM
  1 O       -1.2960    -1.9630     0.8270 O.3   1 <1>  -0.6800 
  2 C       -2.4070    -2.3320     0.0850 C.3   1 <1>   0.1200 
  3 C       -3.5920    -1.4080     0.4420 C.3   1 <1>   0.4230 
  4 N       -4.8440    -1.9080    -0.1840 N.4   1 <1>  -0.9060 
  5 C       -3.3230     0.0440     0.0050 C.3   1 <1>  -0.1600 
  6 C       -6.0440    -1.4410     0.5470 C.3   1 <1>   0.3430 
  7 C       -4.4580     1.0580     0.2450 C.3   1 <1>  -0.1600 
  8 C       -6.6600    -0.2330    -0.1580 C.3   1 <1>  -0.1600 
  9 C       -5.6730     0.8330    -0.6680 C.3   1 <1>  -0.1600 
 10 H       -0.5110    -2.5130     0.6150 H     1 <1>   0.4000 
 11 H       -2.6320    -3.3550     0.3320 H     1 <1>   0.0800 
 12 H       -2.1520    -2.2510    -0.9590 H     1 <1>   0.0800 
 13 H       -3.7060    -1.4350     1.5140 H     1 <1>   0.0800 
 14 H       -4.8370    -2.9330    -0.2080 H     1 <1>   0.4500 
 15 H       -4.8940    -1.5600    -1.1480 H     1 <1>   0.4500 
 16 H       -3.0390     0.0630    -1.0330 H     1 <1>   0.0800 
 17 H       -2.4650     0.3910     0.5560 H     1 <1>   0.0800 
 18 H       -5.7740    -1.1710     1.5560 H     1 <1>   0.0800 
 19 H       -6.7790    -2.2290     0.6000 H     1 <1>   0.0800 
 20 H       -4.0640     2.0370     0.0270 H     1 <1>   0.0800 
 21 H       -4.7530     1.0690     1.2810 H     1 <1>   0.0800 
 22 H       -7.3320     0.2340     0.5430 H     1 <1>   0.0800 
 23 H       -7.2680    -0.5710    -0.9800 H     1 <1>   0.0800 
 24 H       -5.3370     0.5860    -1.6610 H     1 <1>   0.0800 
 25 H       -6.2110     1.7640    -0.7560 H     1 <1>   0.0800 
@<TRIPOS>BOND
  1   1   2  1   
  2   1  10  1   
  3   2   3  1   
  4   2  11  1   
  5   2  12  1   
  6   3   4  1   
  7   3   5  1   
  8   3  13  1   
  9   4   6  1   
 10   4  14  1   
 11   4  15  1   
 12   5   7  1   
 13   5  16  1   
 14   5  17  1   
 15   6   8  1   
 16   6  18  1   
 17   6  19  1   
 18   7   9  1   
 19   7  20  1   
 20   7  21  1   
 21   8   9  1   
 22   8  22  1   
 23   8  23  1   
 24   9  24  1   
 25   9  25  1   
@<TRIPOS>SUBSTRUCTURE
  1 ****   3 GROUP 4 **** **** 0

# MOE 2024.06 (io_trps.svl 2023.06)
