@<TRIPOS>MOLECULE
NONAME
37 37 1 0 0 
SMALL
USER_CHARGES


@<TRIPOS>ATOM
  1 O        0.4930     1.2030     2.0520 O.2   1 <1>  -0.5700 
  2 C        0.1740     1.9570     1.1510 C.2   1 <1>   0.5440 
  3 N        1.1130     2.3010     0.1860 N.am  1 <1>  -0.6600 
  4 C       -1.1880     2.4670     1.1480 C.ar  1 <1>   0.0860 
  5 C        2.2250     1.3820    -0.2090 C.3   1 <1>   0.2200 
  6 C        1.2910     3.6900    -0.3360 C.3   1 <1>   0.2200 
  7 C       -2.1440     2.0850     0.1960 C.ar  1 <1>  -0.1440 
  8 C       -1.5890     3.3500     2.1490 C.ar  1 <1>  -0.1500 
  9 C        1.7370    -0.0460    -0.4600 C.3   1 <1>  -0.2400 
 10 C        3.3510     1.4270     0.8250 C.3   1 <1>  -0.2400 
 11 C        1.2260     4.7370     0.7750 C.3   1 <1>  -0.2400 
 12 C        0.3030     3.9890    -1.4610 C.3   1 <1>  -0.2400 
 13 C       -3.4210     2.6240     0.2300 C.ar  1 <1>  -0.1500 
 14 C       -1.8110     1.0520    -0.8720 C.3   1 <1>  -0.0970 
 15 C       -2.8640     3.8830     2.1830 C.ar  1 <1>  -0.1500 
 16 C       -3.7810     3.5250     1.2150 C.ar  1 <1>  -0.1500 
 17 H        2.6290     1.7280    -1.1470 H     1 <1>   0.0800 
 18 H        2.2800     3.7660    -0.7550 H     1 <1>   0.0800 
 19 H       -0.8790     3.6180     2.9120 H     1 <1>   0.1500 
 20 H        1.3830    -0.5040     0.4460 H     1 <1>   0.0800 
 21 H        2.5470    -0.6430    -0.8350 H     1 <1>   0.0800 
 22 H        0.9530    -0.0460    -1.1930 H     1 <1>   0.0800 
 23 H        3.0170     1.0300     1.7660 H     1 <1>   0.0800 
 24 H        3.6860     2.4370     0.9690 H     1 <1>   0.0800 
 25 H        4.1820     0.8370     0.4870 H     1 <1>   0.0800 
 26 H        0.2160     4.9180     1.0840 H     1 <1>   0.0800 
 27 H        1.6240     5.6670     0.4120 H     1 <1>   0.0800 
 28 H        1.8150     4.4220     1.6180 H     1 <1>   0.0800 
 29 H       -0.7040     4.0260    -1.0930 H     1 <1>   0.0800 
 30 H        0.3810     3.2420    -2.2300 H     1 <1>   0.0800 
 31 H        0.5320     4.9450    -1.8970 H     1 <1>   0.0800 
 32 H       -4.1500     2.3390    -0.5090 H     1 <1>   0.1500 
 33 H       -1.0590     1.4310    -1.5380 H     1 <1>   0.0800 
 34 H       -2.6800     0.7970    -1.4510 H     1 <1>   0.0800 
 35 H       -1.4420     0.1560    -0.4070 H     1 <1>   0.0800 
 36 H       -3.1420     4.5710     2.9630 H     1 <1>   0.1500 
 37 H       -4.7740     3.9380     1.2320 H     1 <1>   0.1500 
@<TRIPOS>BOND
  1   1   2  2   
  2   2   3  am  
  3   2   4  1   
  4   3   5  1   
  5   3   6  1   
  6   4   7  ar  
  7   4   8  ar  
  8   5   9  1   
  9   5  10  1   
 10   5  17  1   
 11   6  11  1   
 12   6  12  1   
 13   6  18  1   
 14   7  13  ar  
 15   7  14  1   
 16   8  15  ar  
 17   8  19  1   
 18   9  20  1   
 19   9  21  1   
 20   9  22  1   
 21  10  23  1   
 22  10  24  1   
 23  10  25  1   
 24  11  26  1   
 25  11  27  1   
 26  11  28  1   
 27  12  29  1   
 28  12  30  1   
 29  12  31  1   
 30  13  16  ar  
 31  13  32  1   
 32  14  33  1   
 33  14  34  1   
 34  14  35  1   
 35  15  16  ar  
 36  15  36  1   
 37  16  37  1   
@<TRIPOS>SUBSTRUCTURE
  1 ****   2 GROUP 4 **** **** 0

# MOE 2024.06 (io_trps.svl 2023.06)
