@<TRIPOS>MOLECULE
NONAME
27 27 1 0 0 
SMALL
USER_CHARGES


@<TRIPOS>ATOM
  1 N       -0.7370    -0.7760    -0.4390 N.4   1 <1>  -0.8530 
  2 C       -1.5800     0.4300    -0.6280 C.3   1 <1>   0.4230 
  3 C       -1.0040     1.6990     0.0700 C.3   1 <1>  -0.0800 
  4 C       -2.9690     0.0610    -0.0930 C.3   1 <1>  -0.1600 
  5 C       -2.0280     2.8600    -0.0040 C.3   1 <1>  -0.1600 
  6 C        0.3440     2.1510    -0.5400 C.3   1 <1>   0.3430 
  7 C       -3.9490     1.2310    -0.2040 C.3   1 <1>  -0.1600 
  8 C       -3.4070     2.4580     0.5290 C.3   1 <1>  -0.1600 
  9 N        0.8830     3.3750     0.1240 N.4   1 <1>  -0.8530 
 10 H       -1.2420    -1.5870    -0.8240 H     1 <1>   0.4500 
 11 H       -0.5970    -0.9910     0.5560 H     1 <1>   0.4500 
 12 H        0.1670    -0.7560    -0.9220 H     1 <1>   0.4500 
 13 H       -1.6810     0.6330    -1.6840 H     1 <1>   0.0800 
 14 H       -0.8540     1.4620     1.1100 H     1 <1>   0.0800 
 15 H       -3.3750    -0.7660    -0.6520 H     1 <1>   0.0800 
 16 H       -2.9080    -0.2280     0.9430 H     1 <1>   0.0800 
 17 H       -1.7010     3.7050     0.5770 H     1 <1>   0.0800 
 18 H       -2.1440     3.1890    -1.0250 H     1 <1>   0.0800 
 19 H        0.2060     2.3550    -1.5910 H     1 <1>   0.0800 
 20 H        1.0680     1.3570    -0.4480 H     1 <1>   0.0800 
 21 H       -4.1250     1.4740    -1.2400 H     1 <1>   0.0800 
 22 H       -4.8980     0.9510     0.2250 H     1 <1>   0.0800 
 23 H       -3.3490     2.2510     1.5860 H     1 <1>   0.0800 
 24 H       -4.0960     3.2770     0.4030 H     1 <1>   0.0800 
 25 H        0.2430     4.1750     0.0180 H     1 <1>   0.4500 
 26 H        1.7820     3.6670    -0.2860 H     1 <1>   0.4500 
 27 H        1.0410     3.2470     1.1320 H     1 <1>   0.4500 
@<TRIPOS>BOND
  1   1   2  1   
  2   1  10  1   
  3   1  11  1   
  4   1  12  1   
  5   2   3  1   
  6   2   4  1   
  7   2  13  1   
  8   3   5  1   
  9   3   6  1   
 10   3  14  1   
 11   4   7  1   
 12   4  15  1   
 13   4  16  1   
 14   5   8  1   
 15   5  17  1   
 16   5  18  1   
 17   6   9  1   
 18   6  19  1   
 19   6  20  1   
 20   7   8  1   
 21   7  21  1   
 22   7  22  1   
 23   8  23  1   
 24   8  24  1   
 25   9  25  1   
 26   9  26  1   
 27   9  27  1   
@<TRIPOS>SUBSTRUCTURE
  1 ****   3 GROUP 4 **** **** 0

# MOE 2024.06 (io_trps.svl 2023.06)
