@<TRIPOS>MOLECULE
NONAME
43 45 1 0 0 
SMALL
USER_CHARGES


@<TRIPOS>ATOM
  1 O       -0.4300     1.1860    -0.8410 O.2   1 <1>  -0.5700 
  2 C       -0.6310     2.1300    -0.1150 C.2   1 <1>   0.5690 
  3 N        0.3140     2.9220     0.4640 N.am  1 <1>  -0.4200 
  4 C       -2.0370     2.6030     0.2690 C.3   1 <1>   0.3500 
  5 C       -0.2730     3.9170     1.1830 C.2   1 <1>   0.5690 
  6 C        1.7870     2.7820     0.3400 C.3   1 <1>   0.2200 
  7 N       -2.9020     2.9250    -0.9050 N.pl3 1 <1>  -0.8690 
  8 C       -1.7770     3.8640     1.0980 C.3   1 <1>  -0.0990 
  9 O        0.3030     4.7500     1.8320 O.2   1 <1>  -0.5700 
 10 C        2.2370     2.9730    -1.1170 C.3   1 <1>  -0.1600 
 11 C        2.2640     1.4350     0.9060 C.3   1 <1>  -0.1600 
 12 C       -4.2440     2.5980    -0.7840 C.ar  1 <1>   0.1000 
 13 C        3.7610     2.8310    -1.2430 C.3   1 <1>  -0.1600 
 14 C        3.7880     1.2950     0.7770 C.3   1 <1>  -0.1600 
 15 C       -5.0760     3.2860     0.0900 C.ar  1 <1>  -0.1500 
 16 C       -4.7790     1.5630    -1.5390 C.ar  1 <1>  -0.1500 
 17 C        4.2400     1.4870    -0.6770 C.3   1 <1>  -0.1600 
 18 C       -6.4090     2.9400     0.2160 C.ar  1 <1>  -0.1500 
 19 C       -6.1120     1.2160    -1.4150 C.ar  1 <1>  -0.1500 
 20 C       -6.9360     1.9020    -0.5360 C.ar  1 <1>  -0.1430 
 21 C       -8.3980     1.5190    -0.3990 C.3   1 <1>  -0.0970 
 22 H       -2.5020     1.8430     0.8740 H     1 <1>   0.0800 
 23 H        2.2510     3.5590     0.9250 H     1 <1>   0.0800 
 24 H       -2.4830     2.4940    -1.7410 H     1 <1>   0.4000 
 25 H       -2.1980     3.7770     2.0810 H     1 <1>   0.0800 
 26 H       -2.1410     4.7480     0.6080 H     1 <1>   0.0800 
 27 H        1.9420     3.9490    -1.4600 H     1 <1>   0.0800 
 28 H        1.7710     2.2340    -1.7450 H     1 <1>   0.0800 
 29 H        1.8000     0.6270     0.3690 H     1 <1>   0.0800 
 30 H        1.9880     1.3620     1.9430 H     1 <1>   0.0800 
 31 H        4.2410     3.6340    -0.7100 H     1 <1>   0.0800 
 32 H        4.0450     2.9070    -2.2790 H     1 <1>   0.0800 
 33 H        4.0910     0.3220     1.1220 H     1 <1>   0.0800 
 34 H        4.2700     2.0300     1.4000 H     1 <1>   0.0800 
 35 H       -4.6770     4.1000     0.6650 H     1 <1>   0.1500 
 36 H       -4.1490     1.0250    -2.2220 H     1 <1>   0.1500 
 37 H        5.3150     1.4370    -0.7300 H     1 <1>   0.0800 
 38 H        3.8450     0.6870    -1.2800 H     1 <1>   0.0800 
 39 H       -7.0360     3.4840     0.9000 H     1 <1>   0.1500 
 40 H       -6.5080     0.4090    -2.0060 H     1 <1>   0.1500 
 41 H       -8.9870     2.3750    -0.1220 H     1 <1>   0.0800 
 42 H       -8.5070     0.7620     0.3560 H     1 <1>   0.0800 
 43 H       -8.7750     1.1380    -1.3310 H     1 <1>   0.0800 
@<TRIPOS>BOND
  1   1   2  2   
  2   2   3  am  
  3   2   4  1   
  4   3   5  am  
  5   3   6  1   
  6   4   7  1   
  7   4   8  1   
  8   4  22  1   
  9   5   8  1   
 10   5   9  2   
 11   6  10  1   
 12   6  11  1   
 13   6  23  1   
 14   7  12  1   
 15   7  24  1   
 16   8  25  1   
 17   8  26  1   
 18  10  13  1   
 19  10  27  1   
 20  10  28  1   
 21  11  14  1   
 22  11  29  1   
 23  11  30  1   
 24  12  15  ar  
 25  12  16  ar  
 26  13  17  1   
 27  13  31  1   
 28  13  32  1   
 29  14  17  1   
 30  14  33  1   
 31  14  34  1   
 32  15  18  ar  
 33  15  35  1   
 34  16  19  ar  
 35  16  36  1   
 36  17  37  1   
 37  17  38  1   
 38  18  20  ar  
 39  18  39  1   
 40  19  20  ar  
 41  19  40  1   
 42  20  21  1   
 43  21  41  1   
 44  21  42  1   
 45  21  43  1   
@<TRIPOS>SUBSTRUCTURE
  1 ****   4 GROUP 4 **** **** 0

# MOE 2024.06 (io_trps.svl 2023.06)
