@<TRIPOS>MOLECULE
NONAME
42 43 1 0 0 
SMALL
USER_CHARGES


@<TRIPOS>ATOM
  1 O       -0.1450     0.8690     1.6720 O.co2 1 <1>  -0.9000 
  2 C       -0.1740     2.0320     1.2350 C.2   1 <1>   0.9790 
  3 O        0.8900     2.6880     1.2760 O.co2 1 <1>  -0.9000 
  4 C       -1.4120     2.5940     0.7000 C.ar  1 <1>  -0.1790 
  5 C       -1.5180     3.9010     0.1890 C.ar  1 <1>   0.1170 
  6 C       -2.5660     1.8040     0.6850 C.ar  1 <1>  -0.1500 
  7 N       -0.3810     4.7200     0.1880 N.am  1 <1>  -0.5470 
  8 C       -2.7350     4.3590    -0.3030 C.ar  1 <1>  -0.1500 
  9 C       -3.7820     2.2600     0.1950 C.ar  1 <1>   0.0830 
 10 C       -0.0790     5.9920    -0.2020 C.2   1 <1>   0.5690 
 11 C       -3.8690     3.5590    -0.3080 C.ar  1 <1>   0.0820 
 12 O       -4.9120     1.4860     0.1810 O.3   1 <1>  -0.3630 
 13 O       -0.8760     6.7560    -0.6970 O.2   1 <1>  -0.5700 
 14 C        1.3630     6.4530     0.0100 C.3   1 <1>  -0.0190 
 15 O       -5.0720     3.9900    -0.7860 O.3   1 <1>  -0.3630 
 16 C       -4.8880     0.1660     0.6750 C.3   1 <1>   0.0400 
 17 C        1.4340     7.6520     0.9760 C.3   1 <1>  -0.1600 
 18 C        2.0480     6.7920    -1.3290 C.3   1 <1>  -0.1600 
 19 C       -5.2340     5.2890    -1.3090 C.3   1 <1>   0.0400 
 20 C        2.8790     8.1270     1.1810 C.3   1 <1>  -0.1600 
 21 C        3.4920     7.2690    -1.1200 C.3   1 <1>  -0.1600 
 22 C        3.5480     8.4630    -0.1580 C.3   1 <1>  -0.1600 
 23 H       -2.4760     0.8080     1.0770 H     1 <1>   0.1500 
 24 H        0.4190     4.1960     0.5940 H     1 <1>   0.3700 
 25 H       -2.7830     5.3560    -0.6830 H     1 <1>   0.1500 
 26 H        1.9080     5.6390     0.4580 H     1 <1>   0.0800 
 27 H       -5.8740    -0.2490     0.5670 H     1 <1>   0.0800 
 28 H       -4.6100     0.1870     1.7140 H     1 <1>   0.0800 
 29 H       -4.1830    -0.4080     0.1010 H     1 <1>   0.0800 
 30 H        1.0090     7.3700     1.9240 H     1 <1>   0.0800 
 31 H        0.8450     8.4620     0.5790 H     1 <1>   0.0800 
 32 H        1.4860     7.5640    -1.8280 H     1 <1>   0.0800 
 33 H        2.0430     5.9220    -1.9620 H     1 <1>   0.0800 
 34 H       -6.2560     5.3980    -1.6200 H     1 <1>   0.0800 
 35 H       -4.5780     5.4090    -2.1530 H     1 <1>   0.0800 
 36 H       -5.0050     6.0050    -0.5390 H     1 <1>   0.0800 
 37 H        3.4410     7.3530     1.6770 H     1 <1>   0.0800 
 38 H        2.8850     8.9970     1.8160 H     1 <1>   0.0800 
 39 H        3.9190     7.5480    -2.0680 H     1 <1>   0.0800 
 40 H        4.0790     6.4600    -0.7190 H     1 <1>   0.0800 
 41 H        4.5740     8.7420     0.0110 H     1 <1>   0.0800 
 42 H        3.0460     9.3040    -0.6050 H     1 <1>   0.0800 
@<TRIPOS>BOND
  1   1   2  ar  
  2   2   3  ar  
  3   2   4  1   
  4   4   5  ar  
  5   4   6  ar  
  6   5   7  1   
  7   5   8  ar  
  8   6   9  ar  
  9   6  23  1   
 10   7  10  am  
 11   7  24  1   
 12   8  11  ar  
 13   8  25  1   
 14   9  11  ar  
 15   9  12  1   
 16  10  13  2   
 17  10  14  1   
 18  11  15  1   
 19  12  16  1   
 20  14  17  1   
 21  14  18  1   
 22  14  26  1   
 23  15  19  1   
 24  16  27  1   
 25  16  28  1   
 26  16  29  1   
 27  17  20  1   
 28  17  30  1   
 29  17  31  1   
 30  18  21  1   
 31  18  32  1   
 32  18  33  1   
 33  19  34  1   
 34  19  35  1   
 35  19  36  1   
 36  20  22  1   
 37  20  37  1   
 38  20  38  1   
 39  21  22  1   
 40  21  39  1   
 41  21  40  1   
 42  22  41  1   
 43  22  42  1   
@<TRIPOS>SUBSTRUCTURE
  1 ****   7 GROUP 4 **** **** 0

# MOE 2024.06 (io_trps.svl 2023.06)
