@<TRIPOS>MOLECULE
NONAME
40 41 1 0 0 
SMALL
USER_CHARGES


@<TRIPOS>ATOM
  1 S        0.4580    -0.3590    -0.7250 S.o2  1 <1>   1.4970 
  2 O        0.5540    -0.6560    -2.1500 O.2   1 <1>  -0.6500 
  3 O        0.2200     1.0020    -0.2580 O.2   1 <1>  -0.6500 
  4 N        1.5740    -1.1830     0.1900 N.2   1 <1>  -0.6380 
  5 C       -1.0300    -1.2640    -0.1800 C.ar  1 <1>  -0.0090 
  6 C        2.7820    -0.7820     0.0770 C.2   1 <1>   0.3610 
  7 C       -1.5960    -2.2770    -0.9480 C.ar  1 <1>  -0.1500 
  8 C       -1.6320    -0.9790     1.0410 C.ar  1 <1>  -0.1500 
  9 O        3.1530     0.1420    -0.6670 O.3   1 <1>  -0.8610 
 10 N        3.7750    -1.4090     0.7850 N.pl3 1 <1>  -0.7880 
 11 C       -2.7200    -2.9660    -0.5240 C.ar  1 <1>  -0.1500 
 12 C       -2.7560    -1.6620     1.4740 C.ar  1 <1>  -0.1500 
 13 C        4.5220    -2.3580    -0.0840 C.3   1 <1>   0.2090 
 14 C        4.6710    -0.4490     1.4980 C.3   1 <1>   0.2090 
 15 C       -3.3080    -2.6620     0.6920 C.ar  1 <1>  -0.1430 
 16 C        5.9350    -2.6690     0.4650 C.3   1 <1>   0.2000 
 17 C        6.0320    -0.2980     0.7840 C.3   1 <1>   0.2000 
 18 C       -4.5400    -3.4130     1.1620 C.3   1 <1>  -0.0960 
 19 O        6.7170    -1.5240     0.7040 O.3   1 <1>  -0.5600 
 20 C        6.7370    -3.5610    -0.4800 C.3   1 <1>  -0.2400 
 21 C        6.9590     0.6840     1.4970 C.3   1 <1>  -0.2400 
 22 H       -1.1440    -2.5270    -1.8920 H     1 <1>   0.1500 
 23 H       -1.2030    -0.2060     1.6570 H     1 <1>   0.1500 
 24 H       -3.1310    -3.7400    -1.1470 H     1 <1>   0.1500 
 25 H       -3.1940    -1.4090     2.4230 H     1 <1>   0.1500 
 26 H        4.6070    -1.9450    -1.0760 H     1 <1>   0.0800 
 27 H        3.9520    -3.2670    -0.1570 H     1 <1>   0.0800 
 28 H        4.8250    -0.7930     2.5040 H     1 <1>   0.0800 
 29 H        4.1930     0.5140     1.5510 H     1 <1>   0.0800 
 30 H        5.8180    -3.1690     1.4110 H     1 <1>   0.0800 
 31 H        5.8480     0.0470    -0.2210 H     1 <1>   0.0800 
 32 H       -4.5500    -4.4090     0.7570 H     1 <1>   0.0800 
 33 H       -5.4260    -2.8960     0.8390 H     1 <1>   0.0800 
 34 H       -4.5480    -3.4830     2.2350 H     1 <1>   0.0800 
 35 H        6.8810    -3.0610    -1.4210 H     1 <1>   0.0800 
 36 H        6.2110    -4.4810    -0.6520 H     1 <1>   0.0800 
 37 H        7.6930    -3.7860    -0.0440 H     1 <1>   0.0800 
 38 H        7.1640     0.3430     2.4950 H     1 <1>   0.0800 
 39 H        6.4930     1.6500     1.5440 H     1 <1>   0.0800 
 40 H        7.8800     0.7740     0.9490 H     1 <1>   0.0800 
@<TRIPOS>BOND
  1   1   2  2   
  2   1   3  2   
  3   1   4  1   
  4   1   5  1   
  5   4   6  2   
  6   5   7  ar  
  7   5   8  ar  
  8   6   9  1   
  9   6  10  1   
 10   7  11  ar  
 11   7  22  1   
 12   8  12  ar  
 13   8  23  1   
 14  10  13  1   
 15  10  14  1   
 16  11  15  ar  
 17  11  24  1   
 18  12  15  ar  
 19  12  25  1   
 20  13  16  1   
 21  13  26  1   
 22  13  27  1   
 23  14  17  1   
 24  14  28  1   
 25  14  29  1   
 26  15  18  1   
 27  16  19  1   
 28  16  20  1   
 29  16  30  1   
 30  17  19  1   
 31  17  21  1   
 32  17  31  1   
 33  18  32  1   
 34  18  33  1   
 35  18  34  1   
 36  20  35  1   
 37  20  36  1   
 38  20  37  1   
 39  21  38  1   
 40  21  39  1   
 41  21  40  1   
@<TRIPOS>SUBSTRUCTURE
  1 ****   4 GROUP 4 **** **** 0

# MOE 2024.06 (io_trps.svl 2023.06)
