@<TRIPOS>MOLECULE
NONAME
53 56 1 0 0 
SMALL
USER_CHARGES


@<TRIPOS>ATOM
  1 O        0.1820     0.4090     0.8680 O.2   1 <1>  -0.5700 
  2 C        0.1130     1.6180     0.7550 C.2   1 <1>   0.5440 
  3 N        1.2160     2.3910     1.0670 N.am  1 <1>  -0.6600 
  4 C       -1.1260     2.2190     0.3000 C.ar  1 <1>   0.0860 
  5 C        2.5120     1.7800     1.4680 C.3   1 <1>   0.1400 
  6 C        1.2200     3.8790     1.0060 C.3   1 <1>   0.1400 
  7 C       -1.4030     2.4220    -1.0560 C.ar  1 <1>  -0.1440 
  8 C       -2.0770     2.6270     1.2340 C.ar  1 <1>  -0.1500 
  9 C        3.6140     2.2430     0.5130 C.3   1 <1>  -0.1600 
 10 C        2.3230     4.3540     0.0570 C.3   1 <1>  -0.1600 
 11 C       -2.5880     3.0280    -1.4440 C.ar  1 <1>  -0.1500 
 12 C       -0.4080     1.9720    -2.1180 C.3   1 <1>  -0.0970 
 13 C       -3.2580     3.2300     0.8440 C.ar  1 <1>  -0.1500 
 14 C        3.7040     3.7800     0.4430 C.3   1 <1>  -0.0190 
 15 C       -3.5130     3.4330    -0.4990 C.ar  1 <1>  -0.1500 
 16 C        4.8260     4.2230    -0.5090 C.2   1 <1>   0.5690 
 17 O        4.5120     4.6140    -1.6110 O.2   1 <1>  -0.5700 
 18 N        6.1470     4.1840    -0.1310 N.am  1 <1>  -0.6600 
 19 C        7.2020     4.5890    -1.1100 C.3   1 <1>   0.2840 
 20 C        6.6760     3.8110     1.2120 C.3   1 <1>   0.1400 
 21 C        8.5130     3.8170    -0.9500 C.ar  1 <1>  -0.1430 
 22 C        7.6160     2.6140     1.0790 C.3   1 <1>  -0.0170 
 23 C        8.7170     2.8970     0.0720 C.ar  1 <1>  -0.1430 
 24 C        9.5320     4.0540    -1.8610 C.ar  1 <1>  -0.1500 
 25 C        9.9260     2.2270     0.1700 C.ar  1 <1>  -0.1500 
 26 C       10.7390     3.3860    -1.7590 C.ar  1 <1>  -0.1500 
 27 C       10.9370     2.4710    -0.7420 C.ar  1 <1>  -0.1500 
 28 H        2.4520     0.7050     1.4490 H     1 <1>   0.0800 
 29 H        2.7420     2.0810     2.4760 H     1 <1>   0.0800 
 30 H        1.3960     4.2670     1.9940 H     1 <1>   0.0800 
 31 H        0.2730     4.2590     0.6650 H     1 <1>   0.0800 
 32 H       -1.8780     2.4640     2.2790 H     1 <1>   0.1500 
 33 H        3.4100     1.8490    -0.4680 H     1 <1>   0.0800 
 34 H        4.5510     1.8290     0.8370 H     1 <1>   0.0800 
 35 H        2.3650     5.4290     0.0690 H     1 <1>   0.0800 
 36 H        2.0690     4.0530    -0.9440 H     1 <1>   0.0800 
 37 H       -2.8010     3.1860    -2.4870 H     1 <1>   0.1500 
 38 H        0.5270     2.4860    -1.9930 H     1 <1>   0.0800 
 39 H       -0.7770     2.1720    -3.1080 H     1 <1>   0.0800 
 40 H       -0.2330     0.9140    -2.0290 H     1 <1>   0.0800 
 41 H       -3.9780     3.5390     1.5820 H     1 <1>   0.1500 
 42 H        3.9260     4.1620     1.4210 H     1 <1>   0.0800 
 43 H       -4.4300     3.9030    -0.8100 H     1 <1>   0.1500 
 44 H        7.3970     5.6390    -0.9870 H     1 <1>   0.0800 
 45 H        6.8450     4.4360    -2.1140 H     1 <1>   0.0800 
 46 H        5.8890     3.5670     1.8990 H     1 <1>   0.0800 
 47 H        7.2210     4.6490     1.6130 H     1 <1>   0.0800 
 48 H        7.0590     1.7520     0.7610 H     1 <1>   0.0800 
 49 H        8.0470     2.3990     2.0400 H     1 <1>   0.0800 
 50 H        9.3900     4.7630    -2.6590 H     1 <1>   0.1500 
 51 H       10.0880     1.5110     0.9570 H     1 <1>   0.1500 
 52 H       11.5230     3.5770    -2.4710 H     1 <1>   0.1500 
 53 H       11.8740     1.9480    -0.6610 H     1 <1>   0.1500 
@<TRIPOS>BOND
  1   1   2  2   
  2   2   3  am  
  3   2   4  1   
  4   3   5  1   
  5   3   6  1   
  6   4   7  ar  
  7   4   8  ar  
  8   5   9  1   
  9   5  28  1   
 10   5  29  1   
 11   6  10  1   
 12   6  30  1   
 13   6  31  1   
 14   7  11  ar  
 15   7  12  1   
 16   8  13  ar  
 17   8  32  1   
 18   9  14  1   
 19   9  33  1   
 20   9  34  1   
 21  10  14  1   
 22  10  35  1   
 23  10  36  1   
 24  11  15  ar  
 25  11  37  1   
 26  12  38  1   
 27  12  39  1   
 28  12  40  1   
 29  13  15  ar  
 30  13  41  1   
 31  14  16  1   
 32  14  42  1   
 33  15  43  1   
 34  16  17  2   
 35  16  18  am  
 36  18  19  1   
 37  18  20  1   
 38  19  21  1   
 39  19  44  1   
 40  19  45  1   
 41  20  22  1   
 42  20  46  1   
 43  20  47  1   
 44  21  23  ar  
 45  21  24  ar  
 46  22  23  1   
 47  22  48  1   
 48  22  49  1   
 49  23  25  ar  
 50  24  26  ar  
 51  24  50  1   
 52  25  27  ar  
 53  25  51  1   
 54  26  27  ar  
 55  26  52  1   
 56  27  53  1   
@<TRIPOS>SUBSTRUCTURE
  1 ****  14 GROUP 4 **** **** 0

# MOE 2024.06 (io_trps.svl 2023.06)
