@<TRIPOS>MOLECULE
NONAME
42 43 1 0 0 
SMALL
USER_CHARGES


@<TRIPOS>ATOM
  1 O        0.8130    -1.6420     2.9030 O.2   1 <1>  -0.5700 
  2 C        1.4110    -1.5760     1.8560 C.2   1 <1>   0.5690 
  3 N        0.8210    -1.9070     0.6810 N.am  1 <1>  -0.7300 
  4 C        2.8500    -1.0940     1.8310 C.3   1 <1>   0.0440 
  5 C       -0.5920    -2.2490     0.5320 C.3   1 <1>   0.2200 
  6 C        3.0430     0.0480     0.8330 C.ar  1 <1>  -0.1440 
  7 C       -0.7610    -3.2070    -0.6440 C.3   1 <1>  -0.1600 
  8 C       -1.3840    -0.9640     0.3110 C.3   1 <1>  -0.1600 
  9 C        3.2270    -0.1950    -0.5280 C.ar  1 <1>   0.0820 
 10 C        3.0290     1.3550     1.2950 C.ar  1 <1>  -0.1500 
 11 C       -2.2410    -3.4900    -0.8850 C.3   1 <1>   0.3430 
 12 C       -2.8530    -1.2820     0.0600 C.3   1 <1>   0.3430 
 13 O        3.2140    -1.4840    -0.9590 O.3   1 <1>  -0.3630 
 14 C        3.4030     0.8730    -1.4030 C.ar  1 <1>  -0.1500 
 15 C        3.2030     2.4130     0.4200 C.ar  1 <1>  -0.1500 
 16 N       -2.9770    -2.2080    -1.1060 N.4   1 <1>  -0.9590 
 17 C        3.9080    -1.8500    -2.1330 C.3   1 <1>   0.0400 
 18 C        3.3920     2.1720    -0.9290 C.ar  1 <1>  -0.1500 
 19 C       -4.4130    -2.4660    -1.4250 C.3   1 <1>   0.2630 
 20 H        1.3820    -1.7620    -0.1690 H     1 <1>   0.3700 
 21 H        3.4880    -1.9200     1.5790 H     1 <1>   0.0800 
 22 H        3.1220    -0.7690     2.8180 H     1 <1>   0.0800 
 23 H       -0.9330    -2.7280     1.4370 H     1 <1>   0.0800 
 24 H       -0.2590    -4.1320    -0.4210 H     1 <1>   0.0800 
 25 H       -0.3240    -2.7910    -1.5350 H     1 <1>   0.0800 
 26 H       -0.9840    -0.4100    -0.5200 H     1 <1>   0.0800 
 27 H       -1.3070    -0.3490     1.1910 H     1 <1>   0.0800 
 28 H        2.8830     1.5600     2.3420 H     1 <1>   0.1500 
 29 H       -2.6520    -4.0020    -0.0290 H     1 <1>   0.0800 
 30 H       -2.3480    -4.1310    -1.7460 H     1 <1>   0.0800 
 31 H       -3.3900    -0.3660    -0.1340 H     1 <1>   0.0800 
 32 H       -3.2750    -1.7420     0.9400 H     1 <1>   0.0800 
 33 H        3.5430     0.7140    -2.4550 H     1 <1>   0.1500 
 34 H        3.1930     3.4240     0.7900 H     1 <1>   0.1500 
 35 H       -2.5430    -1.7380    -1.9150 H     1 <1>   0.4500 
 36 H        3.9530    -2.9230    -2.1760 H     1 <1>   0.0800 
 37 H        4.9040    -1.4460    -2.0910 H     1 <1>   0.0800 
 38 H        3.3780    -1.4720    -2.9890 H     1 <1>   0.0800 
 39 H        3.5280     2.9960    -1.6070 H     1 <1>   0.1500 
 40 H       -4.9000    -2.9560    -0.5970 H     1 <1>   0.0800 
 41 H       -4.4960    -3.0980    -2.2950 H     1 <1>   0.0800 
 42 H       -4.9250    -1.5390    -1.6260 H     1 <1>   0.0800 
@<TRIPOS>BOND
  1   1   2  2   
  2   2   3  am  
  3   2   4  1   
  4   3   5  1   
  5   3  20  1   
  6   4   6  1   
  7   4  21  1   
  8   4  22  1   
  9   5   7  1   
 10   5   8  1   
 11   5  23  1   
 12   6   9  ar  
 13   6  10  ar  
 14   7  11  1   
 15   7  24  1   
 16   7  25  1   
 17   8  12  1   
 18   8  26  1   
 19   8  27  1   
 20   9  13  1   
 21   9  14  ar  
 22  10  15  ar  
 23  10  28  1   
 24  11  16  1   
 25  11  29  1   
 26  11  30  1   
 27  12  16  1   
 28  12  31  1   
 29  12  32  1   
 30  13  17  1   
 31  14  18  ar  
 32  14  33  1   
 33  15  18  ar  
 34  15  34  1   
 35  16  19  1   
 36  16  35  1   
 37  17  36  1   
 38  17  37  1   
 39  17  38  1   
 40  18  39  1   
 41  19  40  1   
 42  19  41  1   
 43  19  42  1   
@<TRIPOS>SUBSTRUCTURE
  1 ****   3 GROUP 4 **** **** 0

# MOE 2024.06 (io_trps.svl 2023.06)
