@<TRIPOS>MOLECULE
NONAME
37 39 1 0 0 
SMALL
USER_CHARGES


@<TRIPOS>ATOM
  1 I        0.3210     0.3740     1.1450 I     1 <1>  -0.0810 
  2 C       -1.1240     1.8670     0.6760 C.ar  1 <1>   0.0810 
  3 C       -2.4090     1.7240     1.1680 C.ar  1 <1>  -0.1500 
  4 C       -0.7390     2.9390    -0.1060 C.ar  1 <1>  -0.1500 
  5 C       -3.3460     2.6970     0.8620 C.ar  1 <1>  -0.1500 
  6 C       -1.6850     3.9040    -0.4050 C.ar  1 <1>  -0.1500 
  7 C       -2.9850     3.7910     0.0730 C.ar  1 <1>   0.0830 
  8 O       -3.8410     4.7860    -0.2720 O.3   1 <1>  -0.3630 
  9 C       -5.1860     4.7750     0.1610 C.3   1 <1>   0.3000 
 10 C       -5.9050     6.0010    -0.3710 C.2   1 <1>  -0.0400 
 11 O       -7.1670     6.1750    -0.0500 O.3   1 <1>  -0.2800 
 12 C       -5.4840     7.0120    -1.1600 C.2   1 <1>  -0.1500 
 13 C       -7.6130     7.2960    -0.6110 C.2   1 <1>   0.0550 
 14 C       -6.5880     7.8490    -1.3200 C.2   1 <1>  -0.1500 
 15 C       -8.9840     7.7270    -0.4160 C.2   1 <1>   0.7150 
 16 O       -9.8800     6.9070    -0.3050 O.2   1 <1>  -0.5700 
 17 N       -9.3200     9.0640    -0.3570 N.am  1 <1>  -0.6600 
 18 C      -10.7200     9.5120    -0.1770 C.3   1 <1>   0.1400 
 19 C       -8.3750    10.1610    -0.0550 C.3   1 <1>   0.1400 
 20 C      -10.6280    11.0150     0.0560 C.3   1 <1>  -0.1600 
 21 C       -9.2260    11.2320     0.6170 C.3   1 <1>  -0.1600 
 22 H       -2.6700     0.8750     1.7740 H     1 <1>   0.1500 
 23 H        0.2690     3.0210    -0.4730 H     1 <1>   0.1500 
 24 H       -4.3420     2.5820     1.2450 H     1 <1>   0.1500 
 25 H       -1.4220     4.7530    -1.0110 H     1 <1>   0.1500 
 26 H       -5.1990     4.7820     1.2360 H     1 <1>   0.0800 
 27 H       -5.6590     3.8840    -0.2130 H     1 <1>   0.0800 
 28 H       -4.5070     7.1570    -1.5890 H     1 <1>   0.1500 
 29 H       -6.6010     8.7490    -1.9070 H     1 <1>   0.1500 
 30 H      -11.1390     9.0200     0.6850 H     1 <1>   0.0800 
 31 H      -11.3100     9.2760    -1.0460 H     1 <1>   0.0800 
 32 H       -7.9670    10.5380    -0.9760 H     1 <1>   0.0800 
 33 H       -7.5800     9.8290     0.5920 H     1 <1>   0.0800 
 34 H      -11.3970    11.3630     0.7220 H     1 <1>   0.0800 
 35 H      -10.7280    11.5210    -0.8890 H     1 <1>   0.0800 
 36 H       -8.8530    12.2220     0.4220 H     1 <1>   0.0800 
 37 H       -9.2280    11.0610     1.6800 H     1 <1>   0.0800 
@<TRIPOS>BOND
  1   1   2  1   
  2   2   3  ar  
  3   2   4  ar  
  4   3   5  ar  
  5   3  22  1   
  6   4   6  ar  
  7   4  23  1   
  8   5   7  ar  
  9   5  24  1   
 10   6   7  ar  
 11   6  25  1   
 12   7   8  1   
 13   8   9  1   
 14   9  10  1   
 15   9  26  1   
 16   9  27  1   
 17  10  11  1   
 18  10  12  2   
 19  11  13  1   
 20  12  14  1   
 21  12  28  1   
 22  13  14  2   
 23  13  15  1   
 24  14  29  1   
 25  15  16  2   
 26  15  17  am  
 27  17  18  1   
 28  17  19  1   
 29  18  20  1   
 30  18  30  1   
 31  18  31  1   
 32  19  21  1   
 33  19  32  1   
 34  19  33  1   
 35  20  21  1   
 36  20  34  1   
 37  20  35  1   
 38  21  36  1   
 39  21  37  1   
@<TRIPOS>SUBSTRUCTURE
  1 ****  10 GROUP 4 **** **** 0

# MOE 2024.06 (io_trps.svl 2023.06)
