@<TRIPOS>MOLECULE
NONAME
44 46 1 0 0 
SMALL
USER_CHARGES


@<TRIPOS>ATOM
  1 CL       0.4640    -0.1710    -0.4070 Cl    1 <1>  -0.1770 
  2 C        1.9350    -1.0480    -0.0620 C.ar  1 <1>   0.1770 
  3 C        1.9140    -2.0730     0.8650 C.ar  1 <1>  -0.1500 
  4 C        3.1000    -0.7050    -0.7220 C.ar  1 <1>  -0.1500 
  5 C        3.0820    -2.7640     1.1340 C.ar  1 <1>  -0.1500 
  6 C        4.2640    -1.4030    -0.4480 C.ar  1 <1>  -0.1500 
  7 C        4.2690    -2.4400     0.4820 C.ar  1 <1>   0.1000 
  8 N        5.4270    -3.1610     0.7680 N.pl3 1 <1>  -0.8380 
  9 C        5.4850    -4.6100     0.4160 C.3   1 <1>   0.2090 
 10 C        6.7290    -2.4670     1.0090 C.3   1 <1>   0.2090 
 11 C        6.5360    -4.8790    -0.6820 C.3   1 <1>   0.3430 
 12 C        7.7580    -2.7930    -0.0940 C.3   1 <1>   0.3430 
 13 N        7.8800    -4.2760    -0.3600 N.4   1 <1>  -0.9590 
 14 C        8.8870    -4.5680    -1.4170 C.3   1 <1>   0.4860 
 15 C       10.2410    -4.0790    -0.9420 C.ar  1 <1>  -0.1430 
 16 C       10.9470    -4.7860     0.0220 C.ar  1 <1>  -0.1500 
 17 C       10.7820    -2.9120    -1.4650 C.ar  1 <1>  -0.1500 
 18 C       12.1740    -4.3260     0.4700 C.ar  1 <1>  -0.1500 
 19 C       12.0070    -2.4540    -1.0150 C.ar  1 <1>  -0.1500 
 20 C       12.7090    -3.1510    -0.0470 C.ar  1 <1>   0.0830 
 21 O       13.8980    -2.6280     0.3360 O.3   1 <1>  -0.3620 
 22 C       14.7390    -3.2950     1.2510 C.3   1 <1>   0.0400 
 23 H        0.9960    -2.3190     1.3680 H     1 <1>   0.1500 
 24 H        3.0870     0.0970    -1.4380 H     1 <1>   0.1500 
 25 H        3.0810    -3.5550     1.8610 H     1 <1>   0.1500 
 26 H        5.1670    -1.1390    -0.9630 H     1 <1>   0.1500 
 27 H        4.5190    -4.9380     0.0690 H     1 <1>   0.0800 
 28 H        5.7240    -5.1780     1.2990 H     1 <1>   0.0800 
 29 H        7.1160    -2.7740     1.9650 H     1 <1>   0.0800 
 30 H        6.5730    -1.4020     1.0560 H     1 <1>   0.0800 
 31 H        6.1660    -4.4600    -1.6030 H     1 <1>   0.0800 
 32 H        6.6320    -5.9440    -0.8180 H     1 <1>   0.0800 
 33 H        8.7150    -2.3910     0.1970 H     1 <1>   0.0800 
 34 H        7.4520    -2.2910    -0.9960 H     1 <1>   0.0800 
 35 H        8.2280    -4.6990     0.5090 H     1 <1>   0.4500 
 36 H        8.6190    -4.0730    -2.3360 H     1 <1>   0.0800 
 37 H        8.9380    -5.6280    -1.6020 H     1 <1>   0.0800 
 38 H       10.5600    -5.7030     0.4330 H     1 <1>   0.1500 
 39 H       10.2680    -2.3490    -2.2250 H     1 <1>   0.1500 
 40 H       12.7020    -4.8910     1.2160 H     1 <1>   0.1500 
 41 H       12.4350    -1.5500    -1.4150 H     1 <1>   0.1500 
 42 H       15.6310    -2.7070     1.3750 H     1 <1>   0.0800 
 43 H       14.9930    -4.2620     0.8530 H     1 <1>   0.0800 
 44 H       14.2300    -3.3870     2.1940 H     1 <1>   0.0800 
@<TRIPOS>BOND
  1   1   2  1   
  2   2   3  ar  
  3   2   4  ar  
  4   3   5  ar  
  5   3  23  1   
  6   4   6  ar  
  7   4  24  1   
  8   5   7  ar  
  9   5  25  1   
 10   6   7  ar  
 11   6  26  1   
 12   7   8  1   
 13   8   9  1   
 14   8  10  1   
 15   9  11  1   
 16   9  27  1   
 17   9  28  1   
 18  10  12  1   
 19  10  29  1   
 20  10  30  1   
 21  11  13  1   
 22  11  31  1   
 23  11  32  1   
 24  12  13  1   
 25  12  33  1   
 26  12  34  1   
 27  13  14  1   
 28  13  35  1   
 29  14  15  1   
 30  14  36  1   
 31  14  37  1   
 32  15  16  ar  
 33  15  17  ar  
 34  16  18  ar  
 35  16  38  1   
 36  17  19  ar  
 37  17  39  1   
 38  18  20  ar  
 39  18  40  1   
 40  19  20  ar  
 41  19  41  1   
 42  20  21  1   
 43  21  22  1   
 44  22  42  1   
 45  22  43  1   
 46  22  44  1   
@<TRIPOS>SUBSTRUCTURE
  1 ****  12 GROUP 4 **** **** 0

# MOE 2024.06 (io_trps.svl 2023.06)
