@<TRIPOS>MOLECULE
NONAME
35 36 1 0 0 
SMALL
USER_CHARGES


@<TRIPOS>ATOM
  1 O       -0.0930     1.0030     1.7750 O.2   1 <1>  -0.5700 
  2 C       -0.1340     2.0490     1.1490 C.2   1 <1>   0.5440 
  3 N        1.0010     2.7890     1.0500 N.am  1 <1>  -0.4300 
  4 C       -1.3270     2.4830     0.4480 C.ar  1 <1>   0.0860 
  5 N        1.0580     3.9480     0.1640 N.am  1 <1>  -0.4300 
  6 C       -1.2690     3.5960    -0.4130 C.ar  1 <1>   0.0860 
  7 C       -2.5310     1.8010     0.5920 C.ar  1 <1>  -0.1500 
  8 C       -0.0390     4.3510    -0.5320 C.2   1 <1>   0.5440 
  9 C       -2.4230     3.9460    -1.1190 C.ar  1 <1>  -0.1500 
 10 C       -3.6710     2.1510    -0.1130 C.ar  1 <1>   0.1000 
 11 O        0.0510     5.3680    -1.1990 O.2   1 <1>  -0.5700 
 12 C       -3.5980     3.2380    -0.9780 C.ar  1 <1>  -0.1500 
 13 N       -4.8380     1.4180     0.0480 N.pl3 1 <1>  -0.8380 
 14 C       -4.9400     0.1350    -0.6920 C.3   1 <1>   0.2090 
 15 C       -6.1070     2.1630     0.2860 C.3   1 <1>   0.2090 
 16 C       -4.5990    -1.0170     0.2680 C.3   1 <1>   0.3430 
 17 C       -6.8850     1.4890     1.4100 C.3   1 <1>  -0.2400 
 18 N       -4.5480    -2.3480    -0.4110 N.4   1 <1>  -0.8530 
 19 H        1.8720     2.2960     1.2820 H     1 <1>   0.3700 
 20 H        1.7750     4.6670     0.3200 H     1 <1>   0.3700 
 21 H       -2.5800     0.9800     1.2820 H     1 <1>   0.1500 
 22 H       -2.3870     4.7930    -1.7860 H     1 <1>   0.1500 
 23 H       -4.4670     3.5270    -1.5400 H     1 <1>   0.1500 
 24 H       -4.2420     0.1520    -1.5120 H     1 <1>   0.0800 
 25 H       -5.9360     0.0180    -1.0830 H     1 <1>   0.0800 
 26 H       -6.6950     2.1960    -0.6160 H     1 <1>   0.0800 
 27 H       -5.8800     3.1760     0.5770 H     1 <1>   0.0800 
 28 H       -5.3350    -1.0340     1.0550 H     1 <1>   0.0800 
 29 H       -3.6400    -0.8080     0.7140 H     1 <1>   0.0800 
 30 H       -7.2020     0.5040     1.1250 H     1 <1>   0.0800 
 31 H       -7.7600     2.0720     1.6350 H     1 <1>   0.0800 
 32 H       -6.2780     1.4380     2.2970 H     1 <1>   0.0800 
 33 H       -5.4500    -2.5920    -0.8370 H     1 <1>   0.4500 
 34 H       -4.3120    -3.0830     0.2670 H     1 <1>   0.4500 
 35 H       -3.8250    -2.3600    -1.1410 H     1 <1>   0.4500 
@<TRIPOS>BOND
  1   1   2  2   
  2   2   3  am  
  3   2   4  1   
  4   3   5  1   
  5   3  19  1   
  6   4   6  ar  
  7   4   7  ar  
  8   5   8  am  
  9   5  20  1   
 10   6   8  1   
 11   6   9  ar  
 12   7  10  ar  
 13   7  21  1   
 14   8  11  2   
 15   9  12  ar  
 16   9  22  1   
 17  10  12  ar  
 18  10  13  1   
 19  12  23  1   
 20  13  14  1   
 21  13  15  1   
 22  14  16  1   
 23  14  24  1   
 24  14  25  1   
 25  15  17  1   
 26  15  26  1   
 27  15  27  1   
 28  16  18  1   
 29  16  28  1   
 30  16  29  1   
 31  17  30  1   
 32  17  31  1   
 33  17  32  1   
 34  18  33  1   
 35  18  34  1   
 36  18  35  1   
@<TRIPOS>SUBSTRUCTURE
  1 ****   7 GROUP 4 **** **** 0

# MOE 2024.06 (io_trps.svl 2023.06)
