@<TRIPOS>MOLECULE
NONAME
61 64 1 0 0 
SMALL
USER_CHARGES


@<TRIPOS>ATOM
  1 BR      -0.1160     2.7090     4.2110 Br    1 <1>  -0.1110 
  2 C       -0.2110     3.2520     2.3600 C.ar  1 <1>   0.1110 
  3 C        0.8270     2.9380     1.4930 C.ar  1 <1>   0.0820 
  4 C       -1.3320     3.9460     1.9520 C.ar  1 <1>  -0.1500 
  5 O        1.8920     2.2500     1.9850 O.3   1 <1>  -0.3630 
  6 C        0.7160     3.3420     0.1660 C.ar  1 <1>  -0.1500 
  7 C       -1.4370     4.3480     0.6300 C.ar  1 <1>  -0.1430 
  8 C        2.9990     1.9150     1.1780 C.3   1 <1>   0.0400 
  9 C       -0.4110     4.0430    -0.2660 C.ar  1 <1>   0.0830 
 10 C       -2.6810     5.1140     0.1960 C.3   1 <1>   0.2540 
 11 O       -0.5670     4.4440    -1.5570 O.3   1 <1>  -0.3630 
 12 N       -3.8640     4.2180     0.1490 N.3   1 <1>  -0.8100 
 13 C        0.5150     4.4520    -2.4650 C.3   1 <1>   0.0400 
 14 C       -5.1900     4.8640    -0.1440 C.3   1 <1>   0.1900 
 15 C       -3.5900     3.1070    -0.8070 C.3   1 <1>   0.1100 
 16 C       -5.4420     6.1550     0.7070 C.3   1 <1>  -0.0800 
 17 C       -6.3230     3.7880     0.0160 C.3   1 <1>   0.4230 
 18 C       -4.8110     2.2190    -1.1170 C.3   1 <1>   0.3430 
 19 C       -6.9000     6.3950     1.1750 C.3   1 <1>  -0.1600 
 20 C       -4.9830     7.4130    -0.0720 C.3   1 <1>  -0.1600 
 21 N       -5.8590     2.3710    -0.0640 N.4   1 <1>  -0.9590 
 22 C       -7.4390     3.8510    -1.0280 C.3   1 <1>  -0.1600 
 23 C       -7.0270     7.6690     2.0230 C.3   1 <1>  -0.1600 
 24 C       -5.0900     8.6870     0.7740 C.3   1 <1>  -0.1600 
 25 C       -7.0570     1.5380    -0.3070 C.3   1 <1>   0.3430 
 26 C       -8.0070     2.4290    -1.1040 C.3   1 <1>  -0.1600 
 27 C       -6.5250     8.9000     1.2640 C.3   1 <1>  -0.1600 
 28 H       -2.1110     4.1660     2.6590 H     1 <1>   0.1500 
 29 H        1.4980     3.1070    -0.5250 H     1 <1>   0.1500 
 30 H        3.7080     1.3870     1.7900 H     1 <1>   0.0800 
 31 H        3.4430     2.8190     0.8020 H     1 <1>   0.0800 
 32 H        2.6670     1.2810     0.3750 H     1 <1>   0.0800 
 33 H       -2.5330     5.5770    -0.7640 H     1 <1>   0.0800 
 34 H       -2.8310     5.8950     0.9180 H     1 <1>   0.0800 
 35 H        0.8090     3.4380    -2.6690 H     1 <1>   0.0800 
 36 H        1.3280     5.0110    -2.0360 H     1 <1>   0.0800 
 37 H        0.1880     4.9250    -3.3730 H     1 <1>   0.0800 
 38 H       -5.1820     5.1650    -1.1770 H     1 <1>   0.0800 
 39 H       -2.8230     2.4720    -0.3960 H     1 <1>   0.0800 
 40 H       -3.2090     3.5020    -1.7340 H     1 <1>   0.0800 
 41 H       -4.8620     6.0710     1.6110 H     1 <1>   0.0800 
 42 H       -6.7690     3.9080     0.9860 H     1 <1>   0.0800 
 43 H       -4.4940     1.1920    -1.1900 H     1 <1>   0.0800 
 44 H       -5.2170     2.5070    -2.0730 H     1 <1>   0.0800 
 45 H       -7.2500     5.5850     1.7870 H     1 <1>   0.0800 
 46 H       -7.5500     6.4930     0.3230 H     1 <1>   0.0800 
 47 H       -5.5940     7.5320    -0.9510 H     1 <1>   0.0800 
 48 H       -3.9680     7.3230    -0.4070 H     1 <1>   0.0800 
 49 H       -5.3960     2.1670     0.8330 H     1 <1>   0.4500 
 50 H       -7.0390     4.1360    -1.9860 H     1 <1>   0.0800 
 51 H       -8.1970     4.5610    -0.7510 H     1 <1>   0.0800 
 52 H       -6.4560     7.5550     2.9300 H     1 <1>   0.0800 
 53 H       -8.0560     7.8180     2.3020 H     1 <1>   0.0800 
 54 H       -4.7840     9.5380     0.1890 H     1 <1>   0.0800 
 55 H       -4.4290     8.6150     1.6200 H     1 <1>   0.0800 
 56 H       -7.5150     1.2800     0.6350 H     1 <1>   0.0800 
 57 H       -6.8130     0.6330    -0.8410 H     1 <1>   0.0800 
 58 H       -8.0660     2.0940    -2.1260 H     1 <1>   0.0800 
 59 H       -8.9930     2.3790    -0.6750 H     1 <1>   0.0800 
 60 H       -6.5630     9.7620     1.9080 H     1 <1>   0.0800 
 61 H       -7.1680     9.0900     0.4220 H     1 <1>   0.0800 
@<TRIPOS>BOND
  1   1   2  1   
  2   2   3  ar  
  3   2   4  ar  
  4   3   5  1   
  5   3   6  ar  
  6   4   7  ar  
  7   4  28  1   
  8   5   8  1   
  9   6   9  ar  
 10   6  29  1   
 11   7   9  ar  
 12   7  10  1   
 13   8  30  1   
 14   8  31  1   
 15   8  32  1   
 16   9  11  1   
 17  10  12  1   
 18  10  33  1   
 19  10  34  1   
 20  11  13  1   
 21  12  14  1   
 22  12  15  1   
 23  13  35  1   
 24  13  36  1   
 25  13  37  1   
 26  14  16  1   
 27  14  17  1   
 28  14  38  1   
 29  15  18  1   
 30  15  39  1   
 31  15  40  1   
 32  16  19  1   
 33  16  20  1   
 34  16  41  1   
 35  17  21  1   
 36  17  22  1   
 37  17  42  1   
 38  18  21  1   
 39  18  43  1   
 40  18  44  1   
 41  19  23  1   
 42  19  45  1   
 43  19  46  1   
 44  20  24  1   
 45  20  47  1   
 46  20  48  1   
 47  21  25  1   
 48  21  49  1   
 49  22  26  1   
 50  22  50  1   
 51  22  51  1   
 52  23  27  1   
 53  23  52  1   
 54  23  53  1   
 55  24  27  1   
 56  24  54  1   
 57  24  55  1   
 58  25  26  1   
 59  25  56  1   
 60  25  57  1   
 61  26  58  1   
 62  26  59  1   
 63  27  60  1   
 64  27  61  1   
@<TRIPOS>SUBSTRUCTURE
  1 ****  12 GROUP 4 **** **** 0

# MOE 2024.06 (io_trps.svl 2023.06)
