@<TRIPOS>MOLECULE
NONAME
44 46 1 0 0 
SMALL
USER_CHARGES


@<TRIPOS>ATOM
  1 S       -0.7340     3.2570    -1.6540 S.3   1 <1>  -0.0800 
  2 C       -0.3820     1.6810    -0.9320 C.2   1 <1>  -0.0450 
  3 C        0.9640     3.6280    -1.8500 C.2   1 <1>  -0.1100 
  4 C       -1.4710     0.8340    -0.5240 C.2   1 <1>   0.7150 
  5 C        0.9660     1.5230    -0.8780 C.2   1 <1>  -0.1500 
  6 C        1.7220     2.6150    -1.3940 C.2   1 <1>  -0.1500 
  7 O       -1.2540    -0.2390     0.0200 O.2   1 <1>  -0.5700 
  8 N       -2.7680     1.2510    -0.7000 N.am  1 <1>  -0.5390 
  9 C       -3.9630     0.5040    -0.6600 C.2   1 <1>   0.1230 
 10 C       -3.8740    -0.9050    -1.0080 C.2   1 <1>   0.6160 
 11 C       -5.1070     1.1550    -0.3030 C.2   1 <1>  -0.1050 
 12 O       -3.5590    -1.2220    -2.1420 O.2   1 <1>  -0.5700 
 13 N       -4.0310    -1.9100    -0.0720 N.am  1 <1>  -0.6600 
 14 C       -6.4690     0.7270    -0.2010 C.2   1 <1>  -0.0050 
 15 C       -3.8290    -1.6750     1.3950 C.3   1 <1>   0.1400 
 16 C       -3.8130    -3.3320    -0.4710 C.3   1 <1>   0.1400 
 17 S       -7.0160    -0.8310    -0.8330 S.3   1 <1>  -0.0800 
 18 C       -7.5430     1.3680     0.3320 C.2   1 <1>  -0.1500 
 19 C       -2.6590    -2.5270     1.9510 C.3   1 <1>   0.3430 
 20 C       -2.3370    -3.7210    -0.2280 C.3   1 <1>   0.3430 
 21 C       -8.6700    -0.5430    -0.3390 C.2   1 <1>  -0.1100 
 22 C       -8.7750     0.6570     0.2580 C.2   1 <1>  -0.1500 
 23 N       -1.6910    -2.8970     0.8620 N.4   1 <1>  -0.9590 
 24 C       -0.4220    -3.4890     1.3650 C.3   1 <1>   0.2630 
 25 H        1.2220     4.5750    -2.2920 H     1 <1>   0.1500 
 26 H        1.4610     0.6520    -0.4840 H     1 <1>   0.1500 
 27 H        2.7990     2.5940    -1.4000 H     1 <1>   0.1500 
 28 H       -2.8470     2.2130    -1.0350 H     1 <1>   0.3700 
 29 H       -5.0050     2.1910    -0.0380 H     1 <1>   0.1500 
 30 H       -3.6110    -0.6390     1.5810 H     1 <1>   0.0800 
 31 H       -4.7360    -1.9120     1.9250 H     1 <1>   0.0800 
 32 H       -4.4570    -3.9650     0.1150 H     1 <1>   0.0800 
 33 H       -4.0690    -3.4890    -1.5050 H     1 <1>   0.0800 
 34 H       -7.5070     2.3430     0.7830 H     1 <1>   0.1500 
 35 H       -3.0570    -3.4230     2.3960 H     1 <1>   0.0800 
 36 H       -2.1560    -1.9690     2.7230 H     1 <1>   0.0800 
 37 H       -1.7930    -3.5750    -1.1470 H     1 <1>   0.0800 
 38 H       -2.2910    -4.7690     0.0160 H     1 <1>   0.0800 
 39 H       -9.3960    -1.3090    -0.5510 H     1 <1>   0.1500 
 40 H       -9.6850     1.0760     0.6530 H     1 <1>   0.1500 
 41 H       -1.4670    -1.9820     0.4060 H     1 <1>   0.4500 
 42 H       -0.6130    -4.4310     1.8520 H     1 <1>   0.0800 
 43 H        0.0460    -2.8210     2.0690 H     1 <1>   0.0800 
 44 H        0.2610    -3.6540     0.5460 H     1 <1>   0.0800 
@<TRIPOS>BOND
  1   1   2  1   
  2   1   3  1   
  3   2   4  1   
  4   2   5  2   
  5   3   6  2   
  6   3  25  1   
  7   4   7  2   
  8   4   8  am  
  9   5   6  1   
 10   5  26  1   
 11   6  27  1   
 12   8   9  1   
 13   8  28  1   
 14   9  10  1   
 15   9  11  2   
 16  10  12  2   
 17  10  13  am  
 18  11  14  1   
 19  11  29  1   
 20  13  15  1   
 21  13  16  1   
 22  14  17  1   
 23  14  18  2   
 24  15  19  1   
 25  15  30  1   
 26  15  31  1   
 27  16  20  1   
 28  16  32  1   
 29  16  33  1   
 30  17  21  1   
 31  18  22  1   
 32  18  34  1   
 33  19  23  1   
 34  19  35  1   
 35  19  36  1   
 36  20  23  1   
 37  20  37  1   
 38  20  38  1   
 39  21  22  2   
 40  21  39  1   
 41  22  40  1   
 42  23  24  1   
 43  23  41  1   
 44  24  42  1   
 45  24  43  1   
 46  24  44  1   
@<TRIPOS>SUBSTRUCTURE
  1 ****   9 GROUP 4 **** **** 0

# MOE 2024.06 (io_trps.svl 2023.06)
