@<TRIPOS>MOLECULE
NONAME
48 51 1 0 0 
SMALL
USER_CHARGES


@<TRIPOS>ATOM
  1 CL       2.7420    -4.5750    -4.5140 Cl    1 <1>  -0.1770 
  2 C        2.1910    -4.4090    -2.8670 C.ar  1 <1>   0.1770 
  3 C        2.9730    -4.8900    -1.8380 C.ar  1 <1>  -0.1500 
  4 C        0.9810    -3.7940    -2.6190 C.ar  1 <1>  -0.1500 
  5 C        2.5540    -4.7520    -0.5180 C.ar  1 <1>  -0.0230 
  6 C        0.5460    -3.6680    -1.3110 C.ar  1 <1>  -0.1500 
  7 N        3.3810    -5.2370     0.5390 N.pl3 1 <1>   0.5930 
  8 C        1.3180    -4.1450    -0.2610 C.ar  1 <1>  -0.1440 
  9 N        3.1030    -6.3600     1.1890 N.2   1 <1>  -0.4180 
 10 C        4.4430    -4.7110     1.1500 C.2   1 <1>   0.0060 
 11 C        0.7800    -4.0110     1.1600 C.3   1 <1>  -0.0960 
 12 N        3.9570    -6.4780     2.1340 N.2   1 <1>   0.0000 
 13 N        4.8000    -5.4570     2.1310 N.2   1 <1>  -0.3380 
 14 C        5.1210    -3.4030     0.7320 C.3   1 <1>   0.5490 
 15 N        5.3810    -3.4050    -0.7300 N.pl3 1 <1>  -0.8690 
 16 C        4.1710    -2.2160     1.0230 C.3   1 <1>  -0.1600 
 17 C        6.4490    -3.1560     1.4810 C.3   1 <1>  -0.1600 
 18 C        6.3870    -4.1390    -1.3580 C.ar  1 <1>   0.1000 
 19 C        4.8500    -0.8520     1.2880 C.3   1 <1>  -0.1600 
 20 C        7.1780    -1.8570     1.0680 C.3   1 <1>  -0.1600 
 21 C        7.0540    -3.5500    -2.4260 C.ar  1 <1>  -0.1500 
 22 C        6.7490    -5.4340    -0.9920 C.ar  1 <1>  -0.1500 
 23 C        6.2280    -0.7300     0.6280 C.3   1 <1>  -0.1600 
 24 C        8.0580    -4.2210    -3.1010 C.ar  1 <1>  -0.1500 
 25 C        7.7520    -6.1080    -1.6640 C.ar  1 <1>  -0.1500 
 26 C        8.4100    -5.5030    -2.7190 C.ar  1 <1>  -0.1500 
 27 H        3.9110    -5.3640    -2.0700 H     1 <1>   0.1500 
 28 H        0.3890    -3.4270    -3.4380 H     1 <1>   0.1500 
 29 H       -0.4040    -3.1980    -1.1210 H     1 <1>   0.1500 
 30 H       -0.1360    -3.4480     1.1760 H     1 <1>   0.0800 
 31 H        0.5810    -4.9860     1.5680 H     1 <1>   0.0800 
 32 H        1.4900    -3.5120     1.7930 H     1 <1>   0.0800 
 33 H        5.3610    -2.4340    -1.0460 H     1 <1>   0.4000 
 34 H        3.6010    -2.4480     1.9040 H     1 <1>   0.0800 
 35 H        3.4690    -2.1180     0.2140 H     1 <1>   0.0800 
 36 H        7.1090    -3.9960     1.3570 H     1 <1>   0.0800 
 37 H        6.2250    -3.0970     2.5320 H     1 <1>   0.0800 
 38 H        4.9800    -0.7290     2.3500 H     1 <1>   0.0800 
 39 H        4.2090    -0.0560     0.9500 H     1 <1>   0.0800 
 40 H        7.8560    -2.0720     0.2590 H     1 <1>   0.0800 
 41 H        7.7730    -1.5220     1.9010 H     1 <1>   0.0800 
 42 H        6.7840    -2.5580    -2.7350 H     1 <1>   0.1500 
 43 H        6.2550    -5.9330    -0.1830 H     1 <1>   0.1500 
 44 H        6.6670     0.2230     0.8720 H     1 <1>   0.0800 
 45 H        6.1100    -0.7560    -0.4420 H     1 <1>   0.0800 
 46 H        8.5640    -3.7470    -3.9240 H     1 <1>   0.1500 
 47 H        8.0200    -7.1070    -1.3650 H     1 <1>   0.1500 
 48 H        9.1910    -6.0280    -3.2420 H     1 <1>   0.1500 
@<TRIPOS>BOND
  1   1   2  1   
  2   2   3  ar  
  3   2   4  ar  
  4   3   5  ar  
  5   3  27  1   
  6   4   6  ar  
  7   4  28  1   
  8   5   7  1   
  9   5   8  ar  
 10   6   8  ar  
 11   6  29  1   
 12   7   9  1   
 13   7  10  1   
 14   8  11  1   
 15   9  12  2   
 16  10  13  2   
 17  10  14  1   
 18  11  30  1   
 19  11  31  1   
 20  11  32  1   
 21  12  13  1   
 22  14  15  1   
 23  14  16  1   
 24  14  17  1   
 25  15  18  1   
 26  15  33  1   
 27  16  19  1   
 28  16  34  1   
 29  16  35  1   
 30  17  20  1   
 31  17  36  1   
 32  17  37  1   
 33  18  21  ar  
 34  18  22  ar  
 35  19  23  1   
 36  19  38  1   
 37  19  39  1   
 38  20  23  1   
 39  20  40  1   
 40  20  41  1   
 41  21  24  ar  
 42  21  42  1   
 43  22  25  ar  
 44  22  43  1   
 45  23  44  1   
 46  23  45  1   
 47  24  26  ar  
 48  24  46  1   
 49  25  26  ar  
 50  25  47  1   
 51  26  48  1   
@<TRIPOS>SUBSTRUCTURE
  1 ****  15 GROUP 4 **** **** 0

# MOE 2024.06 (io_trps.svl 2023.06)
