@<TRIPOS>MOLECULE
NONAME
46 47 1 0 0 
SMALL
USER_CHARGES


@<TRIPOS>ATOM
  1 F        1.5040    -0.2060     1.1790 F     1 <1>  -0.1900 
  2 C        2.2540    -0.9350     0.3990 C.ar  1 <1>   0.1900 
  3 C        3.5250    -0.4860     0.0960 C.ar  1 <1>  -0.1500 
  4 C        1.7520    -2.1250    -0.0910 C.ar  1 <1>  -0.1500 
  5 C        4.3320    -1.2620    -0.7250 C.ar  1 <1>  -0.1440 
  6 C        2.5570    -2.8900    -0.9170 C.ar  1 <1>  -0.1500 
  7 C        3.8380    -2.4590    -1.2320 C.ar  1 <1>  -0.1500 
  8 C        5.7410    -0.8110    -1.0610 C.3   1 <1>   0.4870 
  9 N        6.6010    -1.0100     0.1360 N.4   1 <1>  -0.9590 
 10 C        7.9600    -0.3870    -0.0630 C.3   1 <1>   0.3430 
 11 C        6.7050    -2.4790     0.4800 C.3   1 <1>   0.3430 
 12 C        8.9100    -0.6550     1.1230 C.3   1 <1>   0.1400 
 13 C        7.6720    -2.7390     1.6510 C.3   1 <1>   0.1400 
 14 N        8.9980    -2.1180     1.3720 N.am  1 <1>  -0.6600 
 15 C        9.8600    -2.8130     0.5810 C.2   1 <1>   0.6900 
 16 O        9.4250    -3.4820    -0.3370 O.2   1 <1>  -0.5700 
 17 N       11.1830    -2.6840     0.8060 N.am  1 <1>  -0.7300 
 18 C       12.2450    -3.3830     0.0520 C.3   1 <1>   0.1400 
 19 C       13.4050    -2.4180    -0.1860 C.3   1 <1>  -0.1600 
 20 C       14.5340    -3.0940    -0.9750 C.3   1 <1>  -0.1600 
 21 C       15.6960    -2.1250    -1.2140 C.3   1 <1>  -0.2400 
 22 H        3.8500     0.4550     0.5030 H     1 <1>   0.1500 
 23 H        0.7560    -2.4390     0.1660 H     1 <1>   0.1500 
 24 H        2.1830    -3.8190    -1.3160 H     1 <1>   0.1500 
 25 H        4.4410    -3.0740    -1.8810 H     1 <1>   0.1500 
 26 H        5.7240     0.2310    -1.3380 H     1 <1>   0.0800 
 27 H        6.1240    -1.3800    -1.8930 H     1 <1>   0.0800 
 28 H        6.1350    -0.5480     0.9250 H     1 <1>   0.4500 
 29 H        7.8610     0.6770    -0.2030 H     1 <1>   0.0800 
 30 H        8.4150    -0.7970    -0.9510 H     1 <1>   0.0800 
 31 H        7.0660    -3.0260    -0.3770 H     1 <1>   0.0800 
 32 H        5.7320    -2.8690     0.7330 H     1 <1>   0.0800 
 33 H        8.5580    -0.1560     2.0090 H     1 <1>   0.0800 
 34 H        9.8880    -0.2660     0.8910 H     1 <1>   0.0800 
 35 H        7.7960    -3.8020     1.7790 H     1 <1>   0.0800 
 36 H        7.2690    -2.3430     2.5660 H     1 <1>   0.0800 
 37 H       11.4640    -2.2820     1.6990 H     1 <1>   0.3700 
 38 H       11.8570    -3.7310    -0.8920 H     1 <1>   0.0800 
 39 H       12.5790    -4.2360     0.6180 H     1 <1>   0.0800 
 40 H       13.7890    -2.0800     0.7600 H     1 <1>   0.0800 
 41 H       13.0480    -1.5670    -0.7400 H     1 <1>   0.0800 
 42 H       14.1580    -3.4360    -1.9250 H     1 <1>   0.0800 
 43 H       14.8950    -3.9510    -0.4310 H     1 <1>   0.0800 
 44 H       15.3640    -1.2700    -1.7750 H     1 <1>   0.0800 
 45 H       16.4750    -2.6160    -1.7700 H     1 <1>   0.0800 
 46 H       16.1050    -1.7890    -0.2780 H     1 <1>   0.0800 
@<TRIPOS>BOND
  1   1   2  1   
  2   2   3  ar  
  3   2   4  ar  
  4   3   5  ar  
  5   3  22  1   
  6   4   6  ar  
  7   4  23  1   
  8   5   7  ar  
  9   5   8  1   
 10   6   7  ar  
 11   6  24  1   
 12   7  25  1   
 13   8   9  1   
 14   8  26  1   
 15   8  27  1   
 16   9  10  1   
 17   9  11  1   
 18   9  28  1   
 19  10  12  1   
 20  10  29  1   
 21  10  30  1   
 22  11  13  1   
 23  11  31  1   
 24  11  32  1   
 25  12  14  1   
 26  12  33  1   
 27  12  34  1   
 28  13  14  1   
 29  13  35  1   
 30  13  36  1   
 31  14  15  am  
 32  15  16  2   
 33  15  17  am  
 34  17  18  1   
 35  17  37  1   
 36  18  19  1   
 37  18  38  1   
 38  18  39  1   
 39  19  20  1   
 40  19  40  1   
 41  19  41  1   
 42  20  21  1   
 43  20  42  1   
 44  20  43  1   
 45  21  44  1   
 46  21  45  1   
 47  21  46  1   
@<TRIPOS>SUBSTRUCTURE
  1 ****  11 GROUP 4 **** **** 0

# MOE 2024.06 (io_trps.svl 2023.06)
