@<TRIPOS>MOLECULE
NONAME
33 34 1 0 0 
SMALL
USER_CHARGES


@<TRIPOS>ATOM
  1 O       -0.1170    -1.3900     2.1900 O.2   1 <1>  -0.5700 
  2 C       -0.6430    -1.8520     1.2050 C.2   1 <1>   0.5690 
  3 N        0.0810    -2.4090     0.1700 N.am  1 <1>  -0.4770 
  4 C       -2.1740    -1.7910     1.1550 C.3   1 <1>   0.2010 
  5 C        1.4870    -2.4620     0.1610 C.ar  1 <1>   0.1170 
  6 C       -0.5780    -3.0070    -1.0390 C.3   1 <1>   0.2010 
  7 N       -2.7800    -2.2360    -0.1340 N.am  1 <1>  -0.7300 
  8 C        2.1590    -3.5580     0.7080 C.ar  1 <1>  -0.1430 
  9 C        2.2280    -1.4260    -0.4150 C.ar  1 <1>  -0.1430 
 10 C       -2.0820    -2.7720    -1.1590 C.2   1 <1>   0.5690 
 11 C        3.5410    -3.6220     0.6450 C.ar  1 <1>  -0.1500 
 12 C        1.4030    -4.6920     1.3910 C.3   1 <1>  -0.0960 
 13 C        3.6090    -1.5100    -0.4670 C.ar  1 <1>  -0.1500 
 14 C        1.5470    -0.1850    -0.9810 C.3   1 <1>  -0.0960 
 15 O       -2.6490    -3.0770    -2.1770 O.2   1 <1>  -0.5700 
 16 C        4.2720    -2.6070     0.0550 C.ar  1 <1>  -0.1430 
 17 C        5.7870    -2.6870    -0.0060 C.3   1 <1>  -0.0970 
 18 H       -2.4700    -0.7750     1.3450 H     1 <1>   0.0800 
 19 H       -2.5580    -2.4020     1.9520 H     1 <1>   0.0800 
 20 H       -0.4060    -4.0670    -1.0360 H     1 <1>   0.0800 
 21 H       -0.1100    -2.6070    -1.9200 H     1 <1>   0.0800 
 22 H       -3.7860    -2.1090    -0.2670 H     1 <1>   0.3700 
 23 H        4.0590    -4.4670     1.0630 H     1 <1>   0.1500 
 24 H        0.7720    -4.2930     2.1650 H     1 <1>   0.0800 
 25 H        2.0820    -5.3920     1.8420 H     1 <1>   0.0800 
 26 H        0.7960    -5.2170     0.6780 H     1 <1>   0.0800 
 27 H        4.1790    -0.7150    -0.9120 H     1 <1>   0.1500 
 28 H        2.2710     0.5440    -1.2950 H     1 <1>   0.0800 
 29 H        0.9390    -0.4460    -1.8270 H     1 <1>   0.0800 
 30 H        0.9250     0.2640    -0.2270 H     1 <1>   0.0800 
 31 H        6.1070    -3.7120    -0.0570 H     1 <1>   0.0800 
 32 H        6.2090    -2.2340     0.8730 H     1 <1>   0.0800 
 33 H        6.1560    -2.1730    -0.8750 H     1 <1>   0.0800 
@<TRIPOS>BOND
  1   1   2  2   
  2   2   3  am  
  3   2   4  1   
  4   3   5  1   
  5   3   6  1   
  6   4   7  1   
  7   4  18  1   
  8   4  19  1   
  9   5   8  ar  
 10   5   9  ar  
 11   6  10  1   
 12   6  20  1   
 13   6  21  1   
 14   7  10  am  
 15   7  22  1   
 16   8  11  ar  
 17   8  12  1   
 18   9  13  ar  
 19   9  14  1   
 20  10  15  2   
 21  11  16  ar  
 22  11  23  1   
 23  12  24  1   
 24  12  25  1   
 25  12  26  1   
 26  13  16  ar  
 27  13  27  1   
 28  14  28  1   
 29  14  29  1   
 30  14  30  1   
 31  16  17  1   
 32  17  31  1   
 33  17  32  1   
 34  17  33  1   
@<TRIPOS>SUBSTRUCTURE
  1 ****   5 GROUP 4 **** **** 0

# MOE 2024.06 (io_trps.svl 2023.06)
