@<TRIPOS>MOLECULE
NONAME
45 46 1 0 0 
SMALL
USER_CHARGES


@<TRIPOS>ATOM
  1 O       -1.8870     0.8070     0.0840 O.3   1 <1>  -0.3630 
  2 C       -1.0320     1.7870    -0.3420 C.ar  1 <1>   0.0830 
  3 C       -1.3440    -0.4500     0.4540 C.3   1 <1>   0.0400 
  4 C        0.1400     2.1270     0.3490 C.ar  1 <1>   0.0830 
  5 C       -1.3770     2.4740    -1.5050 C.ar  1 <1>  -0.1440 
  6 O        0.4080     1.5150     1.5370 O.3   1 <1>  -0.3620 
  7 C        0.9790     3.1040    -0.1790 C.ar  1 <1>  -0.1500 
  8 C       -0.5280     3.4450    -2.0130 C.ar  1 <1>  -0.1500 
  9 C       -2.6920     2.1900    -2.2070 C.3   1 <1>   0.4860 
 10 C        1.6150     1.7350     2.2380 C.3   1 <1>   0.0400 
 11 C        0.6480     3.7520    -1.3560 C.ar  1 <1>  -0.1500 
 12 N       -3.7660     2.3620    -1.1860 N.4   1 <1>  -0.9590 
 13 C       -5.0710     1.7420    -1.5920 C.3   1 <1>   0.3430 
 14 C       -3.8870     3.7820    -0.7620 C.3   1 <1>   0.3430 
 15 C       -6.0430     1.4440    -0.4100 C.3   1 <1>   0.3430 
 16 C       -4.0960     3.8790     0.7490 C.3   1 <1>  -0.1600 
 17 N       -6.2100     2.5340     0.6310 N.4   1 <1>  -0.9590 
 18 C       -4.9590     2.7990     1.4060 C.3   1 <1>   0.3430 
 19 C       -7.2960     2.1350     1.5890 C.3   1 <1>   0.2630 
 20 H       -1.0820    -0.4280     1.4970 H     1 <1>   0.0800 
 21 H       -0.4720    -0.6540    -0.1440 H     1 <1>   0.0800 
 22 H       -2.0860    -1.2100     0.2870 H     1 <1>   0.0800 
 23 H        1.8940     3.3830     0.3090 H     1 <1>   0.1500 
 24 H       -0.7640     3.9750    -2.9220 H     1 <1>   0.1500 
 25 H       -2.6780     1.1760    -2.5740 H     1 <1>   0.0800 
 26 H       -2.8360     2.8630    -3.0360 H     1 <1>   0.0800 
 27 H        1.6690     2.7690     2.5310 H     1 <1>   0.0800 
 28 H        2.4420     1.4710     1.6030 H     1 <1>   0.0800 
 29 H        1.6140     1.1100     3.1120 H     1 <1>   0.0800 
 30 H        1.3110     4.5020    -1.7560 H     1 <1>   0.1500 
 31 H       -3.3430     1.8310    -0.4000 H     1 <1>   0.4500 
 32 H       -4.8790     0.8110    -2.1010 H     1 <1>   0.0800 
 33 H       -5.5670     2.3880    -2.2970 H     1 <1>   0.0800 
 34 H       -4.7100     4.2480    -1.2810 H     1 <1>   0.0800 
 35 H       -2.9910     4.3290    -1.0160 H     1 <1>   0.0800 
 36 H       -5.6980     0.5480     0.0820 H     1 <1>   0.0800 
 37 H       -7.0070     1.2090    -0.8310 H     1 <1>   0.0800 
 38 H       -4.5080     4.8460     0.9760 H     1 <1>   0.0800 
 39 H       -3.1280     3.8540     1.2210 H     1 <1>   0.0800 
 40 H       -6.5230     3.4120     0.1890 H     1 <1>   0.4500 
 41 H       -5.2080     3.1300     2.4030 H     1 <1>   0.0800 
 42 H       -4.3920     1.8870     1.5050 H     1 <1>   0.0800 
 43 H       -7.0300     1.2260     2.1060 H     1 <1>   0.0800 
 44 H       -8.2240     1.9730     1.0640 H     1 <1>   0.0800 
 45 H       -7.4540     2.9100     2.3220 H     1 <1>   0.0800 
@<TRIPOS>BOND
  1   1   2  1   
  2   1   3  1   
  3   2   4  ar  
  4   2   5  ar  
  5   3  20  1   
  6   3  21  1   
  7   3  22  1   
  8   4   6  1   
  9   4   7  ar  
 10   5   8  ar  
 11   5   9  1   
 12   6  10  1   
 13   7  11  ar  
 14   7  23  1   
 15   8  11  ar  
 16   8  24  1   
 17   9  12  1   
 18   9  25  1   
 19   9  26  1   
 20  10  27  1   
 21  10  28  1   
 22  10  29  1   
 23  11  30  1   
 24  12  13  1   
 25  12  14  1   
 26  12  31  1   
 27  13  15  1   
 28  13  32  1   
 29  13  33  1   
 30  14  16  1   
 31  14  34  1   
 32  14  35  1   
 33  15  17  1   
 34  15  36  1   
 35  15  37  1   
 36  16  18  1   
 37  16  38  1   
 38  16  39  1   
 39  17  18  1   
 40  17  19  1   
 41  17  40  1   
 42  18  41  1   
 43  18  42  1   
 44  19  43  1   
 45  19  44  1   
 46  19  45  1   
@<TRIPOS>SUBSTRUCTURE
  1 ****   2 GROUP 4 **** **** 0

# MOE 2024.06 (io_trps.svl 2023.06)
