@<TRIPOS>MOLECULE
NONAME
54 58 1 0 0 
SMALL
USER_CHARGES


@<TRIPOS>ATOM
  1 CL      -2.8800    -3.3300     2.1610 Cl    1 <1>  -0.1770 
  2 C       -1.6760    -3.0050     0.9330 C.ar  1 <1>   0.1770 
  3 C       -1.9960    -2.2560    -0.1930 C.ar  1 <1>  -0.1440 
  4 C       -0.4100    -3.5300     1.1150 C.ar  1 <1>  -0.1500 
  5 C       -1.0120    -2.0490    -1.1490 C.ar  1 <1>  -0.1500 
  6 C       -3.3810    -1.6630    -0.4060 C.3   1 <1>   0.2540 
  7 C        0.5630    -3.3110     0.1560 C.ar  1 <1>  -0.1500 
  8 C        0.2590    -2.5720    -0.9760 C.ar  1 <1>  -0.1500 
  9 N       -4.1010    -2.3320    -1.5150 N.3   1 <1>  -0.8100 
 10 C       -4.1640    -3.8070    -1.4140 C.3   1 <1>   0.1100 
 11 C       -5.4460    -1.7650    -1.7300 C.3   1 <1>   0.1100 
 12 C       -5.1450    -4.2880    -0.3270 C.3   1 <1>   0.3430 
 13 C       -6.4670    -2.2230    -0.6630 C.3   1 <1>   0.3430 
 14 N       -6.5300    -3.7230    -0.5230 N.4   1 <1>  -0.9590 
 15 C       -7.4970    -4.1760     0.5350 C.3   1 <1>   0.4230 
 16 C       -7.5770    -5.7260     0.5990 C.3   1 <1>  -0.0800 
 17 C       -8.9240    -3.6260     0.2630 C.3   1 <1>  -0.0800 
 18 C       -8.1320    -6.2990    -0.7260 C.3   1 <1>  -0.1600 
 19 C       -8.5210    -6.1390     1.7460 C.3   1 <1>  -0.1600 
 20 C       -9.4830    -4.1920    -1.0630 C.3   1 <1>  -0.1600 
 21 C       -9.8610    -4.0510     1.4120 C.3   1 <1>  -0.1600 
 22 C       -9.5400    -5.7310    -0.9940 C.3   1 <1>  -0.0800 
 23 C       -9.9330    -5.5840     1.4970 C.3   1 <1>  -0.0800 
 24 C      -10.4680    -6.1410     0.1650 C.3   1 <1>  -0.1600 
 25 H       -0.1870    -4.1030     1.9980 H     1 <1>   0.1500 
 26 H       -1.2370    -1.4800    -2.0350 H     1 <1>   0.1500 
 27 H       -3.2620    -0.6210    -0.6500 H     1 <1>   0.0800 
 28 H       -3.9590    -1.7130     0.4990 H     1 <1>   0.0800 
 29 H        1.5540    -3.7140     0.2870 H     1 <1>   0.1500 
 30 H        1.0150    -2.4030    -1.7240 H     1 <1>   0.1500 
 31 H       -3.1860    -4.2130    -1.2230 H     1 <1>   0.0800 
 32 H       -4.4770    -4.2040    -2.3640 H     1 <1>   0.0800 
 33 H       -5.7980    -2.0660    -2.7020 H     1 <1>   0.0800 
 34 H       -5.3870    -0.6900    -1.7360 H     1 <1>   0.0800 
 35 H       -4.7660    -3.9950     0.6370 H     1 <1>   0.0800 
 36 H       -5.1760    -5.3630    -0.3570 H     1 <1>   0.0800 
 37 H       -7.4350    -1.8390    -0.9390 H     1 <1>   0.0800 
 38 H       -6.1970    -1.7840     0.2830 H     1 <1>   0.0800 
 39 H       -6.8880    -4.1000    -1.4070 H     1 <1>   0.4500 
 40 H       -7.1650    -3.8110     1.4930 H     1 <1>   0.0800 
 41 H       -6.6160    -6.1550     0.8150 H     1 <1>   0.0800 
 42 H       -8.9270    -2.5520     0.2380 H     1 <1>   0.0800 
 43 H       -7.4810    -6.0720    -1.5510 H     1 <1>   0.0800 
 44 H       -8.1910    -7.3720    -0.6580 H     1 <1>   0.0800 
 45 H       -8.1460    -5.7730     2.6870 H     1 <1>   0.0800 
 46 H       -8.5650    -7.2140     1.8160 H     1 <1>   0.0800 
 47 H       -8.8850    -3.8840    -1.9010 H     1 <1>   0.0800 
 48 H      -10.4760    -3.8080    -1.2290 H     1 <1>   0.0800 
 49 H      -10.8480    -3.6540     1.2460 H     1 <1>   0.0800 
 50 H       -9.5080    -3.6510     2.3480 H     1 <1>   0.0800 
 51 H       -9.9250    -6.1260    -1.9190 H     1 <1>   0.0800 
 52 H      -10.5890    -5.8760     2.3010 H     1 <1>   0.0800 
 53 H      -10.5340    -7.2140     0.2180 H     1 <1>   0.0800 
 54 H      -11.4620    -5.7670    -0.0130 H     1 <1>   0.0800 
@<TRIPOS>BOND
  1   1   2  1   
  2   2   3  ar  
  3   2   4  ar  
  4   3   5  ar  
  5   3   6  1   
  6   4   7  ar  
  7   4  25  1   
  8   5   8  ar  
  9   5  26  1   
 10   6   9  1   
 11   6  27  1   
 12   6  28  1   
 13   7   8  ar  
 14   7  29  1   
 15   8  30  1   
 16   9  10  1   
 17   9  11  1   
 18  10  12  1   
 19  10  31  1   
 20  10  32  1   
 21  11  13  1   
 22  11  33  1   
 23  11  34  1   
 24  12  14  1   
 25  12  35  1   
 26  12  36  1   
 27  13  14  1   
 28  13  37  1   
 29  13  38  1   
 30  14  15  1   
 31  14  39  1   
 32  15  16  1   
 33  15  17  1   
 34  15  40  1   
 35  16  18  1   
 36  16  19  1   
 37  16  41  1   
 38  17  20  1   
 39  17  21  1   
 40  17  42  1   
 41  18  22  1   
 42  18  43  1   
 43  18  44  1   
 44  19  23  1   
 45  19  45  1   
 46  19  46  1   
 47  20  22  1   
 48  20  47  1   
 49  20  48  1   
 50  21  23  1   
 51  21  49  1   
 52  21  50  1   
 53  22  24  1   
 54  22  51  1   
 55  23  24  1   
 56  23  52  1   
 57  24  53  1   
 58  24  54  1   
@<TRIPOS>SUBSTRUCTURE
  1 ****  12 GROUP 4 **** **** 0

# MOE 2024.06 (io_trps.svl 2023.06)
