@<TRIPOS>MOLECULE
NONAME
41 42 1 0 0 
SMALL
USER_CHARGES


@<TRIPOS>ATOM
  1 S       -0.2120     0.0930    -0.1540 S.o2  1 <1>   1.3330 
  2 O        0.2980     0.1920     1.1960 O.2   1 <1>  -0.6500 
  3 O       -0.5390     1.2920    -0.8920 O.2   1 <1>  -0.6500 
  4 N       -1.5970    -0.8860    -0.1070 N.am  1 <1>  -0.8490 
  5 C        0.9280    -0.8750    -1.1550 C.3   1 <1>  -0.0550 
  6 C       -2.8140    -0.0880     0.1280 C.3   1 <1>   0.1960 
  7 C       -1.4900    -1.9520     0.8960 C.3   1 <1>   0.1960 
  8 C        2.2960    -0.2080    -1.3840 C.3   1 <1>  -0.2400 
  9 C       -4.0680    -0.9620    -0.0230 C.3   1 <1>  -0.0190 
 10 C       -2.6790    -2.9120     0.7720 C.3   1 <1>  -0.1600 
 11 C       -5.3250    -0.1340     0.2090 C.2   1 <1>   0.5690 
 12 C       -4.0120    -2.1690     0.9330 C.3   1 <1>  -0.1600 
 13 O       -5.3760     0.5780     1.1810 O.2   1 <1>  -0.5700 
 14 N       -6.3480    -0.2640    -0.6920 N.am  1 <1>  -0.5470 
 15 C       -7.6150     0.3410    -0.7490 C.ar  1 <1>   0.1170 
 16 C       -7.9240     1.5350    -0.1060 C.ar  1 <1>  -0.1500 
 17 C       -8.6090    -0.2800    -1.5010 C.ar  1 <1>  -0.1500 
 18 C       -9.1900     2.0830    -0.2130 C.ar  1 <1>   0.0820 
 19 C       -9.8760     0.2680    -1.6070 C.ar  1 <1>  -0.1500 
 20 O       -9.4650     3.2360     0.4160 O.3   1 <1>  -0.5330 
 21 C      -10.1720     1.4550    -0.9610 C.ar  1 <1>  -0.1500 
 22 H        0.4740    -1.0590    -2.1090 H     1 <1>   0.0800 
 23 H        1.0890    -1.8250    -0.6840 H     1 <1>   0.0800 
 24 H       -2.8740     0.7140    -0.5890 H     1 <1>   0.0800 
 25 H       -2.7790     0.3510     1.1130 H     1 <1>   0.0800 
 26 H       -1.4680    -1.5250     1.8870 H     1 <1>   0.0800 
 27 H       -0.5770    -2.5040     0.7510 H     1 <1>   0.0800 
 28 H        2.1670     0.7360    -1.8840 H     1 <1>   0.0800 
 29 H        2.9230    -0.8390    -1.9890 H     1 <1>   0.0800 
 30 H        2.7850    -0.0330    -0.4410 H     1 <1>   0.0800 
 31 H       -4.0810    -1.3230    -1.0350 H     1 <1>   0.0800 
 32 H       -2.5990    -3.6750     1.5260 H     1 <1>   0.0800 
 33 H       -2.6390    -3.3930    -0.1890 H     1 <1>   0.0800 
 34 H       -4.8330    -2.8360     0.7380 H     1 <1>   0.0800 
 35 H       -4.1020    -1.8190     1.9480 H     1 <1>   0.0800 
 36 H       -6.1830    -0.9460    -1.4280 H     1 <1>   0.3700 
 37 H       -7.1870     2.0520     0.4790 H     1 <1>   0.1500 
 38 H       -8.3960    -1.2030    -2.0070 H     1 <1>   0.1500 
 39 H      -10.6310    -0.2290    -2.1910 H     1 <1>   0.1500 
 40 H      -10.3850     3.5290     0.2960 H     1 <1>   0.4500 
 41 H      -11.1560     1.8800    -1.0430 H     1 <1>   0.1500 
@<TRIPOS>BOND
  1   1   2  2   
  2   1   3  2   
  3   1   4  am  
  4   1   5  1   
  5   4   6  1   
  6   4   7  1   
  7   5   8  1   
  8   5  22  1   
  9   5  23  1   
 10   6   9  1   
 11   6  24  1   
 12   6  25  1   
 13   7  10  1   
 14   7  26  1   
 15   7  27  1   
 16   8  28  1   
 17   8  29  1   
 18   8  30  1   
 19   9  11  1   
 20   9  12  1   
 21   9  31  1   
 22  10  12  1   
 23  10  32  1   
 24  10  33  1   
 25  11  13  2   
 26  11  14  am  
 27  12  34  1   
 28  12  35  1   
 29  14  15  1   
 30  14  36  1   
 31  15  16  ar  
 32  15  17  ar  
 33  16  18  ar  
 34  16  37  1   
 35  17  19  ar  
 36  17  38  1   
 37  18  20  1   
 38  18  21  ar  
 39  19  21  ar  
 40  19  39  1   
 41  20  40  1   
 42  21  41  1   
@<TRIPOS>SUBSTRUCTURE
  1 ****  11 GROUP 4 **** **** 0

# MOE 2024.06 (io_trps.svl 2023.06)
