@<TRIPOS>MOLECULE
NONAME
55 57 1 0 0 
SMALL
USER_CHARGES


@<TRIPOS>ATOM
  1 O       -0.4650    -2.1470    -1.9370 O.2   1 <1>  -0.5700 
  2 C        0.1270    -2.0520    -0.8800 C.2   1 <1>   0.6340 
  3 O       -0.5150    -1.5300     0.1700 O.3   1 <1>  -0.4300 
  4 C        1.5010    -2.4760    -0.6960 C.ar  1 <1>   0.0860 
  5 C       -1.8520    -1.0940     0.0750 C.3   1 <1>   0.1200 
  6 C        2.2320    -3.0350    -1.7470 C.ar  1 <1>  -0.1500 
  7 C        2.1640    -2.3470     0.5280 C.ar  1 <1>  -0.1500 
  8 C       -2.2730    -0.5590     1.4410 C.3   1 <1>  -0.2400 
  9 C        3.5420    -3.4400    -1.5880 C.ar  1 <1>  -0.1500 
 10 C        3.4740    -2.7530     0.6900 C.ar  1 <1>  -0.1500 
 11 C        4.1900    -3.3100    -0.3630 C.ar  1 <1>   0.1170 
 12 N        5.5180    -3.6910    -0.1500 N.am  1 <1>  -0.5470 
 13 C        6.3420    -4.5370    -0.8510 C.2   1 <1>   0.5690 
 14 O        5.9650    -5.1970    -1.7890 O.2   1 <1>  -0.5700 
 15 C        7.7910    -4.7010    -0.3710 C.3   1 <1>   0.1710 
 16 N        8.7310    -3.5910    -0.7050 N.3   1 <1>  -0.8100 
 17 C        8.4530    -2.3250     0.0110 C.3   1 <1>   0.1100 
 18 C       10.1290    -4.0220    -0.4830 C.3   1 <1>   0.1100 
 19 C        9.4440    -1.2090    -0.3710 C.3   1 <1>   0.1400 
 20 C       11.1420    -2.9390    -0.8880 C.3   1 <1>   0.1400 
 21 N       10.8550    -1.6590    -0.1790 N.am  1 <1>  -0.6600 
 22 C       11.8280    -0.9710     0.5130 C.2   1 <1>   0.5690 
 23 O       12.9500    -1.4220     0.5970 O.2   1 <1>  -0.5700 
 24 C       11.5090     0.3730     1.2210 C.3   1 <1>   0.2610 
 25 O       11.0450     1.3380     0.3130 O.3   1 <1>  -0.5600 
 26 C       12.6980     1.0770     1.8780 C.3   1 <1>  -0.1600 
 27 C       12.1250     1.9970    -0.2670 C.3   1 <1>   0.1200 
 28 C       13.2570     1.9410     0.7570 C.3   1 <1>  -0.1600 
 29 H       -2.4640    -1.9300    -0.2180 H     1 <1>   0.0800 
 30 H       -1.9080    -0.3240    -0.6760 H     1 <1>   0.0800 
 31 H        1.7580    -3.1520    -2.7080 H     1 <1>   0.1500 
 32 H        1.6400    -1.9230     1.3680 H     1 <1>   0.1500 
 33 H       -2.2030    -1.3360     2.1810 H     1 <1>   0.0800 
 34 H       -3.2920    -0.2180     1.3970 H     1 <1>   0.0800 
 35 H       -1.6470     0.2680     1.7240 H     1 <1>   0.0800 
 36 H        4.0630    -3.8590    -2.4300 H     1 <1>   0.1500 
 37 H        3.9440    -2.6390     1.6500 H     1 <1>   0.1500 
 38 H        5.9540    -3.2710     0.6660 H     1 <1>   0.3700 
 39 H        8.1580    -5.6030    -0.8280 H     1 <1>   0.0800 
 40 H        7.7890    -4.8620     0.6920 H     1 <1>   0.0800 
 41 H        8.5040    -2.4870     1.0740 H     1 <1>   0.0800 
 42 H        7.4670    -1.9800    -0.2380 H     1 <1>   0.0800 
 43 H       10.3270    -4.9050    -1.0660 H     1 <1>   0.0800 
 44 H       10.2790    -4.2660     0.5550 H     1 <1>   0.0800 
 45 H        9.2280    -0.3380     0.2180 H     1 <1>   0.0800 
 46 H        9.2990    -0.9490    -1.4050 H     1 <1>   0.0800 
 47 H       11.0800    -2.7760    -1.9500 H     1 <1>   0.0800 
 48 H       12.1360    -3.2840    -0.6640 H     1 <1>   0.0800 
 49 H       10.7360     0.1990     1.9460 H     1 <1>   0.0800 
 50 H       13.4240     0.3920     2.2800 H     1 <1>   0.0800 
 51 H       12.3330     1.7000     2.6750 H     1 <1>   0.0800 
 52 H       11.8310     3.0070    -0.4960 H     1 <1>   0.0800 
 53 H       12.3920     1.4750    -1.1700 H     1 <1>   0.0800 
 54 H       14.1210     1.4790     0.3120 H     1 <1>   0.0800 
 55 H       13.5210     2.9230     1.1050 H     1 <1>   0.0800 
@<TRIPOS>BOND
  1   1   2  2   
  2   2   3  1   
  3   2   4  1   
  4   3   5  1   
  5   4   6  ar  
  6   4   7  ar  
  7   5   8  1   
  8   5  29  1   
  9   5  30  1   
 10   6   9  ar  
 11   6  31  1   
 12   7  10  ar  
 13   7  32  1   
 14   8  33  1   
 15   8  34  1   
 16   8  35  1   
 17   9  11  ar  
 18   9  36  1   
 19  10  11  ar  
 20  10  37  1   
 21  11  12  1   
 22  12  13  am  
 23  12  38  1   
 24  13  14  2   
 25  13  15  1   
 26  15  16  1   
 27  15  39  1   
 28  15  40  1   
 29  16  17  1   
 30  16  18  1   
 31  17  19  1   
 32  17  41  1   
 33  17  42  1   
 34  18  20  1   
 35  18  43  1   
 36  18  44  1   
 37  19  21  1   
 38  19  45  1   
 39  19  46  1   
 40  20  21  1   
 41  20  47  1   
 42  20  48  1   
 43  21  22  am  
 44  22  23  2   
 45  22  24  1   
 46  24  25  1   
 47  24  26  1   
 48  24  49  1   
 49  25  27  1   
 50  26  28  1   
 51  26  50  1   
 52  26  51  1   
 53  27  28  1   
 54  27  52  1   
 55  27  53  1   
 56  28  54  1   
 57  28  55  1   
@<TRIPOS>SUBSTRUCTURE
  1 ****  17 GROUP 4 **** **** 0

# MOE 2024.06 (io_trps.svl 2023.06)
