@<TRIPOS>MOLECULE
NONAME
37 37 1 0 0 
SMALL
USER_CHARGES


@<TRIPOS>ATOM
  1 CL       0.2120    -0.1530     0.2400 Cl    1 <1>  -0.1770 
  2 C        0.5530     1.5580     0.2030 C.ar  1 <1>   0.1770 
  3 C        1.8680     1.9800     0.1680 C.ar  1 <1>  -0.1500 
  4 C       -0.4990     2.4560     0.2110 C.ar  1 <1>  -0.1500 
  5 C        2.1390     3.3450     0.1390 C.ar  1 <1>   0.0830 
  6 C       -0.2270     3.8130     0.1820 C.ar  1 <1>  -0.1500 
  7 O        3.3920     3.8650     0.1030 O.3   1 <1>  -0.3630 
  8 C        1.0870     4.2510     0.1460 C.ar  1 <1>  -0.1500 
  9 C        4.5300     3.0410     0.0920 C.3   1 <1>   0.1200 
 10 C        5.7490     3.9620     0.0500 C.3   1 <1>  -0.1600 
 11 C        7.0440     3.1590     0.0350 C.3   1 <1>   0.3430 
 12 N        8.1920     4.1030    -0.0060 N.4   1 <1>  -0.9060 
 13 C        9.5340     3.5170    -0.0260 C.3   1 <1>   0.5030 
 14 C       10.5110     4.6880    -0.0660 C.3   1 <1>  -0.2400 
 15 C        9.7040     2.6550    -1.2760 C.3   1 <1>  -0.2400 
 16 C        9.7590     2.6970     1.2440 C.3   1 <1>  -0.2400 
 17 H        2.6400     1.2370     0.1640 H     1 <1>   0.1500 
 18 H       -1.5110     2.0950     0.2390 H     1 <1>   0.1500 
 19 H       -1.0340     4.5260     0.1870 H     1 <1>   0.1500 
 20 H        1.3030     5.3040     0.1240 H     1 <1>   0.1500 
 21 H        4.4820     2.4120    -0.7820 H     1 <1>   0.0800 
 22 H        4.5200     2.4420     0.9880 H     1 <1>   0.0800 
 23 H        5.7240     4.5960     0.9190 H     1 <1>   0.0800 
 24 H        5.6850     4.5670    -0.8380 H     1 <1>   0.0800 
 25 H        7.0610     2.5160    -0.8310 H     1 <1>   0.0800 
 26 H        7.0990     2.5450     0.9200 H     1 <1>   0.0800 
 27 H        8.1430     4.7270     0.8050 H     1 <1>   0.4500 
 28 H        8.1070     4.7000    -0.8340 H     1 <1>   0.4500 
 29 H       10.3690     5.2840    -0.9510 H     1 <1>   0.0800 
 30 H       11.5220     4.3200    -0.0830 H     1 <1>   0.0800 
 31 H       10.4070     5.3130     0.8030 H     1 <1>   0.0800 
 32 H        9.4980     3.2190    -2.1680 H     1 <1>   0.0800 
 33 H        9.0720     1.7860    -1.2480 H     1 <1>   0.0800 
 34 H       10.7200     2.3060    -1.3380 H     1 <1>   0.0800 
 35 H        9.5920     3.2910     2.1250 H     1 <1>   0.0800 
 36 H       10.7780     2.3490     1.2730 H     1 <1>   0.0800 
 37 H        9.1280     1.8280     1.2740 H     1 <1>   0.0800 
@<TRIPOS>BOND
  1   1   2  1   
  2   2   3  ar  
  3   2   4  ar  
  4   3   5  ar  
  5   3  17  1   
  6   4   6  ar  
  7   4  18  1   
  8   5   7  1   
  9   5   8  ar  
 10   6   8  ar  
 11   6  19  1   
 12   7   9  1   
 13   8  20  1   
 14   9  10  1   
 15   9  21  1   
 16   9  22  1   
 17  10  11  1   
 18  10  23  1   
 19  10  24  1   
 20  11  12  1   
 21  11  25  1   
 22  11  26  1   
 23  12  13  1   
 24  12  27  1   
 25  12  28  1   
 26  13  14  1   
 27  13  15  1   
 28  13  16  1   
 29  14  29  1   
 30  14  30  1   
 31  14  31  1   
 32  15  32  1   
 33  15  33  1   
 34  15  34  1   
 35  16  35  1   
 36  16  36  1   
 37  16  37  1   
@<TRIPOS>SUBSTRUCTURE
  1 ****   9 GROUP 4 **** **** 0

# MOE 2024.06 (io_trps.svl 2023.06)
