@<TRIPOS>MOLECULE
NONAME
40 41 1 0 0 
SMALL
USER_CHARGES


@<TRIPOS>ATOM
  1 CL       0.1750    -0.0410    -0.8720 Cl    1 <1>  -0.1770 
  2 C        0.9400    -1.5620    -0.4630 C.ar  1 <1>   0.1770 
  3 C        0.1850    -2.6170     0.0360 C.ar  1 <1>   0.0830 
  4 C        2.3030    -1.6730    -0.6530 C.ar  1 <1>  -0.1500 
  5 O       -1.1570    -2.4350     0.1980 O.3   1 <1>  -0.3630 
  6 C        0.8390    -3.8070     0.3440 C.ar  1 <1>  -0.1500 
  7 C        2.9590    -2.8570    -0.3440 C.ar  1 <1>   0.1170 
  8 C       -1.9730    -3.4510     0.7370 C.3   1 <1>   0.0400 
  9 C        2.2060    -3.9190     0.1520 C.ar  1 <1>  -0.1500 
 10 N        4.3460    -2.9350    -0.5600 N.am  1 <1>  -0.5470 
 11 C        5.2930    -3.7450     0.0060 C.2   1 <1>   0.5690 
 12 O        5.0420    -4.5570     0.8630 O.2   1 <1>  -0.5700 
 13 C        6.7360    -3.5780    -0.4730 C.3   1 <1>  -0.0190 
 14 C        7.5330    -4.8990    -0.4290 C.3   1 <1>  -0.1600 
 15 C        7.4670    -2.4980     0.3460 C.3   1 <1>  -0.1600 
 16 C        8.9820    -4.7020    -0.8810 C.3   1 <1>   0.1400 
 17 C        8.9190    -2.3240    -0.1090 C.3   1 <1>   0.1400 
 18 N        9.6180    -3.6380    -0.0560 N.am  1 <1>  -0.6600 
 19 C       10.7340    -3.8070     0.7250 C.2   1 <1>   0.5690 
 20 O       11.2260    -2.8990     1.3510 O.2   1 <1>  -0.5700 
 21 C       11.4030    -5.1570     0.8350 C.3   1 <1>  -0.1790 
 22 H        2.8440    -0.8300    -1.0380 H     1 <1>   0.1500 
 23 H        0.3070    -4.6550     0.7310 H     1 <1>   0.1500 
 24 H       -2.9800    -3.0780     0.7860 H     1 <1>   0.0800 
 25 H       -1.6250    -3.6920     1.7260 H     1 <1>   0.0800 
 26 H       -1.9330    -4.3110     0.0930 H     1 <1>   0.0800 
 27 H        2.6880    -4.8500     0.3920 H     1 <1>   0.1500 
 28 H        4.7090    -2.2380    -1.2060 H     1 <1>   0.3700 
 29 H        6.7050    -3.2570    -1.4990 H     1 <1>   0.0800 
 30 H        7.0580    -5.6290    -1.0590 H     1 <1>   0.0800 
 31 H        7.5370    -5.2900     0.5750 H     1 <1>   0.0800 
 32 H        7.4630    -2.7710     1.3880 H     1 <1>   0.0800 
 33 H        6.9550    -1.5570     0.2560 H     1 <1>   0.0800 
 34 H        9.0060    -4.4020    -1.9150 H     1 <1>   0.0800 
 35 H        9.5110    -5.6340    -0.7970 H     1 <1>   0.0800 
 36 H        9.4080    -1.6050     0.5250 H     1 <1>   0.0800 
 37 H        8.9510    -1.9510    -1.1180 H     1 <1>   0.0800 
 38 H       11.7640    -5.4650    -0.1280 H     1 <1>   0.0800 
 39 H       10.7060    -5.8790     1.2160 H     1 <1>   0.0800 
 40 H       12.2350    -5.0940     1.5110 H     1 <1>   0.0800 
@<TRIPOS>BOND
  1   1   2  1   
  2   2   3  ar  
  3   2   4  ar  
  4   3   5  1   
  5   3   6  ar  
  6   4   7  ar  
  7   4  22  1   
  8   5   8  1   
  9   6   9  ar  
 10   6  23  1   
 11   7   9  ar  
 12   7  10  1   
 13   8  24  1   
 14   8  25  1   
 15   8  26  1   
 16   9  27  1   
 17  10  11  am  
 18  10  28  1   
 19  11  12  2   
 20  11  13  1   
 21  13  14  1   
 22  13  15  1   
 23  13  29  1   
 24  14  16  1   
 25  14  30  1   
 26  14  31  1   
 27  15  17  1   
 28  15  32  1   
 29  15  33  1   
 30  16  18  1   
 31  16  34  1   
 32  16  35  1   
 33  17  18  1   
 34  17  36  1   
 35  17  37  1   
 36  18  19  am  
 37  19  20  2   
 38  19  21  1   
 39  21  38  1   
 40  21  39  1   
 41  21  40  1   
@<TRIPOS>SUBSTRUCTURE
  1 ****  11 GROUP 4 **** **** 0

# MOE 2024.06 (io_trps.svl 2023.06)
