@<TRIPOS>MOLECULE
NONAME
39 40 1 0 0 
SMALL
USER_CHARGES


@<TRIPOS>ATOM
  1 F       -0.8180     1.0560     2.6200 F     1 <1>  -0.1900 
  2 C       -1.2730     1.7610     1.6190 C.ar  1 <1>   0.1900 
  3 C       -2.6300     1.7870     1.3820 C.ar  1 <1>  -0.1500 
  4 C       -0.3720     2.4510     0.8340 C.ar  1 <1>  -0.1500 
  5 C       -3.1250     2.5340     0.3170 C.ar  1 <1>   0.1170 
  6 C       -0.8590     3.1930    -0.2280 C.ar  1 <1>  -0.1500 
  7 N       -4.4980     2.5780     0.0220 N.am  1 <1>  -0.5470 
  8 C       -2.2220     3.2380    -0.4900 C.ar  1 <1>  -0.1430 
  9 C       -5.5970     2.3800     0.8140 C.2   1 <1>   0.5690 
 10 C       -2.7060     4.0760    -1.6690 C.3   1 <1>  -0.0960 
 11 O       -5.5290     2.1560     1.9970 O.2   1 <1>  -0.5700 
 12 C       -6.9670     2.4600     0.1360 C.3   1 <1>  -0.0190 
 13 C       -8.1080     2.7820     1.1230 C.3   1 <1>  -0.1600 
 14 C       -7.2820     1.1560    -0.6210 C.3   1 <1>  -0.1600 
 15 C       -9.4690     2.8240     0.4240 C.3   1 <1>   0.1400 
 16 C       -8.6530     1.2110    -1.3020 C.3   1 <1>   0.1400 
 17 N       -9.6960     1.5390    -0.2920 N.am  1 <1>  -0.6600 
 18 C      -10.7420     0.6810    -0.0600 C.2   1 <1>   0.5690 
 19 O      -10.8910    -0.3390    -0.6900 O.2   1 <1>  -0.5700 
 20 C      -11.7650     0.9810     1.0110 C.3   1 <1>  -0.1790 
 21 H       -3.2840     1.2250     2.0220 H     1 <1>   0.1500 
 22 H        0.6800     2.4060     1.0510 H     1 <1>   0.1500 
 23 H       -0.1640     3.7350    -0.8460 H     1 <1>   0.1500 
 24 H       -4.7000     2.8340    -0.9400 H     1 <1>   0.3700 
 25 H       -3.4300     4.7990    -1.3370 H     1 <1>   0.0800 
 26 H       -3.1500     3.4430    -2.4160 H     1 <1>   0.0800 
 27 H       -1.8900     4.6090    -2.1230 H     1 <1>   0.0800 
 28 H       -6.9250     3.2620    -0.5800 H     1 <1>   0.0800 
 29 H       -7.9200     3.7300     1.5960 H     1 <1>   0.0800 
 30 H       -8.1430     2.0350     1.8980 H     1 <1>   0.0800 
 31 H       -7.2730     0.3270     0.0680 H     1 <1>   0.0800 
 32 H       -6.5290     0.9670    -1.3640 H     1 <1>   0.0800 
 33 H       -9.4890     3.6290    -0.2910 H     1 <1>   0.0800 
 34 H      -10.2380     3.0110     1.1510 H     1 <1>   0.0800 
 35 H       -8.8580     0.2620    -1.7690 H     1 <1>   0.0800 
 36 H       -8.6580     1.9650    -2.0690 H     1 <1>   0.0800 
 37 H      -12.2790     1.8940     0.7780 H     1 <1>   0.0800 
 38 H      -11.2800     1.0640     1.9650 H     1 <1>   0.0800 
 39 H      -12.4830     0.1840     1.0580 H     1 <1>   0.0800 
@<TRIPOS>BOND
  1   1   2  1   
  2   2   3  ar  
  3   2   4  ar  
  4   3   5  ar  
  5   3  21  1   
  6   4   6  ar  
  7   4  22  1   
  8   5   7  1   
  9   5   8  ar  
 10   6   8  ar  
 11   6  23  1   
 12   7   9  am  
 13   7  24  1   
 14   8  10  1   
 15   9  11  2   
 16   9  12  1   
 17  10  25  1   
 18  10  26  1   
 19  10  27  1   
 20  12  13  1   
 21  12  14  1   
 22  12  28  1   
 23  13  15  1   
 24  13  29  1   
 25  13  30  1   
 26  14  16  1   
 27  14  31  1   
 28  14  32  1   
 29  15  17  1   
 30  15  33  1   
 31  15  34  1   
 32  16  17  1   
 33  16  35  1   
 34  16  36  1   
 35  17  18  am  
 36  18  19  2   
 37  18  20  1   
 38  20  37  1   
 39  20  38  1   
 40  20  39  1   
@<TRIPOS>SUBSTRUCTURE
  1 ****   9 GROUP 4 **** **** 0

# MOE 2024.06 (io_trps.svl 2023.06)
