@<TRIPOS>MOLECULE
NONAME
40 40 1 0 0 
SMALL
USER_CHARGES


@<TRIPOS>ATOM
  1 F       -0.0940     1.1890     0.8750 F     1 <1>  -0.3400 
  2 C        0.8230     1.9170     0.2350 C.3   1 <1>   0.6800 
  3 F        0.5690     1.6990    -1.0560 F     1 <1>  -0.3400 
  4 C        0.6370     3.4110     0.6010 C.3   1 <1>   0.6000 
  5 C        2.2210     1.3720     0.5770 C.3   1 <1>   0.1200 
  6 F       -0.5170     3.9140     0.1620 F     1 <1>  -0.3400 
  7 F        1.5740     4.1680     0.0310 F     1 <1>  -0.3400 
  8 O        2.3530    -0.0170     0.3060 O.3   1 <1>  -0.4300 
  9 C        3.4110    -0.6970     0.7220 C.2   1 <1>   0.6590 
 10 O        4.2610    -0.1880     1.4060 O.2   1 <1>  -0.5700 
 11 C        3.4810    -2.1530     0.3050 C.3   1 <1>  -0.0990 
 12 C        4.8940    -2.5590    -0.1580 C.3   1 <1>  -0.0990 
 13 C        5.3890    -1.6980    -1.3120 C.2   1 <1>   0.5690 
 14 O        4.6270    -1.4420    -2.2080 O.2   1 <1>  -0.5700 
 15 N        6.6510    -1.2170    -1.3650 N.am  1 <1>  -0.7300 
 16 C        7.7800    -1.4020    -0.4390 C.3   1 <1>   0.2200 
 17 C        7.8410    -0.2090     0.5190 C.3   1 <1>  -0.1600 
 18 C        9.0690    -1.5220    -1.2570 C.3   1 <1>  -0.1600 
 19 C        9.0680    -0.2970     1.4390 C.3   1 <1>  -0.1600 
 20 C       10.2990    -1.6180    -0.3420 C.3   1 <1>  -0.1600 
 21 C       10.3630    -0.4280     0.6260 C.3   1 <1>  -0.1600 
 22 H        0.6890     3.5810     1.6600 H     1 <1>   0.0800 
 23 H        2.4200     1.5330     1.6210 H     1 <1>   0.0800 
 24 H        2.9670     1.8940     0.0040 H     1 <1>   0.0800 
 25 H        2.7820    -2.3170    -0.4950 H     1 <1>   0.0800 
 26 H        3.1830    -2.7600     1.1390 H     1 <1>   0.0800 
 27 H        4.8840    -3.5820    -0.4830 H     1 <1>   0.0800 
 28 H        5.5590    -2.4790     0.6800 H     1 <1>   0.0800 
 29 H        6.8470    -0.6130    -2.1640 H     1 <1>   0.3700 
 30 H        7.6490    -2.3080     0.1270 H     1 <1>   0.0800 
 31 H        6.9500    -0.1830     1.1210 H     1 <1>   0.0800 
 32 H        7.8920     0.7050    -0.0470 H     1 <1>   0.0800 
 33 H        9.1750    -0.6590    -1.8910 H     1 <1>   0.0800 
 34 H        9.0190    -2.3990    -1.8780 H     1 <1>   0.0800 
 35 H        8.9670    -1.1500     2.0880 H     1 <1>   0.0800 
 36 H        9.1180     0.5830     2.0580 H     1 <1>   0.0800 
 37 H       11.1940    -1.6440    -0.9400 H     1 <1>   0.0800 
 38 H       10.2540    -2.5340     0.2230 H     1 <1>   0.0800 
 39 H       11.1980    -0.5510     1.2940 H     1 <1>   0.0800 
 40 H       10.5240     0.4780     0.0650 H     1 <1>   0.0800 
@<TRIPOS>BOND
  1   1   2  1   
  2   2   3  1   
  3   2   4  1   
  4   2   5  1   
  5   4   6  1   
  6   4   7  1   
  7   4  22  1   
  8   5   8  1   
  9   5  23  1   
 10   5  24  1   
 11   8   9  1   
 12   9  10  2   
 13   9  11  1   
 14  11  12  1   
 15  11  25  1   
 16  11  26  1   
 17  12  13  1   
 18  12  27  1   
 19  12  28  1   
 20  13  14  2   
 21  13  15  am  
 22  15  16  1   
 23  15  29  1   
 24  16  17  1   
 25  16  18  1   
 26  16  30  1   
 27  17  19  1   
 28  17  31  1   
 29  17  32  1   
 30  18  20  1   
 31  18  33  1   
 32  18  34  1   
 33  19  21  1   
 34  19  35  1   
 35  19  36  1   
 36  20  21  1   
 37  20  37  1   
 38  20  38  1   
 39  21  39  1   
 40  21  40  1   
@<TRIPOS>SUBSTRUCTURE
  1 ****  10 GROUP 4 **** **** 0

# MOE 2024.06 (io_trps.svl 2023.06)
