@<TRIPOS>MOLECULE
NONAME
34 36 1 0 0 
SMALL
USER_CHARGES


@<TRIPOS>ATOM
  1 F        0.5960    -0.1960     0.1640 F     1 <1>  -0.1900 
  2 C        1.6680     0.5480     0.0690 C.ar  1 <1>   0.1900 
  3 C        2.9260    -0.0410     0.1820 C.ar  1 <1>   0.1170 
  4 C        1.4900     1.8990    -0.1490 C.ar  1 <1>  -0.1500 
  5 N        3.0690    -1.4240     0.4100 N.am  1 <1>  -0.5470 
  6 C        4.0250     0.8080     0.0710 C.ar  1 <1>  -0.1500 
  7 C        2.6030     2.7140    -0.2610 C.ar  1 <1>  -0.1500 
  8 C        4.0730    -2.2880     0.0680 C.2   1 <1>   0.5690 
  9 C        3.8850     2.1780    -0.1500 C.ar  1 <1>  -0.1440 
 10 O        5.0790    -1.9470    -0.5110 O.2   1 <1>  -0.5700 
 11 C        3.8960    -3.7300     0.4900 C.3   1 <1>  -0.0190 
 12 C        5.1290     3.0750    -0.2760 C.3   1 <1>   1.1640 
 13 C        4.9170    -4.7410    -0.0570 C.3   1 <1>   0.3380 
 14 C        2.5740    -4.3510    -0.0250 C.3   1 <1>  -0.1860 
 15 F        6.1390     2.6700     0.4840 F     1 <1>  -0.3400 
 16 F        4.8900     4.3340     0.0750 F     1 <1>  -0.3400 
 17 F        5.5880     3.1190    -1.5190 F     1 <1>  -0.3400 
 18 O        4.2230    -5.2790    -1.1390 O.3   1 <1>  -0.5600 
 19 C        4.8560    -5.9450     0.8570 C.2   1 <1>  -0.2880 
 20 C        1.4910    -4.3580     1.0080 C.2   1 <1>   0.9060 
 21 C        3.0550    -5.7080    -0.5150 C.3   1 <1>   0.3380 
 22 C        3.6900    -6.5230     0.5950 C.2   1 <1>  -0.2880 
 23 O        1.3300    -3.3000     1.6290 O.co2 1 <1>  -0.9000 
 24 O        0.7870    -5.3570     1.1690 O.co2 1 <1>  -0.9000 
 25 H        0.4960     2.3000    -0.2310 H     1 <1>   0.1500 
 26 H        2.2580    -1.8970     0.8710 H     1 <1>   0.3700 
 27 H        5.0110     0.3850     0.1610 H     1 <1>   0.1500 
 28 H        2.4620     3.7690    -0.4360 H     1 <1>   0.1500 
 29 H        3.9380    -3.7490     1.5650 H     1 <1>   0.0800 
 30 H        5.8920    -4.3890    -0.3450 H     1 <1>   0.0800 
 31 H        2.2000    -3.8100    -0.8730 H     1 <1>   0.0800 
 32 H        5.6380    -6.1600     1.5610 H     1 <1>   0.1500 
 33 H        2.4160    -6.2370    -1.2000 H     1 <1>   0.0800 
 34 H        3.1730    -7.3700     1.0100 H     1 <1>   0.1500 
@<TRIPOS>BOND
  1   1   2  1   
  2   2   3  ar  
  3   2   4  ar  
  4   3   5  1   
  5   3   6  ar  
  6   4   7  ar  
  7   4  25  1   
  8   5   8  am  
  9   5  26  1   
 10   6   9  ar  
 11   6  27  1   
 12   7   9  ar  
 13   7  28  1   
 14   8  10  2   
 15   8  11  1   
 16   9  12  1   
 17  11  13  1   
 18  11  14  1   
 19  11  29  1   
 20  12  15  1   
 21  12  16  1   
 22  12  17  1   
 23  13  18  1   
 24  13  19  1   
 25  13  30  1   
 26  14  20  1   
 27  14  21  1   
 28  14  31  1   
 29  18  21  1   
 30  19  22  2   
 31  19  32  1   
 32  20  23  ar  
 33  20  24  ar  
 34  21  22  1   
 35  21  33  1   
 36  22  34  1   
@<TRIPOS>SUBSTRUCTURE
  1 ****   5 GROUP 4 **** **** 0

# MOE 2024.06 (io_trps.svl 2023.06)
