@<TRIPOS>MOLECULE
NONAME
28 28 1 0 0 
SMALL
USER_CHARGES


@<TRIPOS>ATOM
  1 BR       0.2070    -0.6970     0.3840 Br    1 <1>  -0.1110 
  2 C       -1.6250    -1.2470     0.1660 C.ar  1 <1>   0.1110 
  3 C       -2.6040    -0.2760     0.0690 C.ar  1 <1>  -0.1500 
  4 C       -1.9120    -2.5980     0.1110 C.ar  1 <1>  -0.1500 
  5 C       -3.9210    -0.6750    -0.0880 C.ar  1 <1>  -0.1500 
  6 C       -3.2320    -2.9860    -0.0450 C.ar  1 <1>  -0.1500 
  7 C       -4.2370    -2.0320    -0.1380 C.ar  1 <1>   0.0830 
  8 O       -5.5080    -2.4850    -0.2990 O.3   1 <1>  -0.2330 
  9 C       -6.6230    -1.9440     0.1980 C.2   1 <1>   0.8700 
 10 O       -6.6330    -0.9810     0.9360 O.2   1 <1>  -0.5700 
 11 O       -7.7460    -2.5500    -0.1730 O.3   1 <1>  -0.4300 
 12 C       -9.0030    -2.0980     0.2860 C.3   1 <1>   0.1200 
 13 C      -10.1110    -3.0030    -0.2740 C.3   1 <1>  -0.0800 
 14 C      -11.4860    -2.4820     0.1620 C.3   1 <1>  -0.2400 
 15 C       -9.9420    -4.4600     0.1820 C.3   1 <1>  -0.2400 
 16 H       -2.3410     0.7660     0.1140 H     1 <1>   0.1500 
 17 H       -1.1230    -3.3240     0.1870 H     1 <1>   0.1500 
 18 H       -4.6890     0.0730    -0.1730 H     1 <1>   0.1500 
 19 H       -3.4860    -4.0310    -0.0940 H     1 <1>   0.1500 
 20 H       -9.1360    -1.0830    -0.0470 H     1 <1>   0.0800 
 21 H       -8.9990    -2.1220     1.3630 H     1 <1>   0.0800 
 22 H      -10.0640    -2.9650    -1.3500 H     1 <1>   0.0800 
 23 H      -11.5790    -2.5010     1.2340 H     1 <1>   0.0800 
 24 H      -12.2660    -3.0910    -0.2600 H     1 <1>   0.0800 
 25 H      -11.6290    -1.4710    -0.1780 H     1 <1>   0.0800 
 26 H       -9.9650    -4.5280     1.2550 H     1 <1>   0.0800 
 27 H       -9.0050    -4.8570    -0.1670 H     1 <1>   0.0800 
 28 H      -10.7320    -5.0710    -0.2190 H     1 <1>   0.0800 
@<TRIPOS>BOND
  1   1   2  1   
  2   2   3  ar  
  3   2   4  ar  
  4   3   5  ar  
  5   3  16  1   
  6   4   6  ar  
  7   4  17  1   
  8   5   7  ar  
  9   5  18  1   
 10   6   7  ar  
 11   6  19  1   
 12   7   8  1   
 13   8   9  1   
 14   9  10  2   
 15   9  11  1   
 16  11  12  1   
 17  12  13  1   
 18  12  20  1   
 19  12  21  1   
 20  13  14  1   
 21  13  15  1   
 22  13  22  1   
 23  14  23  1   
 24  14  24  1   
 25  14  25  1   
 26  15  26  1   
 27  15  27  1   
 28  15  28  1   
@<TRIPOS>SUBSTRUCTURE
  1 ****   8 GROUP 4 **** **** 0

# MOE 2024.06 (io_trps.svl 2023.06)
