@<TRIPOS>MOLECULE
NONAME
41 44 1 0 0 
SMALL
USER_CHARGES


@<TRIPOS>ATOM
  1 S        0.9670    -1.5540     2.2480 S.3   1 <1>  -0.0800 
  2 C        2.3150    -0.7060     1.5130 C.2   1 <1>   0.1660 
  3 C        0.7580    -2.5320     0.8040 C.2   1 <1>  -0.1400 
  4 N        2.9960     0.2680     2.1670 N.2   1 <1>  -0.5760 
  5 C        2.5600    -1.1600     0.2530 C.2   1 <1>  -0.0860 
  6 C        1.6500    -2.2030    -0.1450 C.2   1 <1>  -0.1810 
  7 C       -0.3250    -3.5850     0.7380 C.3   1 <1>   0.0200 
  8 C        3.9610     0.8000     1.5030 C.2   1 <1>   0.4500 
  9 C        3.6450    -0.5480    -0.4380 C.2   1 <1>   0.7160 
 10 C        1.6650    -2.8990    -1.4970 C.3   1 <1>   0.0210 
 11 C       -0.0670    -4.4960    -0.4760 C.3   1 <1>  -0.1600 
 12 N        4.3220     0.4570     0.2210 N.am  1 <1>  -0.4200 
 13 O        3.9950    -0.8860    -1.5620 O.2   1 <1>  -0.5700 
 14 C        0.3610    -3.6930    -1.7230 C.3   1 <1>  -0.1600 
 15 C        5.4750     1.1580    -0.4170 C.3   1 <1>   0.2010 
 16 C        6.7930     0.8470     0.2840 C.2   1 <1>   0.5690 
 17 O        7.2070     1.6650     1.0720 O.2   1 <1>  -0.5700 
 18 N        7.4710    -0.3160     0.0350 N.am  1 <1>  -0.6600 
 19 C        7.0460    -1.4120    -0.8670 C.3   1 <1>   0.1400 
 20 C        8.7410    -0.6510     0.7140 C.3   1 <1>   0.1400 
 21 C        8.2530    -2.3390    -0.9430 C.3   1 <1>  -0.1600 
 22 C        8.9920    -2.1160     0.3740 C.3   1 <1>  -0.1600 
 23 H       -1.2790    -3.0960     0.6400 H     1 <1>   0.0800 
 24 H       -0.3290    -4.1690     1.6410 H     1 <1>   0.0800 
 25 H        4.5420     1.5770     1.9720 H     1 <1>   0.0600 
 26 H        2.5100    -3.5640    -1.5330 H     1 <1>   0.0800 
 27 H        1.7760    -2.1730    -2.2840 H     1 <1>   0.0800 
 28 H       -0.9540    -5.0650    -0.6920 H     1 <1>   0.0800 
 29 H        0.7180    -5.1890    -0.2280 H     1 <1>   0.0800 
 30 H        0.4910    -4.3570    -2.5590 H     1 <1>   0.0800 
 31 H       -0.4240    -3.0000    -1.9730 H     1 <1>   0.0800 
 32 H        5.3060     2.2180    -0.3620 H     1 <1>   0.0800 
 33 H        5.5590     0.9030    -1.4570 H     1 <1>   0.0800 
 34 H        6.7720    -1.0430    -1.8400 H     1 <1>   0.0800 
 35 H        6.2120    -1.9310    -0.4250 H     1 <1>   0.0800 
 36 H        8.6610    -0.4960     1.7780 H     1 <1>   0.0800 
 37 H        9.5250    -0.0290     0.3180 H     1 <1>   0.0800 
 38 H        8.8750    -2.0350    -1.7670 H     1 <1>   0.0800 
 39 H        7.9610    -3.3640    -1.0830 H     1 <1>   0.0800 
 40 H        8.5600    -2.7310     1.1440 H     1 <1>   0.0800 
 41 H       10.0420    -2.3350     0.2990 H     1 <1>   0.0800 
@<TRIPOS>BOND
  1   1   2  1   
  2   1   3  1   
  3   2   4  1   
  4   2   5  2   
  5   3   6  2   
  6   3   7  1   
  7   4   8  2   
  8   5   6  1   
  9   5   9  1   
 10   6  10  1   
 11   7  11  1   
 12   7  23  1   
 13   7  24  1   
 14   8  12  1   
 15   8  25  1   
 16   9  12  am  
 17   9  13  2   
 18  10  14  1   
 19  10  26  1   
 20  10  27  1   
 21  11  14  1   
 22  11  28  1   
 23  11  29  1   
 24  12  15  1   
 25  14  30  1   
 26  14  31  1   
 27  15  16  1   
 28  15  32  1   
 29  15  33  1   
 30  16  17  2   
 31  16  18  am  
 32  18  19  1   
 33  18  20  1   
 34  19  21  1   
 35  19  34  1   
 36  19  35  1   
 37  20  22  1   
 38  20  36  1   
 39  20  37  1   
 40  21  22  1   
 41  21  38  1   
 42  21  39  1   
 43  22  40  1   
 44  22  41  1   
@<TRIPOS>SUBSTRUCTURE
  1 ****   9 GROUP 4 **** **** 0

# MOE 2024.06 (io_trps.svl 2023.06)
