@<TRIPOS>MOLECULE
NONAME
28 28 1 0 0 
SMALL
USER_CHARGES


@<TRIPOS>ATOM
  1 BR      -0.3820     1.5410     2.7570 Br    1 <1>  -0.1110 
  2 C       -0.0750     2.4360     1.0820 C.ar  1 <1>   0.1110 
  3 C        1.0030     3.2940     0.9770 C.ar  1 <1>  -0.1500 
  4 C       -0.9370     2.1950     0.0310 C.ar  1 <1>  -0.1500 
  5 C        1.2320     3.9450    -0.2300 C.ar  1 <1>  -0.1440 
  6 C       -0.7060     2.8430    -1.1700 C.ar  1 <1>  -0.1500 
  7 C        0.3710     3.7080    -1.2960 C.ar  1 <1>  -0.1500 
  8 C        2.4080     4.9020    -0.4060 C.3   1 <1>   0.3640 
  9 N        3.6420     4.1150    -0.3000 N.am  1 <1>  -0.7300 
 10 C        2.4370     6.0290     0.6380 C.3   1 <1>  -0.1600 
 11 C        4.7760     4.3790    -0.9840 C.2   1 <1>   0.5690 
 12 C        1.1750     6.9050     0.6070 C.3   1 <1>  -0.2400 
 13 O        4.8920     5.3450    -1.6950 O.2   1 <1>  -0.5700 
 14 C        5.9290     3.4200    -0.8450 C.3   1 <1>  -0.1790 
 15 H        1.6410     3.4460     1.8270 H     1 <1>   0.1500 
 16 H       -1.7660     1.5200     0.1500 H     1 <1>   0.1500 
 17 H       -1.3610     2.6740    -2.0080 H     1 <1>   0.1500 
 18 H        0.5360     4.2010    -2.2390 H     1 <1>   0.1500 
 19 H        2.3650     5.3470    -1.3870 H     1 <1>   0.0800 
 20 H        3.5460     3.2550     0.2360 H     1 <1>   0.3700 
 21 H        3.2900     6.6530     0.4370 H     1 <1>   0.0800 
 22 H        2.5540     5.6140     1.6230 H     1 <1>   0.0800 
 23 H        1.0430     7.3380    -0.3690 H     1 <1>   0.0800 
 24 H        1.2640     7.7020     1.3240 H     1 <1>   0.0800 
 25 H        0.3010     6.3260     0.8510 H     1 <1>   0.0800 
 26 H        5.6380     2.4500    -1.2010 H     1 <1>   0.0800 
 27 H        6.2240     3.3550     0.1840 H     1 <1>   0.0800 
 28 H        6.7620     3.7700    -1.4260 H     1 <1>   0.0800 
@<TRIPOS>BOND
  1   1   2  1   
  2   2   3  ar  
  3   2   4  ar  
  4   3   5  ar  
  5   3  15  1   
  6   4   6  ar  
  7   4  16  1   
  8   5   7  ar  
  9   5   8  1   
 10   6   7  ar  
 11   6  17  1   
 12   7  18  1   
 13   8   9  1   
 14   8  10  1   
 15   8  19  1   
 16   9  11  am  
 17   9  20  1   
 18  10  12  1   
 19  10  21  1   
 20  10  22  1   
 21  11  13  2   
 22  11  14  1   
 23  12  23  1   
 24  12  24  1   
 25  12  25  1   
 26  14  26  1   
 27  14  27  1   
 28  14  28  1   
@<TRIPOS>SUBSTRUCTURE
  1 ****   5 GROUP 4 **** **** 0

# MOE 2024.06 (io_trps.svl 2023.06)
