@<TRIPOS>MOLECULE
NONAME
32 32 1 0 0 
SMALL
USER_CHARGES


@<TRIPOS>ATOM
  1 S       -0.8330     0.5950     0.8280 S.3   1 <1>  -0.3320 
  2 C       -0.5000     1.9930    -0.2750 C.ar  1 <1>   0.1020 
  3 C        0.7750     0.0470     1.5580 C.3   1 <1>  -0.0100 
  4 C       -1.5080     2.4800    -1.1240 C.ar  1 <1>   0.0860 
  5 C        0.7680     2.5590    -0.2620 C.ar  1 <1>  -0.1500 
  6 C       -2.8670     1.9690    -1.1920 C.2   1 <1>   0.5440 
  7 C       -1.1600     3.5420    -1.9640 C.ar  1 <1>  -0.1500 
  8 C        1.0700     3.6130    -1.1030 C.ar  1 <1>  -0.1500 
  9 O       -3.4260     1.8940    -2.2700 O.2   1 <1>  -0.5700 
 10 N       -3.5450     1.6170    -0.0580 N.am  1 <1>  -0.7300 
 11 C        0.1020     4.1030    -1.9590 C.ar  1 <1>  -0.1500 
 12 C       -4.8880     1.0540     0.1010 C.3   1 <1>   0.3000 
 13 C       -5.0890     0.8410     1.6000 C.3   1 <1>  -0.2400 
 14 C       -5.9340     2.0410    -0.4190 C.3   1 <1>  -0.2400 
 15 C       -4.9730    -0.2900    -0.6220 C.3   1 <1>  -0.2400 
 16 H        0.5850    -0.8470     2.1240 H     1 <1>   0.0800 
 17 H        1.1370     0.8310     2.1980 H     1 <1>   0.0800 
 18 H        1.4570    -0.1520     0.7510 H     1 <1>   0.0800 
 19 H        1.5360     2.1980     0.3920 H     1 <1>   0.1500 
 20 H       -1.9060     3.9310    -2.6370 H     1 <1>   0.1500 
 21 H        2.0530     4.0510    -1.0950 H     1 <1>   0.1500 
 22 H       -2.9750     1.5110     0.7820 H     1 <1>   0.3700 
 23 H        0.3310     4.9210    -2.6210 H     1 <1>   0.1500 
 24 H       -4.3550     0.1550     1.9850 H     1 <1>   0.0800 
 25 H       -6.0640     0.4280     1.7870 H     1 <1>   0.0800 
 26 H       -5.0120     1.7750     2.1260 H     1 <1>   0.0800 
 27 H       -5.8220     2.9940     0.0640 H     1 <1>   0.0800 
 28 H       -6.9230     1.6700    -0.2250 H     1 <1>   0.0800 
 29 H       -5.8340     2.1740    -1.4810 H     1 <1>   0.0800 
 30 H       -4.2010    -0.9520    -0.2760 H     1 <1>   0.0800 
 31 H       -4.8670    -0.1560    -1.6830 H     1 <1>   0.0800 
 32 H       -5.9270    -0.7490    -0.4410 H     1 <1>   0.0800 
@<TRIPOS>BOND
  1   1   2  1   
  2   1   3  1   
  3   2   4  ar  
  4   2   5  ar  
  5   3  16  1   
  6   3  17  1   
  7   3  18  1   
  8   4   6  1   
  9   4   7  ar  
 10   5   8  ar  
 11   5  19  1   
 12   6   9  2   
 13   6  10  am  
 14   7  11  ar  
 15   7  20  1   
 16   8  11  ar  
 17   8  21  1   
 18  10  12  1   
 19  10  22  1   
 20  11  23  1   
 21  12  13  1   
 22  12  14  1   
 23  12  15  1   
 24  13  24  1   
 25  13  25  1   
 26  13  26  1   
 27  14  27  1   
 28  14  28  1   
 29  14  29  1   
 30  15  30  1   
 31  15  31  1   
 32  15  32  1   
@<TRIPOS>SUBSTRUCTURE
  1 ****   6 GROUP 4 **** **** 0

# MOE 2024.06 (io_trps.svl 2023.06)
