@<TRIPOS>MOLECULE
NONAME
27 27 1 0 0 
SMALL
USER_CHARGES


@<TRIPOS>ATOM
  1 BR       0.3550     0.3330    -1.2770 Br    1 <1>  -0.1110 
  2 C        2.2020     0.1990    -0.7440 C.ar  1 <1>   0.1110 
  3 C        3.1560    -0.1760    -1.6710 C.ar  1 <1>   0.1600 
  4 C        2.5470     0.4810     0.5580 C.ar  1 <1>  -0.1500 
  5 N        4.4470    -0.2930    -1.3900 N.ar  1 <1>  -0.6200 
  6 C        3.8870     0.3600     0.8540 C.ar  1 <1>  -0.1500 
  7 C        4.7970    -0.0240    -0.1370 C.ar  1 <1>   0.4270 
  8 N        6.1510    -0.1680     0.0670 N.am  1 <1>  -0.5470 
  9 C        6.9620     0.0550     1.1380 C.2   1 <1>   0.5690 
 10 O        6.5690     0.4430     2.2090 O.2   1 <1>  -0.5700 
 11 C        8.4480    -0.2100     0.9660 C.3   1 <1>  -0.0990 
 12 C        9.2480     1.0380     0.5530 C.3   1 <1>  -0.1600 
 13 C        8.8680     1.5630    -0.8390 C.3   1 <1>  -0.1600 
 14 C        9.7490     2.7500    -1.2340 C.3   1 <1>  -0.2400 
 15 H        2.8420    -0.3870    -2.6790 H     1 <1>   0.1500 
 16 H        1.8150     0.7740     1.2900 H     1 <1>   0.1500 
 17 H        4.2240     0.5640     1.8520 H     1 <1>   0.1500 
 18 H        6.6110    -0.4630    -0.7900 H     1 <1>   0.3700 
 19 H        8.5940    -0.9940     0.2460 H     1 <1>   0.0800 
 20 H        8.8270    -0.5650     1.9080 H     1 <1>   0.0800 
 21 H       10.2960     0.7920     0.5630 H     1 <1>   0.0800 
 22 H        9.0890     1.8140     1.2840 H     1 <1>   0.0800 
 23 H        7.8390     1.8810    -0.8460 H     1 <1>   0.0800 
 24 H        8.9850     0.7800    -1.5700 H     1 <1>   0.0800 
 25 H        9.6350     3.5540    -0.5290 H     1 <1>   0.0800 
 26 H        9.4680     3.1090    -2.2090 H     1 <1>   0.0800 
 27 H       10.7850     2.4590    -1.2640 H     1 <1>   0.0800 
@<TRIPOS>BOND
  1   1   2  1   
  2   2   3  ar  
  3   2   4  ar  
  4   3   5  ar  
  5   3  15  1   
  6   4   6  ar  
  7   4  16  1   
  8   5   7  ar  
  9   6   7  ar  
 10   6  17  1   
 11   7   8  1   
 12   8   9  am  
 13   8  18  1   
 14   9  10  2   
 15   9  11  1   
 16  11  12  1   
 17  11  19  1   
 18  11  20  1   
 19  12  13  1   
 20  12  21  1   
 21  12  22  1   
 22  13  14  1   
 23  13  23  1   
 24  13  24  1   
 25  14  25  1   
 26  14  26  1   
 27  14  27  1   
@<TRIPOS>SUBSTRUCTURE
  1 ****   7 GROUP 4 **** **** 0

# MOE 2024.06 (io_trps.svl 2023.06)
