@<TRIPOS>MOLECULE
NONAME
43 46 1 0 0 
SMALL
USER_CHARGES


@<TRIPOS>ATOM
  1 O       -2.0030    -0.2880    -2.0460 O.2   1 <1>  -0.5760 
  2 C       -2.7950    -0.8350    -1.3060 C.2   1 <1>   0.6850 
  3 N       -2.6980    -2.2030    -1.0710 N.am  1 <1>  -0.4270 
  4 N       -3.8010    -0.0930    -0.7000 N.am  1 <1>  -0.4430 
  5 C       -3.6300    -2.8650    -0.2830 C.2   1 <1>   0.6980 
  6 C       -1.5880    -2.9720    -1.7170 C.3   1 <1>   0.0510 
  7 C       -4.7160    -0.7630     0.0890 C.2   1 <1>   0.4190 
  8 C       -3.9150     1.3770    -0.9340 C.3   1 <1>   0.0510 
  9 O       -3.5610    -4.0710    -0.1070 O.2   1 <1>  -0.5760 
 10 C       -4.6770    -2.0920     0.3170 C.2   1 <1>   0.2690 
 11 N       -5.7840    -0.2410     0.7540 N.pl3 1 <1>  -0.7050 
 12 N       -5.7710    -2.3870     1.1550 N.pl3 1 <1>  -0.7680 
 13 C       -6.4030    -1.2360     1.3850 C.cat 1 <1>   1.0680 
 14 C       -6.0680    -3.7730     1.6170 C.3   1 <1>   0.2660 
 15 N       -7.4900    -1.1080     2.1330 N.pl3 1 <1>  -0.7190 
 16 C       -8.3270     0.0910     2.3170 C.3   1 <1>   0.3040 
 17 C       -9.5110    -0.0550     1.3890 C.ar  1 <1>  -0.1520 
 18 C       -9.4260     0.4030     0.0770 C.ar  1 <1>  -0.1590 
 19 C      -10.6840    -0.6620     1.8420 C.ar  1 <1>  -0.1590 
 20 C      -10.5210     0.2300    -0.7450 C.ar  1 <1>   0.0730 
 21 C      -11.7750    -0.8240     0.9980 C.ar  1 <1>  -0.1590 
 22 O      -10.6550     0.5860    -2.0260 O.3   1 <1>  -0.3700 
 23 C      -11.6630    -0.3660    -0.2990 C.ar  1 <1>   0.0730 
 24 C      -11.9750     0.2070    -2.4180 C.3   1 <1>   0.3930 
 25 O      -12.5700    -0.4130    -1.2790 O.3   1 <1>  -0.3700 
 26 H       -0.6880    -2.3820    -1.7370 H     1 <1>   0.0710 
 27 H       -1.8630    -3.2200    -2.7280 H     1 <1>   0.0710 
 28 H       -1.3810    -3.8800    -1.1780 H     1 <1>   0.0710 
 29 H       -2.9750     1.7830    -1.2690 H     1 <1>   0.0710 
 30 H       -4.1870     1.8820    -0.0240 H     1 <1>   0.0710 
 31 H       -4.6580     1.5680    -1.6890 H     1 <1>   0.0710 
 32 H       -6.0760     0.7300     0.7540 H     1 <1>   0.4440 
 33 H       -6.2570    -4.4080     0.7670 H     1 <1>   0.0710 
 34 H       -6.9290    -3.7910     2.2620 H     1 <1>   0.0710 
 35 H       -5.2230    -4.1670     2.1570 H     1 <1>   0.0710 
 36 H       -7.9450    -1.9610     2.4490 H     1 <1>   0.4440 
 37 H       -7.7790     0.9890     2.0870 H     1 <1>   0.0710 
 38 H       -8.6590     0.1510     3.3410 H     1 <1>   0.0710 
 39 H       -8.5520     0.8830    -0.3190 H     1 <1>   0.1410 
 40 H      -10.7650    -1.0110     2.8570 H     1 <1>   0.1410 
 41 H      -12.6870    -1.2870     1.3290 H     1 <1>   0.1410 
 42 H      -11.9240    -0.4990    -3.2280 H     1 <1>   0.0710 
 43 H      -12.5370     1.0830    -2.6860 H     1 <1>   0.0710 
@<TRIPOS>BOND
  1   1   2  2   
  2   2   3  am  
  3   2   4  am  
  4   3   5  am  
  5   3   6  1   
  6   4   7  1   
  7   4   8  1   
  8   5   9  2   
  9   5  10  1   
 10   6  26  1   
 11   6  27  1   
 12   6  28  1   
 13   7  10  2   
 14   7  11  1   
 15   8  29  1   
 16   8  30  1   
 17   8  31  1   
 18  10  12  1   
 19  11  13  ar  
 20  11  32  1   
 21  12  13  ar  
 22  12  14  1   
 23  13  15  ar  
 24  14  33  1   
 25  14  34  1   
 26  14  35  1   
 27  15  16  1   
 28  15  36  1   
 29  16  17  1   
 30  16  37  1   
 31  16  38  1   
 32  17  18  ar  
 33  17  19  ar  
 34  18  20  ar  
 35  18  39  1   
 36  19  21  ar  
 37  19  40  1   
 38  20  22  1   
 39  20  23  ar  
 40  21  23  ar  
 41  21  41  1   
 42  22  24  1   
 43  23  25  1   
 44  24  25  1   
 45  24  42  1   
 46  24  43  1   
@<TRIPOS>SUBSTRUCTURE
  1 ****  13 GROUP 4 **** **** 0

# MOE 2024.06 (io_trps.svl 2023.06)
