@<TRIPOS>MOLECULE
NONAME
49 51 1 0 0 
SMALL
USER_CHARGES


@<TRIPOS>ATOM
  1 F       -3.7650    -2.0100    -2.1620 F     1 <1>  -0.3400 
  2 C       -3.4490    -1.0600    -1.2910 C.3   1 <1>   1.1640 
  3 F       -2.1670    -0.7820    -1.4960 F     1 <1>  -0.3400 
  4 F       -3.5160    -1.6210    -0.0880 F     1 <1>  -0.3400 
  5 C       -4.3450     0.1780    -1.4410 C.ar  1 <1>  -0.1440 
  6 C       -5.3590     0.4520    -0.5310 C.ar  1 <1>  -0.1500 
  7 C       -4.1570     1.0510    -2.5080 C.ar  1 <1>  -0.1500 
  8 C       -6.1710     1.5690    -0.6660 C.ar  1 <1>   0.1000 
  9 C       -4.9610     2.1690    -2.6550 C.ar  1 <1>  -0.1500 
 10 N       -7.1680     1.8020     0.2710 N.pl3 1 <1>  -0.8380 
 11 C       -5.9610     2.4260    -1.7380 C.ar  1 <1>  -0.1500 
 12 C       -6.9380     2.9510     1.1980 C.3   1 <1>   0.2090 
 13 C       -8.5750     1.7660    -0.2310 C.3   1 <1>   0.2090 
 14 C       -7.9830     2.9740     2.3310 C.3   1 <1>   0.1100 
 15 C       -9.5790     1.8150     0.9340 C.3   1 <1>   0.1100 
 16 N       -9.3660     3.0000     1.8070 N.3   1 <1>  -0.8100 
 17 C      -10.3650     3.0350     2.9190 C.3   1 <1>   0.1710 
 18 C      -11.7960     3.3150     2.4490 C.2   1 <1>   0.5690 
 19 O      -12.7340     2.8710     3.0680 O.2   1 <1>  -0.5700 
 20 N      -11.9460     4.0290     1.3090 N.am  1 <1>  -0.7300 
 21 C      -13.1550     4.0460     0.4760 C.3   1 <1>   0.2840 
 22 C      -12.8600     3.2040    -0.7520 C.ar  1 <1>  -0.1430 
 23 C      -13.1100     1.8400    -0.7310 C.ar  1 <1>  -0.1500 
 24 C      -12.3170     3.7790    -1.8910 C.ar  1 <1>  -0.1500 
 25 C      -12.8210     1.0590    -1.8360 C.ar  1 <1>  -0.1500 
 26 C      -12.0280     2.9990    -2.9970 C.ar  1 <1>  -0.1500 
 27 C      -12.2790     1.6380    -2.9700 C.ar  1 <1>  -0.1500 
 28 H       -5.5470    -0.1950     0.3080 H     1 <1>   0.1500 
 29 H       -3.3810     0.8650    -3.2330 H     1 <1>   0.1500 
 30 H       -4.8070     2.8390    -3.4840 H     1 <1>   0.1500 
 31 H       -6.5850     3.2930    -1.8480 H     1 <1>   0.1500 
 32 H       -6.9940     3.8740     0.6480 H     1 <1>   0.0800 
 33 H       -5.9520     2.8700     1.6210 H     1 <1>   0.0800 
 34 H       -8.7260     0.8630    -0.7960 H     1 <1>   0.0800 
 35 H       -8.7520     2.6030    -0.8830 H     1 <1>   0.0800 
 36 H       -7.8140     3.8470     2.9370 H     1 <1>   0.0800 
 37 H       -7.8410     2.1030     2.9480 H     1 <1>   0.0800 
 38 H       -9.4780     0.9120     1.5110 H     1 <1>   0.0800 
 39 H      -10.5720     1.8340     0.5210 H     1 <1>   0.0800 
 40 H      -10.0990     3.8140     3.6100 H     1 <1>   0.0800 
 41 H      -10.3520     2.1000     3.4500 H     1 <1>   0.0800 
 42 H      -11.0710     4.2120     0.8080 H     1 <1>   0.3700 
 43 H      -13.3870     5.0590     0.1970 H     1 <1>   0.0800 
 44 H      -13.9910     3.6400     1.0210 H     1 <1>   0.0800 
 45 H      -13.5250     1.3840     0.1530 H     1 <1>   0.1500 
 46 H      -12.1150     4.8360    -1.9210 H     1 <1>   0.1500 
 47 H      -13.0180     0.0010    -1.8130 H     1 <1>   0.1500 
 48 H      -11.6070     3.4500    -3.8790 H     1 <1>   0.1500 
 49 H      -12.0550     1.0320    -3.8300 H     1 <1>   0.1500 
@<TRIPOS>BOND
  1   1   2  1   
  2   2   3  1   
  3   2   4  1   
  4   2   5  1   
  5   5   6  ar  
  6   5   7  ar  
  7   6   8  ar  
  8   6  28  1   
  9   7   9  ar  
 10   7  29  1   
 11   8  10  1   
 12   8  11  ar  
 13   9  11  ar  
 14   9  30  1   
 15  10  12  1   
 16  10  13  1   
 17  11  31  1   
 18  12  14  1   
 19  12  32  1   
 20  12  33  1   
 21  13  15  1   
 22  13  34  1   
 23  13  35  1   
 24  14  16  1   
 25  14  36  1   
 26  14  37  1   
 27  15  16  1   
 28  15  38  1   
 29  15  39  1   
 30  16  17  1   
 31  17  18  1   
 32  17  40  1   
 33  17  41  1   
 34  18  19  2   
 35  18  20  am  
 36  20  21  1   
 37  20  42  1   
 38  21  22  1   
 39  21  43  1   
 40  21  44  1   
 41  22  23  ar  
 42  22  24  ar  
 43  23  25  ar  
 44  23  45  1   
 45  24  26  ar  
 46  24  46  1   
 47  25  27  ar  
 48  25  47  1   
 49  26  27  ar  
 50  26  48  1   
 51  27  49  1   
@<TRIPOS>SUBSTRUCTURE
  1 ****  13 GROUP 4 **** **** 0

# MOE 2024.06 (io_trps.svl 2023.06)
