@<TRIPOS>MOLECULE
NONAME
38 39 1 0 0 
SMALL
USER_CHARGES


@<TRIPOS>ATOM
  1 BR      -2.3680    -2.2880    -1.5670 Br    1 <1>  -0.1110 
  2 C       -0.8560    -2.5820    -0.4140 C.ar  1 <1>   0.1110 
  3 C        0.2810    -3.1590    -0.9430 C.ar  1 <1>  -0.1500 
  4 C       -0.9520    -2.2040     0.9130 C.ar  1 <1>  -0.1500 
  5 C        1.3900    -3.3740    -0.1260 C.ar  1 <1>   0.0860 
  6 C        0.1400    -2.4220     1.7360 C.ar  1 <1>  -0.1500 
  7 C        1.2860    -3.0000     1.2150 C.ar  1 <1>   0.1770 
  8 C        2.5950    -3.9650    -0.6590 C.2   1 <1>   0.5440 
  9 CL       2.6280    -3.2580     2.3020 Cl    1 <1>  -0.1770 
 10 O        2.6040    -5.1580    -0.8900 O.2   1 <1>  -0.5700 
 11 N        3.7140    -3.2090    -0.9450 N.am  1 <1>  -0.6600 
 12 C        3.7380    -1.7200    -0.9320 C.3   1 <1>   0.1400 
 13 C        5.0090    -3.8450    -1.3110 C.3   1 <1>   0.1400 
 14 C        4.8250    -1.2280     0.0250 C.3   1 <1>  -0.1600 
 15 C        6.1000    -3.3740    -0.3460 C.3   1 <1>  -0.1600 
 16 C        6.2030    -1.8360    -0.3090 C.3   1 <1>  -0.0190 
 17 C        7.3030    -1.3780     0.6500 C.2   1 <1>   0.6590 
 18 O        7.0760    -0.7460     1.6500 O.2   1 <1>  -0.5700 
 19 O        8.5380    -1.7160     0.3010 O.3   1 <1>  -0.4300 
 20 C        9.6470    -1.3640     1.0940 C.3   1 <1>   0.1200 
 21 C       10.9020    -1.9130     0.4230 C.3   1 <1>  -0.2400 
 22 H        0.3140    -3.4470    -1.9790 H     1 <1>   0.1500 
 23 H       -1.8560    -1.7570     1.2890 H     1 <1>   0.1500 
 24 H        0.1070    -2.1480     2.7770 H     1 <1>   0.1500 
 25 H        2.7870    -1.3180    -0.6330 H     1 <1>   0.0800 
 26 H        3.9460    -1.3690    -1.9290 H     1 <1>   0.0800 
 27 H        5.2620    -3.5720    -2.3210 H     1 <1>   0.0800 
 28 H        4.9350    -4.9190    -1.2660 H     1 <1>   0.0800 
 29 H        4.5480    -1.4880     1.0320 H     1 <1>   0.0800 
 30 H        4.8830    -0.1550    -0.0260 H     1 <1>   0.0800 
 31 H        7.0410    -3.7960    -0.6510 H     1 <1>   0.0800 
 32 H        5.8760    -3.7490     0.6380 H     1 <1>   0.0800 
 33 H        6.4880    -1.4960    -1.2880 H     1 <1>   0.0800 
 34 H        9.5140    -1.7890     2.0750 H     1 <1>   0.0800 
 35 H        9.6850    -0.2900     1.1690 H     1 <1>   0.0800 
 36 H       10.8420    -2.9830     0.3460 H     1 <1>   0.0800 
 37 H       11.7660    -1.6600     1.0100 H     1 <1>   0.0800 
 38 H       11.0160    -1.4850    -0.5570 H     1 <1>   0.0800 
@<TRIPOS>BOND
  1   1   2  1   
  2   2   3  ar  
  3   2   4  ar  
  4   3   5  ar  
  5   3  22  1   
  6   4   6  ar  
  7   4  23  1   
  8   5   7  ar  
  9   5   8  1   
 10   6   7  ar  
 11   6  24  1   
 12   7   9  1   
 13   8  10  2   
 14   8  11  am  
 15  11  12  1   
 16  11  13  1   
 17  12  14  1   
 18  12  25  1   
 19  12  26  1   
 20  13  15  1   
 21  13  27  1   
 22  13  28  1   
 23  14  16  1   
 24  14  29  1   
 25  14  30  1   
 26  15  16  1   
 27  15  31  1   
 28  15  32  1   
 29  16  17  1   
 30  16  33  1   
 31  17  18  2   
 32  17  19  1   
 33  19  20  1   
 34  20  21  1   
 35  20  34  1   
 36  20  35  1   
 37  21  36  1   
 38  21  37  1   
 39  21  38  1   
@<TRIPOS>SUBSTRUCTURE
  1 ****  11 GROUP 4 **** **** 0

# MOE 2024.06 (io_trps.svl 2023.06)
