@<TRIPOS>MOLECULE
NONAME
40 41 1 0 0 
SMALL
USER_CHARGES


@<TRIPOS>ATOM
  1 S        0.3110     1.1550    -0.9060 S.3   1 <1>  -0.2850 
  2 C       -1.1750     0.3320    -0.2830 C.2   1 <1>   0.0550 
  3 C        0.4840     2.6410     0.1970 C.3   1 <1>   0.1310 
  4 C       -2.4150     0.9030    -0.0100 C.2   1 <1>   0.1080 
  5 C       -1.2820    -0.9780     0.0100 C.2   1 <1>  -0.3320 
  6 C        1.9400     3.0440     0.3690 C.2   1 <1>   0.5690 
  7 N       -3.2460     0.0170     0.4460 N.2   1 <1>  -0.7070 
  8 C       -2.8190     2.3470    -0.2090 C.3   1 <1>  -0.0590 
  9 N       -2.5490    -1.1420     0.4530 N.pl3 1 <1>   0.3000 
 10 C       -0.2610    -2.0990    -0.0940 C.3   1 <1>  -0.0600 
 11 O        2.1690     4.1870     0.6800 O.2   1 <1>  -0.5700 
 12 N        2.9060     2.0960     0.1810 N.am  1 <1>  -0.5470 
 13 C        4.3100     2.0980     0.2740 C.ar  1 <1>   0.1170 
 14 C        4.9900     0.9180    -0.0500 C.ar  1 <1>   0.0830 
 15 C        5.0480     3.2090     0.6680 C.ar  1 <1>  -0.1500 
 16 O        4.2290    -0.1530    -0.4290 O.3   1 <1>  -0.3630 
 17 C        6.3790     0.8700     0.0210 C.ar  1 <1>  -0.1500 
 18 C        6.4290     3.1560     0.7380 C.ar  1 <1>  -0.1500 
 19 C        4.8190    -1.3290    -0.9310 C.3   1 <1>   0.1200 
 20 C        7.0950     1.9880     0.4140 C.ar  1 <1>  -0.1500 
 21 C        3.6970    -2.2850    -1.3230 C.3   1 <1>  -0.2400 
 22 H        0.0590     2.3840     1.1490 H     1 <1>   0.0800 
 23 H       -0.0720     3.4410    -0.2540 H     1 <1>   0.0800 
 24 H       -2.3190     2.7580    -1.0660 H     1 <1>   0.0800 
 25 H       -2.5730     2.9180     0.6650 H     1 <1>   0.0800 
 26 H       -3.8800     2.4030    -0.3720 H     1 <1>   0.0800 
 27 H       -2.9700    -2.0260     0.7640 H     1 <1>   0.2700 
 28 H        0.6660    -1.7230    -0.4880 H     1 <1>   0.0800 
 29 H       -0.6210    -2.8700    -0.7510 H     1 <1>   0.0800 
 30 H       -0.0720    -2.5220     0.8770 H     1 <1>   0.0800 
 31 H        2.5550     1.1880    -0.1380 H     1 <1>   0.3700 
 32 H        4.5520     4.1260     0.9240 H     1 <1>   0.1500 
 33 H        6.9230    -0.0220    -0.2200 H     1 <1>   0.1500 
 34 H        6.9830     4.0260     1.0440 H     1 <1>   0.1500 
 35 H        5.4330    -1.7610    -0.1600 H     1 <1>   0.0800 
 36 H        5.4180    -1.0710    -1.7880 H     1 <1>   0.0800 
 37 H        8.1690     1.9500     0.4690 H     1 <1>   0.1500 
 38 H        3.1100    -2.5390    -0.4590 H     1 <1>   0.0800 
 39 H        4.1150    -3.1880    -1.7300 H     1 <1>   0.0800 
 40 H        3.0670    -1.8320    -2.0680 H     1 <1>   0.0800 
@<TRIPOS>BOND
  1   1   2  1   
  2   1   3  1   
  3   2   4  1   
  4   2   5  2   
  5   3   6  1   
  6   3  22  1   
  7   3  23  1   
  8   4   7  2   
  9   4   8  1   
 10   5   9  1   
 11   5  10  1   
 12   6  11  2   
 13   6  12  am  
 14   7   9  1   
 15   8  24  1   
 16   8  25  1   
 17   8  26  1   
 18   9  27  1   
 19  10  28  1   
 20  10  29  1   
 21  10  30  1   
 22  12  13  1   
 23  12  31  1   
 24  13  14  ar  
 25  13  15  ar  
 26  14  16  1   
 27  14  17  ar  
 28  15  18  ar  
 29  15  32  1   
 30  16  19  1   
 31  17  20  ar  
 32  17  33  1   
 33  18  20  ar  
 34  18  34  1   
 35  19  21  1   
 36  19  35  1   
 37  19  36  1   
 38  20  37  1   
 39  21  38  1   
 40  21  39  1   
 41  21  40  1   
@<TRIPOS>SUBSTRUCTURE
  1 ****  12 GROUP 4 **** **** 0

# MOE 2024.06 (io_trps.svl 2023.06)
