@<TRIPOS>MOLECULE
NONAME
37 37 1 0 0 
SMALL
USER_CHARGES


@<TRIPOS>ATOM
  1 F       -0.7960    -1.4350     0.9430 F     1 <1>  -0.3400 
  2 C       -1.5770    -0.3730     0.7270 C.3   1 <1>   0.6800 
  3 F       -0.7000     0.6010     0.4540 F     1 <1>  -0.3400 
  4 C       -2.5260    -0.6210    -0.5100 C.3   1 <1>   0.4240 
  5 C       -2.3310     0.0100     2.0270 C.3   1 <1>   0.6000 
  6 O       -1.8130    -0.5740    -1.7140 O.3   1 <1>  -0.6800 
  7 C       -3.5550     0.5360    -0.5730 C.ar  1 <1>  -0.1440 
  8 C       -3.2300    -2.0060    -0.5230 C.3   1 <1>  -0.0990 
  9 F       -3.1690    -0.9570     2.4060 F     1 <1>  -0.3400 
 10 F       -1.5120     0.1560     3.0690 F     1 <1>  -0.3400 
 11 C       -4.8590     0.4210    -0.0890 C.ar  1 <1>  -0.1500 
 12 C       -3.1680     1.7670    -1.0980 C.ar  1 <1>  -0.1500 
 13 C       -2.2880    -3.1960    -0.6500 C.2   1 <1>   0.4950 
 14 C       -5.7330     1.4930    -0.1310 C.ar  1 <1>  -0.1500 
 15 C       -4.0400     2.8390    -1.1400 C.ar  1 <1>  -0.1500 
 16 O       -1.6250    -3.2500    -1.6520 O.2   1 <1>  -0.5700 
 17 C       -2.2470    -4.1710     0.4180 C.2   1 <1>  -0.1360 
 18 C       -5.3260     2.7040    -0.6550 C.ar  1 <1>  -0.1500 
 19 C       -1.5890    -5.3440     0.5470 C.2   1 <1>  -0.2760 
 20 C       -1.7070    -6.1930     1.8050 C.3   1 <1>  -0.1020 
 21 C       -0.6630    -5.9840    -0.4820 C.3   1 <1>  -0.1020 
 22 H       -2.9010     0.9150     1.9270 H     1 <1>   0.0800 
 23 H       -1.4260    -1.4670    -1.8990 H     1 <1>   0.4000 
 24 H       -3.9020    -2.0340    -1.3620 H     1 <1>   0.0800 
 25 H       -3.8290    -2.1350     0.3540 H     1 <1>   0.0800 
 26 H       -5.2340    -0.4930     0.3340 H     1 <1>   0.1500 
 27 H       -2.1710     1.9030    -1.4860 H     1 <1>   0.1500 
 28 H       -6.7370     1.3850     0.2450 H     1 <1>   0.1500 
 29 H       -3.7160     3.7790    -1.5540 H     1 <1>   0.1500 
 30 H       -2.8590    -3.8770     1.2490 H     1 <1>   0.1500 
 31 H       -6.0070     3.5370    -0.6890 H     1 <1>   0.1500 
 32 H       -2.1050    -7.1630     1.5620 H     1 <1>   0.0800 
 33 H       -2.3570    -5.7330     2.5280 H     1 <1>   0.0800 
 34 H       -0.7390    -6.3210     2.2560 H     1 <1>   0.0800 
 35 H        0.3270    -6.0790    -0.0750 H     1 <1>   0.0800 
 36 H       -0.5930    -5.4110    -1.3860 H     1 <1>   0.0800 
 37 H       -1.0230    -6.9630    -0.7420 H     1 <1>   0.0800 
@<TRIPOS>BOND
  1   1   2  1   
  2   2   3  1   
  3   2   4  1   
  4   2   5  1   
  5   4   6  1   
  6   4   7  1   
  7   4   8  1   
  8   5   9  1   
  9   5  10  1   
 10   5  22  1   
 11   6  23  1   
 12   7  11  ar  
 13   7  12  ar  
 14   8  13  1   
 15   8  24  1   
 16   8  25  1   
 17  11  14  ar  
 18  11  26  1   
 19  12  15  ar  
 20  12  27  1   
 21  13  16  2   
 22  13  17  1   
 23  14  18  ar  
 24  14  28  1   
 25  15  18  ar  
 26  15  29  1   
 27  17  19  2   
 28  17  30  1   
 29  18  31  1   
 30  19  20  1   
 31  19  21  1   
 32  20  32  1   
 33  20  33  1   
 34  20  34  1   
 35  21  35  1   
 36  21  36  1   
 37  21  37  1   
@<TRIPOS>SUBSTRUCTURE
  1 ****   4 GROUP 4 **** **** 0

# MOE 2024.06 (io_trps.svl 2023.06)
