@<TRIPOS>MOLECULE
NONAME
36 37 1 0 0 
SMALL
USER_CHARGES


@<TRIPOS>ATOM
  1 S       -0.1680     0.1690    -0.6680 S.3   1 <1>  -0.0800 
  2 C       -1.3460    -1.0250    -0.2510 C.2   1 <1>   0.4340 
  3 C        1.0280    -1.0450    -0.3400 C.2   1 <1>   0.4420 
  4 S       -3.0810    -0.5880    -0.3630 S.3   1 <1>  -0.1580 
  5 N       -0.8550    -2.1540     0.0670 N.2   1 <1>  -0.3380 
  6 N        0.5130    -2.1650     0.0230 N.2   1 <1>  -0.3380 
  7 N        2.3480    -0.6810    -0.5010 N.am  1 <1>  -0.4940 
  8 C       -3.1890     1.2030    -0.1940 C.ar  1 <1>   0.1020 
  9 C        3.5030    -1.3750    -0.3350 C.2   1 <1>   0.5690 
 10 C       -3.9810     1.9020    -1.0880 C.ar  1 <1>  -0.1500 
 11 C       -2.5140     1.8560     0.8250 C.ar  1 <1>  -0.1500 
 12 O        4.5430    -0.8040    -0.5380 O.2   1 <1>  -0.5700 
 13 C        3.4990    -2.8400     0.0970 C.3   1 <1>  -0.0990 
 14 C       -4.0820     3.2770    -0.9710 C.ar  1 <1>  -0.1500 
 15 C       -2.6230     3.2310     0.9300 C.ar  1 <1>  -0.1500 
 16 C        4.8950    -3.4770     0.2240 C.3   1 <1>  -0.2400 
 17 C       -3.4010     3.9570     0.0360 C.ar  1 <1>   0.1000 
 18 N       -3.4920     5.3390     0.1760 N.pl3 1 <1>  -0.8380 
 19 C       -4.5140     5.8380     1.1320 C.3   1 <1>   0.1290 
 20 C       -3.3140     6.1850    -1.0330 C.3   1 <1>   0.1290 
 21 H        2.5180     0.2780    -0.7940 H     1 <1>   0.3700 
 22 H       -4.5100     1.3780    -1.8640 H     1 <1>   0.1500 
 23 H       -1.9200     1.3040     1.5300 H     1 <1>   0.1500 
 24 H        2.9290    -3.4030    -0.6200 H     1 <1>   0.0800 
 25 H        3.0010    -2.9120     1.0470 H     1 <1>   0.0800 
 26 H       -4.6960     3.8300    -1.6550 H     1 <1>   0.1500 
 27 H       -2.1060     3.7630     1.7070 H     1 <1>   0.1500 
 28 H        5.4090    -3.4380    -0.7210 H     1 <1>   0.0800 
 29 H        4.8090    -4.5040     0.5300 H     1 <1>   0.0800 
 30 H        5.4810    -2.9460     0.9540 H     1 <1>   0.0800 
 31 H       -4.6560     5.1230     1.9250 H     1 <1>   0.0800 
 32 H       -5.4520     5.9860     0.6260 H     1 <1>   0.0800 
 33 H       -4.1870     6.7690     1.5600 H     1 <1>   0.0800 
 34 H       -2.6360     5.7040    -1.7170 H     1 <1>   0.0800 
 35 H       -2.9010     7.1370    -0.7500 H     1 <1>   0.0800 
 36 H       -4.2590     6.3380    -1.5230 H     1 <1>   0.0800 
@<TRIPOS>BOND
  1   1   2  1   
  2   1   3  1   
  3   2   4  1   
  4   2   5  2   
  5   3   6  2   
  6   3   7  1   
  7   4   8  1   
  8   5   6  1   
  9   7   9  am  
 10   7  21  1   
 11   8  10  ar  
 12   8  11  ar  
 13   9  12  2   
 14   9  13  1   
 15  10  14  ar  
 16  10  22  1   
 17  11  15  ar  
 18  11  23  1   
 19  13  16  1   
 20  13  24  1   
 21  13  25  1   
 22  14  17  ar  
 23  14  26  1   
 24  15  17  ar  
 25  15  27  1   
 26  16  28  1   
 27  16  29  1   
 28  16  30  1   
 29  17  18  1   
 30  18  19  1   
 31  18  20  1   
 32  19  31  1   
 33  19  32  1   
 34  19  33  1   
 35  20  34  1   
 36  20  35  1   
 37  20  36  1   
@<TRIPOS>SUBSTRUCTURE
  1 ****   1 GROUP 4 **** **** 0

# MOE 2024.06 (io_trps.svl 2023.06)
