@<TRIPOS>MOLECULE
NONAME
43 44 1 0 0 
SMALL
USER_CHARGES


@<TRIPOS>ATOM
  1 O      -11.3780     1.3340    -1.6260 O.3   1 <1>  -0.5600 
  2 C      -11.0350     2.6900    -1.6310 C.3   1 <1>   0.1200 
  3 C      -10.4880     0.5170    -0.9220 C.3   1 <1>   0.1200 
  4 C      -10.9950     3.2370    -0.1910 C.3   1 <1>   0.3430 
  5 C      -10.4310     0.9440     0.5570 C.3   1 <1>   0.3430 
  6 N      -10.1060     2.4020     0.6880 N.4   1 <1>  -0.9590 
  7 C      -10.0590     2.8660     2.1070 C.3   1 <1>   0.3430 
  8 C       -9.2720     4.1790     2.2530 C.3   1 <1>   0.1200 
  9 O       -8.0500     4.0740     1.5430 O.3   1 <1>  -0.3630 
 10 C       -7.9520     4.6980     0.3420 C.ar  1 <1>   0.0830 
 11 C       -7.7270     3.9450    -0.8100 C.ar  1 <1>   0.0830 
 12 C       -8.0760     6.0760     0.2490 C.ar  1 <1>  -0.1500 
 13 O       -7.6200     2.5980    -0.7420 O.3   1 <1>  -0.3630 
 14 C       -7.6560     4.5650    -2.0450 C.ar  1 <1>  -0.1500 
 15 C       -8.0010     6.6940    -0.9890 C.ar  1 <1>  -0.1500 
 16 C       -6.3240     2.1160    -0.4700 C.3   1 <1>   0.1200 
 17 C       -7.7950     5.9400    -2.1330 C.ar  1 <1>  -0.1500 
 18 C       -6.3960     0.5930    -0.3470 C.3   1 <1>  -0.1600 
 19 C       -5.0160    -0.0030    -0.0510 C.3   1 <1>  -0.2400 
 20 H      -11.7770     3.2150    -2.2070 H     1 <1>   0.0800 
 21 H      -10.0810     2.8050    -2.1160 H     1 <1>   0.0800 
 22 H       -9.5160     0.5830    -1.3820 H     1 <1>   0.0800 
 23 H      -10.8390    -0.4970    -1.0030 H     1 <1>   0.0800 
 24 H      -11.9990     3.2400     0.2000 H     1 <1>   0.0800 
 25 H      -10.6390     4.2540    -0.2130 H     1 <1>   0.0800 
 26 H       -9.6860     0.3550     1.0670 H     1 <1>   0.0800 
 27 H      -11.3870     0.7390     1.0090 H     1 <1>   0.0800 
 28 H       -9.1410     2.5280     0.3140 H     1 <1>   0.4500 
 29 H       -9.5660     2.1200     2.7090 H     1 <1>   0.0800 
 30 H      -11.0570     2.9920     2.4930 H     1 <1>   0.0800 
 31 H       -9.0360     4.3570     3.2870 H     1 <1>   0.0800 
 32 H       -9.8420     5.0130     1.8820 H     1 <1>   0.0800 
 33 H       -8.2190     6.6690     1.1350 H     1 <1>   0.1500 
 34 H       -7.4890     3.9790    -2.9320 H     1 <1>   0.1500 
 35 H       -8.0950     7.7650    -1.0630 H     1 <1>   0.1500 
 36 H       -5.9760     2.5590     0.4480 H     1 <1>   0.0800 
 37 H       -5.6750     2.4070    -1.2790 H     1 <1>   0.0800 
 38 H       -7.7350     6.4270    -3.0930 H     1 <1>   0.1500 
 39 H       -6.7640     0.1790    -1.2700 H     1 <1>   0.0800 
 40 H       -7.0680     0.3290     0.4490 H     1 <1>   0.0800 
 41 H       -4.3250     0.2320    -0.8410 H     1 <1>   0.0800 
 42 H       -5.0860    -1.0740     0.0310 H     1 <1>   0.0800 
 43 H       -4.6270     0.3840     0.8750 H     1 <1>   0.0800 
@<TRIPOS>BOND
  1   1   2  1   
  2   1   3  1   
  3   2   4  1   
  4   2  20  1   
  5   2  21  1   
  6   3   5  1   
  7   3  22  1   
  8   3  23  1   
  9   4   6  1   
 10   4  24  1   
 11   4  25  1   
 12   5   6  1   
 13   5  26  1   
 14   5  27  1   
 15   6   7  1   
 16   6  28  1   
 17   7   8  1   
 18   7  29  1   
 19   7  30  1   
 20   8   9  1   
 21   8  31  1   
 22   8  32  1   
 23   9  10  1   
 24  10  11  ar  
 25  10  12  ar  
 26  11  13  1   
 27  11  14  ar  
 28  12  15  ar  
 29  12  33  1   
 30  13  16  1   
 31  14  17  ar  
 32  14  34  1   
 33  15  17  ar  
 34  15  35  1   
 35  16  18  1   
 36  16  36  1   
 37  16  37  1   
 38  17  38  1   
 39  18  19  1   
 40  18  39  1   
 41  18  40  1   
 42  19  41  1   
 43  19  42  1   
 44  19  43  1   
@<TRIPOS>SUBSTRUCTURE
  1 ****  13 GROUP 4 **** **** 0

# MOE 2024.06 (io_trps.svl 2023.06)
