@<TRIPOS>MOLECULE
NONAME
52 55 1 0 0 
SMALL
USER_CHARGES


@<TRIPOS>ATOM
  1 F        0.9050    -3.0370    -3.9080 F     1 <1>  -0.3400 
  2 C        1.2800    -3.0570    -2.6280 C.3   1 <1>   1.0810 
  3 F        1.4440    -1.7760    -2.2950 F     1 <1>  -0.3400 
  4 F        2.5030    -3.5900    -2.6290 F     1 <1>  -0.3400 
  5 C        0.2790    -3.8100    -1.6880 C.2   1 <1>   0.5690 
  6 O       -0.5920    -4.4970    -2.1910 O.2   1 <1>  -0.5700 
  7 N        0.4040    -3.7180    -0.3070 N.am  1 <1>  -0.4770 
  8 C        1.6580    -3.5430     0.2820 C.ar  1 <1>   0.1170 
  9 C       -0.5630    -4.3800     0.6090 C.3   1 <1>   0.5020 
 10 C        2.4640    -4.6690     0.4640 C.ar  1 <1>   0.1000 
 11 C        2.1050    -2.2910     0.6730 C.ar  1 <1>  -0.1500 
 12 C       -0.4230    -5.9140     0.5350 C.2   1 <1>  -0.1240 
 13 C       -1.9170    -3.6670     0.4250 C.ar  1 <1>  -0.1440 
 14 N        2.0220    -5.9550     0.0980 N.pl3 1 <1>  -0.6000 
 15 C        3.7280    -4.5060     1.0120 C.ar  1 <1>  -0.1500 
 16 C        3.3650    -2.1440     1.2260 C.ar  1 <1>  -0.1500 
 17 C        0.7640    -6.5260     0.2200 C.2   1 <1>  -0.0380 
 18 C       -1.5750    -6.6770     0.8910 C.2   1 <1>   0.4950 
 19 C       -2.1490    -2.5130     1.1630 C.ar  1 <1>  -0.1500 
 20 C       -2.9100    -4.0980    -0.4500 C.ar  1 <1>  -0.1500 
 21 C        4.1780    -3.2520     1.3910 C.ar  1 <1>  -0.1500 
 22 C        0.8080    -8.0390     0.0210 C.3   1 <1>  -0.0220 
 23 O       -2.5110    -6.2530     1.5250 O.2   1 <1>  -0.5700 
 24 C       -1.6290    -8.1640     0.5840 C.3   1 <1>  -0.0990 
 25 C       -3.3360    -1.8160     1.0300 C.ar  1 <1>   0.0830 
 26 C       -4.0990    -3.4010    -0.5820 C.ar  1 <1>  -0.1500 
 27 C       -0.5490    -8.6290    -0.4070 C.3   1 <1>   0.0000 
 28 O       -3.5260    -0.7040     1.7550 O.3   1 <1>  -0.5330 
 29 C       -4.3180    -2.2550     0.1590 C.ar  1 <1>  -0.1500 
 30 C       -0.9080    -8.1760    -1.8360 C.3   1 <1>  -0.2400 
 31 C       -0.4730   -10.1640    -0.4000 C.3   1 <1>  -0.2400 
 32 H       -0.2630    -4.1410     1.6150 H     1 <1>   0.0800 
 33 H        1.4720    -1.4310     0.5390 H     1 <1>   0.1500 
 34 H        2.7860    -6.5910    -0.1550 H     1 <1>   0.4000 
 35 H        4.3640    -5.3610     1.1500 H     1 <1>   0.1500 
 36 H        3.7130    -1.1700     1.5250 H     1 <1>   0.1500 
 37 H       -1.4120    -2.1370     1.8490 H     1 <1>   0.1500 
 38 H       -2.7630    -4.9870    -1.0380 H     1 <1>   0.1500 
 39 H        5.1600    -3.1390     1.8180 H     1 <1>   0.1500 
 40 H        1.1280    -8.4900     0.9440 H     1 <1>   0.0800 
 41 H        1.5370    -8.2850    -0.7310 H     1 <1>   0.0800 
 42 H       -2.6060    -8.4040     0.2060 H     1 <1>   0.0800 
 43 H       -1.5090    -8.6810     1.5190 H     1 <1>   0.0800 
 44 H       -4.8520    -3.7570    -1.2640 H     1 <1>   0.1500 
 45 H       -4.4000    -0.3040     1.6090 H     1 <1>   0.4500 
 46 H       -5.2420    -1.7180     0.0540 H     1 <1>   0.1500 
 47 H       -0.9880    -7.1070    -1.9040 H     1 <1>   0.0800 
 48 H       -1.8490    -8.5980    -2.1420 H     1 <1>   0.0800 
 49 H       -0.1550    -8.4960    -2.5350 H     1 <1>   0.0800 
 50 H       -0.2200   -10.5310     0.5800 H     1 <1>   0.0800 
 51 H        0.2740   -10.5100    -1.0930 H     1 <1>   0.0800 
 52 H       -1.4190   -10.5900    -0.6840 H     1 <1>   0.0800 
@<TRIPOS>BOND
  1   1   2  1   
  2   2   3  1   
  3   2   4  1   
  4   2   5  1   
  5   5   6  2   
  6   5   7  am  
  7   7   8  1   
  8   7   9  1   
  9   8  10  ar  
 10   8  11  ar  
 11   9  12  1   
 12   9  13  1   
 13   9  32  1   
 14  10  14  1   
 15  10  15  ar  
 16  11  16  ar  
 17  11  33  1   
 18  12  17  2   
 19  12  18  1   
 20  13  19  ar  
 21  13  20  ar  
 22  14  17  1   
 23  14  34  1   
 24  15  21  ar  
 25  15  35  1   
 26  16  21  ar  
 27  16  36  1   
 28  17  22  1   
 29  18  23  2   
 30  18  24  1   
 31  19  25  ar  
 32  19  37  1   
 33  20  26  ar  
 34  20  38  1   
 35  21  39  1   
 36  22  27  1   
 37  22  40  1   
 38  22  41  1   
 39  24  27  1   
 40  24  42  1   
 41  24  43  1   
 42  25  28  1   
 43  25  29  ar  
 44  26  29  ar  
 45  26  44  1   
 46  27  30  1   
 47  27  31  1   
 48  28  45  1   
 49  29  46  1   
 50  30  47  1   
 51  30  48  1   
 52  30  49  1   
 53  31  50  1   
 54  31  51  1   
 55  31  52  1   
@<TRIPOS>SUBSTRUCTURE
  1 ****   9 GROUP 4 **** **** 0

# MOE 2024.06 (io_trps.svl 2023.06)
