@<TRIPOS>MOLECULE
NONAME
50 52 1 0 0 
SMALL
USER_CHARGES


@<TRIPOS>ATOM
  1 S       -0.4370     0.8580     0.3890 S.o2  1 <1>   1.4470 
  2 O       -0.3610     1.7570    -0.7380 O.2   1 <1>  -0.6500 
  3 O       -1.5200     0.9490     1.3380 O.2   1 <1>  -0.6500 
  4 N        0.9460     1.1500     1.3670 N.am  1 <1>  -0.7570 
  5 C       -0.2060    -0.8670    -0.1220 C.ar  1 <1>  -0.0090 
  6 C        2.2790     1.2870     1.0200 C.ar  1 <1>   0.1990 
  7 C       -0.3370    -1.9070     0.7920 C.ar  1 <1>  -0.1500 
  8 C        0.1210    -1.1930    -1.4340 C.ar  1 <1>  -0.1500 
  9 C        2.7350     1.2640    -0.2950 C.ar  1 <1>  -0.1500 
 10 C        3.2220     1.4560     2.0270 C.ar  1 <1>  -0.1500 
 11 C       -0.1480    -3.2250     0.4130 C.ar  1 <1>  -0.1500 
 12 C        0.3120    -2.5080    -1.8210 C.ar  1 <1>  -0.1500 
 13 C        4.0790     1.3940    -0.5840 C.ar  1 <1>  -0.1500 
 14 C        4.5660     1.5870     1.7360 C.ar  1 <1>  -0.1500 
 15 C        0.1780    -3.5270    -0.8960 C.ar  1 <1>  -0.1500 
 16 C        5.0370     1.5510     0.4200 C.ar  1 <1>   0.0860 
 17 C        6.4480     1.6740     0.1030 C.2   1 <1>   0.5440 
 18 O        6.8230     1.9790    -1.0140 O.2   1 <1>  -0.5700 
 19 N        7.4310     1.3930     1.0250 N.am  1 <1>  -0.6600 
 20 C        7.6080    -0.0230     1.4520 C.3   1 <1>   0.1400 
 21 C        8.7180     2.1440     0.9370 C.3   1 <1>   0.1400 
 22 C        8.5910    -0.7430     0.5020 C.3   1 <1>   0.3430 
 23 C        9.6850     1.4270    -0.0230 C.3   1 <1>   0.3430 
 24 N        9.9070    -0.0170     0.3670 N.4   1 <1>  -0.9590 
 25 C       10.7830    -0.7180    -0.6070 C.3   1 <1>   0.3430 
 26 C       12.2190    -0.2320    -0.4510 C.3   1 <1>  -0.2400 
 27 H        0.6550     1.3000     2.3270 H     1 <1>   0.4200 
 28 H       -0.5930    -1.6840     1.8140 H     1 <1>   0.1500 
 29 H        0.2250    -0.4080    -2.1650 H     1 <1>   0.1500 
 30 H        2.0410     1.1530    -1.1060 H     1 <1>   0.1500 
 31 H        2.8950     1.4890     3.0510 H     1 <1>   0.1500 
 32 H       -0.2570    -4.0160     1.1360 H     1 <1>   0.1500 
 33 H        0.5630    -2.7390    -2.8430 H     1 <1>   0.1500 
 34 H        4.4000     1.3800    -1.6120 H     1 <1>   0.1500 
 35 H        5.2650     1.7270     2.5420 H     1 <1>   0.1500 
 36 H        0.3230    -4.5510    -1.1950 H     1 <1>   0.1500 
 37 H        6.6590    -0.5320     1.4330 H     1 <1>   0.0800 
 38 H        7.9780    -0.0520     2.4620 H     1 <1>   0.0800 
 39 H        9.1560     2.2320     1.9160 H     1 <1>   0.0800 
 40 H        8.5280     3.1390     0.5700 H     1 <1>   0.0800 
 41 H        8.1240    -0.8160    -0.4670 H     1 <1>   0.0800 
 42 H        8.7590    -1.7440     0.8630 H     1 <1>   0.0800 
 43 H       10.6230     1.9570    -0.0360 H     1 <1>   0.0800 
 44 H        9.2650     1.4740    -1.0150 H     1 <1>   0.0800 
 45 H       10.3750    -0.0300     1.2820 H     1 <1>   0.4500 
 46 H       10.4370    -0.5420    -1.6140 H     1 <1>   0.0800 
 47 H       10.7550    -1.7810    -0.4220 H     1 <1>   0.0800 
 48 H       12.3170     0.8050    -0.7190 H     1 <1>   0.0800 
 49 H       12.8540    -0.7970    -1.1110 H     1 <1>   0.0800 
 50 H       12.5710    -0.3840     0.5540 H     1 <1>   0.0800 
@<TRIPOS>BOND
  1   1   2  2   
  2   1   3  2   
  3   1   4  am  
  4   1   5  1   
  5   4   6  1   
  6   4  27  1   
  7   5   7  ar  
  8   5   8  ar  
  9   6   9  ar  
 10   6  10  ar  
 11   7  11  ar  
 12   7  28  1   
 13   8  12  ar  
 14   8  29  1   
 15   9  13  ar  
 16   9  30  1   
 17  10  14  ar  
 18  10  31  1   
 19  11  15  ar  
 20  11  32  1   
 21  12  15  ar  
 22  12  33  1   
 23  13  16  ar  
 24  13  34  1   
 25  14  16  ar  
 26  14  35  1   
 27  15  36  1   
 28  16  17  1   
 29  17  18  2   
 30  17  19  am  
 31  19  20  1   
 32  19  21  1   
 33  20  22  1   
 34  20  37  1   
 35  20  38  1   
 36  21  23  1   
 37  21  39  1   
 38  21  40  1   
 39  22  24  1   
 40  22  41  1   
 41  22  42  1   
 42  23  24  1   
 43  23  43  1   
 44  23  44  1   
 45  24  25  1   
 46  24  45  1   
 47  25  26  1   
 48  25  46  1   
 49  25  47  1   
 50  26  48  1   
 51  26  49  1   
 52  26  50  1   
@<TRIPOS>SUBSTRUCTURE
  1 ****  13 GROUP 4 **** **** 0

# MOE 2024.06 (io_trps.svl 2023.06)
