@<TRIPOS>MOLECULE
NONAME
55 57 1 0 0 
SMALL
USER_CHARGES


@<TRIPOS>ATOM
  1 F        1.0420     0.4180     0.0960 F     1 <1>  -0.3400 
  2 C        2.1190     0.6220    -0.6540 C.3   1 <1>   1.1640 
  3 F        2.0230     1.8660    -1.1060 F     1 <1>  -0.3400 
  4 F        1.9870    -0.1690    -1.7130 F     1 <1>  -0.3400 
  5 C        3.4200     0.3940     0.1300 C.ar  1 <1>  -0.1440 
  6 C        4.4020    -0.4790    -0.3240 C.ar  1 <1>  -0.1500 
  7 C        3.6360     1.0740     1.3250 C.ar  1 <1>  -0.1500 
  8 C        5.5760    -0.6800     0.3870 C.ar  1 <1>   0.1000 
  9 C        4.8030     0.8820     2.0450 C.ar  1 <1>  -0.1500 
 10 N        6.5270    -1.5610    -0.1070 N.pl3 1 <1>  -0.8380 
 11 C        5.7670     0.0090     1.5780 C.ar  1 <1>  -0.1500 
 12 C        6.7540    -2.8030     0.6910 C.3   1 <1>   0.2090 
 13 C        7.8120    -0.9540    -0.5630 C.3   1 <1>   0.2090 
 14 C        7.6510    -3.7980    -0.0700 C.3   1 <1>   0.1100 
 15 C        8.6880    -1.9900    -1.2940 C.3   1 <1>   0.1100 
 16 N        8.9440    -3.1930    -0.4630 N.3   1 <1>  -0.8100 
 17 C        9.7840    -4.1800    -1.2070 C.3   1 <1>   0.1710 
 18 C       11.2410    -3.7500    -1.4010 C.2   1 <1>   0.5690 
 19 O       11.8650    -4.1690    -2.3480 O.2   1 <1>  -0.5700 
 20 N       11.7790    -2.9000    -0.4910 N.am  1 <1>  -0.7300 
 21 C       13.1370    -2.3400    -0.5040 C.3   1 <1>   0.2200 
 22 C       13.8080    -2.6980     0.8290 C.3   1 <1>  -0.1600 
 23 C       13.0140    -0.8390    -0.7850 C.3   1 <1>  -0.1600 
 24 C       15.3240    -2.4520     0.8060 C.3   1 <1>  -0.1600 
 25 C       14.3390    -0.0580    -0.7510 C.3   1 <1>  -0.1600 
 26 C       15.7570    -1.0280     1.1870 C.3   1 <1>  -0.1600 
 27 C       14.8770     0.1240     0.6750 C.3   1 <1>  -0.1600 
 28 H        4.2830    -1.0260    -1.2420 H     1 <1>   0.1500 
 29 H        2.8940     1.7580     1.7020 H     1 <1>   0.1500 
 30 H        4.9600     1.4120     2.9680 H     1 <1>   0.1500 
 31 H        6.6730    -0.1420     2.1330 H     1 <1>   0.1500 
 32 H        5.8050    -3.2650     0.9020 H     1 <1>   0.0800 
 33 H        7.2210    -2.5510     1.6270 H     1 <1>   0.0800 
 34 H        8.3520    -0.5710     0.2850 H     1 <1>   0.0800 
 35 H        7.5990    -0.1340    -1.2250 H     1 <1>   0.0800 
 36 H        7.1230    -4.1350    -0.9460 H     1 <1>   0.0800 
 37 H        7.8330    -4.6490     0.5620 H     1 <1>   0.0800 
 38 H        9.6210    -1.5230    -1.5580 H     1 <1>   0.0800 
 39 H        8.1900    -2.2740    -2.2060 H     1 <1>   0.0800 
 40 H        9.3510    -4.3740    -2.1730 H     1 <1>   0.0800 
 41 H        9.8030    -5.1070    -0.6630 H     1 <1>   0.0800 
 42 H       11.1440    -2.5630     0.2380 H     1 <1>   0.3700 
 43 H       13.6910    -2.8000    -1.3060 H     1 <1>   0.0800 
 44 H       13.6570    -3.7500     0.9960 H     1 <1>   0.0800 
 45 H       13.3510    -2.1650     1.6440 H     1 <1>   0.0800 
 46 H       12.3280    -0.3970    -0.0840 H     1 <1>   0.0800 
 47 H       12.5910    -0.7290    -1.7680 H     1 <1>   0.0800 
 48 H       15.7090    -2.6930    -0.1710 H     1 <1>   0.0800 
 49 H       15.7940    -3.1320     1.4960 H     1 <1>   0.0800 
 50 H       14.1480     0.9200    -1.1590 H     1 <1>   0.0800 
 51 H       15.0750    -0.5270    -1.3810 H     1 <1>   0.0800 
 52 H       16.7600    -0.8810     0.8240 H     1 <1>   0.0800 
 53 H       15.8010    -0.9560     2.2600 H     1 <1>   0.0800 
 54 H       14.0540     0.2720     1.3530 H     1 <1>   0.0800 
 55 H       15.4670     1.0240     0.7070 H     1 <1>   0.0800 
@<TRIPOS>BOND
  1   1   2  1   
  2   2   3  1   
  3   2   4  1   
  4   2   5  1   
  5   5   6  ar  
  6   5   7  ar  
  7   6   8  ar  
  8   6  28  1   
  9   7   9  ar  
 10   7  29  1   
 11   8  10  1   
 12   8  11  ar  
 13   9  11  ar  
 14   9  30  1   
 15  10  12  1   
 16  10  13  1   
 17  11  31  1   
 18  12  14  1   
 19  12  32  1   
 20  12  33  1   
 21  13  15  1   
 22  13  34  1   
 23  13  35  1   
 24  14  16  1   
 25  14  36  1   
 26  14  37  1   
 27  15  16  1   
 28  15  38  1   
 29  15  39  1   
 30  16  17  1   
 31  17  18  1   
 32  17  40  1   
 33  17  41  1   
 34  18  19  2   
 35  18  20  am  
 36  20  21  1   
 37  20  42  1   
 38  21  22  1   
 39  21  23  1   
 40  21  43  1   
 41  22  24  1   
 42  22  44  1   
 43  22  45  1   
 44  23  25  1   
 45  23  46  1   
 46  23  47  1   
 47  24  26  1   
 48  24  48  1   
 49  24  49  1   
 50  25  27  1   
 51  25  50  1   
 52  25  51  1   
 53  26  27  1   
 54  26  52  1   
 55  26  53  1   
 56  27  54  1   
 57  27  55  1   
@<TRIPOS>SUBSTRUCTURE
  1 ****  13 GROUP 4 **** **** 0

# MOE 2024.06 (io_trps.svl 2023.06)
