@<TRIPOS>MOLECULE
NONAME
34 34 1 0 0 
SMALL
USER_CHARGES


@<TRIPOS>ATOM
  1 O       -7.1730     3.4220     0.9920 O.3   1 <1>  -0.6800 
  2 C       -6.7160     2.1340     1.1750 C.3   1 <1>   0.4000 
  3 C       -5.2270     2.2190     1.0930 C.1   1 <1>  -0.2000 
  4 C       -7.3270     1.2110     0.0990 C.3   1 <1>  -0.0800 
  5 C       -4.0480     2.3140     0.9700 C.1   1 <1>  -0.2000 
  6 C       -8.8700     1.3130     0.0710 C.3   1 <1>  -0.0220 
  7 C       -6.8980    -0.2620     0.2950 C.3   1 <1>  -0.1600 
  8 C       -2.5890     2.4770     0.7330 C.3   1 <1>   0.5430 
  9 C       -9.4970     0.2190    -0.7760 C.2   1 <1>  -0.2880 
 10 C       -7.3940    -1.1610    -0.8490 C.3   1 <1>  -0.0220 
 11 N       -2.4220     3.5190    -0.3170 N.4   1 <1>  -0.9590 
 12 C       -8.8430    -0.8680    -1.1910 C.2   1 <1>  -0.2880 
 13 C       -2.9190     3.0480    -1.6500 C.3   1 <1>   0.2630 
 14 C       -1.0090     3.9980    -0.4010 C.3   1 <1>   0.2630 
 15 H       -6.8300     3.9890     1.7070 H     1 <1>   0.4000 
 16 H       -7.0210     1.8110     2.1560 H     1 <1>   0.0800 
 17 H       -6.9590     1.5320    -0.8600 H     1 <1>   0.0800 
 18 H       -9.1530     2.2710    -0.3300 H     1 <1>   0.0800 
 19 H       -9.2660     1.2430     1.0690 H     1 <1>   0.0800 
 20 H       -7.3120    -0.6260     1.2200 H     1 <1>   0.0800 
 21 H       -5.8280    -0.3470     0.3560 H     1 <1>   0.0800 
 22 H       -2.1560     1.5430     0.4130 H     1 <1>   0.0800 
 23 H       -2.1130     2.7880     1.6480 H     1 <1>   0.0800 
 24 H      -10.5320     0.4050    -1.0120 H     1 <1>   0.1500 
 25 H       -7.2950    -2.1910    -0.5560 H     1 <1>   0.0800 
 26 H       -6.7930    -1.0040    -1.7280 H     1 <1>   0.0800 
 27 H       -3.0290     4.2990    -0.0210 H     1 <1>   0.4500 
 28 H       -9.2980    -1.6250    -1.8070 H     1 <1>   0.1500 
 29 H       -2.3470     2.1990    -1.9880 H     1 <1>   0.0800 
 30 H       -2.8340     3.8350    -2.3810 H     1 <1>   0.0800 
 31 H       -3.9560     2.7580    -1.5830 H     1 <1>   0.0800 
 32 H       -0.3550     3.1930    -0.6960 H     1 <1>   0.0800 
 33 H       -0.6830     4.3780     0.5540 H     1 <1>   0.0800 
 34 H       -0.9270     4.7900    -1.1280 H     1 <1>   0.0800 
@<TRIPOS>BOND
  1   1   2  1   
  2   1  15  1   
  3   2   3  1   
  4   2   4  1   
  5   2  16  1   
  6   3   5  3   
  7   4   6  1   
  8   4   7  1   
  9   4  17  1   
 10   5   8  1   
 11   6   9  1   
 12   6  18  1   
 13   6  19  1   
 14   7  10  1   
 15   7  20  1   
 16   7  21  1   
 17   8  11  1   
 18   8  22  1   
 19   8  23  1   
 20   9  12  2   
 21   9  24  1   
 22  10  12  1   
 23  10  25  1   
 24  10  26  1   
 25  11  13  1   
 26  11  14  1   
 27  11  27  1   
 28  12  28  1   
 29  13  29  1   
 30  13  30  1   
 31  13  31  1   
 32  14  32  1   
 33  14  33  1   
 34  14  34  1   
@<TRIPOS>SUBSTRUCTURE
  1 ****   3 GROUP 4 **** **** 0

# MOE 2024.06 (io_trps.svl 2023.06)
