@<TRIPOS>MOLECULE
NONAME
40 41 1 0 0 
SMALL
USER_CHARGES


@<TRIPOS>ATOM
  1 S        0.7830    -0.9040     1.3920 S.o2  1 <1>   1.4470 
  2 O        2.0520    -1.5790     1.5780 O.2   1 <1>  -0.6500 
  3 O       -0.2020    -1.0130     2.4460 O.2   1 <1>  -0.6500 
  4 N        0.0810    -1.5330    -0.0270 N.am  1 <1>  -0.8490 
  5 C        1.0620     0.8640     1.0670 C.ar  1 <1>  -0.0090 
  6 C        1.0620    -2.1060    -0.9900 C.3   1 <1>   0.2570 
  7 C       -0.9920    -2.4970     0.2400 C.3   1 <1>   0.1160 
  8 C        1.7200     1.6420     2.0190 C.ar  1 <1>  -0.1500 
  9 C        0.6290     1.4890    -0.1040 C.ar  1 <1>  -0.1500 
 10 C        2.1100    -1.1380    -1.5640 C.2   1 <1>   0.5690 
 11 C        1.9520     2.9920     1.8170 C.ar  1 <1>  -0.1500 
 12 C        0.8530     2.8380    -0.3260 C.ar  1 <1>  -0.1500 
 13 O        1.8950    -0.6060    -2.6270 O.2   1 <1>  -0.5700 
 14 N        3.2610    -0.9210    -0.8770 N.am  1 <1>  -0.7300 
 15 C        1.5130     3.5670     0.6420 C.ar  1 <1>   0.1900 
 16 C        4.4050    -0.1140    -1.3280 C.3   1 <1>   0.2200 
 17 F        1.7300     4.8370     0.4400 F     1 <1>  -0.1900 
 18 C        5.6830    -0.8850    -1.0280 C.3   1 <1>  -0.1600 
 19 C        4.5300     1.1150    -0.4390 C.3   1 <1>  -0.1600 
 20 C        5.9760    -0.6440     0.4590 C.3   1 <1>  -0.1600 
 21 C        5.2030     0.6230     0.8470 C.3   1 <1>  -0.1600 
 22 H        0.5240    -2.5010    -1.8330 H     1 <1>   0.0800 
 23 H        1.5800    -2.9290    -0.5290 H     1 <1>   0.0800 
 24 H       -1.7760    -2.0290     0.8120 H     1 <1>   0.0800 
 25 H       -0.6120    -3.3380     0.7970 H     1 <1>   0.0800 
 26 H       -1.4210    -2.8470    -0.6830 H     1 <1>   0.0800 
 27 H        2.0560     1.1800     2.9330 H     1 <1>   0.1500 
 28 H        0.1130     0.9210    -0.8600 H     1 <1>   0.1500 
 29 H        2.4620     3.5890     2.5520 H     1 <1>   0.1500 
 30 H        0.5240     3.3140    -1.2330 H     1 <1>   0.1500 
 31 H        3.3530    -1.2910     0.0790 H     1 <1>   0.3700 
 32 H        4.3070     0.1400    -2.3720 H     1 <1>   0.0800 
 33 H        6.4810    -0.4610    -1.6130 H     1 <1>   0.0800 
 34 H        5.5970    -1.9300    -1.2720 H     1 <1>   0.0800 
 35 H        3.5820     1.5880    -0.2650 H     1 <1>   0.0800 
 36 H        5.1780     1.8220    -0.9250 H     1 <1>   0.0800 
 37 H        7.0330    -0.5270     0.6270 H     1 <1>   0.0800 
 38 H        5.6220    -1.4760     1.0450 H     1 <1>   0.0800 
 39 H        4.4530     0.3760     1.5790 H     1 <1>   0.0800 
 40 H        5.8530     1.3770     1.2560 H     1 <1>   0.0800 
@<TRIPOS>BOND
  1   1   2  2   
  2   1   3  2   
  3   1   4  am  
  4   1   5  1   
  5   4   6  1   
  6   4   7  1   
  7   5   8  ar  
  8   5   9  ar  
  9   6  10  1   
 10   6  22  1   
 11   6  23  1   
 12   7  24  1   
 13   7  25  1   
 14   7  26  1   
 15   8  11  ar  
 16   8  27  1   
 17   9  12  ar  
 18   9  28  1   
 19  10  13  2   
 20  10  14  am  
 21  11  15  ar  
 22  11  29  1   
 23  12  15  ar  
 24  12  30  1   
 25  14  16  1   
 26  14  31  1   
 27  15  17  1   
 28  16  18  1   
 29  16  19  1   
 30  16  32  1   
 31  18  20  1   
 32  18  33  1   
 33  18  34  1   
 34  19  21  1   
 35  19  35  1   
 36  19  36  1   
 37  20  21  1   
 38  20  37  1   
 39  20  38  1   
 40  21  39  1   
 41  21  40  1   
@<TRIPOS>SUBSTRUCTURE
  1 ****   5 GROUP 4 **** **** 0

# MOE 2024.06 (io_trps.svl 2023.06)
