@<TRIPOS>MOLECULE
NONAME
36 38 1 0 0 
SMALL
USER_CHARGES


@<TRIPOS>ATOM
  1 O       -0.6400    -1.0430    -0.3860 O.2   1 <1>  -0.5700 
  2 C       -1.1930    -1.9120     0.2390 C.2   1 <1>   0.5690 
  3 N       -2.3470    -1.7090     0.9170 N.am  1 <1>  -0.7300 
  4 C       -0.5880    -3.2900     0.2740 C.3   1 <1>  -0.1790 
  5 C       -3.1050    -0.4320     0.9480 C.3   1 <1>   0.1400 
  6 C       -4.5550    -0.6000     0.4450 C.3   1 <1>   0.0000 
  7 C       -5.2680     0.7720     0.5120 C.3   1 <1>  -0.1600 
  8 C       -5.3480    -1.6030     1.3180 C.3   1 <1>  -0.1600 
  9 C       -4.5830    -1.0880    -1.0240 C.3   1 <1>  -0.1600 
 10 C       -6.7210     0.6620     0.0140 C.3   1 <1>  -0.0800 
 11 C       -6.8010    -1.7260     0.8210 C.3   1 <1>  -0.0800 
 12 C       -6.0330    -1.2110    -1.5290 C.3   1 <1>  -0.0800 
 13 C       -7.4820    -0.3470     0.8940 C.3   1 <1>  -0.1600 
 14 C       -6.7180     0.1650    -1.4430 C.3   1 <1>  -0.1600 
 15 C       -6.7960    -2.2130    -0.6410 C.3   1 <1>  -0.1600 
 16 H       -2.7870    -2.4860     1.4080 H     1 <1>   0.3700 
 17 H       -1.2780    -3.9990    -0.1430 H     1 <1>   0.0800 
 18 H       -0.3590    -3.5600     1.2870 H     1 <1>   0.0800 
 19 H        0.3170    -3.3020    -0.3040 H     1 <1>   0.0800 
 20 H       -2.6000     0.2980     0.3370 H     1 <1>   0.0800 
 21 H       -3.1130    -0.0620     1.9580 H     1 <1>   0.0800 
 22 H       -4.7390     1.4880    -0.0920 H     1 <1>   0.0800 
 23 H       -5.2670     1.1370     1.5250 H     1 <1>   0.0800 
 24 H       -5.3460    -1.2770     2.3440 H     1 <1>   0.0800 
 25 H       -4.8870    -2.5740     1.2810 H     1 <1>   0.0800 
 26 H       -4.0990    -2.0450    -1.1060 H     1 <1>   0.0800 
 27 H       -4.0400    -0.4000    -1.6470 H     1 <1>   0.0800 
 28 H       -7.1990     1.6250     0.0680 H     1 <1>   0.0800 
 29 H       -7.3380    -2.4290     1.4350 H     1 <1>   0.0800 
 30 H       -6.0340    -1.5550    -2.5490 H     1 <1>   0.0800 
 31 H       -8.5010    -0.4270     0.5580 H     1 <1>   0.0800 
 32 H       -7.5000    -0.0020     1.9130 H     1 <1>   0.0800 
 33 H       -7.7290     0.0920    -1.8060 H     1 <1>   0.0800 
 34 H       -6.1970     0.8700    -2.0680 H     1 <1>   0.0800 
 35 H       -7.8070    -2.3140    -0.9940 H     1 <1>   0.0800 
 36 H       -6.3310    -3.1810    -0.7020 H     1 <1>   0.0800 
@<TRIPOS>BOND
  1   1   2  2   
  2   2   3  am  
  3   2   4  1   
  4   3   5  1   
  5   3  16  1   
  6   4  17  1   
  7   4  18  1   
  8   4  19  1   
  9   5   6  1   
 10   5  20  1   
 11   5  21  1   
 12   6   7  1   
 13   6   8  1   
 14   6   9  1   
 15   7  10  1   
 16   7  22  1   
 17   7  23  1   
 18   8  11  1   
 19   8  24  1   
 20   8  25  1   
 21   9  12  1   
 22   9  26  1   
 23   9  27  1   
 24  10  13  1   
 25  10  14  1   
 26  10  28  1   
 27  11  13  1   
 28  11  15  1   
 29  11  29  1   
 30  12  14  1   
 31  12  15  1   
 32  12  30  1   
 33  13  31  1   
 34  13  32  1   
 35  14  33  1   
 36  14  34  1   
 37  15  35  1   
 38  15  36  1   
@<TRIPOS>SUBSTRUCTURE
  1 ****   6 GROUP 4 **** **** 0

# MOE 2024.06 (io_trps.svl 2023.06)
