@<TRIPOS>MOLECULE
NONAME
50 51 1 0 0 
SMALL
USER_CHARGES


@<TRIPOS>ATOM
  1 O      -10.6760     1.6890    -0.3740 O.2   1 <1>  -0.5700 
  2 C      -11.5510     1.5560     0.4740 C.2   1 <1>   0.5440 
  3 N      -11.3150     2.0490     1.7280 N.am  1 <1>  -0.4300 
  4 C      -12.7970     0.8870     0.1620 C.ar  1 <1>   0.0860 
  5 N      -10.0150     2.5750     2.1450 N.am  1 <1>  -0.4300 
  6 C      -13.4220     1.0760    -1.0680 C.ar  1 <1>  -0.1500 
  7 C      -13.4190     0.0300     1.0690 C.ar  1 <1>  -0.1500 
  8 C       -8.9580     1.7500     2.3470 C.2   1 <1>   0.5690 
  9 C      -14.6170     0.4610    -1.3930 C.ar  1 <1>   0.0830 
 10 C      -14.6190    -0.5890     0.7700 C.ar  1 <1>  -0.1500 
 11 O       -9.0530     0.6630     2.8680 O.2   1 <1>  -0.5700 
 12 C       -7.6290     2.1120     1.7460 C.3   1 <1>  -0.0990 
 13 O      -15.0870     0.7510    -2.6380 O.3   1 <1>  -0.3630 
 14 C      -15.2440    -0.3780    -0.4570 C.ar  1 <1>   0.0830 
 15 C       -7.6210     1.4110     0.3900 C.3   1 <1>   0.3430 
 16 C      -15.8140    -0.1990    -3.3860 C.3   1 <1>   0.0400 
 17 O      -16.4430    -0.9530    -0.7490 O.3   1 <1>  -0.3630 
 18 N       -6.3290     1.5870    -0.3330 N.4   1 <1>  -0.9590 
 19 C      -17.1560    -1.7430     0.1760 C.3   1 <1>   0.0400 
 20 C       -6.5270     1.2370    -1.7710 C.3   1 <1>   0.3430 
 21 C       -5.2340     0.7720     0.2760 C.3   1 <1>   0.3430 
 22 C       -5.2440     1.5210    -2.5530 C.3   1 <1>  -0.1600 
 23 C       -3.9200     1.0450    -0.4600 C.3   1 <1>  -0.1600 
 24 C       -4.0430     0.7690    -1.9640 C.3   1 <1>  -0.1600 
 25 H      -12.0150     1.9100     2.4670 H     1 <1>   0.3700 
 26 H       -9.8460     3.5400     1.8440 H     1 <1>   0.3700 
 27 H      -12.9620     1.7210    -1.7960 H     1 <1>   0.1500 
 28 H      -12.9560    -0.1660     2.0210 H     1 <1>   0.1500 
 29 H      -15.0510    -1.2350     1.5100 H     1 <1>   0.1500 
 30 H       -6.8520     1.7420     2.3890 H     1 <1>   0.0800 
 31 H       -7.5440     3.1760     1.6350 H     1 <1>   0.0800 
 32 H       -8.4220     1.8180    -0.2070 H     1 <1>   0.0800 
 33 H       -7.8240     0.3600     0.5290 H     1 <1>   0.0800 
 34 H      -15.3770    -1.1710    -3.2420 H     1 <1>   0.0800 
 35 H      -16.8380    -0.1870    -3.0580 H     1 <1>   0.0800 
 36 H      -15.7620     0.0800    -4.4220 H     1 <1>   0.0800 
 37 H       -6.0500     2.5740    -0.3000 H     1 <1>   0.4500 
 38 H      -18.0770    -2.0490    -0.2870 H     1 <1>   0.0800 
 39 H      -16.5680    -2.6090     0.4240 H     1 <1>   0.0800 
 40 H      -17.3670    -1.1530     1.0510 H     1 <1>   0.0800 
 41 H       -7.3380     1.8160    -2.1850 H     1 <1>   0.0800 
 42 H       -6.7800     0.1920    -1.8600 H     1 <1>   0.0800 
 43 H       -5.4760    -0.2760     0.2030 H     1 <1>   0.0800 
 44 H       -5.1170     1.0200     1.3180 H     1 <1>   0.0800 
 45 H       -5.0520     2.5800    -2.5530 H     1 <1>   0.0800 
 46 H       -5.3830     1.2210    -3.5770 H     1 <1>   0.0800 
 47 H       -3.1490     0.4180    -0.0450 H     1 <1>   0.0800 
 48 H       -3.6240     2.0670    -0.2960 H     1 <1>   0.0800 
 49 H       -3.1390     1.0700    -2.4670 H     1 <1>   0.0800 
 50 H       -4.1690    -0.2890    -2.1250 H     1 <1>   0.0800 
@<TRIPOS>BOND
  1   1   2  2   
  2   2   3  am  
  3   2   4  1   
  4   3   5  1   
  5   3  25  1   
  6   4   6  ar  
  7   4   7  ar  
  8   5   8  am  
  9   5  26  1   
 10   6   9  ar  
 11   6  27  1   
 12   7  10  ar  
 13   7  28  1   
 14   8  11  2   
 15   8  12  1   
 16   9  13  1   
 17   9  14  ar  
 18  10  14  ar  
 19  10  29  1   
 20  12  15  1   
 21  12  30  1   
 22  12  31  1   
 23  13  16  1   
 24  14  17  1   
 25  15  18  1   
 26  15  32  1   
 27  15  33  1   
 28  16  34  1   
 29  16  35  1   
 30  16  36  1   
 31  17  19  1   
 32  18  20  1   
 33  18  21  1   
 34  18  37  1   
 35  19  38  1   
 36  19  39  1   
 37  19  40  1   
 38  20  22  1   
 39  20  41  1   
 40  20  42  1   
 41  21  23  1   
 42  21  43  1   
 43  21  44  1   
 44  22  24  1   
 45  22  45  1   
 46  22  46  1   
 47  23  24  1   
 48  23  47  1   
 49  23  48  1   
 50  24  49  1   
 51  24  50  1   
@<TRIPOS>SUBSTRUCTURE
  1 ****   1 GROUP 4 **** **** 0

# MOE 2024.06 (io_trps.svl 2023.06)
