@<TRIPOS>MOLECULE
NONAME
37 38 1 0 0 
SMALL
USER_CHARGES


@<TRIPOS>ATOM
  1 CL      -1.2970    -0.6390     1.0430 Cl    1 <1>  -0.1770 
  2 C       -0.8230    -2.1050     0.2190 C.ar  1 <1>   0.1770 
  3 C       -1.7640    -2.9060    -0.4180 C.ar  1 <1>  -0.0090 
  4 C        0.5250    -2.4240     0.2370 C.ar  1 <1>  -0.1500 
  5 S       -3.5190    -2.4810    -0.4280 S.o2  1 <1>   1.4470 
  6 C       -1.3040    -4.0590    -1.0490 C.ar  1 <1>  -0.1500 
  7 C        0.9660    -3.5740    -0.3940 C.ar  1 <1>  -0.1500 
  8 O       -3.7050    -1.1510    -0.9570 O.2   1 <1>  -0.6500 
  9 O       -4.2800    -3.5560    -1.0290 O.2   1 <1>  -0.6500 
 10 N       -3.9640    -2.4680     1.2070 N.am  1 <1>  -0.8490 
 11 C        0.0410    -4.3790    -1.0310 C.ar  1 <1>   0.1770 
 12 C       -5.1450    -1.5960     1.4880 C.3   1 <1>   0.2570 
 13 C       -4.0530    -3.8020     1.8090 C.3   1 <1>   0.1960 
 14 CL       0.5800    -5.8330    -1.8270 Cl    1 <1>  -0.1770 
 15 C       -6.5480    -2.1620     1.2020 C.2   1 <1>   0.5690 
 16 C       -4.0320    -3.7080     3.3330 C.3   1 <1>  -0.2400 
 17 O       -7.4170    -1.9390     2.0140 O.2   1 <1>  -0.5700 
 18 N       -6.7920    -2.8940     0.0790 N.am  1 <1>  -0.5790 
 19 C       -8.0780    -3.4880    -0.3040 C.3   1 <1>   0.0490 
 20 C       -8.0550    -4.8330    -0.9480 C.3   1 <1>  -0.2000 
 21 C       -8.3780    -3.6140    -1.7600 C.3   1 <1>  -0.2000 
 22 H        1.2200    -1.7740     0.7410 H     1 <1>   0.1500 
 23 H       -1.9900    -4.7140    -1.5600 H     1 <1>   0.1500 
 24 H        2.0070    -3.8450    -0.3950 H     1 <1>   0.1500 
 25 H       -5.0500    -0.6660     0.9590 H     1 <1>   0.0800 
 26 H       -5.1210    -1.3340     2.5310 H     1 <1>   0.0800 
 27 H       -3.2020    -4.3880     1.5010 H     1 <1>   0.0800 
 28 H       -4.9400    -4.3170     1.4780 H     1 <1>   0.0800 
 29 H       -4.9410    -3.2740     3.7070 H     1 <1>   0.0800 
 30 H       -3.1900    -3.1240     3.6600 H     1 <1>   0.0800 
 31 H       -3.9440    -4.6950     3.7500 H     1 <1>   0.0800 
 32 H       -6.0150    -3.1340    -0.5500 H     1 <1>   0.3700 
 33 H       -8.8830    -3.2480     0.3740 H     1 <1>   0.1000 
 34 H       -8.8500    -5.5240    -0.7300 H     1 <1>   0.1000 
 35 H       -7.1080    -5.3210    -1.0990 H     1 <1>   0.1000 
 36 H       -7.6560    -3.2520    -2.4700 H     1 <1>   0.1000 
 37 H       -9.3920    -3.4770    -2.0910 H     1 <1>   0.1000 
@<TRIPOS>BOND
  1   1   2  1   
  2   2   3  ar  
  3   2   4  ar  
  4   3   5  1   
  5   3   6  ar  
  6   4   7  ar  
  7   4  22  1   
  8   5   8  2   
  9   5   9  2   
 10   5  10  am  
 11   6  11  ar  
 12   6  23  1   
 13   7  11  ar  
 14   7  24  1   
 15  10  12  1   
 16  10  13  1   
 17  11  14  1   
 18  12  15  1   
 19  12  25  1   
 20  12  26  1   
 21  13  16  1   
 22  13  27  1   
 23  13  28  1   
 24  15  17  2   
 25  15  18  am  
 26  16  29  1   
 27  16  30  1   
 28  16  31  1   
 29  18  19  1   
 30  18  32  1   
 31  19  20  1   
 32  19  21  1   
 33  19  33  1   
 34  20  21  1   
 35  20  34  1   
 36  20  35  1   
 37  21  36  1   
 38  21  37  1   
@<TRIPOS>SUBSTRUCTURE
  1 ****   5 GROUP 4 **** **** 0

# MOE 2024.06 (io_trps.svl 2023.06)
