@<TRIPOS>MOLECULE
NONAME
39 40 1 0 0 
SMALL
USER_CHARGES


@<TRIPOS>ATOM
  1 S        0.1760     0.2430     1.1950 S.3   1 <1>  -0.2860 
  2 C       -0.8180    -1.1460     0.6240 C.2   1 <1>   0.2420 
  3 C        1.9420    -0.3290     1.2230 C.3   1 <1>   0.1310 
  4 N       -1.6850    -0.9920    -0.3210 N.2   1 <1>  -0.5650 
  5 N       -0.7560    -2.3930     1.1560 N.pl3 1 <1>   0.0480 
  6 C        2.5640    -0.2910    -0.1670 C.2   1 <1>   0.5690 
  7 C       -2.2330    -2.2170    -0.4270 C.2   1 <1>   0.0770 
  8 C       -1.6830    -3.0800     0.4580 C.2   1 <1>  -0.3020 
  9 C        0.0060    -2.9180     2.3010 C.3   1 <1>   0.0160 
 10 O        2.8720     0.7690    -0.6500 O.2   1 <1>  -0.5700 
 11 N        2.8260    -1.4370    -0.8510 N.am  1 <1>  -0.5470 
 12 C        2.6040    -2.7670    -0.4750 C.ar  1 <1>   0.1170 
 13 C        3.4020    -3.3830     0.4930 C.ar  1 <1>  -0.1430 
 14 C        1.5750    -3.4900    -1.0790 C.ar  1 <1>  -0.1430 
 15 C        3.1320    -4.6860     0.8760 C.ar  1 <1>  -0.1500 
 16 C        4.5880    -2.6710     1.1350 C.3   1 <1>  -0.0970 
 17 C        1.3250    -4.7920    -0.6820 C.ar  1 <1>  -0.1500 
 18 C        0.7160    -2.8780    -2.1800 C.3   1 <1>  -0.0970 
 19 C        2.0940    -5.3950     0.2980 C.ar  1 <1>  -0.1430 
 20 C        1.8030    -6.8230     0.7220 C.3   1 <1>  -0.0970 
 21 H        1.9680    -1.3110     1.6440 H     1 <1>   0.0800 
 22 H        2.4680     0.3510     1.8660 H     1 <1>   0.0800 
 23 H       -3.0100    -2.4170    -1.1460 H     1 <1>   0.1500 
 24 H       -1.9000    -4.1190     0.6270 H     1 <1>   0.1500 
 25 H        0.2080    -2.1240     2.9960 H     1 <1>   0.0800 
 26 H        0.9270    -3.3440     1.9500 H     1 <1>   0.0800 
 27 H       -0.5710    -3.6790     2.7930 H     1 <1>   0.0800 
 28 H        3.1260    -1.2760    -1.8120 H     1 <1>   0.3700 
 29 H        3.7400    -5.1610     1.6260 H     1 <1>   0.1500 
 30 H        4.2580    -2.0430     1.9420 H     1 <1>   0.0800 
 31 H        5.1050    -2.0670     0.4110 H     1 <1>   0.0800 
 32 H        5.2910    -3.3840     1.5260 H     1 <1>   0.0800 
 33 H        0.5250    -5.3460    -1.1420 H     1 <1>   0.1500 
 34 H       -0.1760    -3.4560    -2.3380 H     1 <1>   0.0800 
 35 H        0.4180    -1.8780    -1.9230 H     1 <1>   0.0800 
 36 H        1.2700    -2.8460    -3.1000 H     1 <1>   0.0800 
 37 H        2.6780    -7.2780     1.1500 H     1 <1>   0.0800 
 38 H        1.5000    -7.4090    -0.1270 H     1 <1>   0.0800 
 39 H        1.0130    -6.8340     1.4510 H     1 <1>   0.0800 
@<TRIPOS>BOND
  1   1   2  1   
  2   1   3  1   
  3   2   4  2   
  4   2   5  1   
  5   3   6  1   
  6   3  21  1   
  7   3  22  1   
  8   4   7  1   
  9   5   8  1   
 10   5   9  1   
 11   6  10  2   
 12   6  11  am  
 13   7   8  2   
 14   7  23  1   
 15   8  24  1   
 16   9  25  1   
 17   9  26  1   
 18   9  27  1   
 19  11  12  1   
 20  11  28  1   
 21  12  13  ar  
 22  12  14  ar  
 23  13  15  ar  
 24  13  16  1   
 25  14  17  ar  
 26  14  18  1   
 27  15  19  ar  
 28  15  29  1   
 29  16  30  1   
 30  16  31  1   
 31  16  32  1   
 32  17  19  ar  
 33  17  33  1   
 34  18  34  1   
 35  18  35  1   
 36  18  36  1   
 37  19  20  1   
 38  20  37  1   
 39  20  38  1   
 40  20  39  1   
@<TRIPOS>SUBSTRUCTURE
  1 ****  12 GROUP 4 **** **** 0

# MOE 2024.06 (io_trps.svl 2023.06)
