@<TRIPOS>MOLECULE
NONAME
43 45 1 0 0 
SMALL
USER_CHARGES


@<TRIPOS>ATOM
  1 F        0.4090    -0.4160     0.6610 F     1 <1>  -0.1900 
  2 C        1.5500    -1.0400     0.5140 C.ar  1 <1>   0.1900 
  3 C        2.5050    -0.9280     1.5070 C.ar  1 <1>  -0.1500 
  4 C        1.7590    -1.7870    -0.6300 C.ar  1 <1>  -0.1500 
  5 C        3.7090    -1.5910     1.3450 C.ar  1 <1>  -0.1500 
  6 C        2.9680    -2.4440    -0.7780 C.ar  1 <1>  -0.1500 
  7 C        3.9510    -2.3530     0.2030 C.ar  1 <1>   0.1000 
  8 N        5.1540    -3.0260     0.0240 N.pl3 1 <1>  -0.8380 
  9 C        5.3720    -4.2240     0.8860 C.3   1 <1>   0.2090 
 10 C        6.3640    -2.1780    -0.1810 C.3   1 <1>   0.2090 
 11 C        6.5630    -5.0600     0.3690 C.3   1 <1>   0.3430 
 12 C        7.5430    -3.0300    -0.6940 C.3   1 <1>   0.3430 
 13 N        7.8130    -4.2360     0.1800 N.4   1 <1>  -0.9590 
 14 C        8.9410    -5.0520    -0.3460 C.3   1 <1>   0.4860 
 15 C       10.1920    -4.1950    -0.3450 C.ar  1 <1>  -0.1430 
 16 C       10.8440    -3.9020     0.8430 C.ar  1 <1>  -0.1500 
 17 C       10.6910    -3.6860    -1.5340 C.ar  1 <1>  -0.1500 
 18 C       11.9700    -3.0970     0.8420 C.ar  1 <1>  -0.1500 
 19 C       11.8170    -2.8810    -1.5330 C.ar  1 <1>  -0.1500 
 20 C       12.4720    -2.5740    -0.3450 C.ar  1 <1>  -0.1430 
 21 C       13.7180    -1.6700    -0.3430 C.3   1 <1>   1.1630 
 22 F       14.5610    -1.9600     0.6400 F     1 <1>  -0.3400 
 23 F       14.4150    -1.7520    -1.4690 F     1 <1>  -0.3400 
 24 F       13.3940    -0.3930    -0.1940 F     1 <1>  -0.3400 
 25 H        2.3020    -0.3360     2.3810 H     1 <1>   0.1500 
 26 H        0.9910    -1.8490    -1.3810 H     1 <1>   0.1500 
 27 H        4.4630    -1.5160     2.1060 H     1 <1>   0.1500 
 28 H        3.1590    -3.0320    -1.6570 H     1 <1>   0.1500 
 29 H        4.4810    -4.8290     0.8800 H     1 <1>   0.0800 
 30 H        5.5530    -3.9130     1.9000 H     1 <1>   0.0800 
 31 H        6.6330    -1.6960     0.7420 H     1 <1>   0.0800 
 32 H        6.1380    -1.4100    -0.9020 H     1 <1>   0.0800 
 33 H        6.2730    -5.4960    -0.5740 H     1 <1>   0.0800 
 34 H        6.7510    -5.8650     1.0600 H     1 <1>   0.0800 
 35 H        8.4220    -2.4090    -0.7470 H     1 <1>   0.0800 
 36 H        7.3080    -3.3550    -1.6940 H     1 <1>   0.0800 
 37 H        8.1060    -3.8750     1.0950 H     1 <1>   0.4500 
 38 H        8.7250    -5.3890    -1.3470 H     1 <1>   0.0800 
 39 H        9.1010    -5.9160     0.2790 H     1 <1>   0.0800 
 40 H       10.4930    -4.2950     1.7820 H     1 <1>   0.1500 
 41 H       10.2150    -3.9070    -2.4760 H     1 <1>   0.1500 
 42 H       12.4600    -2.8800     1.7790 H     1 <1>   0.1500 
 43 H       12.1850    -2.4940    -2.4700 H     1 <1>   0.1500 
@<TRIPOS>BOND
  1   1   2  1   
  2   2   3  ar  
  3   2   4  ar  
  4   3   5  ar  
  5   3  25  1   
  6   4   6  ar  
  7   4  26  1   
  8   5   7  ar  
  9   5  27  1   
 10   6   7  ar  
 11   6  28  1   
 12   7   8  1   
 13   8   9  1   
 14   8  10  1   
 15   9  11  1   
 16   9  29  1   
 17   9  30  1   
 18  10  12  1   
 19  10  31  1   
 20  10  32  1   
 21  11  13  1   
 22  11  33  1   
 23  11  34  1   
 24  12  13  1   
 25  12  35  1   
 26  12  36  1   
 27  13  14  1   
 28  13  37  1   
 29  14  15  1   
 30  14  38  1   
 31  14  39  1   
 32  15  16  ar  
 33  15  17  ar  
 34  16  18  ar  
 35  16  40  1   
 36  17  19  ar  
 37  17  41  1   
 38  18  20  ar  
 39  18  42  1   
 40  19  20  ar  
 41  19  43  1   
 42  20  21  1   
 43  21  22  1   
 44  21  23  1   
 45  21  24  1   
@<TRIPOS>SUBSTRUCTURE
  1 ****  12 GROUP 4 **** **** 0

# MOE 2024.06 (io_trps.svl 2023.06)
