@<TRIPOS>MOLECULE
NONAME
48 49 1 0 0 
SMALL
USER_CHARGES


@<TRIPOS>ATOM
  1 BR       1.5600    -0.4240     2.1770 Br    1 <1>  -0.1110 
  2 C        0.5250    -1.8350     1.3600 C.ar  1 <1>   0.1110 
  3 C        0.9420    -2.3910     0.1580 C.ar  1 <1>   0.0820 
  4 C       -0.6180    -2.2480     2.0140 C.ar  1 <1>  -0.1500 
  5 O        2.0810    -1.9150    -0.4090 O.3   1 <1>  -0.3630 
  6 C        0.1660    -3.4030    -0.3980 C.ar  1 <1>  -0.1500 
  7 C       -1.3870    -3.2550     1.4520 C.ar  1 <1>  -0.1430 
  8 C        2.6090    -2.4580    -1.5990 C.3   1 <1>   0.0400 
  9 C       -0.9950    -3.8340     0.2440 C.ar  1 <1>   0.0830 
 10 C       -2.6500    -3.7200     2.1540 C.3   1 <1>   0.4870 
 11 O       -1.7970    -4.8120    -0.2610 O.3   1 <1>  -0.3630 
 12 N       -3.8050    -3.5060     1.2460 N.4   1 <1>  -0.9590 
 13 C       -1.4070    -5.5800    -1.3840 C.3   1 <1>   0.0400 
 14 C       -4.0380    -2.0650     0.9500 C.3   1 <1>   0.3430 
 15 C       -5.0260    -4.2120     1.7100 C.3   1 <1>   0.3430 
 16 C       -5.0890    -1.9420    -0.1500 C.3   1 <1>  -0.1600 
 17 C       -6.0970    -4.1300     0.6250 C.3   1 <1>  -0.1600 
 18 C       -6.3960    -2.6760     0.2090 C.3   1 <1>  -0.0190 
 19 C       -7.3830    -2.6350    -0.9530 C.2   1 <1>   0.6590 
 20 O       -7.1040    -3.1050    -2.0250 O.2   1 <1>  -0.5700 
 21 O       -8.5490    -2.0600    -0.7040 O.3   1 <1>  -0.4300 
 22 C       -9.5450    -1.9610    -1.6970 C.3   1 <1>   0.1200 
 23 C      -10.7500    -1.2520    -1.0890 C.3   1 <1>  -0.2400 
 24 H       -0.8820    -1.7780     2.9460 H     1 <1>   0.1500 
 25 H        0.4670    -3.8450    -1.3260 H     1 <1>   0.1500 
 26 H        3.5180    -1.9320    -1.8300 H     1 <1>   0.0800 
 27 H        1.8980    -2.3210    -2.3940 H     1 <1>   0.0800 
 28 H        2.8230    -3.5010    -1.4440 H     1 <1>   0.0800 
 29 H       -2.7890    -3.1790     3.0750 H     1 <1>   0.0800 
 30 H       -2.5510    -4.7700     2.3820 H     1 <1>   0.0800 
 31 H       -3.4940    -3.9480     0.3630 H     1 <1>   0.4500 
 32 H       -1.3380    -4.9380    -2.2450 H     1 <1>   0.0800 
 33 H       -2.1530    -6.3350    -1.5550 H     1 <1>   0.0800 
 34 H       -0.4590    -6.0480    -1.1790 H     1 <1>   0.0800 
 35 H       -3.1210    -1.6000     0.6210 H     1 <1>   0.0800 
 36 H       -4.3780    -1.5570     1.8380 H     1 <1>   0.0800 
 37 H       -5.3920    -3.7560     2.6170 H     1 <1>   0.0800 
 38 H       -4.8020    -5.2470     1.9140 H     1 <1>   0.0800 
 39 H       -4.6830    -2.3390    -1.0660 H     1 <1>   0.0800 
 40 H       -5.2990    -0.9010    -0.3210 H     1 <1>   0.0800 
 41 H       -7.0010    -4.5900     0.9860 H     1 <1>   0.0800 
 42 H       -5.7720    -4.6970    -0.2320 H     1 <1>   0.0800 
 43 H       -6.8510    -2.1700     1.0430 H     1 <1>   0.0800 
 44 H       -9.8050    -2.9550    -2.0220 H     1 <1>   0.0800 
 45 H       -9.1460    -1.4030    -2.5280 H     1 <1>   0.0800 
 46 H      -11.1330    -1.8150    -0.2570 H     1 <1>   0.0800 
 47 H      -11.5270    -1.1630    -1.8270 H     1 <1>   0.0800 
 48 H      -10.4760    -0.2650    -0.7620 H     1 <1>   0.0800 
@<TRIPOS>BOND
  1   1   2  1   
  2   2   3  ar  
  3   2   4  ar  
  4   3   5  1   
  5   3   6  ar  
  6   4   7  ar  
  7   4  24  1   
  8   5   8  1   
  9   6   9  ar  
 10   6  25  1   
 11   7   9  ar  
 12   7  10  1   
 13   8  26  1   
 14   8  27  1   
 15   8  28  1   
 16   9  11  1   
 17  10  12  1   
 18  10  29  1   
 19  10  30  1   
 20  11  13  1   
 21  12  14  1   
 22  12  15  1   
 23  12  31  1   
 24  13  32  1   
 25  13  33  1   
 26  13  34  1   
 27  14  16  1   
 28  14  35  1   
 29  14  36  1   
 30  15  17  1   
 31  15  37  1   
 32  15  38  1   
 33  16  18  1   
 34  16  39  1   
 35  16  40  1   
 36  17  18  1   
 37  17  41  1   
 38  17  42  1   
 39  18  19  1   
 40  18  43  1   
 41  19  20  2   
 42  19  21  1   
 43  21  22  1   
 44  22  23  1   
 45  22  44  1   
 46  22  45  1   
 47  23  46  1   
 48  23  47  1   
 49  23  48  1   
@<TRIPOS>SUBSTRUCTURE
  1 ****  14 GROUP 4 **** **** 0

# MOE 2024.06 (io_trps.svl 2023.06)
