@<TRIPOS>MOLECULE
NONAME
46 47 1 0 0 
SMALL
USER_CHARGES


@<TRIPOS>ATOM
  1 N       -0.3010     0.1350    -0.3460 N.4   1 <1>  -0.9590 
  2 C       -1.3980     0.7800     0.4250 C.3   1 <1>   0.3430 
  3 C       -0.0540    -1.2680     0.0910 C.3   1 <1>   0.3430 
  4 C        0.9380     0.9630    -0.2510 C.3   1 <1>   0.3430 
  5 C       -2.6930    -0.0220     0.2780 C.3   1 <1>  -0.1600 
  6 C       -1.3290    -2.0970    -0.0690 C.3   1 <1>  -0.1600 
  7 C        1.9110     0.5640    -1.3550 C.3   1 <1>  -0.2400 
  8 C       -2.5150    -1.4900     0.7000 C.3   1 <1>   0.4230 
  9 N       -3.7650    -2.2820     0.4420 N.4   1 <1>  -0.9590 
 10 C       -5.0080    -1.7200     1.0680 C.3   1 <1>   0.4860 
 11 C       -3.6580    -3.7260     0.8210 C.3   1 <1>   0.3430 
 12 C       -6.2070    -2.3510     0.3900 C.ar  1 <1>  -0.1430 
 13 C       -3.7140    -4.5680    -0.4470 C.3   1 <1>  -0.2400 
 14 C       -6.9660    -3.3050     1.0530 C.ar  1 <1>  -0.1500 
 15 C       -6.5500    -1.9830    -0.9040 C.ar  1 <1>  -0.1500 
 16 C       -8.0450    -3.8980     0.4210 C.ar  1 <1>  -0.1500 
 17 C       -7.6290    -2.5770    -1.5330 C.ar  1 <1>  -0.1500 
 18 C       -8.3740    -3.5360    -0.8720 C.ar  1 <1>  -0.1500 
 19 H       -0.5570     0.1310    -1.3460 H     1 <1>   0.4500 
 20 H       -1.5560     1.7860     0.0660 H     1 <1>   0.0800 
 21 H       -1.1220     0.8400     1.4670 H     1 <1>   0.0800 
 22 H        0.2640    -1.2780     1.1220 H     1 <1>   0.0800 
 23 H        0.7320    -1.7080    -0.5030 H     1 <1>   0.0800 
 24 H        1.4030     0.8410     0.7150 H     1 <1>   0.0800 
 25 H        0.6910     2.0070    -0.3740 H     1 <1>   0.0800 
 26 H       -3.0250     0.0400    -0.7440 H     1 <1>   0.0800 
 27 H       -3.4220     0.4620     0.9010 H     1 <1>   0.0800 
 28 H       -1.1080    -3.0820     0.2980 H     1 <1>   0.0800 
 29 H       -1.5600    -2.1740    -1.1170 H     1 <1>   0.0800 
 30 H        2.2730    -0.4400    -1.2250 H     1 <1>   0.0800 
 31 H        2.7640     1.2190    -1.3220 H     1 <1>   0.0800 
 32 H        1.4590     0.6660    -2.3250 H     1 <1>   0.0800 
 33 H       -2.2930    -1.5210     1.7560 H     1 <1>   0.0800 
 34 H       -3.9690    -2.2860    -0.5660 H     1 <1>   0.4500 
 35 H       -5.0690    -0.6560     0.9230 H     1 <1>   0.0800 
 36 H       -5.0270    -1.9240     2.1260 H     1 <1>   0.0800 
 37 H       -4.4770    -4.0120     1.4630 H     1 <1>   0.0800 
 38 H       -2.7410    -3.9180     1.3530 H     1 <1>   0.0800 
 39 H       -4.6540    -4.4330    -0.9550 H     1 <1>   0.0800 
 40 H       -3.6370    -5.6080    -0.1820 H     1 <1>   0.0800 
 41 H       -2.9040    -4.3390    -1.1150 H     1 <1>   0.0800 
 42 H       -6.7370    -3.6010     2.0630 H     1 <1>   0.1500 
 43 H       -5.9970    -1.2310    -1.4400 H     1 <1>   0.1500 
 44 H       -8.6340    -4.6400     0.9340 H     1 <1>   0.1500 
 45 H       -7.8980    -2.2940    -2.5380 H     1 <1>   0.1500 
 46 H       -9.2150    -3.9980    -1.3630 H     1 <1>   0.1500 
@<TRIPOS>BOND
  1   1   2  1   
  2   1   3  1   
  3   1   4  1   
  4   1  19  1   
  5   2   5  1   
  6   2  20  1   
  7   2  21  1   
  8   3   6  1   
  9   3  22  1   
 10   3  23  1   
 11   4   7  1   
 12   4  24  1   
 13   4  25  1   
 14   5   8  1   
 15   5  26  1   
 16   5  27  1   
 17   6   8  1   
 18   6  28  1   
 19   6  29  1   
 20   7  30  1   
 21   7  31  1   
 22   7  32  1   
 23   8   9  1   
 24   8  33  1   
 25   9  10  1   
 26   9  11  1   
 27   9  34  1   
 28  10  12  1   
 29  10  35  1   
 30  10  36  1   
 31  11  13  1   
 32  11  37  1   
 33  11  38  1   
 34  12  14  ar  
 35  12  15  ar  
 36  13  39  1   
 37  13  40  1   
 38  13  41  1   
 39  14  16  ar  
 40  14  42  1   
 41  15  17  ar  
 42  15  43  1   
 43  16  18  ar  
 44  16  44  1   
 45  17  18  ar  
 46  17  45  1   
 47  18  46  1   
@<TRIPOS>SUBSTRUCTURE
  1 ****   9 GROUP 4 **** **** 0

# MOE 2024.06 (io_trps.svl 2023.06)
