@<TRIPOS>MOLECULE
12342
40 41 1 0 0 
SMALL
USER_CHARGES


@<TRIPOS>ATOM
  1 BR      -0.7850     2.9160    -0.9740 Br    1 <1>  -0.1110 
  2 C        1.0960     2.6040    -0.6990 C.ar  1 <1>   0.1110 
  3 C        1.4950     1.4080    -0.1340 C.ar  1 <1>  -0.1500 
  4 C        1.9930     3.5840    -1.0780 C.ar  1 <1>  -0.1500 
  5 C        2.8460     1.1810     0.0680 C.ar  1 <1>  -0.1440 
  6 C        3.3470     3.3660    -0.8820 C.ar  1 <1>  -0.1440 
  7 C        3.7630     2.1690    -0.2950 C.ar  1 <1>   0.0830 
  8 C        3.3080    -0.1360     0.6730 C.3   1 <1>  -0.0960 
  9 C        4.3450     4.4320    -1.3180 C.3   1 <1>  -0.0960 
 10 O        5.0800     1.9550    -0.0810 O.3   1 <1>  -0.3630 
 11 C        5.6230     2.5390     1.0920 C.3   1 <1>   0.1810 
 12 C        7.0470     3.0210     0.8390 C.2   1 <1>   0.5690 
 13 O        7.2680     4.2010     0.9350 O.2   1 <1>  -0.5700 
 14 N        8.0790     2.1970     0.5000 N.am  1 <1>  -0.4940 
 15 C        8.2570     0.8370     0.3610 C.2   1 <1>   0.4420 
 16 S        7.0890    -0.3190     0.9250 S.3   1 <1>  -0.0800 
 17 N        9.2840     0.2690    -0.1510 N.2   1 <1>  -0.3380 
 18 C        8.1510    -1.5620     0.3630 C.2   1 <1>   0.1980 
 19 N        9.2160    -1.0960    -0.1520 N.2   1 <1>  -0.3380 
 20 C        7.6960    -3.0010     0.5460 C.3   1 <1>   0.0200 
 21 C        8.7150    -4.0200     0.0130 C.3   1 <1>  -0.1600 
 22 C        8.2320    -5.4610     0.2100 C.3   1 <1>  -0.2400 
 23 H        0.7550     0.6760     0.1350 H     1 <1>   0.1500 
 24 H        1.6300     4.4940    -1.5200 H     1 <1>   0.1500 
 25 H        2.4850    -0.8200     0.7820 H     1 <1>   0.0800 
 26 H        3.7420     0.0350     1.6410 H     1 <1>   0.0800 
 27 H        4.0440    -0.5910     0.0340 H     1 <1>   0.0800 
 28 H        3.8960     5.1120    -2.0180 H     1 <1>   0.0800 
 29 H        5.1940     3.9740    -1.7940 H     1 <1>   0.0800 
 30 H        4.6860     4.9910    -0.4660 H     1 <1>   0.0800 
 31 H        5.5960     1.8140     1.8820 H     1 <1>   0.0800 
 32 H        5.0150     3.3790     1.3760 H     1 <1>   0.0800 
 33 H        8.9150     2.7260     0.2590 H     1 <1>   0.3700 
 34 H        6.7600    -3.1310     0.0310 H     1 <1>   0.0800 
 35 H        7.5310    -3.1760     1.5930 H     1 <1>   0.0800 
 36 H        9.6540    -3.8850     0.5240 H     1 <1>   0.0800 
 37 H        8.8840    -3.8400    -1.0360 H     1 <1>   0.0800 
 38 H        8.0810    -5.6710     1.2550 H     1 <1>   0.0800 
 39 H        8.9670    -6.1480    -0.1720 H     1 <1>   0.0800 
 40 H        7.3080    -5.6260    -0.3160 H     1 <1>   0.0800 
@<TRIPOS>BOND
  1   1   2  1   
  2   2   3  ar  
  3   2   4  ar  
  4   3   5  ar  
  5   3  23  1   
  6   4   6  ar  
  7   4  24  1   
  8   5   7  ar  
  9   5   8  1   
 10   6   7  ar  
 11   6   9  1   
 12   7  10  1   
 13   8  25  1   
 14   8  26  1   
 15   8  27  1   
 16   9  28  1   
 17   9  29  1   
 18   9  30  1   
 19  10  11  1   
 20  11  12  1   
 21  11  31  1   
 22  11  32  1   
 23  12  13  2   
 24  12  14  am  
 25  14  15  1   
 26  14  33  1   
 27  15  16  1   
 28  15  17  2   
 29  16  18  1   
 30  17  19  1   
 31  18  19  2   
 32  18  20  1   
 33  20  21  1   
 34  20  34  1   
 35  20  35  1   
 36  21  22  1   
 37  21  36  1   
 38  21  37  1   
 39  22  38  1   
 40  22  39  1   
 41  22  40  1   
@<TRIPOS>SUBSTRUCTURE
  1 ****  10 GROUP 4 **** **** 0

# MOE 2024.06 (io_trps.svl 2023.06)
