@<TRIPOS>MOLECULE
NONAME
39 40 1 0 0 
SMALL
USER_CHARGES


@<TRIPOS>ATOM
  1 O       -0.8660     0.3560     1.0810 O.3   1 <1>  -0.3630 
  2 C       -1.6410    -0.5300     0.4050 C.ar  1 <1>   0.0830 
  3 C        0.1470     1.0210     0.3560 C.3   1 <1>   0.0400 
  4 C       -2.3750    -0.2030    -0.7410 C.ar  1 <1>   0.0830 
  5 C       -1.6860    -1.8240     0.8960 C.ar  1 <1>  -0.1500 
  6 O       -2.4330     1.0540    -1.2440 O.3   1 <1>  -0.3630 
  7 C       -3.0920    -1.1870    -1.3980 C.ar  1 <1>  -0.1500 
  8 C       -2.4130    -2.8080     0.2430 C.ar  1 <1>  -0.1430 
  9 C       -3.1620     1.9850    -0.4770 C.3   1 <1>   0.0400 
 10 C       -3.1130    -2.4830    -0.9090 C.ar  1 <1>  -0.1500 
 11 C       -2.4380    -4.2310     0.7810 C.3   1 <1>  -0.0170 
 12 C       -1.4970    -5.1560    -0.0150 C.3   1 <1>  -0.0800 
 13 C       -1.5760    -6.5980     0.5150 C.3   1 <1>  -0.1600 
 14 C       -0.0370    -4.6630     0.0220 C.3   1 <1>  -0.1600 
 15 C       -0.6020    -7.5270    -0.2120 C.3   1 <1>   0.3430 
 16 C        0.9100    -5.6250    -0.6940 C.3   1 <1>   0.3430 
 17 N        0.7790    -6.9840    -0.1030 N.4   1 <1>  -0.9060 
 18 H        0.8310     1.4590     1.0610 H     1 <1>   0.0800 
 19 H       -0.2930     1.7910    -0.2480 H     1 <1>   0.0800 
 20 H        0.6620     0.3070    -0.2630 H     1 <1>   0.0800 
 21 H       -1.1380    -2.0470     1.7930 H     1 <1>   0.1500 
 22 H       -3.6400    -0.9310    -2.2870 H     1 <1>   0.1500 
 23 H       -3.1600     2.9260    -0.9970 H     1 <1>   0.0800 
 24 H       -2.6950     2.0960     0.4860 H     1 <1>   0.0800 
 25 H       -4.1700     1.6270    -0.3630 H     1 <1>   0.0800 
 26 H       -3.6840    -3.2310    -1.4300 H     1 <1>   0.1500 
 27 H       -3.4480    -4.6010     0.7210 H     1 <1>   0.0800 
 28 H       -2.1620    -4.2260     1.8210 H     1 <1>   0.0800 
 29 H       -1.8270    -5.1540    -1.0410 H     1 <1>   0.0800 
 30 H       -2.5760    -6.9740     0.3790 H     1 <1>   0.0800 
 31 H       -1.3670    -6.6200     1.5710 H     1 <1>   0.0800 
 32 H        0.2870    -4.5280     1.0390 H     1 <1>   0.0800 
 33 H        0.0320    -3.7040    -0.4640 H     1 <1>   0.0800 
 34 H       -0.8840    -7.5990    -1.2510 H     1 <1>   0.0800 
 35 H       -0.6500    -8.5140     0.2210 H     1 <1>   0.0800 
 36 H        1.9250    -5.2720    -0.5980 H     1 <1>   0.0800 
 37 H        0.6610    -5.6570    -1.7430 H     1 <1>   0.0800 
 38 H        1.4430    -7.6250    -0.5560 H     1 <1>   0.4500 
 39 H        1.0380    -6.9360     0.8900 H     1 <1>   0.4500 
@<TRIPOS>BOND
  1   1   2  1   
  2   1   3  1   
  3   2   4  ar  
  4   2   5  ar  
  5   3  18  1   
  6   3  19  1   
  7   3  20  1   
  8   4   6  1   
  9   4   7  ar  
 10   5   8  ar  
 11   5  21  1   
 12   6   9  1   
 13   7  10  ar  
 14   7  22  1   
 15   8  10  ar  
 16   8  11  1   
 17   9  23  1   
 18   9  24  1   
 19   9  25  1   
 20  10  26  1   
 21  11  12  1   
 22  11  27  1   
 23  11  28  1   
 24  12  13  1   
 25  12  14  1   
 26  12  29  1   
 27  13  15  1   
 28  13  30  1   
 29  13  31  1   
 30  14  16  1   
 31  14  32  1   
 32  14  33  1   
 33  15  17  1   
 34  15  34  1   
 35  15  35  1   
 36  16  17  1   
 37  16  36  1   
 38  16  37  1   
 39  17  38  1   
 40  17  39  1   
@<TRIPOS>SUBSTRUCTURE
  1 ****   8 GROUP 4 **** **** 0

# MOE 2024.06 (io_trps.svl 2023.06)
