@<TRIPOS>MOLECULE
NONAME
39 39 1 0 0 
SMALL
USER_CHARGES


@<TRIPOS>ATOM
  1 O       -1.5090    -1.4960    -1.2120 O.2   1 <1>  -0.5700 
  2 C       -1.0730    -1.5510    -0.0800 C.2   1 <1>   0.7800 
  3 O        0.1880    -1.9000     0.1540 O.3   1 <1>  -0.4300 
  4 N       -1.8210    -1.2760     1.0100 N.am  1 <1>  -0.7300 
  5 C        1.0620    -2.2090    -0.9130 C.3   1 <1>   0.0400 
  6 C       -3.2210    -0.7880     0.9880 C.3   1 <1>   0.1400 
  7 C       -4.1750    -1.9160     0.5950 C.3   1 <1>   0.1200 
  8 O       -5.4990    -1.4610     0.7690 O.3   1 <1>  -0.3630 
  9 C       -6.5550    -2.2680     0.4930 C.ar  1 <1>   0.0830 
 10 C       -7.8160    -1.7600     0.7470 C.ar  1 <1>  -0.1500 
 11 C       -6.4370    -3.5540    -0.0200 C.ar  1 <1>  -0.1500 
 12 C       -8.9460    -2.5180     0.4970 C.ar  1 <1>  -0.1500 
 13 C       -7.5710    -4.3070    -0.2670 C.ar  1 <1>  -0.1500 
 14 C       -8.8470    -3.8100    -0.0160 C.ar  1 <1>  -0.1430 
 15 C      -10.0770    -4.6950    -0.3120 C.3   1 <1>   0.1430 
 16 C       -9.9990    -5.9810     0.5260 C.3   1 <1>  -0.2400 
 17 C      -11.4130    -4.0070     0.0190 C.3   1 <1>  -0.2400 
 18 C      -10.1010    -5.0590    -1.8040 C.3   1 <1>  -0.2400 
 19 H       -1.3570    -1.3420     1.9150 H     1 <1>   0.3700 
 20 H        2.0240    -2.4610    -0.5040 H     1 <1>   0.0800 
 21 H        1.1460    -1.3490    -1.5550 H     1 <1>   0.0800 
 22 H        0.6610    -3.0440    -1.4610 H     1 <1>   0.0800 
 23 H       -3.3070     0.0130     0.2730 H     1 <1>   0.0800 
 24 H       -3.4810    -0.4190     1.9650 H     1 <1>   0.0800 
 25 H       -4.0290    -2.7720     1.2290 H     1 <1>   0.0800 
 26 H       -4.0360    -2.1780    -0.4400 H     1 <1>   0.0800 
 27 H       -7.9070    -0.7650     1.1410 H     1 <1>   0.1500 
 28 H       -5.4780    -3.9860    -0.2340 H     1 <1>   0.1500 
 29 H       -9.8970    -2.0710     0.7130 H     1 <1>   0.1500 
 30 H       -7.4450    -5.2970    -0.6640 H     1 <1>   0.1500 
 31 H       -9.9470    -5.7340     1.5710 H     1 <1>   0.0800 
 32 H       -9.1290    -6.5570     0.2720 H     1 <1>   0.0800 
 33 H      -10.8660    -6.5950     0.3610 H     1 <1>   0.0800 
 34 H      -11.4590    -3.7540     1.0630 H     1 <1>   0.0800 
 35 H      -12.2400    -4.6590    -0.2010 H     1 <1>   0.0800 
 36 H      -11.5310    -3.1110    -0.5640 H     1 <1>   0.0800 
 37 H       -9.2320    -5.6260    -2.0790 H     1 <1>   0.0800 
 38 H      -10.1210    -4.1630    -2.3990 H     1 <1>   0.0800 
 39 H      -10.9710    -5.6450    -2.0390 H     1 <1>   0.0800 
@<TRIPOS>BOND
  1   1   2  2   
  2   2   3  1   
  3   2   4  am  
  4   3   5  1   
  5   4   6  1   
  6   4  19  1   
  7   5  20  1   
  8   5  21  1   
  9   5  22  1   
 10   6   7  1   
 11   6  23  1   
 12   6  24  1   
 13   7   8  1   
 14   7  25  1   
 15   7  26  1   
 16   8   9  1   
 17   9  10  ar  
 18   9  11  ar  
 19  10  12  ar  
 20  10  27  1   
 21  11  13  ar  
 22  11  28  1   
 23  12  14  ar  
 24  12  29  1   
 25  13  14  ar  
 26  13  30  1   
 27  14  15  1   
 28  15  16  1   
 29  15  17  1   
 30  15  18  1   
 31  16  31  1   
 32  16  32  1   
 33  16  33  1   
 34  17  34  1   
 35  17  35  1   
 36  17  36  1   
 37  18  37  1   
 38  18  38  1   
 39  18  39  1   
@<TRIPOS>SUBSTRUCTURE
  1 ****  11 GROUP 4 **** **** 0

# MOE 2024.06 (io_trps.svl 2023.06)
