@<TRIPOS>MOLECULE
NONAME
45 47 1 0 0 
SMALL
USER_CHARGES


@<TRIPOS>ATOM
  1 O        0.5470     2.2290     1.2050 O.2   1 <1>  -0.5700 
  2 C        0.6540     2.2000    -0.0010 C.2   1 <1>   0.6590 
  3 O       -0.4080     2.2570    -0.8180 O.3   1 <1>  -0.0870 
  4 C        2.0010     2.0910    -0.7240 C.3   1 <1>   0.1240 
  5 N       -1.7100     2.2260    -0.4690 N.2   1 <1>  -0.5130 
  6 C        2.9790     3.2210    -0.3730 C.ar  1 <1>  -0.1440 
  7 C        2.6780     0.7020    -0.6190 C.3   1 <1>  -0.0800 
  8 C       -2.2190     3.2140     0.1780 C.2   1 <1>   0.4140 
  9 C        3.3020     3.5340     0.9410 C.ar  1 <1>  -0.1500 
 10 C        3.5670     3.9550    -1.3960 C.ar  1 <1>  -0.1500 
 11 C        1.8070    -0.4620    -1.0970 C.3   1 <1>  -0.1600 
 12 C        3.1300     0.2530     0.7730 C.3   1 <1>  -0.1600 
 13 N       -1.4150     4.2610     0.6040 N.pl3 1 <1>  -0.8500 
 14 C       -3.6430     3.2790     0.5260 C.ar  1 <1>   0.3960 
 15 C        4.1890     4.5580     1.2270 C.ar  1 <1>  -0.1500 
 16 C        4.4550     4.9790    -1.1120 C.ar  1 <1>  -0.1500 
 17 C        2.5100    -1.7110    -0.5670 C.3   1 <1>  -0.1600 
 18 C        3.2960    -1.2660     0.6710 C.3   1 <1>  -0.1600 
 19 N       -4.0550     4.2490     1.3650 N.ar  1 <1>  -0.6200 
 20 C       -4.5460     2.3510    -0.0030 C.ar  1 <1>  -0.1500 
 21 C        4.7660     5.2820     0.2010 C.ar  1 <1>  -0.1500 
 22 C       -5.3420     4.2820     1.6610 C.ar  1 <1>   0.1600 
 23 C       -5.8850     2.3970     0.3150 C.ar  1 <1>  -0.1500 
 24 C       -6.2850     3.3960     1.1730 C.ar  1 <1>  -0.1500 
 25 H        1.7660     2.2110    -1.7660 H     1 <1>   0.0800 
 26 H        3.5560     0.7230    -1.2450 H     1 <1>   0.0800 
 27 H        2.8690     2.9850     1.7580 H     1 <1>   0.1500 
 28 H        3.3420     3.7380    -2.4250 H     1 <1>   0.1500 
 29 H        0.8260    -0.4080    -0.6540 H     1 <1>   0.0800 
 30 H        1.7080    -0.4840    -2.1690 H     1 <1>   0.0800 
 31 H        4.0470     0.7320     1.0700 H     1 <1>   0.0800 
 32 H        2.3710     0.4670     1.5040 H     1 <1>   0.0800 
 33 H       -0.5670     3.9040     1.0610 H     1 <1>   0.4000 
 34 H       -1.9370     4.8720     1.2410 H     1 <1>   0.4000 
 35 H        4.4280     4.7890     2.2500 H     1 <1>   0.1500 
 36 H        4.9030     5.5400    -1.9130 H     1 <1>   0.1500 
 37 H        1.8010    -2.4850    -0.3300 H     1 <1>   0.0800 
 38 H        3.1950    -2.0830    -1.3100 H     1 <1>   0.0800 
 39 H        4.3360    -1.5180     0.5510 H     1 <1>   0.0800 
 40 H        2.9250    -1.7450     1.5610 H     1 <1>   0.0800 
 41 H       -4.1870     1.5880    -0.6700 H     1 <1>   0.1500 
 42 H        5.4560     6.0770     0.4230 H     1 <1>   0.1500 
 43 H       -5.6680     5.0590     2.3320 H     1 <1>   0.1500 
 44 H       -6.5850     1.6860    -0.0890 H     1 <1>   0.1500 
 45 H       -7.3170     3.4900     1.4620 H     1 <1>   0.1500 
@<TRIPOS>BOND
  1   1   2  2   
  2   2   3  1   
  3   2   4  1   
  4   3   5  1   
  5   4   6  1   
  6   4   7  1   
  7   4  25  1   
  8   5   8  2   
  9   6   9  ar  
 10   6  10  ar  
 11   7  11  1   
 12   7  12  1   
 13   7  26  1   
 14   8  13  1   
 15   8  14  1   
 16   9  15  ar  
 17   9  27  1   
 18  10  16  ar  
 19  10  28  1   
 20  11  17  1   
 21  11  29  1   
 22  11  30  1   
 23  12  18  1   
 24  12  31  1   
 25  12  32  1   
 26  13  33  1   
 27  13  34  1   
 28  14  19  ar  
 29  14  20  ar  
 30  15  21  ar  
 31  15  35  1   
 32  16  21  ar  
 33  16  36  1   
 34  17  18  1   
 35  17  37  1   
 36  17  38  1   
 37  18  39  1   
 38  18  40  1   
 39  19  22  ar  
 40  20  23  ar  
 41  20  41  1   
 42  21  42  1   
 43  22  24  ar  
 44  22  43  1   
 45  23  24  ar  
 46  23  44  1   
 47  24  45  1   
@<TRIPOS>SUBSTRUCTURE
  1 ****   2 GROUP 4 **** **** 0

# MOE 2024.06 (io_trps.svl 2023.06)
