@<TRIPOS>MOLECULE
NONAME
44 46 1 0 0 
SMALL
USER_CHARGES


@<TRIPOS>ATOM
  1 CL      -0.6410    -1.8440     2.1740 Cl    1 <1>  -0.1770 
  2 C        0.6580    -2.8120     1.5250 C.ar  1 <1>   0.1770 
  3 C        0.5470    -3.4470     0.2960 C.ar  1 <1>  -0.0090 
  4 C        1.8000    -2.9230     2.2960 C.ar  1 <1>  -0.1500 
  5 S       -0.9520    -3.3150    -0.7050 S.o2  1 <1>   1.4470 
  6 C        1.6300    -4.2050    -0.1320 C.ar  1 <1>  -0.1500 
  7 C        2.8610    -3.6840     1.8440 C.ar  1 <1>  -0.1500 
  8 O       -1.3020    -1.9220    -0.8730 O.2   1 <1>  -0.6500 
  9 O       -0.8110    -4.1320    -1.8910 O.2   1 <1>  -0.6500 
 10 N       -2.1320    -4.0600     0.2570 N.am  1 <1>  -0.8490 
 11 C        2.8000    -4.3380     0.6150 C.ar  1 <1>   0.0860 
 12 C       -2.0150    -5.5230     0.2500 C.3   1 <1>   0.1960 
 13 C       -3.4830    -3.6330    -0.1130 C.3   1 <1>   0.1960 
 14 C        3.8990    -5.1460     0.1250 C.2   1 <1>   0.5440 
 15 C       -2.9770    -6.1340     1.2730 C.3   1 <1>  -0.1600 
 16 C       -4.5070    -4.1870     0.8840 C.3   1 <1>  -0.1600 
 17 O        3.6860    -6.2900    -0.2290 O.2   1 <1>  -0.5700 
 18 N        5.1790    -4.6500     0.0410 N.am  1 <1>  -0.6600 
 19 C       -4.4240    -5.7140     0.9920 C.3   1 <1>  -0.1600 
 20 C        5.5450    -3.2170     0.0910 C.3   1 <1>   0.1400 
 21 C        6.3020    -5.4640    -0.4750 C.3   1 <1>   0.1400 
 22 C        6.8420    -3.1220    -0.7030 C.3   1 <1>  -0.1600 
 23 C        7.4800    -4.5010    -0.5610 C.3   1 <1>  -0.1600 
 24 H        1.8500    -2.4190     3.2460 H     1 <1>   0.1500 
 25 H        1.5750    -4.7200    -1.0790 H     1 <1>   0.1500 
 26 H        3.7480    -3.7830     2.4460 H     1 <1>   0.1500 
 27 H       -1.0080    -5.8100     0.5010 H     1 <1>   0.0800 
 28 H       -2.2390    -5.9060    -0.7340 H     1 <1>   0.0800 
 29 H       -3.7130    -3.9700    -1.1110 H     1 <1>   0.0800 
 30 H       -3.5430    -2.5570    -0.0980 H     1 <1>   0.0800 
 31 H       -2.6870    -5.8090     2.2580 H     1 <1>   0.0800 
 32 H       -2.8970    -7.2060     1.2420 H     1 <1>   0.0800 
 33 H       -5.4960    -3.8980     0.5760 H     1 <1>   0.0800 
 34 H       -4.3210    -3.7440     1.8470 H     1 <1>   0.0800 
 35 H       -5.0700    -6.0640     1.7790 H     1 <1>   0.0800 
 36 H       -4.7520    -6.1570     0.0660 H     1 <1>   0.0800 
 37 H        5.7150    -2.9330     1.1150 H     1 <1>   0.0800 
 38 H        4.7750    -2.5990    -0.3390 H     1 <1>   0.0800 
 39 H        6.0450    -5.8390    -1.4520 H     1 <1>   0.0800 
 40 H        6.5070    -6.2910     0.1840 H     1 <1>   0.0800 
 41 H        7.4790    -2.3350    -0.3390 H     1 <1>   0.0800 
 42 H        6.6060    -2.9340    -1.7360 H     1 <1>   0.0800 
 43 H        8.1300    -4.7400    -1.3840 H     1 <1>   0.0800 
 44 H        8.0410    -4.5540     0.3550 H     1 <1>   0.0800 
@<TRIPOS>BOND
  1   1   2  1   
  2   2   3  ar  
  3   2   4  ar  
  4   3   5  1   
  5   3   6  ar  
  6   4   7  ar  
  7   4  24  1   
  8   5   8  2   
  9   5   9  2   
 10   5  10  am  
 11   6  11  ar  
 12   6  25  1   
 13   7  11  ar  
 14   7  26  1   
 15  10  12  1   
 16  10  13  1   
 17  11  14  1   
 18  12  15  1   
 19  12  27  1   
 20  12  28  1   
 21  13  16  1   
 22  13  29  1   
 23  13  30  1   
 24  14  17  2   
 25  14  18  am  
 26  15  19  1   
 27  15  31  1   
 28  15  32  1   
 29  16  19  1   
 30  16  33  1   
 31  16  34  1   
 32  18  20  1   
 33  18  21  1   
 34  19  35  1   
 35  19  36  1   
 36  20  22  1   
 37  20  37  1   
 38  20  38  1   
 39  21  23  1   
 40  21  39  1   
 41  21  40  1   
 42  22  23  1   
 43  22  41  1   
 44  22  42  1   
 45  23  43  1   
 46  23  44  1   
@<TRIPOS>SUBSTRUCTURE
  1 ****   6 GROUP 4 **** **** 0

# MOE 2024.06 (io_trps.svl 2023.06)
