@<TRIPOS>MOLECULE
NONAME
41 42 1 0 0 
SMALL
USER_CHARGES


@<TRIPOS>ATOM
  1 S       -0.9700     0.1730    -2.7680 S.2   1 <1>  -0.6770 
  2 P       -1.0730    -0.6580    -1.0210 P.3   1 <1>   1.4760 
  3 O       -2.1750    -1.8180    -0.9800 O.3   1 <1>  -0.5510 
  4 O       -1.5690     0.2970     0.1610 O.3   1 <1>  -0.5510 
  5 N        0.3610    -1.3970    -0.4700 N.am  1 <1>  -0.4330 
  6 C       -2.8500    -2.0510     0.2100 C.3   1 <1>   0.1200 
  7 C       -2.9320     0.5190     0.2670 C.3   1 <1>   0.1200 
  8 C        0.4780    -2.7930    -0.4370 C.ar  1 <1>   0.1170 
  9 C        1.4210    -0.5800    -0.2300 C.2   1 <1>   0.7800 
 10 C       -3.6710    -0.8010     0.6200 C.3   1 <1>   0.0000 
 11 C        0.6220    -3.4580     0.7750 C.ar  1 <1>  -0.1500 
 12 C        0.4420    -3.5380    -1.6110 C.ar  1 <1>  -0.1500 
 13 O        1.3460     0.6310    -0.2340 O.2   1 <1>  -0.5700 
 14 O        2.5960    -1.1560     0.0330 O.3   1 <1>  -0.4300 
 15 C       -5.0270    -0.8200    -0.1050 C.3   1 <1>  -0.2400 
 16 C       -3.9250    -0.8600     2.1350 C.3   1 <1>  -0.2400 
 17 C        0.7190    -4.8370     0.8160 C.ar  1 <1>  -0.1500 
 18 C        0.5380    -4.9170    -1.5720 C.ar  1 <1>  -0.1500 
 19 C        3.7510    -0.3890     0.2790 C.3   1 <1>   0.1200 
 20 C        0.6760    -5.5680    -0.3590 C.ar  1 <1>  -0.1500 
 21 C        4.9060    -1.3490     0.5430 C.3   1 <1>  -0.2400 
 22 H       -2.1160    -2.2900     0.9610 H     1 <1>   0.0800 
 23 H       -3.4860    -2.9080     0.0720 H     1 <1>   0.0800 
 24 H       -3.2720     0.9140    -0.6770 H     1 <1>   0.0800 
 25 H       -3.0900     1.2700     1.0220 H     1 <1>   0.0800 
 26 H        0.6630    -2.8930     1.6890 H     1 <1>   0.1500 
 27 H        0.3390    -3.0390    -2.5590 H     1 <1>   0.1500 
 28 H       -4.8820    -0.8170    -1.1720 H     1 <1>   0.0800 
 29 H       -5.6130     0.0430     0.1600 H     1 <1>   0.0800 
 30 H       -5.5870    -1.7020     0.1550 H     1 <1>   0.0800 
 31 H       -2.9940    -0.8110     2.6740 H     1 <1>   0.0800 
 32 H       -4.4260    -1.7730     2.4030 H     1 <1>   0.0800 
 33 H       -4.5390    -0.0340     2.4500 H     1 <1>   0.0800 
 34 H        0.8320    -5.3440     1.7590 H     1 <1>   0.1500 
 35 H        0.5070    -5.4840    -2.4870 H     1 <1>   0.1500 
 36 H        3.5690     0.2420     1.1330 H     1 <1>   0.0800 
 37 H        3.9460     0.2220    -0.5870 H     1 <1>   0.0800 
 38 H        0.7510    -6.6420    -0.3290 H     1 <1>   0.1500 
 39 H        4.6910    -1.9600     1.4010 H     1 <1>   0.0800 
 40 H        5.8050    -0.7920     0.7330 H     1 <1>   0.0800 
 41 H        5.0670    -1.9780    -0.3150 H     1 <1>   0.0800 
@<TRIPOS>BOND
  1   1   2  2   
  2   2   3  1   
  3   2   4  1   
  4   2   5  1   
  5   3   6  1   
  6   4   7  1   
  7   5   8  1   
  8   5   9  am  
  9   6  10  1   
 10   6  22  1   
 11   6  23  1   
 12   7  10  1   
 13   7  24  1   
 14   7  25  1   
 15   8  11  ar  
 16   8  12  ar  
 17   9  13  2   
 18   9  14  1   
 19  10  15  1   
 20  10  16  1   
 21  11  17  ar  
 22  11  26  1   
 23  12  18  ar  
 24  12  27  1   
 25  14  19  1   
 26  15  28  1   
 27  15  29  1   
 28  15  30  1   
 29  16  31  1   
 30  16  32  1   
 31  16  33  1   
 32  17  20  ar  
 33  17  34  1   
 34  18  20  ar  
 35  18  35  1   
 36  19  21  1   
 37  19  36  1   
 38  19  37  1   
 39  20  38  1   
 40  21  39  1   
 41  21  40  1   
 42  21  41  1   
@<TRIPOS>SUBSTRUCTURE
  1 ****   5 GROUP 4 **** **** 0

# MOE 2024.06 (io_trps.svl 2023.06)
