@<TRIPOS>MOLECULE
NONAME
38 38 1 0 0 
SMALL
USER_CHARGES


@<TRIPOS>ATOM
  1 O       -0.8040    -0.2890     2.2170 O.2   1 <1>  -0.5700 
  2 C       -0.5630    -1.1510     1.4090 C.2   1 <1>   0.5690 
  3 N       -1.5200    -1.8110     0.6890 N.am  1 <1>  -0.5470 
  4 C        0.8870    -1.5460     1.1880 C.3   1 <1>  -0.0990 
  5 C       -2.9120    -1.6390     0.6470 C.ar  1 <1>   0.1170 
  6 C        1.6030    -0.6780     0.1380 C.3   1 <1>  -0.1600 
  7 C       -3.7100    -2.7100     0.2650 C.ar  1 <1>  -0.1500 
  8 C       -3.5280    -0.4300     0.9520 C.ar  1 <1>  -0.1500 
  9 C        1.0220    -0.8410    -1.2740 C.3   1 <1>  -0.1600 
 10 C       -5.0920    -2.6000     0.1830 C.ar  1 <1>   0.1170 
 11 C       -4.9020    -0.3010     0.8780 C.ar  1 <1>  -0.1500 
 12 C        1.8180    -0.0190    -2.2900 C.3   1 <1>  -0.2400 
 13 N       -5.8400    -3.7280    -0.1910 N.am  1 <1>  -0.5470 
 14 C       -5.6790    -1.3790     0.4970 C.ar  1 <1>  -0.1500 
 15 C       -7.0810    -3.8280    -0.7560 C.2   1 <1>   0.5690 
 16 O       -7.7530    -2.8820    -1.0810 O.2   1 <1>  -0.5700 
 17 C       -7.6280    -5.2240    -1.0000 C.3   1 <1>  -0.0990 
 18 C       -7.9140    -5.9930     0.3000 C.3   1 <1>  -0.2400 
 19 H       -1.1620    -2.5430     0.0800 H     1 <1>   0.3700 
 20 H        0.9430    -2.5810     0.9080 H     1 <1>   0.0800 
 21 H        1.4000    -1.4400     2.1270 H     1 <1>   0.0800 
 22 H        2.6450    -0.9470     0.1240 H     1 <1>   0.0800 
 23 H        1.5360     0.3560     0.4350 H     1 <1>   0.0800 
 24 H       -3.2460    -3.6470     0.0260 H     1 <1>   0.1500 
 25 H       -2.9350     0.4180     1.2450 H     1 <1>   0.1500 
 26 H       -0.0030    -0.5100    -1.2920 H     1 <1>   0.0800 
 27 H        1.0490    -1.8780    -1.5640 H     1 <1>   0.0800 
 28 H       -5.3670     0.6390     1.1170 H     1 <1>   0.1500 
 29 H        1.7900     1.0260    -2.0330 H     1 <1>   0.0800 
 30 H        1.3970    -0.1380    -3.2730 H     1 <1>   0.0800 
 31 H        2.8450    -0.3410    -2.3170 H     1 <1>   0.0800 
 32 H       -5.3830    -4.6190    -0.0190 H     1 <1>   0.3700 
 33 H       -6.7470    -1.2650     0.4490 H     1 <1>   0.1500 
 34 H       -6.9280    -5.7710    -1.6040 H     1 <1>   0.0800 
 35 H       -8.5410    -5.1350    -1.5630 H     1 <1>   0.0800 
 36 H       -7.0140    -6.1330     0.8710 H     1 <1>   0.0800 
 37 H       -8.3320    -6.9580     0.0740 H     1 <1>   0.0800 
 38 H       -8.6220    -5.4470     0.9010 H     1 <1>   0.0800 
@<TRIPOS>BOND
  1   1   2  2   
  2   2   3  am  
  3   2   4  1   
  4   3   5  1   
  5   3  19  1   
  6   4   6  1   
  7   4  20  1   
  8   4  21  1   
  9   5   7  ar  
 10   5   8  ar  
 11   6   9  1   
 12   6  22  1   
 13   6  23  1   
 14   7  10  ar  
 15   7  24  1   
 16   8  11  ar  
 17   8  25  1   
 18   9  12  1   
 19   9  26  1   
 20   9  27  1   
 21  10  13  1   
 22  10  14  ar  
 23  11  14  ar  
 24  11  28  1   
 25  12  29  1   
 26  12  30  1   
 27  12  31  1   
 28  13  15  am  
 29  13  32  1   
 30  14  33  1   
 31  15  16  2   
 32  15  17  1   
 33  17  18  1   
 34  17  34  1   
 35  17  35  1   
 36  18  36  1   
 37  18  37  1   
 38  18  38  1   
@<TRIPOS>SUBSTRUCTURE
  1 ****   5 GROUP 4 **** **** 0

# MOE 2024.06 (io_trps.svl 2023.06)
