@<TRIPOS>MOLECULE
NONAME
40 42 1 0 0 
SMALL
USER_CHARGES


@<TRIPOS>ATOM
  1 O       -0.2140    -3.4310     1.0920 O.2   1 <1>  -0.5700 
  2 C       -0.7660    -2.8590     0.1840 C.2   1 <1>   0.5690 
  3 N       -0.1470    -1.8390    -0.4760 N.am  1 <1>  -0.7300 
  4 C       -2.1590    -3.3030    -0.2170 C.3   1 <1>   0.1570 
  5 C        1.1250    -1.1880    -0.0660 C.3   1 <1>   0.1400 
  6 N       -2.9900    -2.1240    -0.4820 N.pl3 1 <1>   0.3140 
  7 C        2.2610    -2.2170     0.1060 C.3   1 <1>   0.3430 
  8 N       -2.8940    -1.4310    -1.6300 N.2   1 <1>  -0.4180 
  9 C       -3.7960    -1.4760     0.3870 C.ar  1 <1>  -0.1520 
 10 N        3.5400    -1.5920     0.5730 N.4   1 <1>  -0.9590 
 11 N       -3.6130    -0.3770    -1.5360 N.2   1 <1>  -0.2270 
 12 C       -4.1910    -0.3630    -0.3100 C.ar  1 <1>   0.2270 
 13 C       -4.2300    -1.7060     1.6980 C.ar  1 <1>  -0.1500 
 14 C        4.1890    -0.6930    -0.4140 C.3   1 <1>   0.3430 
 15 C        4.5570    -2.6140     0.9200 C.3   1 <1>   0.3430 
 16 C       -5.0520     0.5650     0.2800 C.ar  1 <1>  -0.1500 
 17 C       -5.0760    -0.7880     2.2760 C.ar  1 <1>  -0.1500 
 18 C        5.6380    -0.6110     0.0460 C.3   1 <1>  -0.1600 
 19 C        5.8750    -1.8510     0.9130 C.3   1 <1>  -0.1600 
 20 C       -5.4900     0.3490     1.5680 C.ar  1 <1>  -0.1500 
 21 H       -0.7150    -1.3170    -1.1670 H     1 <1>   0.3700 
 22 H       -2.6010    -3.8800     0.5720 H     1 <1>   0.0800 
 23 H       -2.1060    -3.9010    -1.1060 H     1 <1>   0.0800 
 24 H        0.9560    -0.6760     0.8650 H     1 <1>   0.0800 
 25 H        1.3950    -0.4680    -0.8180 H     1 <1>   0.0800 
 26 H        2.4230    -2.7220    -0.8320 H     1 <1>   0.0800 
 27 H        1.9500    -2.9500     0.8320 H     1 <1>   0.0800 
 28 H        3.3590    -1.0520     1.4300 H     1 <1>   0.4500 
 29 H       -3.9100    -2.5800     2.2390 H     1 <1>   0.1500 
 30 H        3.7230     0.2790    -0.4420 H     1 <1>   0.0800 
 31 H        4.1490    -1.1390    -1.3960 H     1 <1>   0.0800 
 32 H        4.5810    -3.3790     0.1600 H     1 <1>   0.0800 
 33 H        4.3610    -3.0670     1.8790 H     1 <1>   0.0800 
 34 H       -5.3530     1.4280    -0.2850 H     1 <1>   0.1500 
 35 H       -5.4320    -0.9330     3.2820 H     1 <1>   0.1500 
 36 H        5.7880     0.2860     0.6230 H     1 <1>   0.0800 
 37 H        6.3000    -0.5840    -0.8030 H     1 <1>   0.0800 
 38 H        6.6640    -2.4690     0.5210 H     1 <1>   0.0800 
 39 H        6.1350    -1.5640     1.9170 H     1 <1>   0.0800 
 40 H       -6.1530     1.0510     2.0430 H     1 <1>   0.1500 
@<TRIPOS>BOND
  1   1   2  2   
  2   2   3  am  
  3   2   4  1   
  4   3   5  1   
  5   3  21  1   
  6   4   6  1   
  7   4  22  1   
  8   4  23  1   
  9   5   7  1   
 10   5  24  1   
 11   5  25  1   
 12   6   8  1   
 13   6   9  1   
 14   7  10  1   
 15   7  26  1   
 16   7  27  1   
 17   8  11  2   
 18   9  12  ar  
 19   9  13  ar  
 20  10  14  1   
 21  10  15  1   
 22  10  28  1   
 23  11  12  1   
 24  12  16  ar  
 25  13  17  ar  
 26  13  29  1   
 27  14  18  1   
 28  14  30  1   
 29  14  31  1   
 30  15  19  1   
 31  15  32  1   
 32  15  33  1   
 33  16  20  ar  
 34  16  34  1   
 35  17  20  ar  
 36  17  35  1   
 37  18  19  1   
 38  18  36  1   
 39  18  37  1   
 40  19  38  1   
 41  19  39  1   
 42  20  40  1   
@<TRIPOS>SUBSTRUCTURE
  1 ****   3 GROUP 4 **** **** 0

# MOE 2024.06 (io_trps.svl 2023.06)
