@<TRIPOS>MOLECULE
NONAME
41 42 1 0 0 
SMALL
USER_CHARGES


@<TRIPOS>ATOM
  1 BR      -0.1250    -0.3070     1.8140 Br    1 <1>  -0.1110 
  2 C       -1.2370     0.8780     0.7720 C.ar  1 <1>   0.1110 
  3 C       -0.7600     2.1270     0.3930 C.ar  1 <1>   0.0820 
  4 C       -2.5030     0.4440     0.4260 C.ar  1 <1>  -0.1500 
  5 O        0.4770     2.5500     0.7320 O.3   1 <1>  -0.3630 
  6 C       -1.5870     2.9640    -0.3390 C.ar  1 <1>  -0.1500 
  7 C       -3.3170     1.2870    -0.3150 C.ar  1 <1>  -0.1500 
  8 C        1.5210     2.1480    -0.1190 C.3   1 <1>   0.1200 
  9 C       -2.8600     2.5410    -0.6930 C.ar  1 <1>  -0.1500 
 10 C        2.8390     2.6120     0.5030 C.3   1 <1>  -0.1600 
 11 C        4.0430     2.1990    -0.3550 C.3   1 <1>  -0.1600 
 12 C        5.3570     2.6640     0.2900 C.3   1 <1>  -0.1600 
 13 C        6.5600     2.2480    -0.5580 C.3   1 <1>   0.3430 
 14 N        7.8270     2.6280     0.1230 N.4   1 <1>  -0.9590 
 15 C        8.0700     4.0920     0.1890 C.3   1 <1>   0.3430 
 16 C        9.0250     2.0500    -0.5310 C.3   1 <1>   0.3430 
 17 C        9.5660     4.2170     0.4440 C.3   1 <1>  -0.1600 
 18 C       10.1820     2.8900    -0.0090 C.3   1 <1>  -0.1600 
 19 H       -2.8430    -0.5290     0.7310 H     1 <1>   0.1500 
 20 H       -1.2350     3.9380    -0.6250 H     1 <1>   0.1500 
 21 H       -4.3070     0.9680    -0.5940 H     1 <1>   0.1500 
 22 H        1.3630     2.5990    -1.0830 H     1 <1>   0.0800 
 23 H        1.4960     1.0750    -0.2110 H     1 <1>   0.0800 
 24 H       -3.4990     3.1930    -1.2640 H     1 <1>   0.1500 
 25 H        2.9260     2.1750     1.4830 H     1 <1>   0.0800 
 26 H        2.8140     3.6830     0.6040 H     1 <1>   0.0800 
 27 H        3.9440     2.6340    -1.3360 H     1 <1>   0.0800 
 28 H        4.0490     1.1270    -0.4610 H     1 <1>   0.0800 
 29 H        5.4370     2.2220     1.2690 H     1 <1>   0.0800 
 30 H        5.3290     3.7340     0.3930 H     1 <1>   0.0800 
 31 H        6.5050     2.7170    -1.5270 H     1 <1>   0.0800 
 32 H        6.5340     1.1790    -0.7000 H     1 <1>   0.0800 
 33 H        7.8040     2.2740     1.0890 H     1 <1>   0.4500 
 34 H        7.4910     4.5590     0.9700 H     1 <1>   0.0800 
 35 H        7.8270     4.5450    -0.7580 H     1 <1>   0.0800 
 36 H        8.9500     2.1690    -1.6010 H     1 <1>   0.0800 
 37 H        9.1490     1.0050    -0.2930 H     1 <1>   0.0800 
 38 H        9.7470     4.3780     1.4930 H     1 <1>   0.0800 
 39 H        9.9700     5.0520    -0.1030 H     1 <1>   0.0800 
 40 H       10.9210     3.0330    -0.7790 H     1 <1>   0.0800 
 41 H       10.6490     2.3900     0.8230 H     1 <1>   0.0800 
@<TRIPOS>BOND
  1   1   2  1   
  2   2   3  ar  
  3   2   4  ar  
  4   3   5  1   
  5   3   6  ar  
  6   4   7  ar  
  7   4  19  1   
  8   5   8  1   
  9   6   9  ar  
 10   6  20  1   
 11   7   9  ar  
 12   7  21  1   
 13   8  10  1   
 14   8  22  1   
 15   8  23  1   
 16   9  24  1   
 17  10  11  1   
 18  10  25  1   
 19  10  26  1   
 20  11  12  1   
 21  11  27  1   
 22  11  28  1   
 23  12  13  1   
 24  12  29  1   
 25  12  30  1   
 26  13  14  1   
 27  13  31  1   
 28  13  32  1   
 29  14  15  1   
 30  14  16  1   
 31  14  33  1   
 32  15  17  1   
 33  15  34  1   
 34  15  35  1   
 35  16  18  1   
 36  16  36  1   
 37  16  37  1   
 38  17  18  1   
 39  17  38  1   
 40  17  39  1   
 41  18  40  1   
 42  18  41  1   
@<TRIPOS>SUBSTRUCTURE
  1 ****  10 GROUP 4 **** **** 0

# MOE 2024.06 (io_trps.svl 2023.06)
