@<TRIPOS>MOLECULE
NONAME
48 50 1 0 0 
SMALL
USER_CHARGES


@<TRIPOS>ATOM
  1 CL      -0.7560    -2.0380    -1.4380 Cl    1 <1>  -0.1770 
  2 C       -1.6930    -0.8100    -0.6260 C.ar  1 <1>   0.1770 
  3 C       -3.0690    -0.8430    -0.7130 C.ar  1 <1>  -0.1500 
  4 C       -1.0420     0.1740     0.0900 C.ar  1 <1>  -0.1500 
  5 C       -3.8290     0.1270    -0.0720 C.ar  1 <1>   0.1170 
  6 C       -1.7930     1.1430     0.7330 C.ar  1 <1>  -0.1500 
  7 N       -5.2230     0.0490    -0.1760 N.am  1 <1>  -0.5470 
  8 C       -3.1780     1.1260     0.6610 C.ar  1 <1>  -0.1430 
  9 C       -6.0600     0.8480    -0.9180 C.2   1 <1>   0.5440 
 10 C       -3.9580     2.2110     1.3920 C.3   1 <1>  -0.0960 
 11 O       -5.6160     1.8510    -1.4390 O.2   1 <1>  -0.5700 
 12 C       -7.4490     0.4710    -1.0610 C.ar  1 <1>   0.0860 
 13 C       -8.5200     1.3460    -0.8130 C.ar  1 <1>   0.0830 
 14 C       -7.7660    -0.8270    -1.4740 C.ar  1 <1>  -0.1500 
 15 O       -8.3490     2.6220    -0.4120 O.3   1 <1>  -0.3630 
 16 C       -9.8310     0.9310    -0.9880 C.ar  1 <1>  -0.1500 
 17 C       -9.0740    -1.2410    -1.6340 C.ar  1 <1>  -0.1500 
 18 C       -7.7900     2.8670     0.8710 C.3   1 <1>   0.1810 
 19 C      -10.1130    -0.3590    -1.3920 C.ar  1 <1>  -0.1500 
 20 C       -7.8910     4.3390     1.2580 C.2   1 <1>   0.5690 
 21 O       -8.5960     4.6090     2.2050 O.2   1 <1>  -0.5700 
 22 N       -7.1850     5.3130     0.5920 N.am  1 <1>  -0.6600 
 23 C       -7.2840     6.7540     0.9710 C.3   1 <1>   0.1400 
 24 C       -6.3470     5.0920    -0.6280 C.3   1 <1>   0.1400 
 25 C       -7.6610     7.6080    -0.2500 C.3   1 <1>   0.1200 
 26 C       -6.7680     6.0470    -1.7560 C.3   1 <1>   0.1200 
 27 O       -6.7750     7.3750    -1.3090 O.3   1 <1>  -0.5600 
 28 H       -3.5430    -1.6180    -1.2830 H     1 <1>   0.1500 
 29 H        0.0320     0.1800     0.1400 H     1 <1>   0.1500 
 30 H       -1.2870     1.9130     1.2900 H     1 <1>   0.1500 
 31 H       -5.6450    -0.7920     0.2170 H     1 <1>   0.3700 
 32 H       -3.3250     2.7500     2.0730 H     1 <1>   0.0800 
 33 H       -4.3620     2.9080     0.6800 H     1 <1>   0.0800 
 34 H       -4.7620     1.7750     1.9560 H     1 <1>   0.0800 
 35 H       -6.9720    -1.5210    -1.6870 H     1 <1>   0.1500 
 36 H      -10.6300     1.6270    -0.8040 H     1 <1>   0.1500 
 37 H       -9.2910    -2.2470    -1.9530 H     1 <1>   0.1500 
 38 H       -6.7600     2.5770     0.8660 H     1 <1>   0.0800 
 39 H       -8.3260     2.2730     1.5880 H     1 <1>   0.0800 
 40 H      -11.1340    -0.6760    -1.5210 H     1 <1>   0.1500 
 41 H       -6.3360     7.0840     1.3560 H     1 <1>   0.0800 
 42 H       -8.0210     6.8950     1.7420 H     1 <1>   0.0800 
 43 H       -6.4370     4.0860    -0.9870 H     1 <1>   0.0800 
 44 H       -5.3130     5.2650    -0.3880 H     1 <1>   0.0800 
 45 H       -7.6100     8.6530    -0.0020 H     1 <1>   0.0800 
 46 H       -8.6600     7.3770    -0.5770 H     1 <1>   0.0800 
 47 H       -7.7520     5.7960    -2.1130 H     1 <1>   0.0800 
 48 H       -6.0760     5.9790    -2.5760 H     1 <1>   0.0800 
@<TRIPOS>BOND
  1   1   2  1   
  2   2   3  ar  
  3   2   4  ar  
  4   3   5  ar  
  5   3  28  1   
  6   4   6  ar  
  7   4  29  1   
  8   5   7  1   
  9   5   8  ar  
 10   6   8  ar  
 11   6  30  1   
 12   7   9  am  
 13   7  31  1   
 14   8  10  1   
 15   9  11  2   
 16   9  12  1   
 17  10  32  1   
 18  10  33  1   
 19  10  34  1   
 20  12  13  ar  
 21  12  14  ar  
 22  13  15  1   
 23  13  16  ar  
 24  14  17  ar  
 25  14  35  1   
 26  15  18  1   
 27  16  19  ar  
 28  16  36  1   
 29  17  19  ar  
 30  17  37  1   
 31  18  20  1   
 32  18  38  1   
 33  18  39  1   
 34  19  40  1   
 35  20  21  2   
 36  20  22  am  
 37  22  23  1   
 38  22  24  1   
 39  23  25  1   
 40  23  41  1   
 41  23  42  1   
 42  24  26  1   
 43  24  43  1   
 44  24  44  1   
 45  25  27  1   
 46  25  45  1   
 47  25  46  1   
 48  26  27  1   
 49  26  47  1   
 50  26  48  1   
@<TRIPOS>SUBSTRUCTURE
  1 ****  11 GROUP 4 **** **** 0

# MOE 2024.06 (io_trps.svl 2023.06)
