@<TRIPOS>MOLECULE
NONAME
41 42 1 0 0 
SMALL
USER_CHARGES


@<TRIPOS>ATOM
  1 F       -6.0980     1.3650     2.4260 F     1 <1>  -0.3400 
  2 C       -5.4140     0.2460     2.2140 C.3   1 <1>   1.1640 
  3 F       -5.4790    -0.4510     3.3420 F     1 <1>  -0.3400 
  4 F       -4.1460     0.6140     2.0850 F     1 <1>  -0.3400 
  5 C       -5.9000    -0.5280     0.9770 C.ar  1 <1>  -0.1440 
  6 C       -6.2150     0.1580    -0.1920 C.ar  1 <1>  -0.1500 
  7 C       -6.0190    -1.9150     0.9910 C.ar  1 <1>  -0.1500 
  8 C       -6.6480    -0.5260    -1.3260 C.ar  1 <1>   0.0830 
  9 C       -6.4400    -2.6000    -0.1350 C.ar  1 <1>  -0.1500 
 10 O       -6.9980     0.0760    -2.4910 O.3   1 <1>  -0.3630 
 11 C       -6.7510    -1.9060    -1.2890 C.ar  1 <1>  -0.1500 
 12 C       -7.1170     1.4900    -2.6180 C.3   1 <1>   0.2610 
 13 C       -8.2380     2.0390    -1.7200 C.2   1 <1>   0.5690 
 14 C       -7.3700     1.7850    -4.0990 C.3   1 <1>  -0.2400 
 15 O       -8.1520     3.1680    -1.2970 O.2   1 <1>  -0.5700 
 16 N       -9.2760     1.2300    -1.3910 N.am  1 <1>  -0.7300 
 17 C      -10.2020     1.4770    -0.2870 C.3   1 <1>   0.3640 
 18 C       -9.7630     0.6200     0.8930 C.ar  1 <1>  -0.1430 
 19 C      -11.6140     1.1340    -0.7500 C.3   1 <1>  -0.2400 
 20 C       -9.3950     1.1930     2.0940 C.ar  1 <1>  -0.1500 
 21 C       -9.6840    -0.7600     0.8340 C.ar  1 <1>  -0.1500 
 22 C       -8.9840     0.3890     3.1440 C.ar  1 <1>   0.1600 
 23 C       -9.2570    -1.4720     1.9420 C.ar  1 <1>   0.1600 
 24 N       -8.9040    -0.9310     3.0960 N.ar  1 <1>  -0.6200 
 25 H       -6.1190     1.2280    -0.2000 H     1 <1>   0.1500 
 26 H       -5.7840    -2.4730     1.8830 H     1 <1>   0.1500 
 27 H       -6.5220    -3.6730    -0.1120 H     1 <1>   0.1500 
 28 H       -7.0760    -2.4340    -2.1690 H     1 <1>   0.1500 
 29 H       -6.1800     1.9290    -2.3270 H     1 <1>   0.0800 
 30 H       -8.2950     1.3360    -4.4160 H     1 <1>   0.0800 
 31 H       -6.5610     1.4040    -4.6960 H     1 <1>   0.0800 
 32 H       -7.4370     2.8480    -4.2490 H     1 <1>   0.0800 
 33 H       -9.2040     0.2510    -1.6730 H     1 <1>   0.3700 
 34 H      -10.1660     2.5190    -0.0130 H     1 <1>   0.0800 
 35 H      -11.6790     0.1100    -1.0680 H     1 <1>   0.0800 
 36 H      -11.8980     1.7790    -1.5610 H     1 <1>   0.0800 
 37 H      -12.3020     1.2860     0.0620 H     1 <1>   0.0800 
 38 H       -9.4170     2.2600     2.2230 H     1 <1>   0.1500 
 39 H       -9.9440    -1.2910    -0.0610 H     1 <1>   0.1500 
 40 H       -8.7000     0.8580     4.0710 H     1 <1>   0.1500 
 41 H       -9.2000    -2.5440     1.8730 H     1 <1>   0.1500 
@<TRIPOS>BOND
  1   1   2  1   
  2   2   3  1   
  3   2   4  1   
  4   2   5  1   
  5   5   6  ar  
  6   5   7  ar  
  7   6   8  ar  
  8   6  25  1   
  9   7   9  ar  
 10   7  26  1   
 11   8  10  1   
 12   8  11  ar  
 13   9  11  ar  
 14   9  27  1   
 15  10  12  1   
 16  11  28  1   
 17  12  13  1   
 18  12  14  1   
 19  12  29  1   
 20  13  15  2   
 21  13  16  am  
 22  14  30  1   
 23  14  31  1   
 24  14  32  1   
 25  16  17  1   
 26  16  33  1   
 27  17  18  1   
 28  17  19  1   
 29  17  34  1   
 30  18  20  ar  
 31  18  21  ar  
 32  19  35  1   
 33  19  36  1   
 34  19  37  1   
 35  20  22  ar  
 36  20  38  1   
 37  21  23  ar  
 38  21  39  1   
 39  22  24  ar  
 40  22  40  1   
 41  23  24  ar  
 42  23  41  1   
@<TRIPOS>SUBSTRUCTURE
  1 ****   6 GROUP 4 **** **** 0

# MOE 2024.06 (io_trps.svl 2023.06)
