@<TRIPOS>MOLECULE
NONAME
38 38 1 0 0 
SMALL
USER_CHARGES


@<TRIPOS>ATOM
  1 O        0.9980     6.9660    -0.2080 O.3   1 <1>  -0.3630 
  2 C        2.2180     6.4140     0.0140 C.ar  1 <1>   0.0830 
  3 C       -0.1800     6.3260     0.2060 C.3   1 <1>   0.1200 
  4 C        3.3170     7.1270    -0.4350 C.ar  1 <1>  -0.1500 
  5 C        2.4130     5.1940     0.6560 C.ar  1 <1>  -0.1500 
  6 C       -1.3460     7.2250    -0.2050 C.3   1 <1>  -0.1600 
  7 C        4.5970     6.6370    -0.2490 C.ar  1 <1>  -0.1500 
  8 C        3.6960     4.7070     0.8410 C.ar  1 <1>  -0.1500 
  9 C       -2.6800     6.6140     0.2040 C.3   1 <1>   0.3430 
 10 C        4.7940     5.4240     0.3910 C.ar  1 <1>  -0.1440 
 11 N       -3.7740     7.5240    -0.2180 N.4   1 <1>  -0.9060 
 12 C        6.2010     4.8840     0.5960 C.3   1 <1>  -0.0170 
 13 C       -5.1200     6.9900     0.1500 C.3   1 <1>   0.3430 
 14 C        6.6210     4.0140    -0.5900 C.3   1 <1>  -0.2400 
 15 C       -6.2500     7.9320    -0.2860 C.3   1 <1>   0.1200 
 16 O       -7.4440     7.3520     0.0980 O.3   1 <1>  -0.6800 
 17 H       -0.1360     6.2030     1.2760 H     1 <1>   0.0800 
 18 H       -0.2310     5.3670    -0.2820 H     1 <1>   0.0800 
 19 H        3.1660     8.0680    -0.9320 H     1 <1>   0.1500 
 20 H        1.5920     4.6090     1.0190 H     1 <1>   0.1500 
 21 H       -1.3140     7.3510    -1.2740 H     1 <1>   0.0800 
 22 H       -1.2200     8.1810     0.2730 H     1 <1>   0.0800 
 23 H        5.4390     7.2030    -0.6060 H     1 <1>   0.1500 
 24 H        3.8390     3.7630     1.3360 H     1 <1>   0.1500 
 25 H       -2.7050     6.4770     1.2740 H     1 <1>   0.0800 
 26 H       -2.7980     5.6500    -0.2670 H     1 <1>   0.0800 
 27 H       -3.7200     7.6630    -1.2350 H     1 <1>   0.4500 
 28 H       -3.6320     8.4440     0.2200 H     1 <1>   0.4500 
 29 H        6.2380     4.3040     1.5020 H     1 <1>   0.0800 
 30 H        6.8900     5.7030     0.7060 H     1 <1>   0.0800 
 31 H       -5.1800     6.8580     1.2190 H     1 <1>   0.0800 
 32 H       -5.2730     6.0320    -0.3200 H     1 <1>   0.0800 
 33 H        5.9470     3.1820    -0.6960 H     1 <1>   0.0800 
 34 H        7.6160     3.6370    -0.4400 H     1 <1>   0.0800 
 35 H        6.6010     4.5910    -1.4970 H     1 <1>   0.0800 
 36 H       -6.2690     8.0530    -1.3560 H     1 <1>   0.0800 
 37 H       -6.1740     8.8890     0.2020 H     1 <1>   0.0800 
 38 H       -8.2180     7.9020    -0.1510 H     1 <1>   0.4000 
@<TRIPOS>BOND
  1   1   2  1   
  2   1   3  1   
  3   2   4  ar  
  4   2   5  ar  
  5   3   6  1   
  6   3  17  1   
  7   3  18  1   
  8   4   7  ar  
  9   4  19  1   
 10   5   8  ar  
 11   5  20  1   
 12   6   9  1   
 13   6  21  1   
 14   6  22  1   
 15   7  10  ar  
 16   7  23  1   
 17   8  10  ar  
 18   8  24  1   
 19   9  11  1   
 20   9  25  1   
 21   9  26  1   
 22  10  12  1   
 23  11  13  1   
 24  11  27  1   
 25  11  28  1   
 26  12  14  1   
 27  12  29  1   
 28  12  30  1   
 29  13  15  1   
 30  13  31  1   
 31  13  32  1   
 32  14  33  1   
 33  14  34  1   
 34  14  35  1   
 35  15  16  1   
 36  15  36  1   
 37  15  37  1   
 38  16  38  1   
@<TRIPOS>SUBSTRUCTURE
  1 ****   3 GROUP 4 **** **** 0

# MOE 2024.06 (io_trps.svl 2023.06)
