@<TRIPOS>MOLECULE
NONAME
63 66 1 0 0 
SMALL
USER_CHARGES


@<TRIPOS>ATOM
  1 CL       1.9370     1.2820     0.6500 Cl    1 <1>  -0.1770 
  2 C        2.9100    -0.1640     0.6700 C.ar  1 <1>   0.1770 
  3 C        3.5940    -0.5190    -0.4780 C.ar  1 <1>  -0.1500 
  4 C        2.9970    -0.9160     1.8240 C.ar  1 <1>  -0.1500 
  5 C        4.4000    -1.6410    -0.4570 C.ar  1 <1>   0.3490 
  6 C        3.7810    -2.0610     1.8310 C.ar  1 <1>  -0.1500 
  7 N        5.2040    -1.9860    -1.5530 N.pl3 1 <1>  -0.6530 
  8 C        4.4810    -2.4420     0.6930 C.ar  1 <1>   0.1000 
  9 C        6.5060    -1.9330    -1.3390 C.cat 1 <1>   0.7310 
 10 N        5.2070    -3.6580     0.6710 N.pl3 1 <1>  -0.2200 
 11 N        7.1390    -0.7580    -1.5030 N.pl3 1 <1>  -0.8330 
 12 C        7.1430    -3.1010    -0.7860 C.ar  1 <1>  -0.0220 
 13 N        4.3590    -4.8170     0.4430 N.am  1 <1>  -0.4100 
 14 C        6.5390    -3.8370     0.2600 C.ar  1 <1>   0.1000 
 15 C        6.5680     0.3920    -2.2990 C.3   1 <1>   0.3290 
 16 C        8.4900    -0.4410    -0.9060 C.3   1 <1>   0.3290 
 17 C        8.3870    -3.5290    -1.2650 C.ar  1 <1>  -0.1500 
 18 C        3.8840    -5.1860    -0.7760 C.2   1 <1>   0.5690 
 19 C        7.2690    -4.8610     0.8630 C.ar  1 <1>  -0.1500 
 20 C        6.5320     1.7020    -1.4710 C.3   1 <1>   0.3430 
 21 C        8.4630     0.8820    -0.0940 C.3   1 <1>   0.3430 
 22 C        9.0730    -4.5670    -0.6720 C.ar  1 <1>  -0.1500 
 23 O        4.1130    -4.5310    -1.7750 O.2   1 <1>  -0.5700 
 24 C        3.0370    -6.4380    -0.8900 C.3   1 <1>  -0.0990 
 25 C        8.5200    -5.2230     0.4120 C.ar  1 <1>  -0.1500 
 26 N        7.8660     2.0530    -0.8460 N.4   1 <1>  -0.9590 
 27 C        1.5920    -6.1990    -0.4230 C.3   1 <1>  -0.1600 
 28 C        7.7310     3.2460     0.0540 C.3   1 <1>   0.2630 
 29 C        0.7500    -7.4750    -0.5440 C.3   1 <1>  -0.1600 
 30 C       -0.6900    -7.2300    -0.0810 C.3   1 <1>  -0.1600 
 31 C       -1.5300    -8.5040    -0.2020 C.3   1 <1>  -0.2400 
 32 H        3.4900     0.0750    -1.3650 H     1 <1>   0.1500 
 33 H        2.4530    -0.6150     2.7040 H     1 <1>   0.1500 
 34 H        3.8390    -2.6640     2.7220 H     1 <1>   0.1500 
 35 H        4.8790    -2.9250    -1.8650 H     1 <1>   0.4500 
 36 H        4.1460    -5.3910     1.2640 H     1 <1>   0.3700 
 37 H        5.5750     0.1740    -2.6530 H     1 <1>   0.0800 
 38 H        7.1770     0.5480    -3.1730 H     1 <1>   0.0800 
 39 H        9.2210    -0.3640    -1.6930 H     1 <1>   0.0800 
 40 H        8.8130    -1.2210    -0.2390 H     1 <1>   0.0800 
 41 H        8.8310    -3.0440    -2.1180 H     1 <1>   0.1500 
 42 H        6.8400    -5.3970     1.6910 H     1 <1>   0.1500 
 43 H        5.7940     1.5860    -0.6940 H     1 <1>   0.0800 
 44 H        6.2070     2.5090    -2.1070 H     1 <1>   0.0800 
 45 H        9.4690     1.1230     0.2130 H     1 <1>   0.0800 
 46 H        7.8900     0.7070     0.8020 H     1 <1>   0.0800 
 47 H       10.0360    -4.8760    -1.0460 H     1 <1>   0.1500 
 48 H        3.4880    -7.2220    -0.3090 H     1 <1>   0.0800 
 49 H        3.0330    -6.7550    -1.9180 H     1 <1>   0.0800 
 50 H        9.0610    -6.0240     0.8880 H     1 <1>   0.1500 
 51 H        8.5180     2.3170    -1.6030 H     1 <1>   0.4500 
 52 H        1.1500    -5.4230    -1.0250 H     1 <1>   0.0800 
 53 H        1.5900    -5.8680     0.6020 H     1 <1>   0.0800 
 54 H        7.0570     3.0310     0.8690 H     1 <1>   0.0800 
 55 H        7.3470     4.0910    -0.4950 H     1 <1>   0.0800 
 56 H        8.6900     3.5180     0.4660 H     1 <1>   0.0800 
 57 H        1.1870    -8.2570     0.0540 H     1 <1>   0.0800 
 58 H        0.7420    -7.8050    -1.5690 H     1 <1>   0.0800 
 59 H       -1.1380    -6.4560    -0.6810 H     1 <1>   0.0800 
 60 H       -0.6940    -6.9020     0.9440 H     1 <1>   0.0800 
 61 H       -1.5620    -8.8400    -1.2240 H     1 <1>   0.0800 
 62 H       -2.5370    -8.3130     0.1250 H     1 <1>   0.0800 
 63 H       -1.1170    -9.2890     0.4080 H     1 <1>   0.0800 
@<TRIPOS>BOND
  1   1   2  1   
  2   2   3  ar  
  3   2   4  ar  
  4   3   5  ar  
  5   3  32  1   
  6   4   6  ar  
  7   4  33  1   
  8   5   7  1   
  9   5   8  ar  
 10   6   8  ar  
 11   6  34  1   
 12   7   9  ar  
 13   7  35  1   
 14   8  10  1   
 15   9  11  ar  
 16   9  12  1   
 17  10  13  1   
 18  10  14  1   
 19  11  15  1   
 20  11  16  1   
 21  12  14  ar  
 22  12  17  ar  
 23  13  18  am  
 24  13  36  1   
 25  14  19  ar  
 26  15  20  1   
 27  15  37  1   
 28  15  38  1   
 29  16  21  1   
 30  16  39  1   
 31  16  40  1   
 32  17  22  ar  
 33  17  41  1   
 34  18  23  2   
 35  18  24  1   
 36  19  25  ar  
 37  19  42  1   
 38  20  26  1   
 39  20  43  1   
 40  20  44  1   
 41  21  26  1   
 42  21  45  1   
 43  21  46  1   
 44  22  25  ar  
 45  22  47  1   
 46  24  27  1   
 47  24  48  1   
 48  24  49  1   
 49  25  50  1   
 50  26  28  1   
 51  26  51  1   
 52  27  29  1   
 53  27  52  1   
 54  27  53  1   
 55  28  54  1   
 56  28  55  1   
 57  28  56  1   
 58  29  30  1   
 59  29  57  1   
 60  29  58  1   
 61  30  31  1   
 62  30  59  1   
 63  30  60  1   
 64  31  61  1   
 65  31  62  1   
 66  31  63  1   
@<TRIPOS>SUBSTRUCTURE
  1 ****   8 GROUP 4 **** **** 0

# MOE 2024.06 (io_trps.svl 2023.06)
