@<TRIPOS>MOLECULE
NONAME
39 41 1 0 0 
SMALL
USER_CHARGES


@<TRIPOS>ATOM
  1 O        1.8550    -1.1040     2.4930 O.2   1 <1>  -0.5700 
  2 C        1.7310    -1.1810     1.2930 C.2   1 <1>   0.5690 
  3 N        1.9510    -0.1090     0.4830 N.am  1 <1>  -0.7300 
  4 C        1.3660    -2.5320     0.6590 C.3   1 <1>   0.1710 
  5 C        2.2890     1.2560     0.9470 C.3   1 <1>   0.2200 
  6 N       -0.0640    -2.7220     0.2770 N.3   1 <1>  -0.8100 
  7 C        1.1190     2.3310     0.5500 C.3   1 <1>  -0.0800 
  8 C        3.7030     1.7610     0.2200 C.3   1 <1>  -0.1600 
  9 C       -0.5440    -1.7450    -0.7210 C.3   1 <1>   0.1100 
 10 C       -0.2970    -4.0960    -0.2090 C.3   1 <1>   0.1100 
 11 C        2.2720     2.7930     0.0500 C.3   1 <1>  -0.1600 
 12 C        0.8420     3.8020    -0.1100 C.3   1 <1>  -0.1600 
 13 C        3.4300     3.2260    -0.4570 C.3   1 <1>  -0.0800 
 14 C       -2.0010    -2.0330    -1.1280 C.3   1 <1>   0.1200 
 15 C       -1.7630    -4.2990    -0.6310 C.3   1 <1>   0.1200 
 16 C        2.2640     4.3100    -0.8350 C.3   1 <1>  -0.1600 
 17 O       -2.1300    -3.3470    -1.5880 O.3   1 <1>  -0.5600 
 18 H        1.8470    -0.2090    -0.5250 H     1 <1>   0.3700 
 19 H        1.6270    -3.2910     1.3760 H     1 <1>   0.0800 
 20 H        1.9880    -2.6780    -0.2050 H     1 <1>   0.0800 
 21 H        2.4180     1.2490     2.0200 H     1 <1>   0.0800 
 22 H        0.4440     1.7220    -0.0340 H     1 <1>   0.0800 
 23 H        4.0200     1.0570    -0.5330 H     1 <1>   0.0800 
 24 H        4.4870     1.8250     0.9580 H     1 <1>   0.0800 
 25 H        0.0760    -1.7760    -1.6000 H     1 <1>   0.0800 
 26 H       -0.5020    -0.7550    -0.3030 H     1 <1>   0.0800 
 27 H       -0.0590    -4.7960     0.5730 H     1 <1>   0.0800 
 28 H        0.3390    -4.3030    -1.0530 H     1 <1>   0.0800 
 29 H        2.0420     2.2340    -0.9610 H     1 <1>   0.0800 
 30 H        2.5120     3.3380     1.0670 H     1 <1>   0.0800 
 31 H        0.5450     4.5020     0.6570 H     1 <1>   0.0800 
 32 H        0.0440     3.7590    -0.8350 H     1 <1>   0.0800 
 33 H        4.1040     3.8470     0.1190 H     1 <1>   0.0800 
 34 H       -2.3050    -1.3750    -1.9210 H     1 <1>   0.0800 
 35 H       -2.6590    -1.8940    -0.2880 H     1 <1>   0.0800 
 36 H       -2.4160    -4.2060     0.2190 H     1 <1>   0.0800 
 37 H       -1.8950    -5.2720    -1.0680 H     1 <1>   0.0800 
 38 H        2.5280     5.2990    -0.4940 H     1 <1>   0.0800 
 39 H        2.1380     4.3610    -1.9060 H     1 <1>   0.0800 
@<TRIPOS>BOND
  1   1   2  2   
  2   2   3  am  
  3   2   4  1   
  4   3   5  1   
  5   3  18  1   
  6   4   6  1   
  7   4  19  1   
  8   4  20  1   
  9   5   7  1   
 10   5   8  1   
 11   5  21  1   
 12   6   9  1   
 13   6  10  1   
 14   7  11  1   
 15   7  12  1   
 16   7  22  1   
 17   8  13  1   
 18   8  23  1   
 19   8  24  1   
 20   9  14  1   
 21   9  25  1   
 22   9  26  1   
 23  10  15  1   
 24  10  27  1   
 25  10  28  1   
 26  11  13  1   
 27  11  29  1   
 28  11  30  1   
 29  12  16  1   
 30  12  31  1   
 31  12  32  1   
 32  13  16  1   
 33  13  33  1   
 34  14  17  1   
 35  14  34  1   
 36  14  35  1   
 37  15  17  1   
 38  15  36  1   
 39  15  37  1   
 40  16  38  1   
 41  16  39  1   
@<TRIPOS>SUBSTRUCTURE
  1 ****   3 GROUP 4 **** **** 0

# MOE 2024.06 (io_trps.svl 2023.06)
