@<TRIPOS>MOLECULE
NONAME
55 57 1 0 0 
SMALL
USER_CHARGES


@<TRIPOS>ATOM
  1 O       -1.3710     2.0630     0.4520 O.3   1 <1>  -0.3630 
  2 C       -0.5490     2.9050    -0.2230 C.ar  1 <1>   0.0830 
  3 C       -1.5550     2.1320     1.8470 C.3   1 <1>   0.2580 
  4 C       -0.7050     2.9670    -1.6050 C.ar  1 <1>  -0.1440 
  5 C        0.4100     3.6920     0.4050 C.ar  1 <1>  -0.1500 
  6 C       -2.6430     1.1300     2.1820 C.2   1 <1>  -0.2880 
  7 C        0.1020     3.8120    -2.3520 C.ar  1 <1>  -0.1500 
  8 C       -1.7740     2.1210    -2.2700 C.3   1 <1>   0.4870 
  9 C        1.2070     4.5350    -0.3490 C.ar  1 <1>  -0.1500 
 10 C       -3.8820     1.4200     2.5930 C.2   1 <1>  -0.3000 
 11 C        1.0540     4.5940    -1.7230 C.ar  1 <1>  -0.1500 
 12 N       -3.0680     2.5760    -1.7170 N.4   1 <1>  -0.9590 
 13 C       -4.1390     1.5320    -1.6820 C.3   1 <1>   0.3430 
 14 C       -3.5650     3.8580    -2.3180 C.3   1 <1>   0.3430 
 15 C       -5.3560     2.0300    -0.8770 C.3   1 <1>   0.2090 
 16 C       -4.7970     4.3970    -1.5660 C.3   1 <1>   0.2090 
 17 N       -5.8540     3.3490    -1.3770 N.pl3 1 <1>  -0.8380 
 18 C       -7.0020     3.7900    -0.7030 C.ar  1 <1>   0.1000 
 19 C       -7.0090     4.2580     0.6250 C.ar  1 <1>   0.0830 
 20 C       -8.2030     3.7420    -1.3960 C.ar  1 <1>  -0.1500 
 21 O       -5.8290     4.3320     1.3160 O.3   1 <1>  -0.3630 
 22 C       -8.2090     4.6360     1.2180 C.ar  1 <1>  -0.1500 
 23 C       -9.3910     4.1320    -0.8040 C.ar  1 <1>  -0.1500 
 24 C       -5.6580     5.3640     2.2630 C.3   1 <1>   0.1200 
 25 C       -9.3950     4.5760     0.5050 C.ar  1 <1>  -0.1500 
 26 C       -4.1630     5.5550     2.5080 C.3   1 <1>  -0.2400 
 27 H       -1.8520     3.1330     2.1060 H     1 <1>   0.0800 
 28 H       -0.6310     1.8760     2.3380 H     1 <1>   0.0800 
 29 H        0.5580     3.6600     1.4690 H     1 <1>   0.1500 
 30 H       -2.3050     0.1160     2.0500 H     1 <1>   0.1500 
 31 H        0.0040     3.8720    -3.4230 H     1 <1>   0.1500 
 32 H       -1.6040     1.0870    -2.0170 H     1 <1>   0.0800 
 33 H       -1.7520     2.2320    -3.3420 H     1 <1>   0.0800 
 34 H        1.9540     5.1450     0.1330 H     1 <1>   0.1500 
 35 H       -4.6240     0.6750     2.8280 H     1 <1>   0.1500 
 36 H       -4.2690     2.4140     2.7370 H     1 <1>   0.1500 
 37 H        1.6830     5.2500    -2.3020 H     1 <1>   0.1500 
 38 H       -2.8410     2.7690    -0.7270 H     1 <1>   0.4500 
 39 H       -3.7620     0.6330    -1.2220 H     1 <1>   0.0800 
 40 H       -4.4580     1.2950    -2.6830 H     1 <1>   0.0800 
 41 H       -3.8380     3.6940    -3.3460 H     1 <1>   0.0800 
 42 H       -2.7870     4.6020    -2.2920 H     1 <1>   0.0800 
 43 H       -5.0880     2.1150     0.1610 H     1 <1>   0.0800 
 44 H       -6.1500     1.3060    -0.9510 H     1 <1>   0.0800 
 45 H       -5.2190     5.2200    -2.1180 H     1 <1>   0.0800 
 46 H       -4.4770     4.7770    -0.6140 H     1 <1>   0.0800 
 47 H       -8.2020     3.3930    -2.4120 H     1 <1>   0.1500 
 48 H       -8.2430     4.9730     2.2360 H     1 <1>   0.1500 
 49 H      -10.3110     4.0870    -1.3610 H     1 <1>   0.1500 
 50 H       -6.1620     5.0820     3.1710 H     1 <1>   0.0800 
 51 H       -6.0900     6.2690     1.8680 H     1 <1>   0.0800 
 52 H      -10.3190     4.8730     0.9700 H     1 <1>   0.1500 
 53 H       -3.7360     4.6650     2.9300 H     1 <1>   0.0800 
 54 H       -4.0150     6.3620     3.2030 H     1 <1>   0.0800 
 55 H       -3.6630     5.8020     1.5890 H     1 <1>   0.0800 
@<TRIPOS>BOND
  1   1   2  1   
  2   1   3  1   
  3   2   4  ar  
  4   2   5  ar  
  5   3   6  1   
  6   3  27  1   
  7   3  28  1   
  8   4   7  ar  
  9   4   8  1   
 10   5   9  ar  
 11   5  29  1   
 12   6  10  2   
 13   6  30  1   
 14   7  11  ar  
 15   7  31  1   
 16   8  12  1   
 17   8  32  1   
 18   8  33  1   
 19   9  11  ar  
 20   9  34  1   
 21  10  35  1   
 22  10  36  1   
 23  11  37  1   
 24  12  13  1   
 25  12  14  1   
 26  12  38  1   
 27  13  15  1   
 28  13  39  1   
 29  13  40  1   
 30  14  16  1   
 31  14  41  1   
 32  14  42  1   
 33  15  17  1   
 34  15  43  1   
 35  15  44  1   
 36  16  17  1   
 37  16  45  1   
 38  16  46  1   
 39  17  18  1   
 40  18  19  ar  
 41  18  20  ar  
 42  19  21  1   
 43  19  22  ar  
 44  20  23  ar  
 45  20  47  1   
 46  21  24  1   
 47  22  25  ar  
 48  22  48  1   
 49  23  25  ar  
 50  23  49  1   
 51  24  26  1   
 52  24  50  1   
 53  24  51  1   
 54  25  52  1   
 55  26  53  1   
 56  26  54  1   
 57  26  55  1   
@<TRIPOS>SUBSTRUCTURE
  1 ****  16 GROUP 4 **** **** 0

# MOE 2024.06 (io_trps.svl 2023.06)
