@<TRIPOS>MOLECULE
NONAME
39 40 1 0 0 
SMALL
USER_CHARGES


@<TRIPOS>ATOM
  1 O       -0.3450     1.1490     1.4280 O.2   1 <1>  -0.5700 
  2 C       -0.4780     2.0980     0.6850 C.2   1 <1>   0.5690 
  3 N       -1.6260     2.2500    -0.0780 N.am  1 <1>  -0.4770 
  4 C        0.6610     3.1500     0.6200 C.3   1 <1>   0.2610 
  5 C       -2.6880     1.3300    -0.0260 C.ar  1 <1>   0.1170 
  6 C       -1.8270     3.4060    -0.9970 C.3   1 <1>   0.1400 
  7 O        1.3350     3.0910    -0.6080 O.3   1 <1>  -0.5600 
  8 C        1.7900     2.9690     1.6380 C.3   1 <1>  -0.1600 
  9 C       -3.4390     1.1800     1.1330 C.ar  1 <1>  -0.1500 
 10 C       -3.0170     0.5600    -1.1370 C.ar  1 <1>  -0.1500 
 11 C       -2.5630     4.5330    -0.2660 C.3   1 <1>  -0.1600 
 12 C        2.3350     2.1250    -0.5470 C.3   1 <1>   0.1200 
 13 C        2.7850     2.0760     0.9110 C.3   1 <1>  -0.1600 
 14 C       -4.5010     0.2960     1.1810 C.ar  1 <1>  -0.1500 
 15 C       -4.0790    -0.3260    -1.0950 C.ar  1 <1>  -0.1500 
 16 C       -2.7410     5.7570    -1.1740 C.3   1 <1>  -0.1600 
 17 C       -4.8240    -0.4570     0.0650 C.ar  1 <1>  -0.1500 
 18 C       -3.4780     6.8810    -0.4410 C.3   1 <1>  -0.2400 
 19 H        0.2370     4.1310     0.7210 H     1 <1>   0.0800 
 20 H       -2.4130     3.0910    -1.8430 H     1 <1>   0.0800 
 21 H       -0.8860     3.7580    -1.3790 H     1 <1>   0.0800 
 22 H        1.4500     2.5460     2.5660 H     1 <1>   0.0800 
 23 H        2.2340     3.9280     1.8360 H     1 <1>   0.0800 
 24 H       -3.1810     1.7590     2.0010 H     1 <1>   0.1500 
 25 H       -2.4320     0.6540    -2.0330 H     1 <1>   0.1500 
 26 H       -2.0090     4.8200     0.6100 H     1 <1>   0.0800 
 27 H       -3.5300     4.1770     0.0440 H     1 <1>   0.0800 
 28 H        3.1320     2.4070    -1.2140 H     1 <1>   0.0800 
 29 H        1.9110     1.1830    -0.8530 H     1 <1>   0.0800 
 30 H        2.7290     1.0630     1.2710 H     1 <1>   0.0800 
 31 H        3.7930     2.4350     1.0200 H     1 <1>   0.0800 
 32 H       -5.0730     0.1900     2.0860 H     1 <1>   0.1500 
 33 H       -4.3230    -0.9160    -1.9610 H     1 <1>   0.1500 
 34 H       -3.3030     5.4790    -2.0500 H     1 <1>   0.0800 
 35 H       -1.7770     6.1160    -1.4940 H     1 <1>   0.0800 
 36 H       -5.6500    -1.1470     0.1000 H     1 <1>   0.1500 
 37 H       -4.4540     6.5510    -0.1290 H     1 <1>   0.0800 
 38 H       -3.5960     7.7290    -1.0920 H     1 <1>   0.0800 
 39 H       -2.9240     7.1930     0.4270 H     1 <1>   0.0800 
@<TRIPOS>BOND
  1   1   2  2   
  2   2   3  am  
  3   2   4  1   
  4   3   5  1   
  5   3   6  1   
  6   4   7  1   
  7   4   8  1   
  8   4  19  1   
  9   5   9  ar  
 10   5  10  ar  
 11   6  11  1   
 12   6  20  1   
 13   6  21  1   
 14   7  12  1   
 15   8  13  1   
 16   8  22  1   
 17   8  23  1   
 18   9  14  ar  
 19   9  24  1   
 20  10  15  ar  
 21  10  25  1   
 22  11  16  1   
 23  11  26  1   
 24  11  27  1   
 25  12  13  1   
 26  12  28  1   
 27  12  29  1   
 28  13  30  1   
 29  13  31  1   
 30  14  17  ar  
 31  14  32  1   
 32  15  17  ar  
 33  15  33  1   
 34  16  18  1   
 35  16  34  1   
 36  16  35  1   
 37  17  36  1   
 38  18  37  1   
 39  18  38  1   
 40  18  39  1   
@<TRIPOS>SUBSTRUCTURE
  1 ****   3 GROUP 4 **** **** 0

# MOE 2024.06 (io_trps.svl 2023.06)
