@<TRIPOS>MOLECULE
NONAME
36 36 1 0 0 
SMALL
USER_CHARGES


@<TRIPOS>ATOM
  1 S        0.7330    -0.3430     1.0180 S.3   1 <1>  -0.0800 
  2 C        1.8780     0.7930     0.3100 C.2   1 <1>   0.4620 
  3 C       -0.5810     0.5370     0.2850 C.2   1 <1>  -0.1400 
  4 N        1.3130     1.7120    -0.3860 N.2   1 <1>  -0.5650 
  5 N        3.2330     0.6400     0.5300 N.pl3 1 <1>  -0.8220 
  6 C       -0.0610     1.5690    -0.4010 C.2   1 <1>   0.0460 
  7 C       -1.9790     0.0070     0.5430 C.3   1 <1>  -0.0600 
  8 C        4.1730     1.7000     0.0740 C.3   1 <1>   0.2090 
  9 C        3.8310    -0.5000     1.2810 C.3   1 <1>   0.2090 
 10 C       -0.8240     2.6050    -1.1980 C.3   1 <1>  -0.0590 
 11 C        4.2290     2.8110     1.1150 C.3   1 <1>  -0.0990 
 12 C        3.9070    -1.7550     0.4100 C.3   1 <1>  -0.0990 
 13 C        4.9290     4.0090     0.5300 C.2   1 <1>   0.5690 
 14 C        4.8070    -1.5680    -0.7870 C.2   1 <1>   0.5690 
 15 O        6.1180     4.1350     0.6590 O.2   1 <1>  -0.5700 
 16 N        4.2120     4.9210    -0.1480 N.am  1 <1>  -0.8000 
 17 O        5.9450    -1.9550    -0.7460 O.2   1 <1>  -0.5700 
 18 N        4.3240    -0.9720    -1.8900 N.am  1 <1>  -0.8000 
 19 H       -2.1790     0.0070     1.5990 H     1 <1>   0.0800 
 20 H       -2.0610    -0.9990     0.1730 H     1 <1>   0.0800 
 21 H       -2.7160     0.6160     0.0520 H     1 <1>   0.0800 
 22 H        3.8270     2.0990    -0.8650 H     1 <1>   0.0800 
 23 H        5.1570     1.2910    -0.0870 H     1 <1>   0.0800 
 24 H        3.2380    -0.7030     2.1570 H     1 <1>   0.0800 
 25 H        4.8210    -0.2380     1.6160 H     1 <1>   0.0800 
 26 H       -1.8800     2.4220    -1.1620 H     1 <1>   0.0800 
 27 H       -0.5010     2.5780    -2.2230 H     1 <1>   0.0800 
 28 H       -0.6270     3.5830    -0.7980 H     1 <1>   0.0800 
 29 H        4.7640     2.4750     1.9830 H     1 <1>   0.0800 
 30 H        3.2340     3.0950     1.4060 H     1 <1>   0.0800 
 31 H        2.9270    -2.0410     0.0810 H     1 <1>   0.0800 
 32 H        4.2990    -2.5620     1.0010 H     1 <1>   0.0800 
 33 H        4.6790     5.7350    -0.5460 H     1 <1>   0.3700 
 34 H        3.2060     4.8410    -0.3040 H     1 <1>   0.3700 
 35 H        4.9300    -0.8210    -2.6960 H     1 <1>   0.3700 
 36 H        3.4310    -0.4730    -1.8740 H     1 <1>   0.3700 
@<TRIPOS>BOND
  1   1   2  1   
  2   1   3  1   
  3   2   4  2   
  4   2   5  1   
  5   3   6  2   
  6   3   7  1   
  7   4   6  1   
  8   5   8  1   
  9   5   9  1   
 10   6  10  1   
 11   7  19  1   
 12   7  20  1   
 13   7  21  1   
 14   8  11  1   
 15   8  22  1   
 16   8  23  1   
 17   9  12  1   
 18   9  24  1   
 19   9  25  1   
 20  10  26  1   
 21  10  27  1   
 22  10  28  1   
 23  11  13  1   
 24  11  29  1   
 25  11  30  1   
 26  12  14  1   
 27  12  31  1   
 28  12  32  1   
 29  13  15  2   
 30  13  16  am  
 31  14  17  2   
 32  14  18  am  
 33  16  33  1   
 34  16  34  1   
 35  18  35  1   
 36  18  36  1   
@<TRIPOS>SUBSTRUCTURE
  1 ****   5 GROUP 4 **** **** 0

# MOE 2024.06 (io_trps.svl 2023.06)
