@<TRIPOS>MOLECULE
NONAME
34 34 1 0 0 
SMALL
USER_CHARGES


@<TRIPOS>ATOM
  1 I        0.7490     0.4570    -1.4970 I     1 <1>  -0.0810 
  2 C        0.4360     1.9560    -0.0130 C.ar  1 <1>   0.0810 
  3 C        1.4850     2.3920     0.8020 C.ar  1 <1>   0.0860 
  4 C       -0.8590     2.4290     0.1000 C.ar  1 <1>  -0.1500 
  5 C        2.8520     1.9240     0.7000 C.2   1 <1>   0.5440 
  6 C        1.1390     3.3030     1.8020 C.ar  1 <1>  -0.1500 
  7 C       -1.1520     3.3590     1.0810 C.ar  1 <1>  -0.1500 
  8 O        3.2220     1.1360     1.5500 O.2   1 <1>  -0.5700 
  9 N        3.7520     2.3530    -0.2720 N.am  1 <1>  -0.6600 
 10 C       -0.1510     3.7880     1.9370 C.ar  1 <1>  -0.1500 
 11 C        4.9880     1.5760    -0.6150 C.3   1 <1>   0.2200 
 12 C        3.7240     3.7010    -0.9240 C.3   1 <1>   0.2200 
 13 C        4.7040     0.0950    -0.8780 C.3   1 <1>  -0.2400 
 14 C        6.0580     1.7750     0.4590 C.3   1 <1>  -0.2400 
 15 C        3.5540     4.8350     0.0860 C.3   1 <1>  -0.2400 
 16 C        2.6820     3.7600    -2.0370 C.3   1 <1>  -0.2400 
 17 H       -1.6320     2.0740    -0.5590 H     1 <1>   0.1500 
 18 H        1.9060     3.6320     2.4830 H     1 <1>   0.1500 
 19 H       -2.1530     3.7400     1.1860 H     1 <1>   0.1500 
 20 H       -0.3790     4.4990     2.7130 H     1 <1>   0.1500 
 21 H        5.3860     1.9590    -1.5390 H     1 <1>   0.0800 
 22 H        4.6820     3.8690    -1.3860 H     1 <1>   0.0800 
 23 H        4.3800    -0.4110     0.0130 H     1 <1>   0.0800 
 24 H        5.5990    -0.3880    -1.2220 H     1 <1>   0.0800 
 25 H        3.9550    -0.0060    -1.6400 H     1 <1>   0.0800 
 26 H        5.7470     1.3390     1.3910 H     1 <1>   0.0800 
 27 H        6.2480     2.8220     0.6060 H     1 <1>   0.0800 
 28 H        6.9730     1.3010     0.1560 H     1 <1>   0.0800 
 29 H        2.5300     4.9540     0.3770 H     1 <1>   0.0800 
 30 H        3.8650     5.7600    -0.3660 H     1 <1>   0.0800 
 31 H        4.1670     4.6600     0.9520 H     1 <1>   0.0800 
 32 H        1.6860     3.7490    -1.6400 H     1 <1>   0.0800 
 33 H        2.8120     2.9310    -2.7090 H     1 <1>   0.0800 
 34 H        2.8040     4.6700    -2.5960 H     1 <1>   0.0800 
@<TRIPOS>BOND
  1   1   2  1   
  2   2   3  ar  
  3   2   4  ar  
  4   3   5  1   
  5   3   6  ar  
  6   4   7  ar  
  7   4  17  1   
  8   5   8  2   
  9   5   9  am  
 10   6  10  ar  
 11   6  18  1   
 12   7  10  ar  
 13   7  19  1   
 14   9  11  1   
 15   9  12  1   
 16  10  20  1   
 17  11  13  1   
 18  11  14  1   
 19  11  21  1   
 20  12  15  1   
 21  12  16  1   
 22  12  22  1   
 23  13  23  1   
 24  13  24  1   
 25  13  25  1   
 26  14  26  1   
 27  14  27  1   
 28  14  28  1   
 29  15  29  1   
 30  15  30  1   
 31  15  31  1   
 32  16  32  1   
 33  16  33  1   
 34  16  34  1   
@<TRIPOS>SUBSTRUCTURE
  1 ****   5 GROUP 4 **** **** 0

# MOE 2024.06 (io_trps.svl 2023.06)
