@<TRIPOS>MOLECULE
NONAME
28 28 1 0 0 
SMALL
USER_CHARGES


@<TRIPOS>ATOM
  1 O        0.2430     0.4920    -0.7200 O.2   1 <1>  -0.5700 
  2 C        0.0320     1.5140    -0.0820 C.2   1 <1>   0.6160 
  3 N        1.1200     2.1890     0.4400 N.am  1 <1>  -0.6600 
  4 C       -1.3060     1.9840     0.1320 C.2   1 <1>  -0.1360 
  5 C        1.1590     3.6660     0.6370 C.3   1 <1>   0.1400 
  6 C        2.4360     1.5110     0.6170 C.3   1 <1>   0.1400 
  7 C       -2.4580     1.6090    -0.4800 C.2   1 <1>  -0.0380 
  8 C        2.1940     4.2910    -0.3050 C.3   1 <1>  -0.1600 
  9 C        3.4690     2.1190    -0.3350 C.3   1 <1>  -0.1600 
 10 N       -2.5110     0.6640    -1.4620 N.pl3 1 <1>  -0.9000 
 11 C       -3.8000     2.2140    -0.1210 C.3   1 <1>  -0.1020 
 12 C        3.5760     3.6390    -0.1540 C.3   1 <1>  -0.1600 
 13 H       -1.3740     2.7270     0.8970 H     1 <1>   0.1500 
 14 H        0.2000     4.1080     0.4350 H     1 <1>   0.0800 
 15 H        1.4210     3.8750     1.6600 H     1 <1>   0.0800 
 16 H        2.7590     1.6390     1.6360 H     1 <1>   0.0800 
 17 H        2.3460     0.4540     0.4310 H     1 <1>   0.0800 
 18 H        1.8510     4.1740    -1.3190 H     1 <1>   0.0800 
 19 H        2.2680     5.3450    -0.1050 H     1 <1>   0.0800 
 20 H        4.4270     1.6630    -0.1580 H     1 <1>   0.0800 
 21 H        3.1790     1.8900    -1.3460 H     1 <1>   0.0800 
 22 H       -1.6440     0.1590    -1.7130 H     1 <1>   0.4000 
 23 H       -3.3650     0.3240    -1.9130 H     1 <1>   0.4000 
 24 H       -4.4640     1.4430     0.2260 H     1 <1>   0.0800 
 25 H       -4.2300     2.6840    -0.9860 H     1 <1>   0.0800 
 26 H       -3.6970     2.9510     0.6540 H     1 <1>   0.0800 
 27 H        3.9700     3.8560     0.8240 H     1 <1>   0.0800 
 28 H        4.2530     4.0460    -0.8850 H     1 <1>   0.0800 
@<TRIPOS>BOND
  1   1   2  2   
  2   2   3  am  
  3   2   4  1   
  4   3   5  1   
  5   3   6  1   
  6   4   7  2   
  7   4  13  1   
  8   5   8  1   
  9   5  14  1   
 10   5  15  1   
 11   6   9  1   
 12   6  16  1   
 13   6  17  1   
 14   7  10  1   
 15   7  11  1   
 16   8  12  1   
 17   8  18  1   
 18   8  19  1   
 19   9  12  1   
 20   9  20  1   
 21   9  21  1   
 22  10  22  1   
 23  10  23  1   
 24  11  24  1   
 25  11  25  1   
 26  11  26  1   
 27  12  27  1   
 28  12  28  1   
@<TRIPOS>SUBSTRUCTURE
  1 ****   2 GROUP 4 **** **** 0

# MOE 2024.06 (io_trps.svl 2023.06)
