@<TRIPOS>MOLECULE
NONAME
33 34 1 0 0 
SMALL
USER_CHARGES


@<TRIPOS>ATOM
  1 O       -4.6920     1.5060     1.9820 O.co2 1 <1>  -0.9000 
  2 C       -4.7520     1.8660     0.8030 C.2   1 <1>   1.0320 
  3 O       -4.9610     0.9910    -0.0580 O.co2 1 <1>  -0.9000 
  4 C       -4.9320     3.2610     0.4860 C.2   1 <1>  -0.3840 
  5 N       -5.7390     3.7330    -0.5320 N.pl3 1 <1>   0.0480 
  6 C       -4.4330     4.3360     1.1600 C.2   1 <1>  -0.1500 
  7 C       -5.7490     5.1100    -0.4770 C.ar  1 <1>  -0.1520 
  8 C       -6.5330     2.9350    -1.4990 C.3   1 <1>   0.0960 
  9 C       -4.9310     5.5100     0.5730 C.ar  1 <1>   0.0000 
 10 C       -6.4080     6.0690    -1.2580 C.ar  1 <1>  -0.1500 
 11 C       -7.8410     2.3980    -0.8890 C.3   1 <1>   0.3430 
 12 C       -4.7620     6.8700     0.8550 C.ar  1 <1>  -0.1500 
 13 C       -6.2370     7.4030    -0.9720 C.ar  1 <1>  -0.1500 
 14 N       -7.6370     1.4030     0.2110 N.4   1 <1>  -0.9590 
 15 C       -5.4130     7.8060     0.0860 C.ar  1 <1>  -0.1500 
 16 C       -8.4630     0.1770     0.0970 C.3   1 <1>   0.2630 
 17 C       -7.7150     2.0090     1.5770 C.3   1 <1>   0.2630 
 18 H       -3.7790     4.3070     2.0140 H     1 <1>   0.1500 
 19 H       -5.9330     2.1290    -1.8780 H     1 <1>   0.0800 
 20 H       -6.7720     3.5610    -2.3360 H     1 <1>   0.0800 
 21 H       -7.0370     5.7710    -2.0750 H     1 <1>   0.1500 
 22 H       -8.3950     1.9240    -1.6810 H     1 <1>   0.0800 
 23 H       -8.4290     3.2260    -0.5290 H     1 <1>   0.0800 
 24 H       -4.1250     7.1570     1.6710 H     1 <1>   0.1500 
 25 H       -6.7320     8.1550    -1.5600 H     1 <1>   0.1500 
 26 H       -6.6320     1.0800     0.1220 H     1 <1>   0.4500 
 27 H       -5.2940     8.8550     0.2900 H     1 <1>   0.1500 
 28 H       -9.5080     0.4160     0.1960 H     1 <1>   0.0800 
 29 H       -8.1870    -0.5200     0.8730 H     1 <1>   0.0800 
 30 H       -8.2940    -0.2940    -0.8570 H     1 <1>   0.0800 
 31 H       -8.7300     2.2630     1.8260 H     1 <1>   0.0800 
 32 H       -7.1090     2.9000     1.6260 H     1 <1>   0.0800 
 33 H       -7.3290     1.3140     2.3070 H     1 <1>   0.0800 
@<TRIPOS>BOND
  1   1   2  ar  
  2   2   3  ar  
  3   2   4  1   
  4   4   5  1   
  5   4   6  2   
  6   5   7  1   
  7   5   8  1   
  8   6   9  1   
  9   6  18  1   
 10   7   9  ar  
 11   7  10  ar  
 12   8  11  1   
 13   8  19  1   
 14   8  20  1   
 15   9  12  ar  
 16  10  13  ar  
 17  10  21  1   
 18  11  14  1   
 19  11  22  1   
 20  11  23  1   
 21  12  15  ar  
 22  12  24  1   
 23  13  15  ar  
 24  13  25  1   
 25  14  16  1   
 26  14  17  1   
 27  14  26  1   
 28  15  27  1   
 29  16  28  1   
 30  16  29  1   
 31  16  30  1   
 32  17  31  1   
 33  17  32  1   
 34  17  33  1   
@<TRIPOS>SUBSTRUCTURE
  1 ****   5 GROUP 4 **** **** 0

# MOE 2024.06 (io_trps.svl 2023.06)
