@<TRIPOS>MOLECULE
NONAME
45 47 1 0 0 
SMALL
USER_CHARGES


@<TRIPOS>ATOM
  1 CL       0.6970     0.2290    -2.0300 Cl    1 <1>  -0.1770 
  2 C        2.1840     0.8460    -1.3490 C.ar  1 <1>   0.1770 
  3 C        3.2890     1.0450    -2.1560 C.ar  1 <1>   0.1600 
  4 C        2.2510     1.1340    -0.0040 C.ar  1 <1>  -0.1500 
  5 N        4.4560     1.5090    -1.7260 N.ar  1 <1>  -0.6200 
  6 C        3.4580     1.6160     0.4530 C.ar  1 <1>  -0.1500 
  7 C        4.5270     1.7880    -0.4300 C.ar  1 <1>   0.4270 
  8 N        5.7670     2.2620    -0.0690 N.am  1 <1>  -0.5470 
  9 C        6.3370     2.5850     1.1290 C.2   1 <1>   0.5690 
 10 O        5.7330     2.5570     2.1730 O.2   1 <1>  -0.5700 
 11 C        7.7990     3.0530     1.1290 C.3   1 <1>   0.1710 
 12 N        8.8340     1.9900     0.9760 N.3   1 <1>  -0.8100 
 13 C       10.1820     2.5470     1.2540 C.3   1 <1>   0.1100 
 14 C        8.8210     1.3260    -0.3540 C.3   1 <1>   0.1100 
 15 C       11.3000     1.4930     1.1440 C.3   1 <1>   0.2090 
 16 C        9.9150     0.2500    -0.4910 C.3   1 <1>   0.2090 
 17 N       11.2490     0.8300    -0.1850 N.pl3 1 <1>  -0.8380 
 18 C       12.4070     0.2530    -0.7030 C.ar  1 <1>   0.1000 
 19 C       12.8480    -1.0390    -0.3890 C.ar  1 <1>  -0.1430 
 20 C       13.1600     1.0200    -1.5820 C.ar  1 <1>  -0.1500 
 21 C       14.0140    -1.5220    -0.9620 C.ar  1 <1>  -0.1500 
 22 C       12.0890    -1.9460     0.5700 C.3   1 <1>  -0.0970 
 23 C       14.3220     0.5340    -2.1480 C.ar  1 <1>  -0.1500 
 24 C       14.7510    -0.7430    -1.8380 C.ar  1 <1>  -0.1500 
 25 H        3.2040     0.8110    -3.2030 H     1 <1>   0.1500 
 26 H        1.4040     0.9870     0.6430 H     1 <1>   0.1500 
 27 H        3.5660     1.8580     1.4930 H     1 <1>   0.1500 
 28 H        6.3760     2.3180    -0.8790 H     1 <1>   0.3700 
 29 H        7.9600     3.5490     2.0700 H     1 <1>   0.0800 
 30 H        7.9260     3.7880     0.3540 H     1 <1>   0.0800 
 31 H       10.1990     2.9570     2.2490 H     1 <1>   0.0800 
 32 H       10.3970     3.3420     0.5600 H     1 <1>   0.0800 
 33 H        8.9640     2.0570    -1.1310 H     1 <1>   0.0800 
 34 H        7.8740     0.8410    -0.5090 H     1 <1>   0.0800 
 35 H       11.1710     0.7610     1.9210 H     1 <1>   0.0800 
 36 H       12.2590     1.9620     1.2740 H     1 <1>   0.0800 
 37 H        9.9180    -0.1470    -1.4910 H     1 <1>   0.0800 
 38 H        9.7010    -0.5500     0.1940 H     1 <1>   0.0800 
 39 H       12.8170     2.0100    -1.8190 H     1 <1>   0.1500 
 40 H       14.3600    -2.5130    -0.7310 H     1 <1>   0.1500 
 41 H       11.7530    -1.3920     1.4250 H     1 <1>   0.0800 
 42 H       12.7170    -2.7460     0.9190 H     1 <1>   0.0800 
 43 H       11.2390    -2.3710     0.0700 H     1 <1>   0.0800 
 44 H       14.8900     1.1450    -2.8270 H     1 <1>   0.1500 
 45 H       15.6540    -1.1310    -2.2750 H     1 <1>   0.1500 
@<TRIPOS>BOND
  1   1   2  1   
  2   2   3  ar  
  3   2   4  ar  
  4   3   5  ar  
  5   3  25  1   
  6   4   6  ar  
  7   4  26  1   
  8   5   7  ar  
  9   6   7  ar  
 10   6  27  1   
 11   7   8  1   
 12   8   9  am  
 13   8  28  1   
 14   9  10  2   
 15   9  11  1   
 16  11  12  1   
 17  11  29  1   
 18  11  30  1   
 19  12  13  1   
 20  12  14  1   
 21  13  15  1   
 22  13  31  1   
 23  13  32  1   
 24  14  16  1   
 25  14  33  1   
 26  14  34  1   
 27  15  17  1   
 28  15  35  1   
 29  15  36  1   
 30  16  17  1   
 31  16  37  1   
 32  16  38  1   
 33  17  18  1   
 34  18  19  ar  
 35  18  20  ar  
 36  19  21  ar  
 37  19  22  1   
 38  20  23  ar  
 39  20  39  1   
 40  21  24  ar  
 41  21  40  1   
 42  22  41  1   
 43  22  42  1   
 44  22  43  1   
 45  23  24  ar  
 46  23  44  1   
 47  24  45  1   
@<TRIPOS>SUBSTRUCTURE
  1 ****  14 GROUP 4 **** **** 0

# MOE 2024.06 (io_trps.svl 2023.06)
