@<TRIPOS>MOLECULE
NONAME
44 45 1 0 0 
SMALL
USER_CHARGES


@<TRIPOS>ATOM
  1 O        0.9400    -0.0150     0.5470 O.3   1 <1>  -0.3630 
  2 C        1.9310     0.8550     0.2410 C.ar  1 <1>   0.0830 
  3 C        0.0340     0.2350     1.6000 C.3   1 <1>   0.0400 
  4 C        2.1820     2.0270     0.9480 C.ar  1 <1>  -0.1500 
  5 C        2.7260     0.5350    -0.8460 C.ar  1 <1>  -0.1500 
  6 C        3.2210     2.8590     0.5670 C.ar  1 <1>  -0.1500 
  7 C        3.7640     1.3640    -1.2290 C.ar  1 <1>  -0.1500 
  8 C        4.0200     2.5300    -0.5200 C.ar  1 <1>  -0.1430 
  9 C        5.1680     3.4250    -0.9220 C.3   1 <1>   0.4860 
 10 N        6.3530     2.9260    -0.1960 N.4   1 <1>  -0.9060 
 11 C        7.6110     3.6290    -0.4860 C.3   1 <1>   0.4230 
 12 C        8.7550     2.7560     0.0390 C.3   1 <1>  -0.1600 
 13 C        7.5700     5.0030     0.1850 C.3   1 <1>  -0.2400 
 14 C       10.1500     3.2830    -0.3300 C.3   1 <1>  -0.0170 
 15 C       11.1970     2.2730     0.1010 C.ar  1 <1>  -0.1430 
 16 C       11.6610     1.3190    -0.7920 C.ar  1 <1>  -0.1500 
 17 C       11.6920     2.2900     1.3960 C.ar  1 <1>  -0.1500 
 18 C       12.6070     0.3900    -0.3930 C.ar  1 <1>  -0.1500 
 19 C       12.6370     1.3620     1.7950 C.ar  1 <1>  -0.1500 
 20 C       13.0940     0.4100     0.9010 C.ar  1 <1>  -0.1500 
 21 H       -0.6670    -0.5800     1.6370 H     1 <1>   0.0800 
 22 H       -0.4860     1.1550     1.4030 H     1 <1>   0.0800 
 23 H        0.5800     0.2890     2.5260 H     1 <1>   0.0800 
 24 H        1.5770     2.3030     1.7920 H     1 <1>   0.1500 
 25 H        2.5180    -0.3720    -1.3880 H     1 <1>   0.1500 
 26 H        3.3890     3.7620     1.1280 H     1 <1>   0.1500 
 27 H        4.3570     1.0850    -2.0840 H     1 <1>   0.1500 
 28 H        4.9520     4.4460    -0.6490 H     1 <1>   0.0800 
 29 H        5.3230     3.3700    -1.9870 H     1 <1>   0.0800 
 30 H        6.4490     1.9290    -0.4190 H     1 <1>   0.4500 
 31 H        6.1540     2.9610     0.8090 H     1 <1>   0.4500 
 32 H        7.7240     3.7480    -1.5530 H     1 <1>   0.0800 
 33 H        8.6640     1.7690    -0.3820 H     1 <1>   0.0800 
 34 H        8.6940     2.6690     1.1100 H     1 <1>   0.0800 
 35 H        7.4950     4.9100     1.2550 H     1 <1>   0.0800 
 36 H        6.7500     5.5940    -0.1800 H     1 <1>   0.0800 
 37 H        8.4690     5.5490    -0.0360 H     1 <1>   0.0800 
 38 H       10.3510     4.2210     0.1590 H     1 <1>   0.0800 
 39 H       10.2240     3.4420    -1.3930 H     1 <1>   0.0800 
 40 H       11.2950     1.2900    -1.8030 H     1 <1>   0.1500 
 41 H       11.3490     3.0250     2.1020 H     1 <1>   0.1500 
 42 H       12.9660    -0.3480    -1.0890 H     1 <1>   0.1500 
 43 H       13.0200     1.3790     2.8010 H     1 <1>   0.1500 
 44 H       13.8300    -0.3110     1.2110 H     1 <1>   0.1500 
@<TRIPOS>BOND
  1   1   2  1   
  2   1   3  1   
  3   2   4  ar  
  4   2   5  ar  
  5   3  21  1   
  6   3  22  1   
  7   3  23  1   
  8   4   6  ar  
  9   4  24  1   
 10   5   7  ar  
 11   5  25  1   
 12   6   8  ar  
 13   6  26  1   
 14   7   8  ar  
 15   7  27  1   
 16   8   9  1   
 17   9  10  1   
 18   9  28  1   
 19   9  29  1   
 20  10  11  1   
 21  10  30  1   
 22  10  31  1   
 23  11  12  1   
 24  11  13  1   
 25  11  32  1   
 26  12  14  1   
 27  12  33  1   
 28  12  34  1   
 29  13  35  1   
 30  13  36  1   
 31  13  37  1   
 32  14  15  1   
 33  14  38  1   
 34  14  39  1   
 35  15  16  ar  
 36  15  17  ar  
 37  16  18  ar  
 38  16  40  1   
 39  17  19  ar  
 40  17  41  1   
 41  18  20  ar  
 42  18  42  1   
 43  19  20  ar  
 44  19  43  1   
 45  20  44  1   
@<TRIPOS>SUBSTRUCTURE
  1 ****  10 GROUP 4 **** **** 0

# MOE 2024.06 (io_trps.svl 2023.06)
