@<TRIPOS>MOLECULE
NONAME
44 45 1 0 0 
SMALL
USER_CHARGES


@<TRIPOS>ATOM
  1 O        0.2750     0.5130     0.2450 O.2   1 <1>  -0.5700 
  2 C        0.4150     1.7120     0.2870 C.2   1 <1>   0.6590 
  3 O        1.6070     2.3230     0.2550 O.3   1 <1>  -0.0870 
  4 C       -0.7820     2.6610     0.3740 C.3   1 <1>  -0.0190 
  5 N        2.7820     1.6730     0.2140 N.2   1 <1>  -0.5130 
  6 C       -2.0150     2.0090     1.0350 C.3   1 <1>  -0.1600 
  7 C       -1.1490     3.2140    -1.0170 C.3   1 <1>  -0.1600 
  8 C        3.8500     2.3680     0.1260 C.2   1 <1>   0.4140 
  9 C       -3.1990     2.9840     1.1100 C.3   1 <1>  -0.1600 
 10 C       -2.3350     4.1860    -0.9460 C.3   1 <1>  -0.1600 
 11 N        3.7680     3.7440     0.0320 N.pl3 1 <1>  -0.8500 
 12 C        5.1690     1.7560     0.0870 C.ar  1 <1>   0.0860 
 13 C       -3.5510     3.5310    -0.2790 C.3   1 <1>  -0.1600 
 14 C        6.3160     2.4480     0.4750 C.ar  1 <1>  -0.1500 
 15 C        5.3430     0.4420    -0.3450 C.ar  1 <1>  -0.1500 
 16 C        7.5770     1.8810     0.4230 C.ar  1 <1>   0.0820 
 17 C        6.5930    -0.1450    -0.4110 C.ar  1 <1>  -0.1500 
 18 O        8.5900     2.6910     0.8390 O.3   1 <1>  -0.3630 
 19 C        7.7320     0.5650    -0.0400 C.ar  1 <1>   0.0820 
 20 C        9.6730     2.1630     1.5740 C.3   1 <1>   0.0400 
 21 O        8.9770     0.0170    -0.1350 O.3   1 <1>  -0.3630 
 22 C        9.1990    -1.2550    -0.7020 C.3   1 <1>   0.0400 
 23 H       -0.4820     3.4870     0.9950 H     1 <1>   0.0800 
 24 H       -2.3080     1.1420     0.4670 H     1 <1>   0.0800 
 25 H       -1.7590     1.6760     2.0270 H     1 <1>   0.0800 
 26 H       -0.3010     3.7200    -1.4450 H     1 <1>   0.0800 
 27 H       -1.4030     2.3930    -1.6670 H     1 <1>   0.0800 
 28 H       -4.0540     2.4790     1.5250 H     1 <1>   0.0800 
 29 H       -2.9500     3.8020     1.7640 H     1 <1>   0.0800 
 30 H       -2.0500     5.0600    -0.3840 H     1 <1>   0.0800 
 31 H       -2.6000     4.5060    -1.9390 H     1 <1>   0.0800 
 32 H        2.8240     4.0580    -0.1910 H     1 <1>   0.4000 
 33 H        4.4790     4.1770    -0.5600 H     1 <1>   0.4000 
 34 H       -4.3470     4.2510    -0.1910 H     1 <1>   0.0800 
 35 H       -3.9050     2.7250    -0.8990 H     1 <1>   0.0800 
 36 H        6.2330     3.4540     0.8410 H     1 <1>   0.1500 
 37 H        4.4770    -0.1290    -0.6370 H     1 <1>   0.1500 
 38 H        6.6530    -1.1590    -0.7560 H     1 <1>   0.1500 
 39 H        9.3090     1.4040     2.2440 H     1 <1>   0.0800 
 40 H       10.3920     1.7530     0.8870 H     1 <1>   0.0800 
 41 H       10.1210     2.9650     2.1320 H     1 <1>   0.0800 
 42 H       10.2580    -1.4380    -0.7070 H     1 <1>   0.0800 
 43 H        8.7040    -1.9970    -0.1010 H     1 <1>   0.0800 
 44 H        8.8240    -1.2590    -1.7100 H     1 <1>   0.0800 
@<TRIPOS>BOND
  1   1   2  2   
  2   2   3  1   
  3   2   4  1   
  4   3   5  1   
  5   4   6  1   
  6   4   7  1   
  7   4  23  1   
  8   5   8  2   
  9   6   9  1   
 10   6  24  1   
 11   6  25  1   
 12   7  10  1   
 13   7  26  1   
 14   7  27  1   
 15   8  11  1   
 16   8  12  1   
 17   9  13  1   
 18   9  28  1   
 19   9  29  1   
 20  10  13  1   
 21  10  30  1   
 22  10  31  1   
 23  11  32  1   
 24  11  33  1   
 25  12  14  ar  
 26  12  15  ar  
 27  13  34  1   
 28  13  35  1   
 29  14  16  ar  
 30  14  36  1   
 31  15  17  ar  
 32  15  37  1   
 33  16  18  1   
 34  16  19  ar  
 35  17  19  ar  
 36  17  38  1   
 37  18  20  1   
 38  19  21  1   
 39  20  39  1   
 40  20  40  1   
 41  20  41  1   
 42  21  22  1   
 43  22  42  1   
 44  22  43  1   
 45  22  44  1   
@<TRIPOS>SUBSTRUCTURE
  1 ****   5 GROUP 4 **** **** 0

# MOE 2024.06 (io_trps.svl 2023.06)
