@<TRIPOS>MOLECULE
NONAME
33 33 1 0 0 
SMALL
USER_CHARGES


@<TRIPOS>ATOM
  1 CL       0.3390    -0.4000     0.6940 Cl    1 <1>  -0.1770 
  2 C        1.7060     0.6590     0.4650 C.ar  1 <1>   0.1770 
  3 C        2.9860     0.1560     0.6280 C.ar  1 <1>  -0.1500 
  4 C        1.4880     1.9820     0.1240 C.ar  1 <1>  -0.1500 
  5 C        4.0750     0.9940     0.4470 C.ar  1 <1>  -0.1500 
  6 C        2.5750     2.8210    -0.0580 C.ar  1 <1>  -0.1500 
  7 C        3.8580     2.3230     0.1040 C.ar  1 <1>   0.1020 
  8 S        5.2170     3.4780    -0.1510 S.3   1 <1>  -0.3320 
  9 C        6.7770     2.5210     0.0990 C.3   1 <1>   0.0700 
 10 C        7.9550     3.4750    -0.0930 C.3   1 <1>  -0.0990 
 11 C        9.2690     2.7350     0.0160 C.2   1 <1>   0.5690 
 12 O        9.4220     1.9350     0.9050 O.2   1 <1>  -0.5700 
 13 N       10.2430     2.9970    -0.8910 N.am  1 <1>  -0.7300 
 14 C       11.5570     2.3050    -0.9380 C.3   1 <1>   0.1400 
 15 C       12.4850     2.8310     0.1580 C.3   1 <1>   0.1200 
 16 O       13.7590     2.3110    -0.0580 O.3   1 <1>  -0.5600 
 17 C       14.6770     2.6490     0.9310 C.3   1 <1>   0.0400 
 18 H        3.1220    -0.8760     0.8940 H     1 <1>   0.1500 
 19 H        0.4830     2.3460     0.0040 H     1 <1>   0.1500 
 20 H        5.0640     0.6020     0.5760 H     1 <1>   0.1500 
 21 H        2.4350     3.8540    -0.3230 H     1 <1>   0.1500 
 22 H        6.7900     1.7270    -0.6270 H     1 <1>   0.0800 
 23 H        6.7590     2.1190     1.0980 H     1 <1>   0.0800 
 24 H        7.9270     4.2360     0.6640 H     1 <1>   0.0800 
 25 H        7.8800     3.9430    -1.0570 H     1 <1>   0.0800 
 26 H       10.0880     3.6990    -1.6160 H     1 <1>   0.3700 
 27 H       12.0090     2.4680    -1.9010 H     1 <1>   0.0800 
 28 H       11.4090     1.2480    -0.7950 H     1 <1>   0.0800 
 29 H       12.1330     2.5090     1.1230 H     1 <1>   0.0800 
 30 H       12.5450     3.9040     0.1170 H     1 <1>   0.0800 
 31 H       15.6240     2.2080     0.6730 H     1 <1>   0.0800 
 32 H       14.3410     2.2580     1.8760 H     1 <1>   0.0800 
 33 H       14.7750     3.7190     0.9750 H     1 <1>   0.0800 
@<TRIPOS>BOND
  1   1   2  1   
  2   2   3  ar  
  3   2   4  ar  
  4   3   5  ar  
  5   3  18  1   
  6   4   6  ar  
  7   4  19  1   
  8   5   7  ar  
  9   5  20  1   
 10   6   7  ar  
 11   6  21  1   
 12   7   8  1   
 13   8   9  1   
 14   9  10  1   
 15   9  22  1   
 16   9  23  1   
 17  10  11  1   
 18  10  24  1   
 19  10  25  1   
 20  11  12  2   
 21  11  13  am  
 22  13  14  1   
 23  13  26  1   
 24  14  15  1   
 25  14  27  1   
 26  14  28  1   
 27  15  16  1   
 28  15  29  1   
 29  15  30  1   
 30  16  17  1   
 31  17  31  1   
 32  17  32  1   
 33  17  33  1   
@<TRIPOS>SUBSTRUCTURE
  1 ****   9 GROUP 4 **** **** 0

# MOE 2024.06 (io_trps.svl 2023.06)
