@<TRIPOS>MOLECULE
NONAME
37 37 1 0 0 
SMALL
USER_CHARGES


@<TRIPOS>ATOM
  1 F       -0.0140     0.7260    -0.0420 F     1 <1>  -0.1900 
  2 C        1.2220     1.1510    -0.0290 C.ar  1 <1>   0.1900 
  3 C        1.4590     2.5120    -0.0070 C.ar  1 <1>  -0.1500 
  4 C        2.2460     0.2220    -0.0370 C.ar  1 <1>  -0.1500 
  5 C        2.7710     2.9530     0.0070 C.ar  1 <1>  -0.1500 
  6 C        3.5560     0.6720    -0.0230 C.ar  1 <1>  -0.1500 
  7 C        3.8210     2.0430    -0.0010 C.ar  1 <1>   0.0830 
  8 O        5.0730     2.5660     0.0140 O.3   1 <1>  -0.3630 
  9 C        6.2130     1.7460     0.0080 C.3   1 <1>   0.1200 
 10 C        7.4300     2.6700     0.0290 C.3   1 <1>  -0.1600 
 11 C        8.7260     1.8690     0.0240 C.3   1 <1>   0.3430 
 12 N        9.8700     2.8120     0.0450 N.4   1 <1>  -0.9060 
 13 C       11.1810     2.1220     0.0420 C.3   1 <1>   0.3430 
 14 C       12.2910     3.1700     0.0650 C.3   1 <1>  -0.1600 
 15 C       13.6720     2.5020     0.0620 C.3   1 <1>  -0.1600 
 16 C       14.7860     3.5510     0.0850 C.3   1 <1>  -0.2400 
 17 H        0.6360     3.2040    -0.0010 H     1 <1>   0.1500 
 18 H        2.0150    -0.8280    -0.0540 H     1 <1>   0.1500 
 19 H        2.9880     4.0060     0.0240 H     1 <1>   0.1500 
 20 H        4.3440    -0.0560    -0.0300 H     1 <1>   0.1500 
 21 H        6.1900     1.1460    -0.8870 H     1 <1>   0.0800 
 22 H        6.1800     1.1190     0.8840 H     1 <1>   0.0800 
 23 H        7.3790     3.2760     0.9170 H     1 <1>   0.0800 
 24 H        7.3890     3.3030    -0.8410 H     1 <1>   0.0800 
 25 H        8.7700     1.2540    -0.8610 H     1 <1>   0.0800 
 26 H        8.7600     1.2270     0.8910 H     1 <1>   0.0800 
 27 H        9.8060     3.4120     0.8770 H     1 <1>   0.4500 
 28 H        9.8160     3.4370    -0.7690 H     1 <1>   0.4500 
 29 H       11.2790     1.5120    -0.8430 H     1 <1>   0.0800 
 30 H       11.2690     1.4850     0.9080 H     1 <1>   0.0800 
 31 H       12.2020     3.7770     0.9500 H     1 <1>   0.0800 
 32 H       12.2120     3.8040    -0.8020 H     1 <1>   0.0800 
 33 H       13.7870     1.8920    -0.8190 H     1 <1>   0.0800 
 34 H       13.7770     1.8650     0.9250 H     1 <1>   0.0800 
 35 H       14.7300     4.1890    -0.7800 H     1 <1>   0.0800 
 36 H       15.7470     3.0660     0.0830 H     1 <1>   0.0800 
 37 H       14.7200     4.1610     0.9690 H     1 <1>   0.0800 
@<TRIPOS>BOND
  1   1   2  1   
  2   2   3  ar  
  3   2   4  ar  
  4   3   5  ar  
  5   3  17  1   
  6   4   6  ar  
  7   4  18  1   
  8   5   7  ar  
  9   5  19  1   
 10   6   7  ar  
 11   6  20  1   
 12   7   8  1   
 13   8   9  1   
 14   9  10  1   
 15   9  21  1   
 16   9  22  1   
 17  10  11  1   
 18  10  23  1   
 19  10  24  1   
 20  11  12  1   
 21  11  25  1   
 22  11  26  1   
 23  12  13  1   
 24  12  27  1   
 25  12  28  1   
 26  13  14  1   
 27  13  29  1   
 28  13  30  1   
 29  14  15  1   
 30  14  31  1   
 31  14  32  1   
 32  15  16  1   
 33  15  33  1   
 34  15  34  1   
 35  16  35  1   
 36  16  36  1   
 37  16  37  1   
@<TRIPOS>SUBSTRUCTURE
  1 ****   9 GROUP 4 **** **** 0

# MOE 2024.06 (io_trps.svl 2023.06)
