@<TRIPOS>MOLECULE
NONAME
40 41 1 0 0 
SMALL
USER_CHARGES


@<TRIPOS>ATOM
  1 CL      -1.5920     1.4630     2.2220 Cl    1 <1>  -0.1770 
  2 C       -0.8450     2.6030     1.1310 C.ar  1 <1>   0.1770 
  3 C       -1.2940     2.6860    -0.1760 C.ar  1 <1>  -0.1440 
  4 C        0.1770     3.4130     1.6010 C.ar  1 <1>  -0.1500 
  5 C       -0.6840     3.6180    -0.9960 C.ar  1 <1>   0.1900 
  6 C       -2.3990     1.7900    -0.6940 C.3   1 <1>   0.4860 
  7 C        0.7710     4.3340     0.7520 C.ar  1 <1>  -0.1500 
  8 F       -1.0980     3.7330    -2.2290 F     1 <1>  -0.1900 
  9 C        0.3390     4.4420    -0.5600 C.ar  1 <1>  -0.1500 
 10 N       -3.7030     2.2100    -0.1080 N.4   1 <1>  -0.9590 
 11 C       -4.7620     1.2020    -0.3850 C.3   1 <1>   0.3430 
 12 C       -4.0950     3.5810    -0.5530 C.3   1 <1>   0.3430 
 13 C       -6.0380     1.5880     0.3600 C.3   1 <1>  -0.1600 
 14 C       -5.3600     4.0150     0.1840 C.3   1 <1>  -0.1600 
 15 C       -6.5110     3.0100    -0.0030 C.3   1 <1>  -0.0190 
 16 C       -7.7290     3.4290     0.8160 C.2   1 <1>   0.6590 
 17 O       -7.8010     3.2040     1.9960 O.2   1 <1>  -0.5700 
 18 O       -8.6810     4.0630     0.1490 O.3   1 <1>  -0.4300 
 19 C       -9.8520     4.5130     0.7910 C.3   1 <1>   0.1200 
 20 C      -10.7290     5.1990    -0.2510 C.3   1 <1>  -0.2400 
 21 H        0.5050     3.3220     2.6230 H     1 <1>   0.1500 
 22 H       -2.1820     0.7720    -0.4110 H     1 <1>   0.0800 
 23 H       -2.4420     1.8390    -1.7700 H     1 <1>   0.0800 
 24 H        1.5690     4.9650     1.1120 H     1 <1>   0.1500 
 25 H        0.7890     5.1510    -1.2340 H     1 <1>   0.1500 
 26 H       -3.5660     2.2420     0.9140 H     1 <1>   0.4500 
 27 H       -4.4400     0.2260    -0.0580 H     1 <1>   0.0800 
 28 H       -4.9610     1.1590    -1.4440 H     1 <1>   0.0800 
 29 H       -4.2740     3.5840    -1.6170 H     1 <1>   0.0800 
 30 H       -3.3030     4.2820    -0.3430 H     1 <1>   0.0800 
 31 H       -5.8610     1.5150     1.4210 H     1 <1>   0.0800 
 32 H       -6.8140     0.8820     0.1190 H     1 <1>   0.0800 
 33 H       -5.6660     4.9790    -0.1850 H     1 <1>   0.0800 
 34 H       -5.1390     4.1300     1.2320 H     1 <1>   0.0800 
 35 H       -6.8040     3.0130    -1.0390 H     1 <1>   0.0800 
 36 H       -9.5730     5.1990     1.5740 H     1 <1>   0.0800 
 37 H      -10.3560     3.6620     1.2210 H     1 <1>   0.0800 
 38 H      -10.2130     6.0410    -0.6760 H     1 <1>   0.0800 
 39 H      -11.6330     5.5520     0.2130 H     1 <1>   0.0800 
 40 H      -10.9940     4.5060    -1.0290 H     1 <1>   0.0800 
@<TRIPOS>BOND
  1   1   2  1   
  2   2   3  ar  
  3   2   4  ar  
  4   3   5  ar  
  5   3   6  1   
  6   4   7  ar  
  7   4  21  1   
  8   5   8  1   
  9   5   9  ar  
 10   6  10  1   
 11   6  22  1   
 12   6  23  1   
 13   7   9  ar  
 14   7  24  1   
 15   9  25  1   
 16  10  11  1   
 17  10  12  1   
 18  10  26  1   
 19  11  13  1   
 20  11  27  1   
 21  11  28  1   
 22  12  14  1   
 23  12  29  1   
 24  12  30  1   
 25  13  15  1   
 26  13  31  1   
 27  13  32  1   
 28  14  15  1   
 29  14  33  1   
 30  14  34  1   
 31  15  16  1   
 32  15  35  1   
 33  16  17  2   
 34  16  18  1   
 35  18  19  1   
 36  19  20  1   
 37  19  36  1   
 38  19  37  1   
 39  20  38  1   
 40  20  39  1   
 41  20  40  1   
@<TRIPOS>SUBSTRUCTURE
  1 ****  12 GROUP 4 **** **** 0

# MOE 2024.06 (io_trps.svl 2023.06)
