@<TRIPOS>MOLECULE
NONAME
46 48 1 0 0 
SMALL
USER_CHARGES


@<TRIPOS>ATOM
  1 S       -0.2780     0.0070     2.2100 S.o2  1 <1>   1.4470 
  2 O       -0.4400     1.2080     3.0000 O.2   1 <1>  -0.6500 
  3 O       -0.5850    -1.2780     2.8030 O.2   1 <1>  -0.6500 
  4 N       -1.2730     0.1640     0.8460 N.am  1 <1>  -0.8490 
  5 C        1.3930    -0.0150     1.5000 C.ar  1 <1>  -0.0090 
  6 C       -2.6330     0.5590     1.2240 C.3   1 <1>   0.1960 
  7 C       -1.2890    -1.0580     0.0350 C.3   1 <1>   0.1960 
  8 C        2.2970    -1.0070     1.7910 C.ar  1 <1>  -0.1500 
  9 C        1.7980     1.0040     0.6220 C.ar  1 <1>  -0.1500 
 10 C       -3.4730     0.8410    -0.0260 C.3   1 <1>  -0.1600 
 11 C       -2.0710    -0.8230    -1.2610 C.3   1 <1>  -0.1600 
 12 C        3.5920    -1.0360     1.2390 C.ar  1 <1>   0.0000 
 13 C        3.0480     1.0090     0.0670 C.ar  1 <1>  -0.1500 
 14 C       -3.5070    -0.3710    -0.9660 C.3   1 <1>  -0.0800 
 15 C        3.9790    -0.0070     0.3560 C.ar  1 <1>   0.0000 
 16 C        4.5170    -2.0570     1.5350 C.ar  1 <1>  -0.1500 
 17 C       -4.2530    -0.0380    -2.2630 C.3   1 <1>  -0.2400 
 18 C        5.2740    -0.0330    -0.1990 C.ar  1 <1>  -0.1500 
 19 C        5.7670    -2.0600     0.9820 C.ar  1 <1>  -0.1500 
 20 C        6.1590    -1.0410     0.1040 C.ar  1 <1>   0.0830 
 21 O        7.4170    -1.1360    -0.3890 O.3   1 <1>  -0.3630 
 22 C        7.9350    -0.1720    -1.2740 C.3   1 <1>   0.1200 
 23 C        9.3630    -0.5750    -1.6280 C.3   1 <1>  -0.2400 
 24 H       -2.6000     1.4540     1.8230 H     1 <1>   0.0800 
 25 H       -3.0910    -0.2210     1.8120 H     1 <1>   0.0800 
 26 H       -1.7400    -1.8650     0.5900 H     1 <1>   0.0800 
 27 H       -0.2810    -1.3440    -0.2150 H     1 <1>   0.0800 
 28 H        2.0180    -1.7990     2.4640 H     1 <1>   0.1500 
 29 H        1.0940     1.7880     0.3930 H     1 <1>   0.1500 
 30 H       -3.0530     1.6910    -0.5340 H     1 <1>   0.0800 
 31 H       -4.4740     1.0970     0.2730 H     1 <1>   0.0800 
 32 H       -2.0860    -1.7330    -1.8340 H     1 <1>   0.0800 
 33 H       -1.5580    -0.0760    -1.8420 H     1 <1>   0.0800 
 34 H        3.3410     1.7980    -0.6030 H     1 <1>   0.1500 
 35 H       -4.0250    -1.1760    -0.4700 H     1 <1>   0.0800 
 36 H        4.2220    -2.8410     2.2090 H     1 <1>   0.1500 
 37 H       -3.7630     0.7640    -2.7870 H     1 <1>   0.0800 
 38 H       -5.2630     0.2620    -2.0450 H     1 <1>   0.0800 
 39 H       -4.2860    -0.8990    -2.9060 H     1 <1>   0.0800 
 40 H        5.5400     0.7620    -0.8670 H     1 <1>   0.1500 
 41 H        6.4760    -2.8370     1.2050 H     1 <1>   0.1500 
 42 H        7.9210     0.7860    -0.7830 H     1 <1>   0.0800 
 43 H        7.3170    -0.1510    -2.1560 H     1 <1>   0.0800 
 44 H        9.9670    -0.6100    -0.7390 H     1 <1>   0.0800 
 45 H        9.7880     0.1440    -2.3040 H     1 <1>   0.0800 
 46 H        9.3670    -1.5400    -2.1020 H     1 <1>   0.0800 
@<TRIPOS>BOND
  1   1   2  2   
  2   1   3  2   
  3   1   4  am  
  4   1   5  1   
  5   4   6  1   
  6   4   7  1   
  7   5   8  ar  
  8   5   9  ar  
  9   6  10  1   
 10   6  24  1   
 11   6  25  1   
 12   7  11  1   
 13   7  26  1   
 14   7  27  1   
 15   8  12  ar  
 16   8  28  1   
 17   9  13  ar  
 18   9  29  1   
 19  10  14  1   
 20  10  30  1   
 21  10  31  1   
 22  11  14  1   
 23  11  32  1   
 24  11  33  1   
 25  12  15  ar  
 26  12  16  ar  
 27  13  15  ar  
 28  13  34  1   
 29  14  17  1   
 30  14  35  1   
 31  15  18  ar  
 32  16  19  ar  
 33  16  36  1   
 34  17  37  1   
 35  17  38  1   
 36  17  39  1   
 37  18  20  ar  
 38  18  40  1   
 39  19  20  ar  
 40  19  41  1   
 41  20  21  1   
 42  21  22  1   
 43  22  23  1   
 44  22  42  1   
 45  22  43  1   
 46  23  44  1   
 47  23  45  1   
 48  23  46  1   
@<TRIPOS>SUBSTRUCTURE
  1 ****   5 GROUP 4 **** **** 0

# MOE 2024.06 (io_trps.svl 2023.06)
