@<TRIPOS>MOLECULE
NONAME
36 38 1 0 0 
SMALL
USER_CHARGES


@<TRIPOS>ATOM
  1 O       -0.3790     1.4310    -0.6520 O.2   1 <1>  -0.5700 
  2 C       -0.5070     0.2320    -0.6830 C.2   1 <1>   0.6300 
  3 N        0.4900    -0.6620    -0.4180 N.am  1 <1>  -0.5470 
  4 C       -1.8640    -0.3470    -1.0560 C.3   1 <1>  -0.1000 
  5 C        1.8330    -0.5080    -0.0420 C.ar  1 <1>   0.1170 
  6 C       -2.8790    -0.6630    -0.0040 C.3   1 <1>  -0.1950 
  7 C       -2.2190    -1.7770    -0.7700 C.3   1 <1>  -0.1950 
  8 C        2.3840     0.7060     0.3570 C.ar  1 <1>  -0.1500 
  9 C        2.6560    -1.6280    -0.0560 C.ar  1 <1>  -0.1500 
 10 C       -4.3420    -1.0660     0.1610 C.3   1 <1>  -0.0650 
 11 C       -1.9930    -2.9060     0.2360 C.3   1 <1>  -0.0650 
 12 C        3.7150     0.7950     0.7240 C.ar  1 <1>  -0.1500 
 13 C        3.9870    -1.5410     0.3110 C.ar  1 <1>  -0.1500 
 14 C       -4.3630    -2.3010     1.0920 C.3   1 <1>  -0.1600 
 15 C       -3.3910    -3.4260     0.6470 C.3   1 <1>  -0.1600 
 16 C        4.5260    -0.3270     0.7020 C.ar  1 <1>  -0.1430 
 17 C        5.9860    -0.2260     1.1070 C.3   1 <1>  -0.0970 
 18 H        0.1830    -1.6260    -0.5250 H     1 <1>   0.3700 
 19 H       -2.2390     0.1050    -1.9560 H     1 <1>   0.1000 
 20 H       -2.5060    -0.3690     0.9650 H     1 <1>   0.1000 
 21 H       -2.7040    -2.2030    -1.6340 H     1 <1>   0.1000 
 22 H        1.7790     1.5920     0.3870 H     1 <1>   0.1500 
 23 H        2.2580    -2.5780    -0.3590 H     1 <1>   0.1500 
 24 H       -4.7810    -1.3080    -0.7910 H     1 <1>   0.0800 
 25 H       -4.9020    -0.2580     0.5980 H     1 <1>   0.0800 
 26 H       -1.4630    -2.5470     1.1020 H     1 <1>   0.0800 
 27 H       -1.4210    -3.6990    -0.2120 H     1 <1>   0.0800 
 28 H        4.1150     1.7460     1.0280 H     1 <1>   0.1500 
 29 H        4.6030    -2.4230     0.2910 H     1 <1>   0.1500 
 30 H       -5.3640    -2.6900     1.1530 H     1 <1>   0.0800 
 31 H       -4.0810    -1.9830     2.0810 H     1 <1>   0.0800 
 32 H       -3.2890    -4.1490     1.4370 H     1 <1>   0.0800 
 33 H       -3.8260    -3.9330    -0.1980 H     1 <1>   0.0800 
 34 H        6.3780     0.7430     0.8570 H     1 <1>   0.0800 
 35 H        6.5710    -0.9700     0.5960 H     1 <1>   0.0800 
 36 H        6.0800    -0.3770     2.1670 H     1 <1>   0.0800 
@<TRIPOS>BOND
  1   1   2  2   
  2   2   3  am  
  3   2   4  1   
  4   3   5  1   
  5   3  18  1   
  6   4   6  1   
  7   4   7  1   
  8   4  19  1   
  9   5   8  ar  
 10   5   9  ar  
 11   6   7  1   
 12   6  10  1   
 13   6  20  1   
 14   7  11  1   
 15   7  21  1   
 16   8  12  ar  
 17   8  22  1   
 18   9  13  ar  
 19   9  23  1   
 20  10  14  1   
 21  10  24  1   
 22  10  25  1   
 23  11  15  1   
 24  11  26  1   
 25  11  27  1   
 26  12  16  ar  
 27  12  28  1   
 28  13  16  ar  
 29  13  29  1   
 30  14  15  1   
 31  14  30  1   
 32  14  31  1   
 33  15  32  1   
 34  15  33  1   
 35  16  17  1   
 36  17  34  1   
 37  17  35  1   
 38  17  36  1   
@<TRIPOS>SUBSTRUCTURE
  1 ****   3 GROUP 4 **** **** 0

# MOE 2024.06 (io_trps.svl 2023.06)
