@<TRIPOS>MOLECULE
NONAME
37 38 1 0 0 
SMALL
USER_CHARGES


@<TRIPOS>ATOM
  1 O       -0.0510    -2.2760    -1.9290 O.2   1 <1>  -0.5700 
  2 C       -0.0590    -2.2720    -0.7260 C.2   1 <1>   0.6590 
  3 O       -1.0910    -1.8430    -0.0160 O.3   1 <1>  -0.4300 
  4 C        1.1440    -2.7650     0.0730 C.3   1 <1>  -0.0190 
  5 C       -2.2600    -1.3590    -0.6380 C.3   1 <1>   0.1200 
  6 C        2.3440    -1.8170    -0.1080 C.3   1 <1>  -0.1600 
  7 C        1.5310    -4.2000    -0.3320 C.3   1 <1>  -0.1600 
  8 C       -3.2410    -0.9480     0.4540 C.3   1 <1>  -0.2400 
  9 C        3.5990    -2.3380     0.5890 C.3   1 <1>   0.3430 
 10 C        2.8010    -4.6730     0.3720 C.3   1 <1>   0.3430 
 11 N        3.9070    -3.7140     0.0980 N.4   1 <1>  -0.9590 
 12 C        5.2040    -4.2090     0.6320 C.3   1 <1>   0.5240 
 13 C        6.3050    -3.3110     0.1160 C.2   1 <1>  -0.1810 
 14 C        7.1000    -2.4730     0.8180 C.2   1 <1>  -0.0100 
 15 C        6.7100    -3.1800    -1.2220 C.2   1 <1>  -0.1500 
 16 O        7.9320    -1.8450     0.0160 O.3   1 <1>  -0.2800 
 17 C        7.7060    -2.2680    -1.2100 C.2   1 <1>  -0.0100 
 18 H        0.8650    -2.7680     1.1130 H     1 <1>   0.0800 
 19 H       -2.6710    -2.1430    -1.2530 H     1 <1>   0.0800 
 20 H       -1.9950    -0.5180    -1.2570 H     1 <1>   0.0800 
 21 H        2.0980    -0.8490     0.2930 H     1 <1>   0.0800 
 22 H        2.5530    -1.6820    -1.1560 H     1 <1>   0.0800 
 23 H        1.6770    -4.2570    -1.3980 H     1 <1>   0.0800 
 24 H        0.7230    -4.8690    -0.0870 H     1 <1>   0.0800 
 25 H       -3.4910    -1.7950     1.0680 H     1 <1>   0.0800 
 26 H       -4.1440    -0.5750     0.0060 H     1 <1>   0.0800 
 27 H       -2.8170    -0.1710     1.0640 H     1 <1>   0.0800 
 28 H        3.4420    -2.3540     1.6560 H     1 <1>   0.0800 
 29 H        4.4230    -1.6740     0.3780 H     1 <1>   0.0800 
 30 H        3.0630    -5.6560     0.0120 H     1 <1>   0.0800 
 31 H        2.6230    -4.7360     1.4340 H     1 <1>   0.0800 
 32 H        4.0250    -3.6420    -0.9200 H     1 <1>   0.4500 
 33 H        5.3850    -5.2190     0.3000 H     1 <1>   0.0800 
 34 H        5.1940    -4.1970     1.7100 H     1 <1>   0.0800 
 35 H        7.1500    -2.2530     1.8720 H     1 <1>   0.1500 
 36 H        6.3140    -3.7030    -2.0760 H     1 <1>   0.1500 
 37 H        8.3030    -1.8690    -2.0130 H     1 <1>   0.1500 
@<TRIPOS>BOND
  1   1   2  2   
  2   2   3  1   
  3   2   4  1   
  4   3   5  1   
  5   4   6  1   
  6   4   7  1   
  7   4  18  1   
  8   5   8  1   
  9   5  19  1   
 10   5  20  1   
 11   6   9  1   
 12   6  21  1   
 13   6  22  1   
 14   7  10  1   
 15   7  23  1   
 16   7  24  1   
 17   8  25  1   
 18   8  26  1   
 19   8  27  1   
 20   9  11  1   
 21   9  28  1   
 22   9  29  1   
 23  10  11  1   
 24  10  30  1   
 25  10  31  1   
 26  11  12  1   
 27  11  32  1   
 28  12  13  1   
 29  12  33  1   
 30  12  34  1   
 31  13  14  2   
 32  13  15  1   
 33  14  16  1   
 34  14  35  1   
 35  15  17  2   
 36  15  36  1   
 37  16  17  1   
 38  17  37  1   
@<TRIPOS>SUBSTRUCTURE
  1 ****   6 GROUP 4 **** **** 0

# MOE 2024.06 (io_trps.svl 2023.06)
