@<TRIPOS>MOLECULE
NONAME
34 35 1 0 0 
SMALL
USER_CHARGES


@<TRIPOS>ATOM
  1 CL      -0.4500     0.5130     0.2890 Cl    1 <1>  -0.1770 
  2 C       -2.0570     1.1760     0.1260 C.ar  1 <1>   0.1770 
  3 C       -2.3210     2.4420     0.6160 C.ar  1 <1>  -0.1500 
  4 C       -3.0410     0.4260    -0.4900 C.ar  1 <1>  -0.1500 
  5 C       -3.5970     2.9620     0.4850 C.ar  1 <1>  -0.1500 
  6 C       -4.3170     0.9500    -0.6200 C.ar  1 <1>  -0.1500 
  7 C       -4.6000     2.2240    -0.1280 C.ar  1 <1>   0.0820 
  8 O       -5.8170     2.8190    -0.2060 O.3   1 <1>  -0.3630 
  9 C       -6.9620     2.1590    -0.7120 C.3   1 <1>   0.4800 
 10 O       -7.8470     3.1840    -1.0990 O.3   1 <1>  -0.5600 
 11 C       -7.5890     1.2320     0.3690 C.3   1 <1>   0.2000 
 12 C       -8.5190     3.7990    -0.0310 C.3   1 <1>   0.2000 
 13 O       -7.2480    -0.1080     0.1750 O.3   1 <1>  -0.6800 
 14 C       -9.1200     1.3510     0.3530 C.3   1 <1>   0.2000 
 15 C       -9.5980     2.8130     0.4950 C.3   1 <1>   0.2000 
 16 C       -8.9930     5.2170    -0.4290 C.3   1 <1>   0.1200 
 17 O       -9.6850     0.5540     1.3480 O.3   1 <1>  -0.6800 
 18 O      -10.7990     2.9220    -0.2080 O.3   1 <1>  -0.6800 
 19 O       -9.9520     5.2190    -1.4360 O.3   1 <1>  -0.6800 
 20 H       -1.5380     3.0060     1.0900 H     1 <1>   0.1500 
 21 H       -2.8090    -0.5560    -0.8620 H     1 <1>   0.1500 
 22 H       -3.8210     3.9460     0.8560 H     1 <1>   0.1500 
 23 H       -5.0650     0.3490    -1.1030 H     1 <1>   0.1500 
 24 H       -6.7000     1.6120    -1.6010 H     1 <1>   0.0800 
 25 H       -7.2180     1.5220     1.3360 H     1 <1>   0.0800 
 26 H       -7.7970     3.9440     0.7540 H     1 <1>   0.0800 
 27 H       -7.8040    -0.6470     0.7800 H     1 <1>   0.4000 
 28 H       -9.4560     0.9710    -0.5970 H     1 <1>   0.0800 
 29 H       -9.8050     3.0440     1.5260 H     1 <1>   0.0800 
 30 H       -8.1520     5.7930    -0.7760 H     1 <1>   0.0800 
 31 H       -9.4180     5.7150     0.4250 H     1 <1>   0.0800 
 32 H      -10.6610     0.6380     1.3100 H     1 <1>   0.4000 
 33 H      -10.6080     2.8310    -1.1680 H     1 <1>   0.4000 
 34 H      -10.7550     4.7600    -1.1110 H     1 <1>   0.4000 
@<TRIPOS>BOND
  1   1   2  1   
  2   2   3  ar  
  3   2   4  ar  
  4   3   5  ar  
  5   3  20  1   
  6   4   6  ar  
  7   4  21  1   
  8   5   7  ar  
  9   5  22  1   
 10   6   7  ar  
 11   6  23  1   
 12   7   8  1   
 13   8   9  1   
 14   9  10  1   
 15   9  11  1   
 16   9  24  1   
 17  10  12  1   
 18  11  13  1   
 19  11  14  1   
 20  11  25  1   
 21  12  15  1   
 22  12  16  1   
 23  12  26  1   
 24  13  27  1   
 25  14  15  1   
 26  14  17  1   
 27  14  28  1   
 28  15  18  1   
 29  15  29  1   
 30  16  19  1   
 31  16  30  1   
 32  16  31  1   
 33  17  32  1   
 34  18  33  1   
 35  19  34  1   
@<TRIPOS>SUBSTRUCTURE
  1 ****   9 GROUP 4 **** **** 0

# MOE 2024.06 (io_trps.svl 2023.06)
