@<TRIPOS>MOLECULE
NONAME
50 51 1 0 0 
SMALL
USER_CHARGES


@<TRIPOS>ATOM
  1 O        0.1590     0.1770     0.1550 O.3   1 <1>  -0.5600 
  2 C        0.2000     1.4410    -0.4370 C.3   1 <1>   0.1200 
  3 C        1.2550    -0.6410    -0.1240 C.3   1 <1>   0.1200 
  4 C        1.4480     2.2080     0.0420 C.3   1 <1>   0.3430 
  5 C        2.5530     0.0280     0.3700 C.3   1 <1>   0.3430 
  6 N        2.7180     1.4220    -0.1930 N.4   1 <1>  -0.9590 
  7 C        3.8920     2.1550     0.3680 C.3   1 <1>   0.3430 
  8 C        5.2190     1.5650    -0.1360 C.3   1 <1>  -0.1600 
  9 C        6.4100     2.3910     0.3660 C.3   1 <1>   0.3430 
 10 N        7.6840     1.8220    -0.1520 N.4   1 <1>  -0.9060 
 11 C        8.8900     2.5470     0.3080 C.3   1 <1>   0.4230 
 12 C        8.9820     3.9140    -0.3820 C.3   1 <1>  -0.1600 
 13 C       10.1150     1.6900    -0.0230 C.3   1 <1>  -0.1600 
 14 C       10.2790     4.6380     0.0090 C.3   1 <1>  -0.1600 
 15 C       11.4170     2.4060     0.3640 C.3   1 <1>  -0.1600 
 16 C       11.5260     3.7910    -0.3010 C.3   1 <1>  -0.0800 
 17 C       12.7880     4.5510     0.1490 C.3   1 <1>  -0.1600 
 18 C       14.0950     3.8670    -0.2720 C.3   1 <1>  -0.2400 
 19 H       -0.6930     1.9660    -0.1450 H     1 <1>   0.0800 
 20 H        0.1930     1.3260    -1.5080 H     1 <1>   0.0800 
 21 H        1.2870    -0.8330    -1.1830 H     1 <1>   0.0800 
 22 H        1.1000    -1.5760     0.3870 H     1 <1>   0.0800 
 23 H        1.3310     2.4090     1.0940 H     1 <1>   0.0800 
 24 H        1.4960     3.1540    -0.4720 H     1 <1>   0.0800 
 25 H        3.3900    -0.5900     0.0900 H     1 <1>   0.0800 
 26 H        2.5160     0.0700     1.4460 H     1 <1>   0.0800 
 27 H        2.8150     1.3320    -1.2140 H     1 <1>   0.4500 
 28 H        3.8550     2.1200     1.4470 H     1 <1>   0.0800 
 29 H        3.8330     3.1900     0.0700 H     1 <1>   0.0800 
 30 H        5.2160     1.5710    -1.2120 H     1 <1>   0.0800 
 31 H        5.3210     0.5550     0.2200 H     1 <1>   0.0800 
 32 H        6.4280     2.3910     1.4450 H     1 <1>   0.0800 
 33 H        6.3090     3.4130     0.0320 H     1 <1>   0.0800 
 34 H        7.7060     1.8240    -1.1790 H     1 <1>   0.4500 
 35 H        7.7920     0.8440     0.1430 H     1 <1>   0.4500 
 36 H        8.8530     2.6910     1.3760 H     1 <1>   0.0800 
 37 H        8.1560     4.5400    -0.0970 H     1 <1>   0.0800 
 38 H        8.9720     3.7920    -1.4510 H     1 <1>   0.0800 
 39 H       10.1470     1.4800    -1.0790 H     1 <1>   0.0800 
 40 H       10.0700     0.7570     0.5120 H     1 <1>   0.0800 
 41 H       10.2590     4.8720     1.0610 H     1 <1>   0.0800 
 42 H       10.3390     5.5710    -0.5270 H     1 <1>   0.0800 
 43 H       12.2480     1.7910     0.0650 H     1 <1>   0.0800 
 44 H       11.4650     2.5180     1.4350 H     1 <1>   0.0800 
 45 H       11.5840     3.6560    -1.3700 H     1 <1>   0.0800 
 46 H       12.7830     4.6730     1.2190 H     1 <1>   0.0800 
 47 H       12.7760     5.5360    -0.2870 H     1 <1>   0.0800 
 48 H       14.2290     2.9320     0.2410 H     1 <1>   0.0800 
 49 H       14.9310     4.5000    -0.0270 H     1 <1>   0.0800 
 50 H       14.1060     3.6910    -1.3330 H     1 <1>   0.0800 
@<TRIPOS>BOND
  1   1   2  1   
  2   1   3  1   
  3   2   4  1   
  4   2  19  1   
  5   2  20  1   
  6   3   5  1   
  7   3  21  1   
  8   3  22  1   
  9   4   6  1   
 10   4  23  1   
 11   4  24  1   
 12   5   6  1   
 13   5  25  1   
 14   5  26  1   
 15   6   7  1   
 16   6  27  1   
 17   7   8  1   
 18   7  28  1   
 19   7  29  1   
 20   8   9  1   
 21   8  30  1   
 22   8  31  1   
 23   9  10  1   
 24   9  32  1   
 25   9  33  1   
 26  10  11  1   
 27  10  34  1   
 28  10  35  1   
 29  11  12  1   
 30  11  13  1   
 31  11  36  1   
 32  12  14  1   
 33  12  37  1   
 34  12  38  1   
 35  13  15  1   
 36  13  39  1   
 37  13  40  1   
 38  14  16  1   
 39  14  41  1   
 40  14  42  1   
 41  15  16  1   
 42  15  43  1   
 43  15  44  1   
 44  16  17  1   
 45  16  45  1   
 46  17  18  1   
 47  17  46  1   
 48  17  47  1   
 49  18  48  1   
 50  18  49  1   
 51  18  50  1   
@<TRIPOS>SUBSTRUCTURE
  1 ****   9 GROUP 4 **** **** 0

# MOE 2024.06 (io_trps.svl 2023.06)
