@<TRIPOS>MOLECULE
NONAME
36 37 1 0 0 
SMALL
USER_CHARGES


@<TRIPOS>ATOM
  1 BR       0.1160     0.1020    -0.4640 Br    1 <1>  -0.1110 
  2 C        1.0130    -1.5450    -0.0330 C.ar  1 <1>   0.1110 
  3 C        2.3580    -1.6630    -0.3220 C.ar  1 <1>  -0.1500 
  4 C        0.2870    -2.5630     0.5530 C.ar  1 <1>  -0.1500 
  5 C        3.0210    -2.8450    -0.0150 C.ar  1 <1>   0.1170 
  6 C        0.9420    -3.7430     0.8580 C.ar  1 <1>  -0.1500 
  7 N        4.3860    -2.9490    -0.3270 N.am  1 <1>  -0.5470 
  8 C        2.2920    -3.8790     0.5740 C.ar  1 <1>  -0.1500 
  9 C        5.3620    -3.7650     0.1770 C.2   1 <1>   0.5690 
 10 O        5.1690    -4.5650     1.0600 O.2   1 <1>  -0.5700 
 11 C        6.7660    -3.6210    -0.4130 C.3   1 <1>  -0.0190 
 12 C        7.5710    -4.9370    -0.3660 C.3   1 <1>  -0.1600 
 13 C        7.5500    -2.5020     0.2980 C.3   1 <1>  -0.1600 
 14 C        8.9810    -4.7590    -0.9340 C.3   1 <1>   0.1400 
 15 C        8.9630    -2.3480    -0.2730 C.3   1 <1>   0.1400 
 16 N        9.6710    -3.6560    -0.2100 N.am  1 <1>  -0.6600 
 17 C       10.8430    -3.7850     0.4920 C.2   1 <1>   0.5690 
 18 O       11.3760    -2.8480     1.0360 O.2   1 <1>  -0.5700 
 19 C       11.5270    -5.1270     0.6130 C.3   1 <1>  -0.1790 
 20 H        2.8760    -0.8400    -0.7750 H     1 <1>   0.1500 
 21 H       -0.7600    -2.4350     0.7650 H     1 <1>   0.1500 
 22 H        0.4050    -4.5570     1.3150 H     1 <1>   0.1500 
 23 H        4.7110    -2.2660    -1.0070 H     1 <1>   0.3700 
 24 H        2.7780    -4.8070     0.8140 H     1 <1>   0.1500 
 25 H        6.6580    -3.3490    -1.4480 H     1 <1>   0.0800 
 26 H        7.0540    -5.6970    -0.9240 H     1 <1>   0.0800 
 27 H        7.6520    -5.2800     0.6520 H     1 <1>   0.0800 
 28 H        7.6260    -2.7260     1.3490 H     1 <1>   0.0800 
 29 H        7.0290    -1.5670     0.2030 H     1 <1>   0.0800 
 30 H        8.9260    -4.5080    -1.9790 H     1 <1>   0.0800 
 31 H        9.5200    -5.6850    -0.8460 H     1 <1>   0.0800 
 32 H        9.4950    -1.5980     0.2880 H     1 <1>   0.0800 
 33 H        8.9180    -2.0230    -1.2980 H     1 <1>   0.0800 
 34 H       11.8160    -5.4790    -0.3590 H     1 <1>   0.0800 
 35 H       10.8660    -5.8320     1.0790 H     1 <1>   0.0800 
 36 H       12.4080    -5.0300     1.2200 H     1 <1>   0.0800 
@<TRIPOS>BOND
  1   1   2  1   
  2   2   3  ar  
  3   2   4  ar  
  4   3   5  ar  
  5   3  20  1   
  6   4   6  ar  
  7   4  21  1   
  8   5   7  1   
  9   5   8  ar  
 10   6   8  ar  
 11   6  22  1   
 12   7   9  am  
 13   7  23  1   
 14   8  24  1   
 15   9  10  2   
 16   9  11  1   
 17  11  12  1   
 18  11  13  1   
 19  11  25  1   
 20  12  14  1   
 21  12  26  1   
 22  12  27  1   
 23  13  15  1   
 24  13  28  1   
 25  13  29  1   
 26  14  16  1   
 27  14  30  1   
 28  14  31  1   
 29  15  16  1   
 30  15  32  1   
 31  15  33  1   
 32  16  17  am  
 33  17  18  2   
 34  17  19  1   
 35  19  34  1   
 36  19  35  1   
 37  19  36  1   
@<TRIPOS>SUBSTRUCTURE
  1 ****   9 GROUP 4 **** **** 0

# MOE 2024.06 (io_trps.svl 2023.06)
