@<TRIPOS>MOLECULE
NONAME
35 36 1 0 0 
SMALL
USER_CHARGES


@<TRIPOS>ATOM
  1 S        1.0770     0.3390    -0.6800 S.3   1 <1>  -0.2860 
  2 C       -0.6730     0.3490    -1.0770 C.2   1 <1>   0.2420 
  3 C        1.7710    -0.8480    -1.9330 C.3   1 <1>   0.1310 
  4 N       -1.2080    -0.3910    -1.9820 N.2   1 <1>  -0.3380 
  5 N       -1.5440     1.1370    -0.4490 N.pl3 1 <1>   0.0480 
  6 C        3.2640    -1.0540    -1.7300 C.2   1 <1>   0.5690 
  7 N       -2.5130    -0.0940    -1.9690 N.2   1 <1>  -0.3380 
  8 C       -2.6870     0.8080    -1.0600 C.2   1 <1>   0.0360 
  9 C       -1.3070     2.1140     0.6300 C.3   1 <1>   0.0160 
 10 O        3.9380    -1.2840    -2.7040 O.2   1 <1>  -0.5700 
 11 N        3.7700    -0.9690    -0.4680 N.am  1 <1>  -0.7300 
 12 C        5.1640    -1.0270     0.0240 C.3   1 <1>   0.3640 
 13 C        5.6990     0.3930     0.1730 C.ar  1 <1>  -0.1440 
 14 C        6.0860    -1.8990    -0.8280 C.3   1 <1>  -0.2400 
 15 C        5.7620     1.2480    -0.9190 C.ar  1 <1>  -0.1500 
 16 C        6.1310     0.8500     1.4100 C.ar  1 <1>  -0.1500 
 17 C        6.2460     2.5370    -0.7780 C.ar  1 <1>  -0.1500 
 18 C        6.6160     2.1390     1.5540 C.ar  1 <1>  -0.1500 
 19 C        6.6730     2.9840     0.4590 C.ar  1 <1>  -0.1500 
 20 H        1.5770    -0.4330    -2.9040 H     1 <1>   0.0800 
 21 H        1.2460    -1.7780    -1.8220 H     1 <1>   0.0800 
 22 H       -3.6350     1.2510    -0.8120 H     1 <1>   0.1500 
 23 H       -0.9410     1.6000     1.5000 H     1 <1>   0.0800 
 24 H       -2.2240     2.6200     0.8690 H     1 <1>   0.0800 
 25 H       -0.5750     2.8310     0.3040 H     1 <1>   0.0800 
 26 H        3.1330    -0.6000     0.2390 H     1 <1>   0.3700 
 27 H        5.1280    -1.4770     1.0010 H     1 <1>   0.0800 
 28 H        6.2720    -1.4460    -1.7840 H     1 <1>   0.0800 
 29 H        5.6520    -2.8710    -0.9700 H     1 <1>   0.0800 
 30 H        7.0310    -2.0110    -0.3290 H     1 <1>   0.0800 
 31 H        5.4320     0.9080    -1.8870 H     1 <1>   0.1500 
 32 H        6.0940     0.2070     2.2720 H     1 <1>   0.1500 
 33 H        6.2900     3.1890    -1.6320 H     1 <1>   0.1500 
 34 H        6.9490     2.4860     2.5160 H     1 <1>   0.1500 
 35 H        7.0510     3.9850     0.5700 H     1 <1>   0.1500 
@<TRIPOS>BOND
  1   1   2  1   
  2   1   3  1   
  3   2   4  2   
  4   2   5  1   
  5   3   6  1   
  6   3  20  1   
  7   3  21  1   
  8   4   7  1   
  9   5   8  1   
 10   5   9  1   
 11   6  10  2   
 12   6  11  am  
 13   7   8  2   
 14   8  22  1   
 15   9  23  1   
 16   9  24  1   
 17   9  25  1   
 18  11  12  1   
 19  11  26  1   
 20  12  13  1   
 21  12  14  1   
 22  12  27  1   
 23  13  15  ar  
 24  13  16  ar  
 25  14  28  1   
 26  14  29  1   
 27  14  30  1   
 28  15  17  ar  
 29  15  31  1   
 30  16  18  ar  
 31  16  32  1   
 32  17  19  ar  
 33  17  33  1   
 34  18  19  ar  
 35  18  34  1   
 36  19  35  1   
@<TRIPOS>SUBSTRUCTURE
  1 ****   1 GROUP 4 **** **** 0

# MOE 2024.06 (io_trps.svl 2023.06)
