@<TRIPOS>MOLECULE
NONAME
38 40 1 0 0 
SMALL
USER_CHARGES


@<TRIPOS>ATOM
  1 S       -1.5740    -3.7820     0.5100 S.3   1 <1>  -0.4600 
  2 C       -2.5530    -2.6590    -0.5270 C.3   1 <1>   0.4500 
  3 C        0.0480    -3.2650    -0.0940 C.3   1 <1>   0.1310 
  4 N       -1.5560    -1.5560    -0.7390 N.am  1 <1>  -0.6600 
  5 C       -3.8790    -2.1790     0.1950 C.3   1 <1>   0.5030 
  6 C       -0.2350    -1.8560    -0.5540 C.2   1 <1>   0.5690 
  7 C       -2.0310    -0.1420    -0.7040 C.3   1 <1>   0.1400 
  8 N       -3.5280    -1.0900     1.1630 N.4   1 <1>  -0.9060 
  9 C       -4.6120    -3.2820     0.9920 C.3   1 <1>  -0.1600 
 10 C       -4.9180    -1.6340    -0.8130 C.3   1 <1>  -0.1600 
 11 O        0.6470    -1.0420    -0.6560 O.2   1 <1>  -0.5700 
 12 C       -2.9070     0.1430     0.5430 C.3   1 <1>   0.3430 
 13 C       -5.2670    -4.3440     0.0780 C.3   1 <1>   0.2800 
 14 C       -5.5170    -2.7440    -1.6880 C.3   1 <1>   0.1200 
 15 O       -5.0670    -3.9890    -1.2540 O.3   1 <1>  -0.5600 
 16 C       -6.7710    -4.4970     0.3430 C.3   1 <1>  -0.2400 
 17 C       -4.6050    -5.7130     0.2320 C.3   1 <1>  -0.2400 
 18 H       -2.7590    -3.1820    -1.4460 H     1 <1>   0.0800 
 19 H        0.3360    -3.9020    -0.9090 H     1 <1>   0.0800 
 20 H        0.7530    -3.3000     0.7160 H     1 <1>   0.0800 
 21 H       -2.5810     0.0670    -1.6040 H     1 <1>   0.0800 
 22 H       -1.1940     0.5370    -0.7010 H     1 <1>   0.0800 
 23 H       -2.8180    -1.5080     1.7820 H     1 <1>   0.4500 
 24 H       -4.3360    -0.8500     1.7470 H     1 <1>   0.4500 
 25 H       -5.3920    -2.8270     1.5760 H     1 <1>   0.0800 
 26 H       -3.9650    -3.7610     1.7030 H     1 <1>   0.0800 
 27 H       -4.5090    -0.8960    -1.4730 H     1 <1>   0.0800 
 28 H       -5.7320    -1.1710    -0.2830 H     1 <1>   0.0800 
 29 H       -3.6800     0.8390     0.2590 H     1 <1>   0.0800 
 30 H       -2.2950     0.6380     1.2810 H     1 <1>   0.0800 
 31 H       -5.1950    -2.6340    -2.7110 H     1 <1>   0.0800 
 32 H       -6.5940    -2.7310    -1.6760 H     1 <1>   0.0800 
 33 H       -7.2860    -3.5550     0.3000 H     1 <1>   0.0800 
 34 H       -6.9300    -4.9120     1.3230 H     1 <1>   0.0800 
 35 H       -7.2070    -5.1680    -0.3760 H     1 <1>   0.0800 
 36 H       -3.5670    -5.6770    -0.0370 H     1 <1>   0.0800 
 37 H       -5.0920    -6.4320    -0.4040 H     1 <1>   0.0800 
 38 H       -4.6830    -6.0600     1.2460 H     1 <1>   0.0800 
@<TRIPOS>BOND
  1   1   2  1   
  2   1   3  1   
  3   2   4  1   
  4   2   5  1   
  5   2  18  1   
  6   3   6  1   
  7   3  19  1   
  8   3  20  1   
  9   4   6  am  
 10   4   7  1   
 11   5   8  1   
 12   5   9  1   
 13   5  10  1   
 14   6  11  2   
 15   7  12  1   
 16   7  21  1   
 17   7  22  1   
 18   8  12  1   
 19   8  23  1   
 20   8  24  1   
 21   9  13  1   
 22   9  25  1   
 23   9  26  1   
 24  10  14  1   
 25  10  27  1   
 26  10  28  1   
 27  12  29  1   
 28  12  30  1   
 29  13  15  1   
 30  13  16  1   
 31  13  17  1   
 32  14  15  1   
 33  14  31  1   
 34  14  32  1   
 35  16  33  1   
 36  16  34  1   
 37  16  35  1   
 38  17  36  1   
 39  17  37  1   
 40  17  38  1   
@<TRIPOS>SUBSTRUCTURE
  1 ****   2 GROUP 4 **** **** 0

# MOE 2024.06 (io_trps.svl 2023.06)
