@<TRIPOS>MOLECULE
NONAME
35 36 1 0 0 
SMALL
USER_CHARGES


@<TRIPOS>ATOM
  1 O        0.4030     0.1590     0.7190 O.2   1 <1>  -0.5700 
  2 C        1.4230     0.3070     0.0980 C.2   1 <1>   0.5690 
  3 N        2.5880     0.4970     0.7530 N.am  1 <1>  -0.7300 
  4 C        1.3730     0.2780    -1.4090 C.3   1 <1>  -0.1790 
  5 C        3.9410     0.6980     0.2120 C.3   1 <1>   0.2200 
  6 C        4.8440    -0.4360     0.7090 C.3   1 <1>  -0.1600 
  7 C        4.4580     2.0640     0.6730 C.3   1 <1>  -0.1600 
  8 C        6.3000    -0.2210     0.2650 C.3   1 <1>  -0.1600 
  9 C        5.9130     2.2860     0.2290 C.3   1 <1>  -0.1600 
 10 C        6.8290     1.1510     0.7160 C.3   1 <1>   0.0630 
 11 C        8.2690     1.3670     0.2540 C.ar  1 <1>  -0.1440 
 12 C        8.5990     1.3980    -1.0940 C.ar  1 <1>  -0.1500 
 13 C        9.2770     1.5360     1.1930 C.ar  1 <1>  -0.1500 
 14 C        9.9090     1.5950    -1.4960 C.ar  1 <1>  -0.1500 
 15 C       10.5870     1.7320     0.7940 C.ar  1 <1>  -0.1500 
 16 C       10.9050     1.7620    -0.5510 C.ar  1 <1>  -0.1500 
 17 H        2.5170     0.5000     1.7710 H     1 <1>   0.3700 
 18 H        1.9870    -0.5220    -1.7770 H     1 <1>   0.0800 
 19 H        1.7180     1.2150    -1.8030 H     1 <1>   0.0800 
 20 H        0.3610     0.1170    -1.7330 H     1 <1>   0.0800 
 21 H        3.9170     0.6790    -0.8640 H     1 <1>   0.0800 
 22 H        4.4880    -1.3730     0.3190 H     1 <1>   0.0800 
 23 H        4.8090    -0.4800     1.7840 H     1 <1>   0.0800 
 24 H        4.4060     2.1260     1.7460 H     1 <1>   0.0800 
 25 H        3.8380     2.8400     0.2590 H     1 <1>   0.0800 
 26 H        6.3550    -0.2970    -0.8070 H     1 <1>   0.0800 
 27 H        6.9220    -0.9950     0.6790 H     1 <1>   0.0800 
 28 H        6.2710     3.2230     0.6190 H     1 <1>   0.0800 
 29 H        5.9470     2.3460    -0.8450 H     1 <1>   0.0800 
 30 H        6.8140     1.1640     1.7930 H     1 <1>   0.0800 
 31 H        7.8390     1.2700    -1.8430 H     1 <1>   0.1500 
 32 H        9.0490     1.5160     2.2440 H     1 <1>   0.1500 
 33 H       10.1520     1.6180    -2.5440 H     1 <1>   0.1500 
 34 H       11.3600     1.8620     1.5320 H     1 <1>   0.1500 
 35 H       11.9240     1.9150    -0.8620 H     1 <1>   0.1500 
@<TRIPOS>BOND
  1   1   2  2   
  2   2   3  am  
  3   2   4  1   
  4   3   5  1   
  5   3  17  1   
  6   4  18  1   
  7   4  19  1   
  8   4  20  1   
  9   5   6  1   
 10   5   7  1   
 11   5  21  1   
 12   6   8  1   
 13   6  22  1   
 14   6  23  1   
 15   7   9  1   
 16   7  24  1   
 17   7  25  1   
 18   8  10  1   
 19   8  26  1   
 20   8  27  1   
 21   9  10  1   
 22   9  28  1   
 23   9  29  1   
 24  10  11  1   
 25  10  30  1   
 26  11  12  ar  
 27  11  13  ar  
 28  12  14  ar  
 29  12  31  1   
 30  13  15  ar  
 31  13  32  1   
 32  14  16  ar  
 33  14  33  1   
 34  15  16  ar  
 35  15  34  1   
 36  16  35  1   
@<TRIPOS>SUBSTRUCTURE
  1 ****  10 GROUP 4 **** **** 0

# MOE 2024.06 (io_trps.svl 2023.06)
