@<TRIPOS>MOLECULE
NONAME
27 27 1 0 0 
SMALL
USER_CHARGES


@<TRIPOS>ATOM
  1 F       -0.7680    -0.4130    -0.4950 F     1 <1>  -0.1900 
  2 C       -1.7050     0.4820    -0.3100 C.ar  1 <1>   0.1900 
  3 C       -1.3960     1.8310    -0.3240 C.ar  1 <1>   0.1900 
  4 C       -3.0010     0.0510    -0.1000 C.ar  1 <1>  -0.1500 
  5 F       -0.1640     2.2300    -0.5230 F     1 <1>  -0.1900 
  6 C       -2.3820     2.7790    -0.1250 C.ar  1 <1>  -0.1500 
  7 C       -4.0100     0.9890     0.0990 C.ar  1 <1>   0.1170 
  8 C       -3.6830     2.3480     0.0870 C.ar  1 <1>  -0.1500 
  9 N       -5.3170     0.5330     0.3220 N.am  1 <1>  -0.5470 
 10 C       -6.5160     1.1280     0.0620 C.2   1 <1>   0.6900 
 11 O       -6.5960     2.1780    -0.5420 O.2   1 <1>  -0.5700 
 12 N       -7.6340     0.4950     0.4950 N.am  1 <1>  -0.7300 
 13 C       -9.0120     0.9780     0.2650 C.3   1 <1>   0.1400 
 14 C       -9.9200    -0.2190    -0.0170 C.3   1 <1>  -0.1600 
 15 C      -11.3650     0.2280    -0.2650 C.3   1 <1>  -0.2400 
 16 H       -3.2150    -1.0010    -0.0970 H     1 <1>   0.1500 
 17 H       -2.1380     3.8260    -0.1370 H     1 <1>   0.1500 
 18 H       -4.4550     3.0810     0.2460 H     1 <1>   0.1500 
 19 H       -5.4020    -0.4370     0.6050 H     1 <1>   0.3700 
 20 H       -7.5480    -0.2760     1.1520 H     1 <1>   0.3700 
 21 H       -9.0270     1.6560    -0.5730 H     1 <1>   0.0800 
 22 H       -9.3520     1.5080     1.1380 H     1 <1>   0.0800 
 23 H       -9.9010    -0.8930     0.8210 H     1 <1>   0.0800 
 24 H       -9.5600    -0.7380    -0.8890 H     1 <1>   0.0800 
 25 H      -11.7560     0.7380     0.5980 H     1 <1>   0.0800 
 26 H      -11.9860    -0.6280    -0.4660 H     1 <1>   0.0800 
 27 H      -11.4140     0.8900    -1.1120 H     1 <1>   0.0800 
@<TRIPOS>BOND
  1   1   2  1   
  2   2   3  ar  
  3   2   4  ar  
  4   3   5  1   
  5   3   6  ar  
  6   4   7  ar  
  7   4  16  1   
  8   6   8  ar  
  9   6  17  1   
 10   7   8  ar  
 11   7   9  1   
 12   8  18  1   
 13   9  10  am  
 14   9  19  1   
 15  10  11  2   
 16  10  12  am  
 17  12  13  1   
 18  12  20  1   
 19  13  14  1   
 20  13  21  1   
 21  13  22  1   
 22  14  15  1   
 23  14  23  1   
 24  14  24  1   
 25  15  25  1   
 26  15  26  1   
 27  15  27  1   
@<TRIPOS>SUBSTRUCTURE
  1 ****   9 GROUP 4 **** **** 0

# MOE 2024.06 (io_trps.svl 2023.06)
