@<TRIPOS>MOLECULE
NONAME
43 45 1 0 0 
SMALL
USER_CHARGES


@<TRIPOS>ATOM
  1 S       -1.0710     3.3820    -0.3740 S.3   1 <1>  -0.0800 
  2 C       -0.8720     1.7010     0.1030 C.2   1 <1>  -0.1400 
  3 C       -0.7410     3.9300     1.2590 C.2   1 <1>  -0.1100 
  4 C       -0.5730     1.6160     1.4120 C.2   1 <1>  -0.1500 
  5 C       -1.0570     0.6340    -0.9700 C.3   1 <1>   0.0810 
  6 C       -0.5000     2.8850     2.0710 C.2   1 <1>  -0.1500 
  7 C       -2.5120     0.3790    -1.3390 C.2   1 <1>   0.5690 
  8 O       -2.7470    -0.5280    -2.0970 O.2   1 <1>  -0.5700 
  9 N       -3.4790     1.1740    -0.7810 N.am  1 <1>  -0.5470 
 10 C       -4.8720     1.2020    -0.9080 C.ar  1 <1>   0.1170 
 11 C       -5.5700     0.5280    -1.9060 C.ar  1 <1>  -0.1500 
 12 C       -5.6040     1.9550     0.0020 C.ar  1 <1>  -0.1500 
 13 C       -6.9480     0.5980    -1.9800 C.ar  1 <1>  -0.1500 
 14 C       -6.9820     2.0230    -0.0740 C.ar  1 <1>  -0.1500 
 15 C       -7.6900     1.3380    -1.0610 C.ar  1 <1>   0.0860 
 16 C       -9.1350     1.3950    -1.1380 C.2   1 <1>   0.5440 
 17 O       -9.6550     1.7800    -2.1690 O.2   1 <1>  -0.5700 
 18 N       -9.9390     1.0240    -0.0770 N.am  1 <1>  -0.6600 
 19 C       -9.4620     0.2040     1.0730 C.3   1 <1>   0.1400 
 20 C      -11.4100     1.2670    -0.0850 C.3   1 <1>   0.1400 
 21 C      -10.1980    -1.1400     1.0920 C.3   1 <1>  -0.1600 
 22 C      -12.1560    -0.0710    -0.0810 C.3   1 <1>  -0.1600 
 23 C      -11.7220    -0.9560     1.0950 C.3   1 <1>  -0.1600 
 24 H       -0.7600     4.9910     1.4390 H     1 <1>   0.1500 
 25 H       -0.3960     0.7060     1.9600 H     1 <1>   0.1500 
 26 H       -0.6400    -0.2910    -0.6200 H     1 <1>   0.0800 
 27 H       -0.5220     0.9190    -1.8570 H     1 <1>   0.0800 
 28 H       -0.2680     2.9500     3.1200 H     1 <1>   0.1500 
 29 H       -3.0960     1.8770    -0.1450 H     1 <1>   0.3700 
 30 H       -5.0400    -0.0530    -2.6380 H     1 <1>   0.1500 
 31 H       -5.0910     2.4950     0.7770 H     1 <1>   0.1500 
 32 H       -7.4710     0.0760    -2.7630 H     1 <1>   0.1500 
 33 H       -7.5310     2.6160     0.6370 H     1 <1>   0.1500 
 34 H       -9.6560     0.7390     1.9870 H     1 <1>   0.0800 
 35 H       -8.4040     0.0220     1.0080 H     1 <1>   0.0800 
 36 H      -11.6980     1.8400    -0.9510 H     1 <1>   0.0800 
 37 H      -11.6740     1.8360     0.7890 H     1 <1>   0.0800 
 38 H       -9.9000    -1.6970     1.9620 H     1 <1>   0.0800 
 39 H       -9.9050    -1.7060     0.2240 H     1 <1>   0.0800 
 40 H      -11.9590    -0.5760    -1.0110 H     1 <1>   0.0800 
 41 H      -13.2140     0.1130    -0.0270 H     1 <1>   0.0800 
 42 H      -12.0260    -0.4960     2.0200 H     1 <1>   0.0800 
 43 H      -12.2060    -1.9160     1.0260 H     1 <1>   0.0800 
@<TRIPOS>BOND
  1   1   2  1   
  2   1   3  1   
  3   2   4  2   
  4   2   5  1   
  5   3   6  2   
  6   3  24  1   
  7   4   6  1   
  8   4  25  1   
  9   5   7  1   
 10   5  26  1   
 11   5  27  1   
 12   6  28  1   
 13   7   8  2   
 14   7   9  am  
 15   9  10  1   
 16   9  29  1   
 17  10  11  ar  
 18  10  12  ar  
 19  11  13  ar  
 20  11  30  1   
 21  12  14  ar  
 22  12  31  1   
 23  13  15  ar  
 24  13  32  1   
 25  14  15  ar  
 26  14  33  1   
 27  15  16  1   
 28  16  17  2   
 29  16  18  am  
 30  18  19  1   
 31  18  20  1   
 32  19  21  1   
 33  19  34  1   
 34  19  35  1   
 35  20  22  1   
 36  20  36  1   
 37  20  37  1   
 38  21  23  1   
 39  21  38  1   
 40  21  39  1   
 41  22  23  1   
 42  22  40  1   
 43  22  41  1   
 44  23  42  1   
 45  23  43  1   
@<TRIPOS>SUBSTRUCTURE
  1 ****  12 GROUP 4 **** **** 0

# MOE 2024.06 (io_trps.svl 2023.06)
