@<TRIPOS>MOLECULE
NONAME
43 44 1 0 0 
SMALL
USER_CHARGES


@<TRIPOS>ATOM
  1 O        1.4020     0.0640     2.2480 O.3   1 <1>  -0.6800 
  2 C        2.5100    -0.7160     1.9590 C.3   1 <1>   0.1200 
  3 C        3.1490    -0.1850     0.6710 C.3   1 <1>   0.1100 
  4 N        4.3380    -0.9740     0.2770 N.3   1 <1>  -0.8100 
  5 C        3.9690    -2.2750    -0.3370 C.3   1 <1>   0.1100 
  6 C        5.1850    -0.1920    -0.6590 C.3   1 <1>   0.1100 
  7 C        5.2090    -3.1030    -0.7570 C.3   1 <1>   0.3430 
  8 C        6.4170    -0.9840    -1.1600 C.3   1 <1>   0.3430 
  9 N        6.4780    -2.3420    -0.5250 N.4   1 <1>  -0.9590 
 10 C        7.7150    -3.1020    -0.8350 C.3   1 <1>   0.4860 
 11 C        8.9150    -2.2670    -0.4340 C.ar  1 <1>  -0.1440 
 12 C        9.7180    -1.6890    -1.4070 C.ar  1 <1>  -0.1500 
 13 C        9.2140    -2.0640     0.9050 C.ar  1 <1>  -0.1500 
 14 C       10.7990    -0.9070    -1.0410 C.ar  1 <1>  -0.1500 
 15 C       10.2960    -1.2810     1.2650 C.ar  1 <1>  -0.1500 
 16 C       11.0920    -0.6950     0.2950 C.ar  1 <1>  -0.1440 
 17 C       12.2810     0.1650     0.6940 C.3   1 <1>  -0.0170 
 18 C       13.5430    -0.6910     0.8220 C.3   1 <1>  -0.2400 
 19 H        0.9930    -0.2070     3.0940 H     1 <1>   0.4000 
 20 H        2.1770    -1.7320     1.8430 H     1 <1>   0.0800 
 21 H        3.2020    -0.6400     2.7800 H     1 <1>   0.0800 
 22 H        3.4430     0.8340     0.8580 H     1 <1>   0.0800 
 23 H        2.4210    -0.1870    -0.1230 H     1 <1>   0.0800 
 24 H        3.3500    -2.1060    -1.2020 H     1 <1>   0.0800 
 25 H        3.3910    -2.8560     0.3610 H     1 <1>   0.0800 
 26 H        5.5300     0.6990    -0.1620 H     1 <1>   0.0800 
 27 H        4.6010     0.1220    -1.5090 H     1 <1>   0.0800 
 28 H        5.1200    -3.3660    -1.7980 H     1 <1>   0.0800 
 29 H        5.2230    -4.0180    -0.1880 H     1 <1>   0.0800 
 30 H        7.3070    -0.4230    -0.9200 H     1 <1>   0.0800 
 31 H        6.3690    -1.0780    -2.2320 H     1 <1>   0.0800 
 32 H        6.4720    -2.1210     0.4820 H     1 <1>   0.4500 
 33 H        7.7610    -3.3240    -1.8890 H     1 <1>   0.0800 
 34 H        7.7290    -4.0310    -0.2880 H     1 <1>   0.0800 
 35 H        9.5190    -1.8390    -2.4540 H     1 <1>   0.1500 
 36 H        8.6180    -2.5100     1.6830 H     1 <1>   0.1500 
 37 H       11.4190    -0.4630    -1.8020 H     1 <1>   0.1500 
 38 H       10.5230    -1.1290     2.3070 H     1 <1>   0.1500 
 39 H       12.0800     0.6520     1.6320 H     1 <1>   0.0800 
 40 H       12.4390     0.9330    -0.0430 H     1 <1>   0.0800 
 41 H       13.4030    -1.4510     1.5700 H     1 <1>   0.0800 
 42 H       14.3790    -0.0770     1.1050 H     1 <1>   0.0800 
 43 H       13.7660    -1.1680    -0.1160 H     1 <1>   0.0800 
@<TRIPOS>BOND
  1   1   2  1   
  2   1  19  1   
  3   2   3  1   
  4   2  20  1   
  5   2  21  1   
  6   3   4  1   
  7   3  22  1   
  8   3  23  1   
  9   4   5  1   
 10   4   6  1   
 11   5   7  1   
 12   5  24  1   
 13   5  25  1   
 14   6   8  1   
 15   6  26  1   
 16   6  27  1   
 17   7   9  1   
 18   7  28  1   
 19   7  29  1   
 20   8   9  1   
 21   8  30  1   
 22   8  31  1   
 23   9  10  1   
 24   9  32  1   
 25  10  11  1   
 26  10  33  1   
 27  10  34  1   
 28  11  12  ar  
 29  11  13  ar  
 30  12  14  ar  
 31  12  35  1   
 32  13  15  ar  
 33  13  36  1   
 34  14  16  ar  
 35  14  37  1   
 36  15  16  ar  
 37  15  38  1   
 38  16  17  1   
 39  17  18  1   
 40  17  39  1   
 41  17  40  1   
 42  18  41  1   
 43  18  42  1   
 44  18  43  1   
@<TRIPOS>SUBSTRUCTURE
  1 ****   9 GROUP 4 **** **** 0

# MOE 2024.06 (io_trps.svl 2023.06)
