@<TRIPOS>MOLECULE
NONAME
41 42 1 0 0 
SMALL
USER_CHARGES


@<TRIPOS>ATOM
  1 S      -11.1160    -4.2010    -0.7310 S.3   1 <1>  -0.2860 
  2 C      -12.7110    -3.4460    -0.4620 C.2   1 <1>   0.2420 
  3 C       -9.9720    -2.8350    -0.2640 C.3   1 <1>   0.0700 
  4 N      -12.8430    -2.2340    -0.0580 N.2   1 <1>  -0.5650 
  5 N      -13.8540    -4.1310    -0.6780 N.pl3 1 <1>   0.0330 
  6 C       -8.5430    -3.3120    -0.5240 C.3   1 <1>   0.3430 
  7 C      -14.1990    -2.0840     0.0070 C.ar  1 <1>   0.2270 
  8 C      -14.8440    -3.2510    -0.3750 C.ar  1 <1>  -0.1520 
  9 N       -7.5220    -2.2880    -0.1160 N.4   1 <1>  -0.9590 
 10 C      -14.9470    -0.9720     0.3850 C.ar  1 <1>  -0.1500 
 11 C      -16.2360    -3.3390    -0.3900 C.ar  1 <1>  -0.1500 
 12 C       -7.5640    -1.0930    -1.0070 C.3   1 <1>   0.3430 
 13 C       -6.1560    -2.8830    -0.0760 C.3   1 <1>   0.3430 
 14 C      -16.3230    -1.0430     0.3750 C.ar  1 <1>   0.0830 
 15 C      -16.9680    -2.2330    -0.0140 C.ar  1 <1>  -0.1500 
 16 C       -6.9160     0.0930    -0.3020 C.3   1 <1>  -0.2400 
 17 C       -6.0120    -3.7500     1.1690 C.3   1 <1>  -0.2400 
 18 O      -16.9950     0.0780     0.7550 O.3   1 <1>  -0.3630 
 19 C      -18.4050     0.1110     0.7800 C.3   1 <1>   0.0400 
 20 H      -10.1490    -2.6270     0.7760 H     1 <1>   0.0800 
 21 H      -10.2430    -1.9910    -0.8720 H     1 <1>   0.0800 
 22 H      -13.9420    -5.0980    -0.9980 H     1 <1>   0.2700 
 23 H       -8.4300    -3.5450    -1.5700 H     1 <1>   0.0800 
 24 H       -8.3910    -4.2190     0.0370 H     1 <1>   0.0800 
 25 H       -7.7450    -1.9710     0.8370 H     1 <1>   0.4500 
 26 H      -14.4420    -0.0730     0.6790 H     1 <1>   0.1500 
 27 H      -16.7210    -4.2520    -0.6880 H     1 <1>   0.1500 
 28 H       -8.5860    -0.8360    -1.2340 H     1 <1>   0.0800 
 29 H       -7.0560    -1.3000    -1.9360 H     1 <1>   0.0800 
 30 H       -5.4140    -2.1010    -0.0360 H     1 <1>   0.0800 
 31 H       -5.9760    -3.4690    -0.9640 H     1 <1>   0.0800 
 32 H      -18.0390    -2.2970    -0.0240 H     1 <1>   0.1500 
 33 H       -7.4140     0.3050     0.6270 H     1 <1>   0.0800 
 34 H       -7.0040     0.9630    -0.9280 H     1 <1>   0.0800 
 35 H       -5.8690    -0.0730    -0.1230 H     1 <1>   0.0800 
 36 H       -6.1970    -3.1760     2.0590 H     1 <1>   0.0800 
 37 H       -5.0040    -4.1220     1.2210 H     1 <1>   0.0800 
 38 H       -6.6700    -4.6000     1.1420 H     1 <1>   0.0800 
 39 H      -18.7100     1.0880     1.1080 H     1 <1>   0.0800 
 40 H      -18.7600    -0.6330     1.4710 H     1 <1>   0.0800 
 41 H      -18.7760    -0.0730    -0.2130 H     1 <1>   0.0800 
@<TRIPOS>BOND
  1   1   2  1   
  2   1   3  1   
  3   2   4  2   
  4   2   5  1   
  5   3   6  1   
  6   3  20  1   
  7   3  21  1   
  8   4   7  1   
  9   5   8  1   
 10   5  22  1   
 11   6   9  1   
 12   6  23  1   
 13   6  24  1   
 14   7   8  ar  
 15   7  10  ar  
 16   8  11  ar  
 17   9  12  1   
 18   9  13  1   
 19   9  25  1   
 20  10  14  ar  
 21  10  26  1   
 22  11  15  ar  
 23  11  27  1   
 24  12  16  1   
 25  12  28  1   
 26  12  29  1   
 27  13  17  1   
 28  13  30  1   
 29  13  31  1   
 30  14  15  ar  
 31  14  18  1   
 32  15  32  1   
 33  16  33  1   
 34  16  34  1   
 35  16  35  1   
 36  17  36  1   
 37  17  37  1   
 38  17  38  1   
 39  18  19  1   
 40  19  39  1   
 41  19  40  1   
 42  19  41  1   
@<TRIPOS>SUBSTRUCTURE
  1 ****   4 GROUP 4 **** **** 0

# MOE 2024.06 (io_trps.svl 2023.06)
