@<TRIPOS>MOLECULE
NONAME
51 53 1 0 0 
SMALL
USER_CHARGES


@<TRIPOS>ATOM
  1 P       -0.3880    -1.1560     0.5300 P.3   1 <1>   1.2420 
  2 O       -0.1730    -1.9240     1.7610 O.2   1 <1>  -0.7000 
  3 O       -1.8020    -0.3880     0.5680 O.3   1 <1>  -0.5510 
  4 O       -0.5350    -2.1210    -0.7520 O.3   1 <1>  -0.5510 
  5 C        0.8720     0.1040     0.1240 C.3   1 <1>   0.4700 
  6 C       -2.9800    -1.0910     0.7130 C.3   1 <1>   0.1200 
  7 C       -0.6990    -3.4830    -0.5800 C.3   1 <1>   0.1200 
  8 N        0.6930     0.9450    -1.1130 N.pl3 1 <1>  -0.8690 
  9 C        2.2930    -0.4330    -0.0150 C.2   1 <1>  -0.1810 
 10 C       -4.1160    -0.0780     0.7820 C.3   1 <1>  -0.2400 
 11 C       -0.8230    -4.1130    -1.9620 C.3   1 <1>  -0.2400 
 12 C        0.5310     2.3090    -0.9270 C.ar  1 <1>   0.1000 
 13 C        3.4400     0.3090     0.3510 C.ar  1 <1>   0.0000 
 14 C        2.7210    -1.6250    -0.5040 C.2   1 <1>  -0.3020 
 15 C        1.5140     3.1920    -1.3530 C.ar  1 <1>  -0.1500 
 16 C       -0.6020     2.8180    -0.3080 C.ar  1 <1>  -0.1500 
 17 C        4.5380    -0.4970     0.0690 C.ar  1 <1>  -0.1520 
 18 C        3.6460     1.5870     0.8850 C.ar  1 <1>  -0.1500 
 19 N        4.0840    -1.6800    -0.4510 N.pl3 1 <1>   0.0330 
 20 C        1.3760     4.5530    -1.1490 C.ar  1 <1>  -0.1500 
 21 C       -0.7420     4.1780    -0.1020 C.ar  1 <1>  -0.1500 
 22 C        5.8400    -0.0550     0.3180 C.ar  1 <1>  -0.1500 
 23 C        4.9280     2.0230     1.1290 C.ar  1 <1>  -0.1500 
 24 C        0.2480     5.0550    -0.5190 C.ar  1 <1>  -0.1440 
 25 C        6.0260     1.2010     0.8470 C.ar  1 <1>  -0.1500 
 26 C        0.0930     6.5480    -0.2950 C.3   1 <1>  -0.0970 
 27 H        0.8960     0.7800     0.9580 H     1 <1>   0.0800 
 28 H       -2.9260    -1.6730     1.6190 H     1 <1>   0.0800 
 29 H       -3.1010    -1.7420    -0.1370 H     1 <1>   0.0800 
 30 H       -1.5870    -3.6550     0.0040 H     1 <1>   0.0800 
 31 H        0.1580    -3.8700    -0.0540 H     1 <1>   0.0800 
 32 H        1.4670     0.7140    -1.7430 H     1 <1>   0.4000 
 33 H       -3.9800     0.5740     1.6260 H     1 <1>   0.0800 
 34 H       -5.0550    -0.5900     0.8910 H     1 <1>   0.0800 
 35 H       -4.1460     0.5050    -0.1220 H     1 <1>   0.0800 
 36 H       -1.6750    -3.7090    -2.4780 H     1 <1>   0.0800 
 37 H       -0.9500    -5.1760    -1.8680 H     1 <1>   0.0800 
 38 H        0.0660    -3.9230    -2.5360 H     1 <1>   0.0800 
 39 H        2.1400    -2.4440    -0.8920 H     1 <1>   0.1500 
 40 H        2.3930     2.8090    -1.8390 H     1 <1>   0.1500 
 41 H       -1.3780     2.1440     0.0050 H     1 <1>   0.1500 
 42 H        2.8010     2.2170     1.0950 H     1 <1>   0.1500 
 43 H        4.6770    -2.4610    -0.7480 H     1 <1>   0.2700 
 44 H        2.1500     5.2200    -1.4850 H     1 <1>   0.1500 
 45 H       -1.6280     4.5520     0.3790 H     1 <1>   0.1500 
 46 H        6.6770    -0.6930     0.0980 H     1 <1>   0.1500 
 47 H        5.0980     3.0020     1.5400 H     1 <1>   0.1500 
 48 H        7.0180     1.5650     1.0490 H     1 <1>   0.1500 
 49 H       -0.4410     6.9850    -1.1200 H     1 <1>   0.0800 
 50 H        1.0560     7.0190    -0.2150 H     1 <1>   0.0800 
 51 H       -0.4540     6.7360     0.6120 H     1 <1>   0.0800 
@<TRIPOS>BOND
  1   1   2  2   
  2   1   3  1   
  3   1   4  1   
  4   1   5  1   
  5   3   6  1   
  6   4   7  1   
  7   5   8  1   
  8   5   9  1   
  9   5  27  1   
 10   6  10  1   
 11   6  28  1   
 12   6  29  1   
 13   7  11  1   
 14   7  30  1   
 15   7  31  1   
 16   8  12  1   
 17   8  32  1   
 18   9  13  1   
 19   9  14  2   
 20  10  33  1   
 21  10  34  1   
 22  10  35  1   
 23  11  36  1   
 24  11  37  1   
 25  11  38  1   
 26  12  15  ar  
 27  12  16  ar  
 28  13  17  ar  
 29  13  18  ar  
 30  14  19  1   
 31  14  39  1   
 32  15  20  ar  
 33  15  40  1   
 34  16  21  ar  
 35  16  41  1   
 36  17  19  1   
 37  17  22  ar  
 38  18  23  ar  
 39  18  42  1   
 40  19  43  1   
 41  20  24  ar  
 42  20  44  1   
 43  21  24  ar  
 44  21  45  1   
 45  22  25  ar  
 46  22  46  1   
 47  23  25  ar  
 48  23  47  1   
 49  24  26  1   
 50  25  48  1   
 51  26  49  1   
 52  26  50  1   
 53  26  51  1   
@<TRIPOS>SUBSTRUCTURE
  1 ****   5 GROUP 4 **** **** 0

# MOE 2024.06 (io_trps.svl 2023.06)
