@<TRIPOS>MOLECULE
NONAME
33 35 1 0 0 
SMALL
USER_CHARGES


@<TRIPOS>ATOM
  1 S       -0.0560    -0.4680    -1.0880 S.o2  1 <1>   1.4470 
  2 O       -0.7480     0.7930    -0.9340 O.2   1 <1>  -0.6500 
  3 O       -0.1910    -1.2080    -2.3250 O.2   1 <1>  -0.6500 
  4 N       -0.5980    -1.4760     0.1590 N.am  1 <1>  -0.8490 
  5 C        1.6980    -0.2370    -0.6870 C.ar  1 <1>  -0.0090 
  6 C       -2.0460    -1.5410     0.2430 C.3   1 <1>   0.1960 
  7 C       -0.1540    -2.8570     0.0660 C.3   1 <1>   0.1960 
  8 C        2.6940    -0.5400    -1.6120 C.ar  1 <1>  -0.1500 
  9 C        2.0800     0.2520     0.5680 C.ar  1 <1>  -0.1500 
 10 C       -2.3260    -2.7560     1.1210 C.3   1 <1>  -0.1600 
 11 C       -1.0580    -3.6060     1.0360 C.3   1 <1>  -0.1600 
 12 C        4.0170    -0.3500    -1.2590 C.ar  1 <1>   0.0820 
 13 C        3.4100     0.4410     0.9130 C.ar  1 <1>  -0.1500 
 14 O        5.1200    -0.5800    -1.9990 O.3   1 <1>  -0.2320 
 15 C        4.3820     0.1310    -0.0230 C.ar  1 <1>   0.1170 
 16 C        6.1690    -0.2490    -1.2420 C.2   1 <1>   0.7800 
 17 N        5.7590     0.1940    -0.0130 N.am  1 <1>  -0.4770 
 18 O        7.3170    -0.3440    -1.6330 O.2   1 <1>  -0.5700 
 19 C        6.6200     0.6610     1.0950 C.3   1 <1>   0.0600 
 20 H       -2.4640    -1.6950    -0.7400 H     1 <1>   0.0800 
 21 H       -2.4490    -0.6350     0.6650 H     1 <1>   0.0800 
 22 H        0.8870    -2.9520     0.3300 H     1 <1>   0.0800 
 23 H       -0.3100    -3.2370    -0.9320 H     1 <1>   0.0800 
 24 H        2.4480    -0.9160    -2.5900 H     1 <1>   0.1500 
 25 H        1.3080     0.4890     1.2840 H     1 <1>   0.1500 
 26 H       -3.1930    -3.2860     0.7680 H     1 <1>   0.0800 
 27 H       -2.4970    -2.4390     2.1350 H     1 <1>   0.0800 
 28 H       -0.5830    -3.6610     2.0000 H     1 <1>   0.0800 
 29 H       -1.2580    -4.6020     0.6850 H     1 <1>   0.0800 
 30 H        3.6860     0.8180     1.8810 H     1 <1>   0.1500 
 31 H        6.4580     0.0460     1.9620 H     1 <1>   0.0800 
 32 H        6.3830     1.6830     1.3300 H     1 <1>   0.0800 
 33 H        7.6550     0.5960     0.8060 H     1 <1>   0.0800 
@<TRIPOS>BOND
  1   1   2  2   
  2   1   3  2   
  3   1   4  am  
  4   1   5  1   
  5   4   6  1   
  6   4   7  1   
  7   5   8  ar  
  8   5   9  ar  
  9   6  10  1   
 10   6  20  1   
 11   6  21  1   
 12   7  11  1   
 13   7  22  1   
 14   7  23  1   
 15   8  12  ar  
 16   8  24  1   
 17   9  13  ar  
 18   9  25  1   
 19  10  11  1   
 20  10  26  1   
 21  10  27  1   
 22  11  28  1   
 23  11  29  1   
 24  12  14  1   
 25  12  15  ar  
 26  13  15  ar  
 27  13  30  1   
 28  14  16  1   
 29  15  17  1   
 30  16  17  am  
 31  16  18  2   
 32  17  19  1   
 33  19  31  1   
 34  19  32  1   
 35  19  33  1   
@<TRIPOS>SUBSTRUCTURE
  1 ****   5 GROUP 4 **** **** 0

# MOE 2024.06 (io_trps.svl 2023.06)
