@<TRIPOS>MOLECULE
NONAME
43 45 1 0 0 
SMALL
USER_CHARGES


@<TRIPOS>ATOM
  1 N        0.0230     0.1230    -0.2100 N.pl3 1 <1>  -0.8380 
  2 C       -1.2170     0.7510    -0.2020 C.ar  1 <1>   0.1000 
  3 C        0.0930    -1.2030     0.4660 C.3   1 <1>   0.2090 
  4 C        1.2070     1.0010     0.0100 C.3   1 <1>   0.2090 
  5 C       -1.7640     1.2690     0.9670 C.ar  1 <1>  -0.1500 
  6 C       -1.9320     0.8700    -1.3850 C.ar  1 <1>  -0.1500 
  7 C        1.4110    -1.9250     0.1120 C.3   1 <1>   0.3430 
  8 C        2.5110     0.2530    -0.3380 C.3   1 <1>   0.3430 
  9 C       -2.9990     1.8910     0.9520 C.ar  1 <1>  -0.1500 
 10 C       -3.1680     1.4910    -1.4050 C.ar  1 <1>  -0.1500 
 11 N        2.6350    -1.0770     0.3770 N.4   1 <1>  -0.9590 
 12 C       -3.7030     2.0020    -0.2350 C.ar  1 <1>  -0.1500 
 13 C        3.8710    -1.8230    -0.0120 C.3   1 <1>   0.3430 
 14 C        5.1440    -1.1340     0.4840 C.3   1 <1>  -0.0170 
 15 C        6.3290    -2.0160     0.1430 C.ar  1 <1>  -0.1430 
 16 C        6.9570    -1.8980    -1.0880 C.ar  1 <1>  -0.1500 
 17 C        6.7890    -2.9540     1.0560 C.ar  1 <1>  -0.1500 
 18 C        8.0280    -2.7160    -1.4060 C.ar  1 <1>  -0.1500 
 19 C        7.8600    -3.7710     0.7370 C.ar  1 <1>  -0.1500 
 20 C        8.4790    -3.6530    -0.4940 C.ar  1 <1>  -0.1500 
 21 H       -0.7420    -1.8050     0.1470 H     1 <1>   0.0800 
 22 H        0.0190    -1.0730     1.5320 H     1 <1>   0.0800 
 23 H        1.2310     1.3280     1.0350 H     1 <1>   0.0800 
 24 H        1.1170     1.8740    -0.6140 H     1 <1>   0.0800 
 25 H       -1.2250     1.1860     1.8910 H     1 <1>   0.1500 
 26 H       -1.5140     0.4720    -2.2910 H     1 <1>   0.1500 
 27 H        1.3730    -2.1840    -0.9340 H     1 <1>   0.0800 
 28 H        1.4690    -2.8410     0.6760 H     1 <1>   0.0800 
 29 H        3.3480     0.8850    -0.0910 H     1 <1>   0.0800 
 30 H        2.5240     0.0900    -1.4030 H     1 <1>   0.0800 
 31 H       -3.4170     2.2890     1.8600 H     1 <1>   0.1500 
 32 H       -3.7140     1.5770    -2.3290 H     1 <1>   0.1500 
 33 H        2.6620    -0.8900     1.3870 H     1 <1>   0.4500 
 34 H       -4.6650     2.4860    -0.2490 H     1 <1>   0.1500 
 35 H        3.9180    -1.9280    -1.0840 H     1 <1>   0.0800 
 36 H        3.8410    -2.8140     0.4120 H     1 <1>   0.0800 
 37 H        5.1020    -0.9920     1.5490 H     1 <1>   0.0800 
 38 H        5.2730    -0.1780     0.0110 H     1 <1>   0.0800 
 39 H        6.6270    -1.1740    -1.8120 H     1 <1>   0.1500 
 40 H        6.3270    -3.0600     2.0220 H     1 <1>   0.1500 
 41 H        8.5150    -2.6230    -2.3620 H     1 <1>   0.1500 
 42 H        8.2160    -4.4980     1.4470 H     1 <1>   0.1500 
 43 H        9.3120    -4.2880    -0.7410 H     1 <1>   0.1500 
@<TRIPOS>BOND
  1   1   2  1   
  2   1   3  1   
  3   1   4  1   
  4   2   5  ar  
  5   2   6  ar  
  6   3   7  1   
  7   3  21  1   
  8   3  22  1   
  9   4   8  1   
 10   4  23  1   
 11   4  24  1   
 12   5   9  ar  
 13   5  25  1   
 14   6  10  ar  
 15   6  26  1   
 16   7  11  1   
 17   7  27  1   
 18   7  28  1   
 19   8  11  1   
 20   8  29  1   
 21   8  30  1   
 22   9  12  ar  
 23   9  31  1   
 24  10  12  ar  
 25  10  32  1   
 26  11  13  1   
 27  11  33  1   
 28  12  34  1   
 29  13  14  1   
 30  13  35  1   
 31  13  36  1   
 32  14  15  1   
 33  14  37  1   
 34  14  38  1   
 35  15  16  ar  
 36  15  17  ar  
 37  16  18  ar  
 38  16  39  1   
 39  17  19  ar  
 40  17  40  1   
 41  18  20  ar  
 42  18  41  1   
 43  19  20  ar  
 44  19  42  1   
 45  20  43  1   
@<TRIPOS>SUBSTRUCTURE
  1 ****  11 GROUP 4 **** **** 0

# MOE 2024.06 (io_trps.svl 2023.06)
