@<TRIPOS>MOLECULE
NONAME
51 53 1 0 0 
SMALL
USER_CHARGES


@<TRIPOS>ATOM
  1 O        1.9050    -0.5510     2.4680 O.2   1 <1>  -0.5700 
  2 C        2.3020    -0.5710     1.3190 C.2   1 <1>   0.5440 
  3 N        2.4930     0.6040     0.6300 N.am  1 <1>  -0.5470 
  4 C        2.5060    -1.8340     0.6500 C.ar  1 <1>   0.0860 
  5 C        2.3770     1.9410     1.0370 C.ar  1 <1>   0.1170 
  6 C        3.7460    -2.2310     0.1360 C.ar  1 <1>   0.0830 
  7 C        1.4310    -2.7100     0.4910 C.ar  1 <1>  -0.1500 
  8 C        1.9230     2.9210     0.1450 C.ar  1 <1>  -0.1440 
  9 C        2.7660     2.3180     2.3160 C.ar  1 <1>  -0.1500 
 10 O        4.8300    -1.4450     0.3020 O.3   1 <1>  -0.3630 
 11 C        3.8900    -3.4490    -0.5170 C.ar  1 <1>  -0.1500 
 12 C        1.5720    -3.9190    -0.1640 C.ar  1 <1>  -0.1500 
 13 C        1.9000     4.2580     0.5390 C.ar  1 <1>  -0.1430 
 14 C        1.4620     2.5230    -1.2610 C.3   1 <1>  -0.0970 
 15 C        2.7280     3.6400     2.7090 C.ar  1 <1>  -0.1500 
 16 C        5.4830    -0.9320    -0.8510 C.3   1 <1>   0.1810 
 17 C        2.8050    -4.2900    -0.6720 C.ar  1 <1>  -0.1500 
 18 C        2.3000     4.6060     1.8200 C.ar  1 <1>  -0.1500 
 19 C        1.4470     5.3740    -0.3940 C.3   1 <1>  -0.0970 
 20 C        5.0720     0.5160    -1.0870 C.2   1 <1>   0.5690 
 21 O        4.2190     0.7150    -1.9220 O.2   1 <1>  -0.5700 
 22 N        5.6240     1.5420    -0.3630 N.am  1 <1>  -0.6600 
 23 C        6.4210     1.3810     0.8890 C.3   1 <1>   0.1400 
 24 C        5.2990     2.9730    -0.6350 C.3   1 <1>   0.1400 
 25 C        7.6440     2.3130     0.8650 C.3   1 <1>   0.1200 
 26 C        6.5750     3.8280    -0.5870 C.3   1 <1>   0.1200 
 27 O        7.2590     3.6370     0.6210 O.3   1 <1>  -0.5600 
 28 H        2.7760     0.5000    -0.3490 H     1 <1>   0.3700 
 29 H        0.4730    -2.4280     0.8940 H     1 <1>   0.1500 
 30 H        3.1070     1.5700     3.0080 H     1 <1>   0.1500 
 31 H        4.8520    -3.7480    -0.8930 H     1 <1>   0.1500 
 32 H        0.7250    -4.5750    -0.2750 H     1 <1>   0.1500 
 33 H        2.2850     2.5920    -1.9480 H     1 <1>   0.0800 
 34 H        0.6690     3.1590    -1.6050 H     1 <1>   0.0800 
 35 H        1.0790     1.5200    -1.2820 H     1 <1>   0.0800 
 36 H        3.0320     3.9150     3.7030 H     1 <1>   0.1500 
 37 H        5.2210    -1.5240    -1.7090 H     1 <1>   0.0800 
 38 H        6.5420    -0.9990    -0.6940 H     1 <1>   0.0800 
 39 H        2.9160    -5.2340    -1.1790 H     1 <1>   0.1500 
 40 H        2.2800     5.6330     2.1380 H     1 <1>   0.1500 
 41 H        0.3850     5.3150    -0.5450 H     1 <1>   0.0800 
 42 H        1.9450     5.2910    -1.3430 H     1 <1>   0.0800 
 43 H        1.6780     6.3390     0.0190 H     1 <1>   0.0800 
 44 H        6.7470     0.3660     1.0200 H     1 <1>   0.0800 
 45 H        5.8010     1.6370     1.7320 H     1 <1>   0.0800 
 46 H        4.6130     3.3310     0.1120 H     1 <1>   0.0800 
 47 H        4.8300     3.0780    -1.5980 H     1 <1>   0.0800 
 48 H        8.3370     2.0110     0.1000 H     1 <1>   0.0800 
 49 H        8.1460     2.2900     1.8160 H     1 <1>   0.0800 
 50 H        6.3230     4.8710    -0.6590 H     1 <1>   0.0800 
 51 H        7.2320     3.5720    -1.4000 H     1 <1>   0.0800 
@<TRIPOS>BOND
  1   1   2  2   
  2   2   3  am  
  3   2   4  1   
  4   3   5  1   
  5   3  28  1   
  6   4   6  ar  
  7   4   7  ar  
  8   5   8  ar  
  9   5   9  ar  
 10   6  10  1   
 11   6  11  ar  
 12   7  12  ar  
 13   7  29  1   
 14   8  13  ar  
 15   8  14  1   
 16   9  15  ar  
 17   9  30  1   
 18  10  16  1   
 19  11  17  ar  
 20  11  31  1   
 21  12  17  ar  
 22  12  32  1   
 23  13  18  ar  
 24  13  19  1   
 25  14  33  1   
 26  14  34  1   
 27  14  35  1   
 28  15  18  ar  
 29  15  36  1   
 30  16  20  1   
 31  16  37  1   
 32  16  38  1   
 33  17  39  1   
 34  18  40  1   
 35  19  41  1   
 36  19  42  1   
 37  19  43  1   
 38  20  21  2   
 39  20  22  am  
 40  22  23  1   
 41  22  24  1   
 42  23  25  1   
 43  23  44  1   
 44  23  45  1   
 45  24  26  1   
 46  24  46  1   
 47  24  47  1   
 48  25  27  1   
 49  25  48  1   
 50  25  49  1   
 51  26  27  1   
 52  26  50  1   
 53  26  51  1   
@<TRIPOS>SUBSTRUCTURE
  1 ****   3 GROUP 4 **** **** 0

# MOE 2024.06 (io_trps.svl 2023.06)
