@<TRIPOS>MOLECULE
NONAME
27 28 1 0 0 
SMALL
USER_CHARGES


@<TRIPOS>ATOM
  1 S       -1.1150     0.6470    -2.7280 S.2   1 <1>  -0.3800 
  2 C       -2.0760     1.1860    -1.5270 C.2   1 <1>   0.5000 
  3 N       -3.3130     0.7320    -1.3710 N.am  1 <1>  -0.7300 
  4 N       -1.7930     2.1030    -0.5870 N.am  1 <1>  -0.1680 
  5 C       -3.9480     1.3170    -0.2120 C.3   1 <1>   0.5700 
  6 N       -2.9830     2.3430     0.2440 N.3   1 <1>  -0.6390 
  7 C       -0.5720     2.7260    -0.2560 C.ar  1 <1>   0.1170 
  8 C       -4.1300     0.2630     0.8660 C.3   1 <1>  -0.2400 
  9 C       -5.2510     1.9820    -0.6220 C.3   1 <1>  -0.2400 
 10 C        0.6320     2.0250    -0.2740 C.ar  1 <1>  -0.1500 
 11 C       -0.5430     4.0690     0.1120 C.ar  1 <1>  -0.1500 
 12 C        1.8240     2.6470     0.0530 C.ar  1 <1>  -0.1500 
 13 C        0.6460     4.6950     0.4410 C.ar  1 <1>  -0.1500 
 14 C        1.8330     3.9840     0.4100 C.ar  1 <1>  -0.1500 
 15 H       -3.7440    -0.0110    -1.9150 H     1 <1>   0.3700 
 16 H       -3.3860     3.2030    -0.1310 H     1 <1>   0.3600 
 17 H       -3.1790    -0.1710     1.1200 H     1 <1>   0.0800 
 18 H       -4.7930    -0.5100     0.5260 H     1 <1>   0.0800 
 19 H       -4.5510     0.7120     1.7470 H     1 <1>   0.0800 
 20 H       -5.0780     2.7010    -1.4030 H     1 <1>   0.0800 
 21 H       -5.6930     2.4750     0.2240 H     1 <1>   0.0800 
 22 H       -5.9440     1.2420    -0.9780 H     1 <1>   0.0800 
 23 H        0.6370     0.9850    -0.5410 H     1 <1>   0.1500 
 24 H       -1.4600     4.6260     0.1410 H     1 <1>   0.1500 
 25 H        2.7440     2.0900     0.0300 H     1 <1>   0.1500 
 26 H        0.6490     5.7330     0.7210 H     1 <1>   0.1500 
 27 H        2.7600     4.4690     0.6630 H     1 <1>   0.1500 
@<TRIPOS>BOND
  1   1   2  2   
  2   2   3  am  
  3   2   4  am  
  4   3   5  1   
  5   3  15  1   
  6   4   6  1   
  7   4   7  1   
  8   5   6  1   
  9   5   8  1   
 10   5   9  1   
 11   6  16  1   
 12   7  10  ar  
 13   7  11  ar  
 14   8  17  1   
 15   8  18  1   
 16   8  19  1   
 17   9  20  1   
 18   9  21  1   
 19   9  22  1   
 20  10  12  ar  
 21  10  23  1   
 22  11  13  ar  
 23  11  24  1   
 24  12  14  ar  
 25  12  25  1   
 26  13  14  ar  
 27  13  26  1   
 28  14  27  1   
@<TRIPOS>SUBSTRUCTURE
  1 ****   4 GROUP 4 **** **** 0

# MOE 2024.06 (io_trps.svl 2023.06)
