@<TRIPOS>MOLECULE
NONAME
44 45 1 0 0 
SMALL
USER_CHARGES


@<TRIPOS>ATOM
  1 O       -2.5740     3.0820     1.6850 O.3   1 <1>  -0.6800 
  2 C       -2.6340     3.2370     0.3140 C.3   1 <1>   0.4240 
  3 C       -2.4480     4.7330    -0.0040 C.ar  1 <1>  -0.1440 
  4 C       -1.5350     2.3550    -0.3180 C.3   1 <1>  -0.0800 
  5 C       -4.0130     2.7010    -0.0860 C.3   1 <1>  -0.1600 
  6 C       -1.7260     5.5680     0.8490 C.ar  1 <1>  -0.1500 
  7 C       -2.9770     5.2950    -1.1640 C.ar  1 <1>  -0.1500 
  8 C       -1.7560     0.8930     0.0850 C.3   1 <1>   0.3430 
  9 C       -0.0970     2.7770     0.0490 C.3   1 <1>  -0.2400 
 10 C       -4.1700     1.2410     0.3280 C.3   1 <1>   0.3430 
 11 C       -1.5620     6.9120     0.5680 C.ar  1 <1>  -0.1500 
 12 C       -2.8130     6.6400    -1.4480 C.ar  1 <1>  -0.1500 
 13 N       -3.1150     0.3990    -0.3270 N.4   1 <1>  -0.9590 
 14 C       -2.1080     7.4510    -0.5810 C.ar  1 <1>  -0.1500 
 15 C       -3.3040    -1.0670    -0.1180 C.3   1 <1>   0.5030 
 16 C       -2.2380    -1.8270    -0.9140 C.3   1 <1>  -0.2400 
 17 C       -3.2050    -1.4370     1.3650 C.3   1 <1>  -0.2400 
 18 C       -4.6760    -1.4760    -0.6640 C.3   1 <1>  -0.2400 
 19 H       -2.8580     3.9270     2.0900 H     1 <1>   0.4000 
 20 H       -1.6180     2.4280    -1.3870 H     1 <1>   0.0800 
 21 H       -4.1600     2.7680    -1.1460 H     1 <1>   0.0800 
 22 H       -4.7770     3.2950     0.3850 H     1 <1>   0.0800 
 23 H       -1.2660     5.1880     1.7450 H     1 <1>   0.1500 
 24 H       -3.5230     4.7080    -1.8770 H     1 <1>   0.1500 
 25 H       -1.6490     0.8100     1.1550 H     1 <1>   0.0800 
 26 H       -0.9870     0.2960    -0.3750 H     1 <1>   0.0800 
 27 H        0.0490     2.7660     1.1150 H     1 <1>   0.0800 
 28 H        0.1100     3.7710    -0.3110 H     1 <1>   0.0800 
 29 H        0.6210     2.1130    -0.4010 H     1 <1>   0.0800 
 30 H       -5.1530     0.9050     0.0420 H     1 <1>   0.0800 
 31 H       -4.0840     1.1640     1.4000 H     1 <1>   0.0800 
 32 H       -1.0050     7.5410     1.2410 H     1 <1>   0.1500 
 33 H       -3.2320     7.0580    -2.3470 H     1 <1>   0.1500 
 34 H       -3.1950     0.5370    -1.3390 H     1 <1>   0.4500 
 35 H       -1.9810     8.4980    -0.8000 H     1 <1>   0.1500 
 36 H       -2.2340    -1.5220    -1.9450 H     1 <1>   0.0800 
 37 H       -2.4450    -2.8820    -0.8870 H     1 <1>   0.0800 
 38 H       -1.2560    -1.6980    -0.4980 H     1 <1>   0.0800 
 39 H       -2.2400    -1.1980     1.7710 H     1 <1>   0.0800 
 40 H       -3.3460    -2.4980     1.4820 H     1 <1>   0.0800 
 41 H       -3.9640    -0.9490     1.9480 H     1 <1>   0.0800 
 42 H       -4.7990    -1.1540    -1.6830 H     1 <1>   0.0800 
 43 H       -5.4800    -1.0890    -0.0650 H     1 <1>   0.0800 
 44 H       -4.7710    -2.5480    -0.6470 H     1 <1>   0.0800 
@<TRIPOS>BOND
  1   1   2  1   
  2   1  19  1   
  3   2   3  1   
  4   2   4  1   
  5   2   5  1   
  6   3   6  ar  
  7   3   7  ar  
  8   4   8  1   
  9   4   9  1   
 10   4  20  1   
 11   5  10  1   
 12   5  21  1   
 13   5  22  1   
 14   6  11  ar  
 15   6  23  1   
 16   7  12  ar  
 17   7  24  1   
 18   8  13  1   
 19   8  25  1   
 20   8  26  1   
 21   9  27  1   
 22   9  28  1   
 23   9  29  1   
 24  10  13  1   
 25  10  30  1   
 26  10  31  1   
 27  11  14  ar  
 28  11  32  1   
 29  12  14  ar  
 30  12  33  1   
 31  13  15  1   
 32  13  34  1   
 33  14  35  1   
 34  15  16  1   
 35  15  17  1   
 36  15  18  1   
 37  16  36  1   
 38  16  37  1   
 39  16  38  1   
 40  17  39  1   
 41  17  40  1   
 42  17  41  1   
 43  18  42  1   
 44  18  43  1   
 45  18  44  1   
@<TRIPOS>SUBSTRUCTURE
  1 ****   2 GROUP 4 **** **** 0

# MOE 2024.06 (io_trps.svl 2023.06)
