@<TRIPOS>MOLECULE
NONAME
40 41 1 0 0 
SMALL
USER_CHARGES


@<TRIPOS>ATOM
  1 O        0.1590    -0.9070    -0.8160 O.2   1 <1>  -0.5700 
  2 C       -0.0790    -2.0740    -1.0580 C.2   1 <1>   0.5440 
  3 N        0.9950    -2.9310    -1.1500 N.am  1 <1>  -0.6600 
  4 C       -1.4460    -2.5530    -1.1640 C.ar  1 <1>   0.0860 
  5 C        2.3460    -2.3680    -1.4390 C.3   1 <1>   0.1400 
  6 C        1.0390    -4.1390    -0.2780 C.3   1 <1>   0.1400 
  7 C       -2.4570    -2.0170    -0.3700 C.ar  1 <1>  -0.1500 
  8 C       -1.7960    -3.5730    -2.0510 C.ar  1 <1>  -0.1500 
  9 C        3.0430    -2.0000    -0.1170 C.3   1 <1>   0.3430 
 10 C        1.7600    -3.8010     1.0450 C.3   1 <1>   0.3430 
 11 C       -3.7570    -2.4850    -0.4320 C.ar  1 <1>   0.0830 
 12 C       -3.0930    -4.0470    -2.1270 C.ar  1 <1>  -0.1500 
 13 N        3.1200    -3.1790     0.8270 N.4   1 <1>  -0.9590 
 14 O       -4.6520    -1.8980     0.3980 O.3   1 <1>  -0.3620 
 15 C       -4.0770    -3.5090    -1.3180 C.ar  1 <1>  -0.1500 
 16 C        3.7270    -2.7660     2.1270 C.3   1 <1>   0.2630 
 17 C       -6.0220    -2.2240     0.3540 C.3   1 <1>   0.2580 
 18 C       -6.7430    -1.3660     1.3750 C.2   1 <1>  -0.2880 
 19 C       -7.5010    -1.8220     2.3770 C.2   1 <1>  -0.3000 
 20 H        2.2500    -1.4860    -2.0510 H     1 <1>   0.0800 
 21 H        2.9320    -3.0850    -1.9870 H     1 <1>   0.0800 
 22 H        1.5530    -4.9350    -0.7890 H     1 <1>   0.0800 
 23 H        0.0410    -4.4800    -0.0610 H     1 <1>   0.0800 
 24 H       -2.2280    -1.2170     0.3110 H     1 <1>   0.1500 
 25 H       -1.0420    -3.9950    -2.6920 H     1 <1>   0.1500 
 26 H        2.4810    -1.2010     0.3420 H     1 <1>   0.0800 
 27 H        4.0320    -1.6290    -0.3280 H     1 <1>   0.0800 
 28 H        1.8580    -4.6980     1.6340 H     1 <1>   0.0800 
 29 H        1.1380    -3.1130     1.5960 H     1 <1>   0.0800 
 30 H       -3.3390    -4.8350    -2.8190 H     1 <1>   0.1500 
 31 H        3.7220    -3.8880     0.3870 H     1 <1>   0.4500 
 32 H       -5.0750    -3.8970    -1.3940 H     1 <1>   0.1500 
 33 H        3.1150    -2.0170     2.6040 H     1 <1>   0.0800 
 34 H        4.7110    -2.3560     1.9690 H     1 <1>   0.0800 
 35 H        3.8120    -3.6140     2.7880 H     1 <1>   0.0800 
 36 H       -6.1330    -3.2690     0.5860 H     1 <1>   0.0800 
 37 H       -6.3890    -2.0190    -0.6370 H     1 <1>   0.0800 
 38 H       -6.5730    -0.3160     1.2070 H     1 <1>   0.1500 
 39 H       -7.9980    -1.1850     3.0880 H     1 <1>   0.1500 
 40 H       -7.6880    -2.8640     2.5760 H     1 <1>   0.1500 
@<TRIPOS>BOND
  1   1   2  2   
  2   2   3  am  
  3   2   4  1   
  4   3   5  1   
  5   3   6  1   
  6   4   7  ar  
  7   4   8  ar  
  8   5   9  1   
  9   5  20  1   
 10   5  21  1   
 11   6  10  1   
 12   6  22  1   
 13   6  23  1   
 14   7  11  ar  
 15   7  24  1   
 16   8  12  ar  
 17   8  25  1   
 18   9  13  1   
 19   9  26  1   
 20   9  27  1   
 21  10  13  1   
 22  10  28  1   
 23  10  29  1   
 24  11  14  1   
 25  11  15  ar  
 26  12  15  ar  
 27  12  30  1   
 28  13  16  1   
 29  13  31  1   
 30  14  17  1   
 31  15  32  1   
 32  16  33  1   
 33  16  34  1   
 34  16  35  1   
 35  17  18  1   
 36  17  36  1   
 37  17  37  1   
 38  18  19  2   
 39  18  38  1   
 40  19  39  1   
 41  19  40  1   
@<TRIPOS>SUBSTRUCTURE
  1 ****   4 GROUP 4 **** **** 0

# MOE 2024.06 (io_trps.svl 2023.06)
