@<TRIPOS>MOLECULE
NONAME
45 46 1 0 0 
SMALL
USER_CHARGES


@<TRIPOS>ATOM
  1 O       -0.0750     0.3520     0.0140 O.3   1 <1>  -0.3630 
  2 C        1.1550     0.9180     0.1410 C.ar  1 <1>   0.0830 
  3 C       -1.2550     1.1110     0.1000 C.3   1 <1>   0.1200 
  4 C        2.2670     0.0820     0.0810 C.ar  1 <1>  -0.1440 
  5 C        1.3350     2.2890     0.3260 C.ar  1 <1>  -0.1500 
  6 C       -2.4290     0.1450    -0.0580 C.3   1 <1>  -0.1600 
  7 C        3.5380     0.6240     0.2050 C.ar  1 <1>  -0.1500 
  8 C        2.1300    -1.4210    -0.1160 C.3   1 <1>   0.2640 
  9 C        2.6080     2.8150     0.4490 C.ar  1 <1>  -0.1500 
 10 C       -3.7600     0.8890     0.0430 C.3   1 <1>   0.3430 
 11 C        3.7100     1.9830     0.3890 C.ar  1 <1>  -0.1500 
 12 O        2.6710    -1.7430    -1.3460 O.3   1 <1>  -0.6800 
 13 N       -4.8980    -0.0350    -0.2230 N.4   1 <1>  -0.9590 
 14 C       -6.1480     0.7350    -0.4940 C.3   1 <1>   0.3430 
 15 C       -5.1020    -1.0250     0.8800 C.3   1 <1>   0.3430 
 16 C       -7.2650    -0.2200    -0.9140 C.3   1 <1>  -0.1600 
 17 C       -6.1990    -2.0150     0.4890 C.3   1 <1>  -0.1600 
 18 C       -7.5140    -1.3010     0.1470 C.3   1 <1>  -0.0800 
 19 C       -8.5650    -2.3050    -0.3390 C.3   1 <1>  -0.2400 
 20 H       -1.2420     1.8440    -0.6900 H     1 <1>   0.0800 
 21 H       -1.2730     1.5940     1.0620 H     1 <1>   0.0800 
 22 H        0.5060     2.9660     0.3760 H     1 <1>   0.1500 
 23 H       -2.3560    -0.5960     0.7160 H     1 <1>   0.0800 
 24 H       -2.3500    -0.3290    -1.0210 H     1 <1>   0.0800 
 25 H        4.4010    -0.0190     0.1550 H     1 <1>   0.1500 
 26 H        1.1040    -1.7430    -0.1080 H     1 <1>   0.0800 
 27 H        2.6720    -1.9610     0.6410 H     1 <1>   0.0800 
 28 H        2.7430     3.8740     0.5920 H     1 <1>   0.1500 
 29 H       -3.7670     1.6830    -0.6870 H     1 <1>   0.0800 
 30 H       -3.8630     1.3310     1.0210 H     1 <1>   0.0800 
 31 H        4.7020     2.3920     0.4840 H     1 <1>   0.1500 
 32 H        2.4430    -1.0330    -1.9770 H     1 <1>   0.4000 
 33 H       -4.6860    -0.5720    -1.0750 H     1 <1>   0.4500 
 34 H       -5.9790     1.4530    -1.2810 H     1 <1>   0.0800 
 35 H       -6.4490     1.2690     0.3940 H     1 <1>   0.0800 
 36 H       -5.3870    -0.5110     1.7840 H     1 <1>   0.0800 
 37 H       -4.1910    -1.5670     1.0710 H     1 <1>   0.0800 
 38 H       -7.0090    -0.6740    -1.8570 H     1 <1>   0.0800 
 39 H       -8.1670     0.3460    -1.0650 H     1 <1>   0.0800 
 40 H       -6.3650    -2.6910     1.3110 H     1 <1>   0.0800 
 41 H       -5.8650    -2.6040    -0.3480 H     1 <1>   0.0800 
 42 H       -7.8920    -0.8270     1.0400 H     1 <1>   0.0800 
 43 H       -8.2360    -2.8080    -1.2320 H     1 <1>   0.0800 
 44 H       -9.4920    -1.8030    -0.5540 H     1 <1>   0.0800 
 45 H       -8.7550    -3.0450     0.4180 H     1 <1>   0.0800 
@<TRIPOS>BOND
  1   1   2  1   
  2   1   3  1   
  3   2   4  ar  
  4   2   5  ar  
  5   3   6  1   
  6   3  20  1   
  7   3  21  1   
  8   4   7  ar  
  9   4   8  1   
 10   5   9  ar  
 11   5  22  1   
 12   6  10  1   
 13   6  23  1   
 14   6  24  1   
 15   7  11  ar  
 16   7  25  1   
 17   8  12  1   
 18   8  26  1   
 19   8  27  1   
 20   9  11  ar  
 21   9  28  1   
 22  10  13  1   
 23  10  29  1   
 24  10  30  1   
 25  11  31  1   
 26  12  32  1   
 27  13  14  1   
 28  13  15  1   
 29  13  33  1   
 30  14  16  1   
 31  14  34  1   
 32  14  35  1   
 33  15  17  1   
 34  15  36  1   
 35  15  37  1   
 36  16  18  1   
 37  16  38  1   
 38  16  39  1   
 39  17  18  1   
 40  17  40  1   
 41  17  41  1   
 42  18  19  1   
 43  18  42  1   
 44  19  43  1   
 45  19  44  1   
 46  19  45  1   
@<TRIPOS>SUBSTRUCTURE
  1 ****   6 GROUP 4 **** **** 0

# MOE 2024.06 (io_trps.svl 2023.06)
