@<TRIPOS>MOLECULE
NONAME
47 49 1 0 0 
SMALL
USER_CHARGES


@<TRIPOS>ATOM
  1 O        0.6160     0.0410     0.6260 O.2   1 <1>  -0.5700 
  2 C        0.3610     0.6410    -0.4040 C.2   1 <1>   0.7800 
  3 O       -0.8720     1.0710    -0.6840 O.3   1 <1>  -0.4300 
  4 N        1.2990     0.8950    -1.3510 N.am  1 <1>  -0.4300 
  5 C       -2.0140     0.9620     0.1400 C.3   1 <1>   0.2800 
  6 N        2.7540     0.7330    -1.1860 N.am  1 <1>  -0.4300 
  7 C       -2.3690    -0.5130     0.3640 C.3   1 <1>  -0.2400 
  8 C       -1.7940     1.7190     1.4550 C.3   1 <1>  -0.2400 
  9 C       -3.1390     1.6370    -0.6470 C.3   1 <1>  -0.2400 
 10 C        3.6070     1.7120    -0.7740 C.2   1 <1>   0.5690 
 11 O        3.2480     2.8720    -0.7210 O.2   1 <1>  -0.5700 
 12 C        5.0490     1.3220    -0.3860 C.3   1 <1>   0.0610 
 13 C        5.0340     0.3110     0.7900 C.3   1 <1>  -0.1600 
 14 C        5.8800     2.5560     0.0590 C.3   1 <1>  -0.1600 
 15 C        5.7780     0.6670    -1.5880 C.3   1 <1>  -0.1600 
 16 C        6.4650    -0.1050     1.1800 C.3   1 <1>  -0.0800 
 17 C        7.3140     2.1530     0.4480 C.3   1 <1>  -0.0800 
 18 C        7.2110     0.2520    -1.2050 C.3   1 <1>  -0.0800 
 19 C        7.2570     1.1430     1.6080 C.3   1 <1>  -0.1600 
 20 C        7.1540    -0.7510    -0.0370 C.3   1 <1>  -0.1600 
 21 C        8.0000     1.4980    -0.7650 C.3   1 <1>  -0.1600 
 22 H        0.9890     1.4370    -2.1600 H     1 <1>   0.3700 
 23 H        3.1000    -0.2300    -1.2270 H     1 <1>   0.3700 
 24 H       -1.6350    -1.0020     0.9760 H     1 <1>   0.0800 
 25 H       -2.4470    -1.0270    -0.5770 H     1 <1>   0.0800 
 26 H       -3.3140    -0.5880     0.8710 H     1 <1>   0.0800 
 27 H       -1.0590     1.2300     2.0670 H     1 <1>   0.0800 
 28 H       -2.7100     1.7540     2.0150 H     1 <1>   0.0800 
 29 H       -1.4760     2.7260     1.2580 H     1 <1>   0.0800 
 30 H       -3.2920     1.1350    -1.5850 H     1 <1>   0.0800 
 31 H       -2.8960     2.6670    -0.8350 H     1 <1>   0.0800 
 32 H       -4.0570     1.6020    -0.0900 H     1 <1>   0.0800 
 33 H        4.4740    -0.5680     0.5240 H     1 <1>   0.0800 
 34 H        4.5450     0.7570     1.6400 H     1 <1>   0.0800 
 35 H        5.4000     3.0300     0.8980 H     1 <1>   0.0800 
 36 H        5.9130     3.2780    -0.7390 H     1 <1>   0.0800 
 37 H        5.2420    -0.2030    -1.9230 H     1 <1>   0.0800 
 38 H        5.8130     1.3630    -2.4090 H     1 <1>   0.0800 
 39 H        6.4300    -0.8090     1.9950 H     1 <1>   0.0800 
 40 H        7.8670     3.0260     0.7520 H     1 <1>   0.0800 
 41 H        7.6980    -0.2040    -2.0510 H     1 <1>   0.0800 
 42 H        8.2550     0.8610     1.8950 H     1 <1>   0.0800 
 43 H        6.7880     1.5970     2.4630 H     1 <1>   0.0800 
 44 H        6.6150    -1.6330    -0.3370 H     1 <1>   0.0800 
 45 H        8.1510    -1.0540     0.2300 H     1 <1>   0.0800 
 46 H        9.0070     1.2200    -0.5060 H     1 <1>   0.0800 
 47 H        8.0540     2.2020    -1.5770 H     1 <1>   0.0800 
@<TRIPOS>BOND
  1   1   2  2   
  2   2   3  1   
  3   2   4  am  
  4   3   5  1   
  5   4   6  1   
  6   4  22  1   
  7   5   7  1   
  8   5   8  1   
  9   5   9  1   
 10   6  10  am  
 11   6  23  1   
 12   7  24  1   
 13   7  25  1   
 14   7  26  1   
 15   8  27  1   
 16   8  28  1   
 17   8  29  1   
 18   9  30  1   
 19   9  31  1   
 20   9  32  1   
 21  10  11  2   
 22  10  12  1   
 23  12  13  1   
 24  12  14  1   
 25  12  15  1   
 26  13  16  1   
 27  13  33  1   
 28  13  34  1   
 29  14  17  1   
 30  14  35  1   
 31  14  36  1   
 32  15  18  1   
 33  15  37  1   
 34  15  38  1   
 35  16  19  1   
 36  16  20  1   
 37  16  39  1   
 38  17  19  1   
 39  17  21  1   
 40  17  40  1   
 41  18  20  1   
 42  18  21  1   
 43  18  41  1   
 44  19  42  1   
 45  19  43  1   
 46  20  44  1   
 47  20  45  1   
 48  21  46  1   
 49  21  47  1   
@<TRIPOS>SUBSTRUCTURE
  1 ****  10 GROUP 4 **** **** 0

# MOE 2024.06 (io_trps.svl 2023.06)
