@<TRIPOS>MOLECULE
NONAME
32 33 1 0 0 
SMALL
USER_CHARGES


@<TRIPOS>ATOM
  1 O        0.3060    -0.4700    -1.4040 O.2   1 <1>  -0.5700 
  2 C        0.7320    -1.4400    -0.8030 C.2   1 <1>   0.7160 
  3 N        1.9920    -1.3750    -0.2360 N.am  1 <1>  -0.6600 
  4 C       -0.1090    -2.6090    -0.6820 C.2   1 <1>  -0.0860 
  5 C        2.8170    -0.1520    -0.4720 C.3   1 <1>   0.1400 
  6 C        2.4200    -2.3180     0.8360 C.3   1 <1>   0.1400 
  7 C       -1.3790    -2.7030    -0.1980 C.2   1 <1>  -0.0400 
  8 C        0.2110    -3.9310    -1.0580 C.2   1 <1>  -0.1500 
  9 C        4.3000    -0.2660    -0.0900 C.3   1 <1>  -0.1600 
 10 C        3.4680    -3.3040     0.3080 C.3   1 <1>  -0.1600 
 11 O       -1.8140    -3.9390    -0.2390 O.3   1 <1>  -0.2800 
 12 C       -2.3030    -1.6340     0.3490 C.3   1 <1>  -0.0600 
 13 C       -0.8650    -4.6850    -0.7590 C.2   1 <1>  -0.0100 
 14 C        5.0140    -1.4940    -0.6730 C.3   1 <1>  -0.1600 
 15 C        4.8900    -2.7320     0.2240 C.3   1 <1>  -0.1600 
 16 H        2.3760     0.6670     0.0700 H     1 <1>   0.0800 
 17 H        2.7590     0.0920    -1.5200 H     1 <1>   0.0800 
 18 H        1.5690    -2.8730     1.1930 H     1 <1>   0.0800 
 19 H        2.8080    -1.7700     1.6770 H     1 <1>   0.0800 
 20 H        1.1380    -4.2380    -1.5050 H     1 <1>   0.1500 
 21 H        4.4100    -0.2340     0.9790 H     1 <1>   0.0800 
 22 H        4.7870     0.6150    -0.4700 H     1 <1>   0.0800 
 23 H        3.1700    -3.6660    -0.6580 H     1 <1>   0.0800 
 24 H        3.4930    -4.1490     0.9730 H     1 <1>   0.0800 
 25 H       -1.8240    -0.6720     0.3250 H     1 <1>   0.0800 
 26 H       -2.5710    -1.8680     1.3620 H     1 <1>   0.0800 
 27 H       -3.1950    -1.5910    -0.2480 H     1 <1>   0.0800 
 28 H       -1.0430    -5.7390    -0.8840 H     1 <1>   0.1500 
 29 H        6.0610    -1.2620    -0.7670 H     1 <1>   0.0800 
 30 H        4.6420    -1.7090    -1.6610 H     1 <1>   0.0800 
 31 H        5.5380    -3.4990    -0.1630 H     1 <1>   0.0800 
 32 H        5.2390    -2.4920     1.2140 H     1 <1>   0.0800 
@<TRIPOS>BOND
  1   1   2  2   
  2   2   3  am  
  3   2   4  1   
  4   3   5  1   
  5   3   6  1   
  6   4   7  2   
  7   4   8  1   
  8   5   9  1   
  9   5  16  1   
 10   5  17  1   
 11   6  10  1   
 12   6  18  1   
 13   6  19  1   
 14   7  11  1   
 15   7  12  1   
 16   8  13  2   
 17   8  20  1   
 18   9  14  1   
 19   9  21  1   
 20   9  22  1   
 21  10  15  1   
 22  10  23  1   
 23  10  24  1   
 24  11  13  1   
 25  12  25  1   
 26  12  26  1   
 27  12  27  1   
 28  13  28  1   
 29  14  15  1   
 30  14  29  1   
 31  14  30  1   
 32  15  31  1   
 33  15  32  1   
@<TRIPOS>SUBSTRUCTURE
  1 ****   2 GROUP 4 **** **** 0

# MOE 2024.06 (io_trps.svl 2023.06)
