@<TRIPOS>MOLECULE
NONAME
43 44 1 0 0 
SMALL
USER_CHARGES


@<TRIPOS>ATOM
  1 O        0.8870     0.7480    -0.5630 O.2   1 <1>  -0.5700 
  2 C        0.3540     1.7070    -1.0660 C.2   1 <1>   0.5690 
  3 N        0.2300     2.9000    -0.4050 N.am  1 <1>  -0.6600 
  4 C       -0.1910     1.5420    -2.4670 C.3   1 <1>  -0.1790 
  5 C       -0.5010     4.0790    -0.9510 C.3   1 <1>   0.2780 
  6 C        0.7430     3.0540     0.9870 C.3   1 <1>   0.1400 
  7 C       -1.9880     4.0510    -0.6190 C.2   1 <1>  -0.1240 
  8 C        2.2540     3.3530     1.0130 C.3   1 <1>  -0.0800 
  9 C       -2.7300     5.1810    -1.0890 C.2   1 <1>   0.6160 
 10 C       -2.6210     3.0600     0.0660 C.2   1 <1>  -0.1780 
 11 C        2.7440     3.4230     2.4650 C.3   1 <1>  -0.2400 
 12 C        2.6220     4.6570     0.2880 C.3   1 <1>  -0.2400 
 13 O       -2.2280     6.0990    -1.7120 O.2   1 <1>  -0.5700 
 14 N       -4.0650     5.2330    -0.8300 N.am  1 <1>  -0.5470 
 15 C       -4.0270     3.1260     0.3280 C.ar  1 <1>   0.0280 
 16 C       -4.7460     4.2400    -0.1350 C.ar  1 <1>   0.1170 
 17 C       -4.7140     2.1300     1.0240 C.ar  1 <1>  -0.1500 
 18 C       -6.1140     4.3320     0.1070 C.ar  1 <1>  -0.1500 
 19 C       -6.0690     2.2350     1.2550 C.ar  1 <1>  -0.1500 
 20 C       -6.7780     3.3390     0.7970 C.ar  1 <1>  -0.1440 
 21 C       -8.2700     3.4320     1.0650 C.3   1 <1>  -0.0970 
 22 H        0.3390     2.1870    -3.1420 H     1 <1>   0.0800 
 23 H       -1.2390     1.7720    -2.4850 H     1 <1>   0.0800 
 24 H       -0.0580     0.5250    -2.7880 H     1 <1>   0.0800 
 25 H       -0.3760     4.1260    -2.0190 H     1 <1>   0.0800 
 26 H       -0.0700     4.9800    -0.5480 H     1 <1>   0.0800 
 27 H        0.5600     2.1380     1.5250 H     1 <1>   0.0800 
 28 H        0.2040     3.8370     1.4910 H     1 <1>   0.0800 
 29 H        2.7640     2.5340     0.5330 H     1 <1>   0.0800 
 30 H       -2.1020     2.1930     0.4360 H     1 <1>   0.1500 
 31 H        2.2630     4.2280     2.9930 H     1 <1>   0.0800 
 32 H        3.8080     3.5820     2.4930 H     1 <1>   0.0800 
 33 H        2.5310     2.5000     2.9750 H     1 <1>   0.0800 
 34 H        2.0940     5.4920     0.7130 H     1 <1>   0.0800 
 35 H        2.3800     4.5860    -0.7570 H     1 <1>   0.0800 
 36 H        3.6790     4.8410     0.3680 H     1 <1>   0.0800 
 37 H       -4.5500     6.0560    -1.1820 H     1 <1>   0.3700 
 38 H       -4.1740     1.2720     1.3820 H     1 <1>   0.1500 
 39 H       -6.6490     5.1910    -0.2540 H     1 <1>   0.1500 
 40 H       -6.5820     1.4570     1.7940 H     1 <1>   0.1500 
 41 H       -8.6810     4.3370     0.6550 H     1 <1>   0.0800 
 42 H       -8.4530     3.4230     2.1240 H     1 <1>   0.0800 
 43 H       -8.7750     2.5940     0.6180 H     1 <1>   0.0800 
@<TRIPOS>BOND
  1   1   2  2   
  2   2   3  am  
  3   2   4  1   
  4   3   5  1   
  5   3   6  1   
  6   4  22  1   
  7   4  23  1   
  8   4  24  1   
  9   5   7  1   
 10   5  25  1   
 11   5  26  1   
 12   6   8  1   
 13   6  27  1   
 14   6  28  1   
 15   7   9  1   
 16   7  10  2   
 17   8  11  1   
 18   8  12  1   
 19   8  29  1   
 20   9  13  2   
 21   9  14  am  
 22  10  15  1   
 23  10  30  1   
 24  11  31  1   
 25  11  32  1   
 26  11  33  1   
 27  12  34  1   
 28  12  35  1   
 29  12  36  1   
 30  14  16  1   
 31  14  37  1   
 32  15  16  ar  
 33  15  17  ar  
 34  16  18  ar  
 35  17  19  ar  
 36  17  38  1   
 37  18  20  ar  
 38  18  39  1   
 39  19  20  ar  
 40  19  40  1   
 41  20  21  1   
 42  21  41  1   
 43  21  42  1   
 44  21  43  1   
@<TRIPOS>SUBSTRUCTURE
  1 ****  10 GROUP 4 **** **** 0

# MOE 2024.06 (io_trps.svl 2023.06)
