@<TRIPOS>MOLECULE
NONAME
47 49 1 0 0 
SMALL
USER_CHARGES


@<TRIPOS>ATOM
  1 F       -1.7650    -1.1070    -2.2180 F     1 <1>  -0.1900 
  2 C       -2.8430    -0.7960    -1.5420 C.ar  1 <1>   0.1900 
  3 C       -4.0560    -0.7610    -2.2030 C.ar  1 <1>  -0.1500 
  4 C       -2.7260    -0.5140    -0.1940 C.ar  1 <1>  -0.1500 
  5 C       -5.1910    -0.4320    -1.4820 C.ar  1 <1>  -0.1500 
  6 C       -3.8710    -0.1870     0.5120 C.ar  1 <1>  -0.1500 
  7 C       -5.1080    -0.1420    -0.1210 C.ar  1 <1>   0.1000 
  8 N       -6.2370     0.1880     0.6180 N.pl3 1 <1>  -0.8380 
  9 C       -6.9200     1.4640     0.2380 C.3   1 <1>   0.2090 
 10 C       -7.2050    -0.9240     0.8570 C.3   1 <1>   0.2090 
 11 C       -7.9660     1.8640     1.2910 C.3   1 <1>   0.1400 
 12 C       -8.2650    -0.5300     1.9040 C.3   1 <1>   0.1400 
 13 N       -8.9390     0.7520     1.5290 N.am  1 <1>  -0.6600 
 14 C      -10.1690     0.7770     0.9310 C.2   1 <1>   0.6900 
 15 O      -10.3850     1.5340     0.0040 O.2   1 <1>  -0.5700 
 16 N      -11.1360    -0.0540     1.4170 N.am  1 <1>  -0.5470 
 17 C      -12.4170    -0.3670     0.9380 C.ar  1 <1>   0.1170 
 18 C      -13.3700    -0.8430     1.8310 C.ar  1 <1>  -0.1500 
 19 C      -12.7700    -0.2430    -0.4020 C.ar  1 <1>  -0.1500 
 20 C      -14.6400    -1.1810     1.3990 C.ar  1 <1>  -0.1500 
 21 C      -14.0390    -0.5780    -0.8400 C.ar  1 <1>  -0.1500 
 22 C      -14.9850    -1.0520     0.0640 C.ar  1 <1>   0.0830 
 23 O      -16.2520    -1.4050    -0.2770 O.3   1 <1>  -0.3620 
 24 C      -16.7090    -1.2630    -1.6010 C.3   1 <1>   0.1200 
 25 C      -18.1650    -1.7160    -1.6500 C.3   1 <1>  -0.2400 
 26 H       -4.1060    -0.9870    -3.2520 H     1 <1>   0.1500 
 27 H       -1.7650    -0.5510     0.2850 H     1 <1>   0.1500 
 28 H       -6.1470    -0.3970    -1.9700 H     1 <1>   0.1500 
 29 H       -3.8200     0.0400     1.5610 H     1 <1>   0.1500 
 30 H       -7.4090     1.3480    -0.7140 H     1 <1>   0.0800 
 31 H       -6.1870     2.2460     0.1460 H     1 <1>   0.0800 
 32 H       -6.6690    -1.7920     1.1990 H     1 <1>   0.0800 
 33 H       -7.6970    -1.1770    -0.0660 H     1 <1>   0.0800 
 34 H       -8.4830     2.7500     0.9640 H     1 <1>   0.0800 
 35 H       -7.4630     2.0980     2.2130 H     1 <1>   0.0800 
 36 H       -7.7830    -0.4090     2.8590 H     1 <1>   0.0800 
 37 H       -8.9800    -1.3270     1.9890 H     1 <1>   0.0800 
 38 H      -10.9230    -0.3850     2.3510 H     1 <1>   0.3700 
 39 H      -13.1240    -0.9470     2.8710 H     1 <1>   0.1500 
 40 H      -12.0490     0.1180    -1.1120 H     1 <1>   0.1500 
 41 H      -15.3750    -1.5460     2.0930 H     1 <1>   0.1500 
 42 H      -14.2660    -0.4630    -1.8820 H     1 <1>   0.1500 
 43 H      -16.0980    -1.8780    -2.2400 H     1 <1>   0.0800 
 44 H      -16.6220    -0.2280    -1.8830 H     1 <1>   0.0800 
 45 H      -18.2410    -2.7460    -1.3500 H     1 <1>   0.0800 
 46 H      -18.5430    -1.6200    -2.6510 H     1 <1>   0.0800 
 47 H      -18.7620    -1.1060    -0.9960 H     1 <1>   0.0800 
@<TRIPOS>BOND
  1   1   2  1   
  2   2   3  ar  
  3   2   4  ar  
  4   3   5  ar  
  5   3  26  1   
  6   4   6  ar  
  7   4  27  1   
  8   5   7  ar  
  9   5  28  1   
 10   6   7  ar  
 11   6  29  1   
 12   7   8  1   
 13   8   9  1   
 14   8  10  1   
 15   9  11  1   
 16   9  30  1   
 17   9  31  1   
 18  10  12  1   
 19  10  32  1   
 20  10  33  1   
 21  11  13  1   
 22  11  34  1   
 23  11  35  1   
 24  12  13  1   
 25  12  36  1   
 26  12  37  1   
 27  13  14  am  
 28  14  15  2   
 29  14  16  am  
 30  16  17  1   
 31  16  38  1   
 32  17  18  ar  
 33  17  19  ar  
 34  18  20  ar  
 35  18  39  1   
 36  19  21  ar  
 37  19  40  1   
 38  20  22  ar  
 39  20  41  1   
 40  21  22  ar  
 41  21  42  1   
 42  22  23  1   
 43  23  24  1   
 44  24  25  1   
 45  24  43  1   
 46  24  44  1   
 47  25  45  1   
 48  25  46  1   
 49  25  47  1   
@<TRIPOS>SUBSTRUCTURE
  1 ****  14 GROUP 4 **** **** 0

# MOE 2024.06 (io_trps.svl 2023.06)
