@<TRIPOS>MOLECULE
NONAME
34 35 1 0 0 
SMALL
USER_CHARGES


@<TRIPOS>ATOM
  1 F       -1.3530     0.9030     1.3950 F     1 <1>  -0.1900 
  2 C       -0.7990     1.9450     0.8330 C.ar  1 <1>   0.1900 
  3 C       -1.4070     2.5330    -0.2710 C.ar  1 <1>  -0.1440 
  4 C        0.3920     2.4070     1.3730 C.ar  1 <1>  -0.1500 
  5 C       -0.7750     3.6240    -0.8560 C.ar  1 <1>  -0.1500 
  6 C       -2.7180     2.0000    -0.8310 C.3   1 <1>   0.2540 
  7 C        1.0110     3.4990     0.7880 C.ar  1 <1>  -0.1500 
  8 C        0.4140     4.0830    -0.3150 C.ar  1 <1>   0.1900 
  9 N       -3.8670     2.5050    -0.0630 N.3   1 <1>  -0.8100 
 10 F        0.9960     5.1120    -0.8710 F     1 <1>  -0.1900 
 11 C       -4.0530     3.9670    -0.2170 C.3   1 <1>   0.1100 
 12 C       -5.1010     1.7830    -0.4300 C.3   1 <1>   0.1100 
 13 C       -5.2440     4.4840     0.6060 C.3   1 <1>   0.1400 
 14 C       -6.3080     2.2530     0.4000 C.3   1 <1>   0.1400 
 15 N       -6.4890     3.7300     0.2730 N.am  1 <1>  -0.6600 
 16 C       -7.6240     4.3700    -0.1450 C.2   1 <1>   0.5690 
 17 O       -7.6760     5.5680    -0.2840 O.2   1 <1>  -0.5700 
 18 C       -8.8770     3.5840    -0.4540 C.3   1 <1>  -0.1790 
 19 H        0.8180     1.9170     2.2300 H     1 <1>   0.1500 
 20 H       -1.1940     4.1180    -1.7140 H     1 <1>   0.1500 
 21 H       -2.7010     0.9240    -0.7790 H     1 <1>   0.0800 
 22 H       -2.8210     2.2780    -1.8660 H     1 <1>   0.0800 
 23 H        1.9350     3.8910     1.1740 H     1 <1>   0.1500 
 24 H       -4.2140     4.2110    -1.2530 H     1 <1>   0.0800 
 25 H       -3.1710     4.4820     0.1180 H     1 <1>   0.0800 
 26 H       -4.9590     0.7290    -0.2610 H     1 <1>   0.0800 
 27 H       -5.3150     1.9300    -1.4750 H     1 <1>   0.0800 
 28 H       -5.3750     5.5350     0.4170 H     1 <1>   0.0800 
 29 H       -5.0280     4.3620     1.6530 H     1 <1>   0.0800 
 30 H       -6.1370     2.0090     1.4340 H     1 <1>   0.0800 
 31 H       -7.1850     1.7240     0.0750 H     1 <1>   0.0800 
 32 H       -8.7020     2.9350    -1.2900 H     1 <1>   0.0800 
 33 H       -9.6750     4.2600    -0.7030 H     1 <1>   0.0800 
 34 H       -9.1690     3.0100     0.4040 H     1 <1>   0.0800 
@<TRIPOS>BOND
  1   1   2  1   
  2   2   3  ar  
  3   2   4  ar  
  4   3   5  ar  
  5   3   6  1   
  6   4   7  ar  
  7   4  19  1   
  8   5   8  ar  
  9   5  20  1   
 10   6   9  1   
 11   6  21  1   
 12   6  22  1   
 13   7   8  ar  
 14   7  23  1   
 15   8  10  1   
 16   9  11  1   
 17   9  12  1   
 18  11  13  1   
 19  11  24  1   
 20  11  25  1   
 21  12  14  1   
 22  12  26  1   
 23  12  27  1   
 24  13  15  1   
 25  13  28  1   
 26  13  29  1   
 27  14  15  1   
 28  14  30  1   
 29  14  31  1   
 30  15  16  am  
 31  16  17  2   
 32  16  18  1   
 33  18  32  1   
 34  18  33  1   
 35  18  34  1   
@<TRIPOS>SUBSTRUCTURE
  1 ****   9 GROUP 4 **** **** 0

# MOE 2024.06 (io_trps.svl 2023.06)
