@<TRIPOS>MOLECULE
NONAME
41 43 1 0 0 
SMALL
USER_CHARGES


@<TRIPOS>ATOM
  1 O        0.4420     2.8170    -1.8990 O.2   1 <1>  -0.5700 
  2 C        0.8310     2.1190    -0.9820 C.2   1 <1>   0.5440 
  3 N       -0.0670     1.5940    -0.0950 N.am  1 <1>  -0.4930 
  4 C        2.2480     1.8540    -0.8140 C.ar  1 <1>   0.0860 
  5 C       -1.4550     1.6520    -0.0540 C.2   1 <1>   0.3520 
  6 C        2.7100     0.6840    -0.1950 C.ar  1 <1>  -0.1500 
  7 C        3.2040     2.7740    -1.2750 C.ar  1 <1>  -0.1500 
  8 N       -2.0680     1.0910     0.9370 N.2   1 <1>  -0.7070 
  9 C       -2.3370     2.2420    -0.9550 C.2   1 <1>  -0.1500 
 10 C        4.0670     0.4910    -0.0500 C.ar  1 <1>   0.0830 
 11 C        4.5680     2.5650    -1.1240 C.ar  1 <1>  -0.1500 
 12 N       -3.3810     1.2990     0.6940 N.pl3 1 <1>   0.3140 
 13 C       -3.5650     2.0040    -0.4490 C.2   1 <1>  -0.3320 
 14 O        4.6990    -0.5450     0.5110 O.3   1 <1>  -0.3630 
 15 C        4.9750     1.4050    -0.4990 C.ar  1 <1>   0.0830 
 16 C       -4.4030     0.8210     1.6330 C.3   1 <1>   0.1570 
 17 C       -4.9050     2.4280    -1.0260 C.3   1 <1>  -0.0600 
 18 C        6.0970    -0.2750     0.4120 C.3   1 <1>   0.4000 
 19 O        6.2150     0.9870    -0.2410 O.3   1 <1>  -0.3630 
 20 C       -4.7980    -0.5910     1.2870 C.2   1 <1>   0.6590 
 21 O       -4.6490    -1.4950     2.0700 O.2   1 <1>  -0.5700 
 22 O       -5.3620    -0.7720     0.0970 O.3   1 <1>  -0.4300 
 23 C       -5.7970    -2.0330    -0.3610 C.3   1 <1>   0.1200 
 24 C       -7.2300    -2.2630     0.1170 C.3   1 <1>  -0.2400 
 25 H        0.2950     1.0950     0.7110 H     1 <1>   0.3700 
 26 H        2.0350    -0.0720     0.1610 H     1 <1>   0.1500 
 27 H        2.8630     3.6730    -1.7620 H     1 <1>   0.1500 
 28 H       -2.0580     2.7660    -1.8500 H     1 <1>   0.1500 
 29 H        5.2940     3.2750    -1.4770 H     1 <1>   0.1500 
 30 H       -5.2620     1.4600     1.5870 H     1 <1>   0.0800 
 31 H       -3.9960     0.8440     2.6250 H     1 <1>   0.0800 
 32 H       -4.7530     2.9790    -1.9380 H     1 <1>   0.0800 
 33 H       -5.4300     3.0610    -0.3330 H     1 <1>   0.0800 
 34 H       -5.5090     1.5670    -1.2480 H     1 <1>   0.0800 
 35 H        6.5710    -1.0360    -0.1840 H     1 <1>   0.0800 
 36 H        6.5250    -0.2150     1.3960 H     1 <1>   0.0800 
 37 H       -5.1300    -2.7960     0.0070 H     1 <1>   0.0800 
 38 H       -5.7560    -2.0210    -1.4370 H     1 <1>   0.0800 
 39 H       -7.2640    -2.2900     1.1920 H     1 <1>   0.0800 
 40 H       -7.5860    -3.2060    -0.2550 H     1 <1>   0.0800 
 41 H       -7.8750    -1.4850    -0.2480 H     1 <1>   0.0800 
@<TRIPOS>BOND
  1   1   2  2   
  2   2   3  am  
  3   2   4  1   
  4   3   5  1   
  5   3  25  1   
  6   4   6  ar  
  7   4   7  ar  
  8   5   8  2   
  9   5   9  1   
 10   6  10  ar  
 11   6  26  1   
 12   7  11  ar  
 13   7  27  1   
 14   8  12  1   
 15   9  13  2   
 16   9  28  1   
 17  10  14  1   
 18  10  15  ar  
 19  11  15  ar  
 20  11  29  1   
 21  12  13  1   
 22  12  16  1   
 23  13  17  1   
 24  14  18  1   
 25  15  19  1   
 26  16  20  1   
 27  16  30  1   
 28  16  31  1   
 29  17  32  1   
 30  17  33  1   
 31  17  34  1   
 32  18  19  1   
 33  18  35  1   
 34  18  36  1   
 35  20  21  2   
 36  20  22  1   
 37  22  23  1   
 38  23  24  1   
 39  23  37  1   
 40  23  38  1   
 41  24  39  1   
 42  24  40  1   
 43  24  41  1   
@<TRIPOS>SUBSTRUCTURE
  1 ****   3 GROUP 4 **** **** 0

# MOE 2024.06 (io_trps.svl 2023.06)
