@<TRIPOS>MOLECULE
NONAME
39 40 1 0 0 
SMALL
USER_CHARGES


@<TRIPOS>ATOM
  1 O        2.4710    -2.3940     1.8100 O.2   1 <1>  -0.5700 
  2 C        1.6610    -2.3280     0.8990 C.2   1 <1>   0.5440 
  3 N        2.0800    -1.6460    -0.2150 N.am  1 <1>  -0.6600 
  4 C        0.3920    -3.0310     0.9690 C.ar  1 <1>   0.0860 
  5 C        2.8810    -2.3390    -1.2650 C.3   1 <1>   0.1400 
  6 C        2.1510    -0.1630    -0.2060 C.3   1 <1>   0.1400 
  7 C       -0.8020    -2.5430     0.4130 C.ar  1 <1>   0.0830 
  8 C        0.3440    -4.2650     1.6230 C.ar  1 <1>  -0.1500 
  9 C        4.3250    -2.6290    -0.7990 C.3   1 <1>   0.3430 
 10 C        3.4340     0.3460     0.4670 C.3   1 <1>  -0.1600 
 11 O       -0.7900    -1.3260    -0.1870 O.3   1 <1>  -0.3630 
 12 C       -1.9730    -3.2970     0.4970 C.ar  1 <1>  -0.1500 
 13 C       -0.8190    -5.0040     1.7070 C.ar  1 <1>  -0.1500 
 14 N        4.7620    -1.7250     0.3140 N.4   1 <1>  -0.9590 
 15 C        4.7330    -0.2830    -0.0440 C.3   1 <1>   0.3430 
 16 C       -1.9490    -0.7190    -0.7170 C.3   1 <1>   0.0400 
 17 C       -1.9810    -4.5200     1.1380 C.ar  1 <1>  -0.1500 
 18 C        6.0460    -2.1530     0.9340 C.3   1 <1>   0.2630 
 19 H        2.9040    -1.7340    -2.1540 H     1 <1>   0.0800 
 20 H        2.4000    -3.2670    -1.5250 H     1 <1>   0.0800 
 21 H        1.2970     0.2240     0.3280 H     1 <1>   0.0800 
 22 H        2.0880     0.2020    -1.2170 H     1 <1>   0.0800 
 23 H        1.2410    -4.6520     2.0760 H     1 <1>   0.1500 
 24 H        4.9990    -2.5500    -1.6370 H     1 <1>   0.0800 
 25 H        4.3590    -3.6470    -0.4490 H     1 <1>   0.0800 
 26 H        3.3600     0.2020     1.5300 H     1 <1>   0.0800 
 27 H        3.4890     1.4070     0.3060 H     1 <1>   0.0800 
 28 H       -2.8950    -2.9490     0.0710 H     1 <1>   0.1500 
 29 H       -0.8240    -5.9530     2.2150 H     1 <1>   0.1500 
 30 H        3.9980    -1.8420     1.0240 H     1 <1>   0.4500 
 31 H        5.5650     0.2210     0.4220 H     1 <1>   0.0800 
 32 H        4.8180    -0.1570    -1.1110 H     1 <1>   0.0800 
 33 H       -1.6750     0.2440    -1.1080 H     1 <1>   0.0800 
 34 H       -2.6720    -0.5990     0.0710 H     1 <1>   0.0800 
 35 H       -2.3380    -1.3360    -1.5070 H     1 <1>   0.0800 
 36 H       -2.8890    -5.0950     1.1990 H     1 <1>   0.1500 
 37 H        6.8530    -2.0640     0.2260 H     1 <1>   0.0800 
 38 H        5.9770    -3.1790     1.2580 H     1 <1>   0.0800 
 39 H        6.2640    -1.5390     1.7930 H     1 <1>   0.0800 
@<TRIPOS>BOND
  1   1   2  2   
  2   2   3  am  
  3   2   4  1   
  4   3   5  1   
  5   3   6  1   
  6   4   7  ar  
  7   4   8  ar  
  8   5   9  1   
  9   5  19  1   
 10   5  20  1   
 11   6  10  1   
 12   6  21  1   
 13   6  22  1   
 14   7  11  1   
 15   7  12  ar  
 16   8  13  ar  
 17   8  23  1   
 18   9  14  1   
 19   9  24  1   
 20   9  25  1   
 21  10  15  1   
 22  10  26  1   
 23  10  27  1   
 24  11  16  1   
 25  12  17  ar  
 26  12  28  1   
 27  13  17  ar  
 28  13  29  1   
 29  14  15  1   
 30  14  18  1   
 31  14  30  1   
 32  15  31  1   
 33  15  32  1   
 34  16  33  1   
 35  16  34  1   
 36  16  35  1   
 37  17  36  1   
 38  18  37  1   
 39  18  38  1   
 40  18  39  1   
@<TRIPOS>SUBSTRUCTURE
  1 ****   2 GROUP 4 **** **** 0

# MOE 2024.06 (io_trps.svl 2023.06)
