@<TRIPOS>MOLECULE
NONAME
36 37 1 0 0 
SMALL
USER_CHARGES


@<TRIPOS>ATOM
  1 BR       0.0750    -0.0560     1.4790 Br    1 <1>  -0.1110 
  2 C       -1.3230    -0.9050     0.4550 C.ar  1 <1>   0.1110 
  3 C       -1.1640    -2.2220     0.0410 C.ar  1 <1>   0.0830 
  4 C       -2.4460    -0.1600     0.1610 C.ar  1 <1>  -0.1500 
  5 O       -0.0280    -2.8810     0.3740 O.3   1 <1>  -0.3630 
  6 C       -2.1960    -2.7870    -0.7040 C.ar  1 <1>  -0.1500 
  7 C       -3.4880    -0.7260    -0.5740 C.ar  1 <1>   0.0280 
  8 C        0.2000    -4.2190    -0.0100 C.3   1 <1>   0.0400 
  9 C       -3.3270    -2.0460    -1.0010 C.ar  1 <1>  -0.1500 
 10 C       -4.6920    -0.0170    -0.9230 C.2   1 <1>  -0.1780 
 11 C       -5.4030     0.9230    -0.2410 C.2   1 <1>   0.0790 
 12 C       -5.0420     1.4030     1.0540 C.1   1 <1>   0.4920 
 13 C       -6.5900     1.5340    -0.7840 C.2   1 <1>   0.6160 
 14 N       -4.7680     1.7640     2.1010 N.1   1 <1>  -0.5570 
 15 O       -6.5910     1.8520    -1.9590 O.2   1 <1>  -0.5700 
 16 N       -7.7390     1.7600    -0.0490 N.am  1 <1>  -0.6600 
 17 C       -8.8070     2.6950    -0.5230 C.3   1 <1>   0.1400 
 18 C       -8.1440     0.9880     1.1690 C.3   1 <1>   0.1400 
 19 C      -10.1610     1.9740    -0.6150 C.3   1 <1>   0.1200 
 20 C       -9.5460     0.3780     0.9910 C.3   1 <1>   0.1200 
 21 O      -10.4690     1.3540     0.6010 O.3   1 <1>  -0.5600 
 22 H       -2.4880     0.8580     0.5010 H     1 <1>   0.1500 
 23 H       -2.1320    -3.7990    -1.0580 H     1 <1>   0.1500 
 24 H        1.1610    -4.5160     0.3700 H     1 <1>   0.0800 
 25 H        0.1980    -4.2790    -1.0840 H     1 <1>   0.0800 
 26 H       -0.5690    -4.8400     0.4140 H     1 <1>   0.0800 
 27 H       -4.1100    -2.5060    -1.5790 H     1 <1>   0.1500 
 28 H       -5.0750    -0.3070    -1.8880 H     1 <1>   0.1500 
 29 H       -8.8930     3.5120     0.1710 H     1 <1>   0.0800 
 30 H       -8.5600     3.1080    -1.4850 H     1 <1>   0.0800 
 31 H       -7.4490     0.1920     1.3670 H     1 <1>   0.0800 
 32 H       -8.1510     1.6470     2.0200 H     1 <1>   0.0800 
 33 H      -10.1410     1.2280    -1.3910 H     1 <1>   0.0800 
 34 H      -10.9430     2.6790    -0.8330 H     1 <1>   0.0800 
 35 H       -9.8880    -0.0430     1.9190 H     1 <1>   0.0800 
 36 H       -9.5320    -0.3970     0.2440 H     1 <1>   0.0800 
@<TRIPOS>BOND
  1   1   2  1   
  2   2   3  ar  
  3   2   4  ar  
  4   3   5  1   
  5   3   6  ar  
  6   4   7  ar  
  7   4  22  1   
  8   5   8  1   
  9   6   9  ar  
 10   6  23  1   
 11   7   9  ar  
 12   7  10  1   
 13   8  24  1   
 14   8  25  1   
 15   8  26  1   
 16   9  27  1   
 17  10  11  2   
 18  10  28  1   
 19  11  12  1   
 20  11  13  1   
 21  12  14  3   
 22  13  15  2   
 23  13  16  am  
 24  16  17  1   
 25  16  18  1   
 26  17  19  1   
 27  17  29  1   
 28  17  30  1   
 29  18  20  1   
 30  18  31  1   
 31  18  32  1   
 32  19  21  1   
 33  19  33  1   
 34  19  34  1   
 35  20  21  1   
 36  20  35  1   
 37  20  36  1   
@<TRIPOS>SUBSTRUCTURE
  1 ****  10 GROUP 4 **** **** 0

# MOE 2024.06 (io_trps.svl 2023.06)
