@<TRIPOS>MOLECULE
NONAME
41 43 1 0 0 
SMALL
USER_CHARGES


@<TRIPOS>ATOM
  1 O       -1.1610    -0.3790     0.2790 O.3   1 <1>  -0.3630 
  2 C       -2.1700    -1.1430    -0.2090 C.ar  1 <1>   0.0830 
  3 C       -1.0550    -0.0970     1.6540 C.3   1 <1>   0.1200 
  4 C       -2.1690    -1.3800    -1.5740 C.ar  1 <1>  -0.1500 
  5 C       -3.1830    -1.6860     0.5760 C.ar  1 <1>  -0.1500 
  6 C        0.1860     0.7640     1.8660 C.3   1 <1>  -0.2400 
  7 C       -3.1600    -2.1500    -2.1560 C.ar  1 <1>  -0.1500 
  8 C       -4.1730    -2.4560    -0.0080 C.ar  1 <1>  -0.1500 
  9 C       -4.1670    -2.6960    -1.3750 C.ar  1 <1>  -0.1430 
 10 C       -5.2620    -3.5440    -1.9990 C.3   1 <1>   0.3530 
 11 N       -6.4720    -2.7090    -2.1130 N.pl3 1 <1>  -0.8690 
 12 C       -7.5320    -3.0150    -1.2720 C.ar  1 <1>   0.1000 
 13 C       -7.9330    -2.1030    -0.3010 C.ar  1 <1>  -0.1500 
 14 C       -8.2050    -4.2300    -1.3800 C.ar  1 <1>  -0.1500 
 15 C       -8.9770    -2.4220     0.5450 C.ar  1 <1>  -0.1430 
 16 C       -9.2510    -4.5440    -0.5290 C.ar  1 <1>  -0.1500 
 17 C       -9.6270    -3.6260     0.4350 C.ar  1 <1>  -0.1430 
 18 C       -9.5590    -1.5850     1.6570 C.3   1 <1>  -0.0170 
 19 C      -10.7270    -3.7520     1.4590 C.3   1 <1>  -0.0170 
 20 C      -10.8610    -2.3230     2.0160 C.3   1 <1>  -0.1600 
 21 H       -0.9670    -1.0290     2.1870 H     1 <1>   0.0800 
 22 H       -1.9410     0.4300     1.9630 H     1 <1>   0.0800 
 23 H       -1.3860    -0.9550    -2.1760 H     1 <1>   0.1500 
 24 H       -3.2180    -1.5220     1.6360 H     1 <1>   0.1500 
 25 H        1.0630     0.2350     1.5380 H     1 <1>   0.0800 
 26 H        0.2960     0.9970     2.9090 H     1 <1>   0.0800 
 27 H        0.0950     1.6830     1.3150 H     1 <1>   0.0800 
 28 H       -3.1430    -2.3200    -3.2180 H     1 <1>   0.1500 
 29 H       -4.9590    -2.8700     0.6020 H     1 <1>   0.1500 
 30 H       -5.4540    -4.4070    -1.3840 H     1 <1>   0.0800 
 31 H       -4.9690    -3.8800    -2.9780 H     1 <1>   0.0800 
 32 H       -6.1840    -1.7280    -2.0410 H     1 <1>   0.4000 
 33 H       -7.4280    -1.1600    -0.2120 H     1 <1>   0.1500 
 34 H       -7.9050    -4.9240    -2.1420 H     1 <1>   0.1500 
 35 H       -9.7660    -5.4840    -0.6170 H     1 <1>   0.1500 
 36 H       -9.7510    -0.5780     1.3330 H     1 <1>   0.0800 
 37 H       -8.8810    -1.5800     2.4920 H     1 <1>   0.0800 
 38 H      -10.4200    -4.4340     2.2320 H     1 <1>   0.0800 
 39 H      -11.6450    -4.0900     1.0130 H     1 <1>   0.0800 
 40 H      -11.6810    -1.8350     1.5190 H     1 <1>   0.0800 
 41 H      -11.0420    -2.3220     3.0760 H     1 <1>   0.0800 
@<TRIPOS>BOND
  1   1   2  1   
  2   1   3  1   
  3   2   4  ar  
  4   2   5  ar  
  5   3   6  1   
  6   3  21  1   
  7   3  22  1   
  8   4   7  ar  
  9   4  23  1   
 10   5   8  ar  
 11   5  24  1   
 12   6  25  1   
 13   6  26  1   
 14   6  27  1   
 15   7   9  ar  
 16   7  28  1   
 17   8   9  ar  
 18   8  29  1   
 19   9  10  1   
 20  10  11  1   
 21  10  30  1   
 22  10  31  1   
 23  11  12  1   
 24  11  32  1   
 25  12  13  ar  
 26  12  14  ar  
 27  13  15  ar  
 28  13  33  1   
 29  14  16  ar  
 30  14  34  1   
 31  15  17  ar  
 32  15  18  1   
 33  16  17  ar  
 34  16  35  1   
 35  17  19  1   
 36  18  20  1   
 37  18  36  1   
 38  18  37  1   
 39  19  20  1   
 40  19  38  1   
 41  19  39  1   
 42  20  40  1   
 43  20  41  1   
@<TRIPOS>SUBSTRUCTURE
  1 ****   8 GROUP 4 **** **** 0

# MOE 2024.06 (io_trps.svl 2023.06)
