@<TRIPOS>MOLECULE
NONAME
38 38 1 0 0 
SMALL
USER_CHARGES


@<TRIPOS>ATOM
  1 CL       0.0420     0.1760     0.4560 Cl    1 <1>  -0.1770 
  2 C        1.6000     0.9540     0.2900 C.ar  1 <1>   0.1770 
  3 C        1.6790     2.2970    -0.0520 C.ar  1 <1>  -0.1440 
  4 C        2.7360     0.1960     0.5080 C.ar  1 <1>  -0.1500 
  5 C        2.9350     2.8730    -0.1720 C.ar  1 <1>  -0.1500 
  6 C        0.4260     3.1260    -0.2900 C.3   1 <1>  -0.0960 
  7 C        3.9840     0.7820     0.3850 C.ar  1 <1>  -0.1500 
  8 C        4.0860     2.1290     0.0430 C.ar  1 <1>   0.0830 
  9 O        5.2660     2.7820    -0.0990 O.3   1 <1>  -0.3630 
 10 C        6.4970     2.1220     0.0960 C.3   1 <1>   0.1200 
 11 C        7.6170     3.1310    -0.1380 C.3   1 <1>   0.1200 
 12 O        8.8450     2.4930     0.0550 O.3   1 <1>  -0.5600 
 13 C        9.9500     3.3130    -0.1320 C.3   1 <1>   0.1200 
 14 C       11.2010     2.4570     0.1030 C.3   1 <1>   0.3430 
 15 N       12.4820     3.2100    -0.1220 N.4   1 <1>  -0.9590 
 16 C       13.6380     2.2610    -0.1150 C.3   1 <1>   0.2630 
 17 C       12.6930     4.2870     0.8980 C.3   1 <1>   0.2630 
 18 H        2.6380    -0.8410     0.7710 H     1 <1>   0.1500 
 19 H        3.0360     3.9110    -0.4350 H     1 <1>   0.1500 
 20 H       -0.1460     2.7030    -1.0970 H     1 <1>   0.0800 
 21 H        0.6760     4.1400    -0.5440 H     1 <1>   0.0800 
 22 H       -0.1820     3.1360     0.5970 H     1 <1>   0.0800 
 23 H        4.8550     0.1780     0.5580 H     1 <1>   0.1500 
 24 H        6.5640     1.3150    -0.6120 H     1 <1>   0.0800 
 25 H        6.5280     1.7540     1.1060 H     1 <1>   0.0800 
 26 H        7.5310     3.9430     0.5640 H     1 <1>   0.0800 
 27 H        7.5710     3.5010    -1.1490 H     1 <1>   0.0800 
 28 H        9.8920     4.1210     0.5770 H     1 <1>   0.0800 
 29 H        9.9270     3.6880    -1.1410 H     1 <1>   0.0800 
 30 H       11.1580     1.6190    -0.5730 H     1 <1>   0.0800 
 31 H       11.1760     2.0770     1.1110 H     1 <1>   0.0800 
 32 H       12.4390     3.6440    -1.0580 H     1 <1>   0.4500 
 33 H       13.7200     1.7760     0.8450 H     1 <1>   0.0800 
 34 H       14.5580     2.7870    -0.3140 H     1 <1>   0.0800 
 35 H       13.5070     1.5040    -0.8720 H     1 <1>   0.0800 
 36 H       12.7270     3.8640     1.8890 H     1 <1>   0.0800 
 37 H       11.8930     5.0080     0.8580 H     1 <1>   0.0800 
 38 H       13.6230     4.8010     0.7120 H     1 <1>   0.0800 
@<TRIPOS>BOND
  1   1   2  1   
  2   2   3  ar  
  3   2   4  ar  
  4   3   5  ar  
  5   3   6  1   
  6   4   7  ar  
  7   4  18  1   
  8   5   8  ar  
  9   5  19  1   
 10   6  20  1   
 11   6  21  1   
 12   6  22  1   
 13   7   8  ar  
 14   7  23  1   
 15   8   9  1   
 16   9  10  1   
 17  10  11  1   
 18  10  24  1   
 19  10  25  1   
 20  11  12  1   
 21  11  26  1   
 22  11  27  1   
 23  12  13  1   
 24  13  14  1   
 25  13  28  1   
 26  13  29  1   
 27  14  15  1   
 28  14  30  1   
 29  14  31  1   
 30  15  16  1   
 31  15  17  1   
 32  15  32  1   
 33  16  33  1   
 34  16  34  1   
 35  16  35  1   
 36  17  36  1   
 37  17  37  1   
 38  17  38  1   
@<TRIPOS>SUBSTRUCTURE
  1 ****  10 GROUP 4 **** **** 0

# MOE 2024.06 (io_trps.svl 2023.06)
