@<TRIPOS>MOLECULE
NONAME
30 31 1 0 0 
SMALL
USER_CHARGES


@<TRIPOS>ATOM
  1 O        7.7980     2.0300    -0.7290 O.3   1 <1>  -0.5600 
  2 C        7.7590     1.2270     0.4160 C.3   1 <1>   0.1200 
  3 C        6.6720     2.8510    -0.8620 C.3   1 <1>   0.1200 
  4 C        6.5130     0.3220     0.3950 C.3   1 <1>   0.1100 
  5 C        5.3870     2.0060    -0.9160 C.3   1 <1>   0.1100 
  6 N        5.2800     1.1200     0.2650 N.3   1 <1>  -0.8100 
  7 C        4.0960     0.2500     0.1970 C.3   1 <1>   0.3100 
  8 C        2.8460     1.0530     0.2990 C.1   1 <1>  -0.2000 
  9 C        1.8460     1.6960     0.3640 C.1   1 <1>  -0.0190 
 10 C        0.6490     2.4780     0.4440 C.2   1 <1>   0.3080 
 11 N       -0.3420     2.3900    -0.3990 N.2   1 <1>  -0.7070 
 12 C        0.3910     3.4310     1.4270 C.2   1 <1>  -0.1500 
 13 N       -1.2500     3.2790     0.0290 N.pl3 1 <1>   0.3140 
 14 C       -0.8290     3.9230     1.1330 C.2   1 <1>  -0.3020 
 15 C       -2.5230     3.4790    -0.6710 C.3   1 <1>   0.0160 
 16 H        7.7480     1.8630     1.2840 H     1 <1>   0.0800 
 17 H        8.6540     0.6310     0.4300 H     1 <1>   0.0800 
 18 H        6.7840     3.4190    -1.7680 H     1 <1>   0.0800 
 19 H        6.6390     3.5300    -0.0270 H     1 <1>   0.0800 
 20 H        6.4780    -0.2440     1.3100 H     1 <1>   0.0800 
 21 H        6.5990    -0.3670    -0.4280 H     1 <1>   0.0800 
 22 H        5.3920     1.4210    -1.8200 H     1 <1>   0.0800 
 23 H        4.5410     2.6700    -0.9510 H     1 <1>   0.0800 
 24 H        4.1180    -0.4470     1.0170 H     1 <1>   0.0800 
 25 H        4.0970    -0.3070    -0.7250 H     1 <1>   0.0800 
 26 H        1.0550     3.6870     2.2330 H     1 <1>   0.1500 
 27 H       -1.4070     4.6780     1.6350 H     1 <1>   0.1500 
 28 H       -2.7390     2.6060    -1.2590 H     1 <1>   0.0800 
 29 H       -2.4370     4.3340    -1.3150 H     1 <1>   0.0800 
 30 H       -3.3050     3.6350     0.0470 H     1 <1>   0.0800 
@<TRIPOS>BOND
  1   1   2  1   
  2   1   3  1   
  3   2   4  1   
  4   2  16  1   
  5   2  17  1   
  6   3   5  1   
  7   3  18  1   
  8   3  19  1   
  9   4   6  1   
 10   4  20  1   
 11   4  21  1   
 12   5   6  1   
 13   5  22  1   
 14   5  23  1   
 15   6   7  1   
 16   7   8  1   
 17   7  24  1   
 18   7  25  1   
 19   8   9  3   
 20   9  10  1   
 21  10  11  2   
 22  10  12  1   
 23  11  13  1   
 24  12  14  2   
 25  12  26  1   
 26  13  14  1   
 27  13  15  1   
 28  14  27  1   
 29  15  28  1   
 30  15  29  1   
 31  15  30  1   
@<TRIPOS>SUBSTRUCTURE
  1 ****   8 GROUP 4 **** **** 0

# MOE 2024.06 (io_trps.svl 2023.06)
