@<TRIPOS>MOLECULE
NONAME
26 26 1 0 0 
SMALL
USER_CHARGES


@<TRIPOS>ATOM
  1 F        0.6600     0.2290     1.2390 F     1 <1>  -0.3400 
  2 C        0.7360     1.5460     1.0850 C.3   1 <1>   1.0200 
  3 F       -0.4820     2.0000     1.3480 F     1 <1>  -0.3400 
  4 F        1.5150     1.9720     2.0680 F     1 <1>  -0.3400 
  5 C        1.2280     1.8840    -0.3320 C.3   1 <1>   0.2200 
  6 N        2.5650     1.2310    -0.7420 N.am  1 <1>  -0.7300 
  7 C        1.0570     3.4050    -0.5480 C.3   1 <1>   1.0200 
  8 C        3.7840     1.6790    -0.3570 C.2   1 <1>   0.6900 
  9 F        1.7060     3.8260    -1.6280 F     1 <1>  -0.3400 
 10 F        1.4490     4.1860     0.4480 F     1 <1>  -0.3400 
 11 F       -0.2140     3.7190    -0.7710 F     1 <1>  -0.3400 
 12 O        3.8580     2.6670     0.3370 O.2   1 <1>  -0.5700 
 13 N        4.8810     0.9930    -0.7570 N.am  1 <1>  -0.4930 
 14 C        6.2260     1.2110    -0.4670 C.2   1 <1>   0.3520 
 15 N        7.1420     0.4720    -0.9860 N.2   1 <1>  -0.4100 
 16 C        6.7880     2.1800     0.3660 C.2   1 <1>  -0.1500 
 17 O        8.2800     0.9260    -0.5200 O.3   1 <1>  -0.0190 
 18 C        8.1030     1.9400     0.2850 C.2   1 <1>  -0.0400 
 19 C        9.2960     2.6110     0.9310 C.3   1 <1>  -0.0600 
 20 H        0.4980     1.4470    -0.9860 H     1 <1>   0.0800 
 21 H        2.5010     0.2850    -1.1220 H     1 <1>   0.3700 
 22 H        4.7450     0.2340    -1.4140 H     1 <1>   0.3700 
 23 H        6.2570     2.9270     0.9250 H     1 <1>   0.1500 
 24 H        8.9710     3.4210     1.5590 H     1 <1>   0.0800 
 25 H        9.9510     2.9970     0.1720 H     1 <1>   0.0800 
 26 H        9.8340     1.8990     1.5300 H     1 <1>   0.0800 
@<TRIPOS>BOND
  1   1   2  1   
  2   2   3  1   
  3   2   4  1   
  4   2   5  1   
  5   5   6  1   
  6   5   7  1   
  7   5  20  1   
  8   6   8  am  
  9   6  21  1   
 10   7   9  1   
 11   7  10  1   
 12   7  11  1   
 13   8  12  2   
 14   8  13  am  
 15  13  14  1   
 16  13  22  1   
 17  14  15  2   
 18  14  16  1   
 19  15  17  1   
 20  16  18  2   
 21  16  23  1   
 22  17  18  1   
 23  18  19  1   
 24  19  24  1   
 25  19  25  1   
 26  19  26  1   
@<TRIPOS>SUBSTRUCTURE
  1 ****   8 GROUP 4 **** **** 0

# MOE 2024.06 (io_trps.svl 2023.06)
