@<TRIPOS>MOLECULE
NONAME
47 48 1 0 0 
SMALL
USER_CHARGES


@<TRIPOS>ATOM
  1 S        0.3200    -0.4270    -1.5910 S.o2  1 <1>   1.4470 
  2 O        1.6520    -0.8270    -1.9780 O.2   1 <1>  -0.6500 
  3 O       -0.4240     0.5100    -2.4010 O.2   1 <1>  -0.6500 
  4 N        0.5350     0.2950    -0.0990 N.am  1 <1>  -0.9140 
  5 C       -0.7070    -1.8730    -1.2160 C.ar  1 <1>  -0.0090 
  6 C        0.9950     1.6510    -0.2350 C.3   1 <1>   0.3340 
  7 C       -1.9230    -1.7300    -0.5660 C.ar  1 <1>  -0.1500 
  8 C       -0.3110    -3.1550    -1.5700 C.ar  1 <1>  -0.1500 
  9 C        1.4580     2.0860     1.1350 C.2   1 <1>  -0.2880 
 10 C       -2.7530    -2.8090    -0.2630 C.ar  1 <1>   0.0860 
 11 C       -1.1070    -4.2490    -1.2830 C.ar  1 <1>  -0.1500 
 12 C        2.7090     2.4300     1.4600 C.2   1 <1>  -0.3000 
 13 C       -2.3200    -4.0870    -0.6360 C.ar  1 <1>  -0.1430 
 14 C       -4.0160    -2.5600     0.4080 C.2   1 <1>   0.5440 
 15 C       -3.1680    -5.3190    -0.3440 C.3   1 <1>  -0.0970 
 16 O       -4.3090    -3.1360     1.4370 O.2   1 <1>  -0.5700 
 17 N       -4.8910    -1.6550    -0.1210 N.am  1 <1>  -0.7300 
 18 C       -6.1870    -1.2700     0.4600 C.3   1 <1>   0.2200 
 19 C       -7.3070    -1.7300    -0.4780 C.3   1 <1>  -0.1600 
 20 C       -6.2090     0.2500     0.6520 C.3   1 <1>  -0.1600 
 21 C       -8.6800    -1.2600     0.0250 C.3   1 <1>  -0.1600 
 22 C       -7.5800     0.7240     1.1570 C.3   1 <1>  -0.1600 
 23 C       -8.7070     0.2620     0.2230 C.3   1 <1>  -0.1600 
 24 H        1.3200    -0.2070     0.3110 H     1 <1>   0.4200 
 25 H        0.1950     2.2850    -0.5820 H     1 <1>   0.0800 
 26 H        1.8140     1.7060    -0.9360 H     1 <1>   0.0800 
 27 H       -2.2380    -0.7410    -0.2770 H     1 <1>   0.1500 
 28 H        0.6300    -3.3020    -2.0760 H     1 <1>   0.1500 
 29 H        0.6510     2.0880     1.8490 H     1 <1>   0.1500 
 30 H       -0.7700    -5.2310    -1.5680 H     1 <1>   0.1500 
 31 H        3.0080     2.7360     2.4480 H     1 <1>   0.1500 
 32 H        3.5380     2.4380     0.7730 H     1 <1>   0.1500 
 33 H       -4.1770    -5.1680    -0.6860 H     1 <1>   0.0800 
 34 H       -3.1910    -5.5030     0.7160 H     1 <1>   0.0800 
 35 H       -2.7730    -6.1910    -0.8330 H     1 <1>   0.0800 
 36 H       -4.6740    -1.2180    -1.0160 H     1 <1>   0.3700 
 37 H       -6.3140    -1.7460     1.4190 H     1 <1>   0.0800 
 38 H       -7.2990    -2.8040    -0.5360 H     1 <1>   0.0800 
 39 H       -7.1400    -1.3310    -1.4630 H     1 <1>   0.0800 
 40 H       -5.9950     0.7350    -0.2840 H     1 <1>   0.0800 
 41 H       -5.4520     0.5280     1.3640 H     1 <1>   0.0800 
 42 H       -8.8990    -1.7440     0.9620 H     1 <1>   0.0800 
 43 H       -9.4410    -1.5470    -0.6800 H     1 <1>   0.0800 
 44 H       -7.5870     1.7980     1.2290 H     1 <1>   0.0800 
 45 H       -7.7500     0.3270     2.1440 H     1 <1>   0.0800 
 46 H       -9.6580     0.5550     0.6340 H     1 <1>   0.0800 
 47 H       -8.5980     0.7470    -0.7320 H     1 <1>   0.0800 
@<TRIPOS>BOND
  1   1   2  2   
  2   1   3  2   
  3   1   4  am  
  4   1   5  1   
  5   4   6  1   
  6   4  24  1   
  7   5   7  ar  
  8   5   8  ar  
  9   6   9  1   
 10   6  25  1   
 11   6  26  1   
 12   7  10  ar  
 13   7  27  1   
 14   8  11  ar  
 15   8  28  1   
 16   9  12  2   
 17   9  29  1   
 18  10  13  ar  
 19  10  14  1   
 20  11  13  ar  
 21  11  30  1   
 22  12  31  1   
 23  12  32  1   
 24  13  15  1   
 25  14  16  2   
 26  14  17  am  
 27  15  33  1   
 28  15  34  1   
 29  15  35  1   
 30  17  18  1   
 31  17  36  1   
 32  18  19  1   
 33  18  20  1   
 34  18  37  1   
 35  19  21  1   
 36  19  38  1   
 37  19  39  1   
 38  20  22  1   
 39  20  40  1   
 40  20  41  1   
 41  21  23  1   
 42  21  42  1   
 43  21  43  1   
 44  22  23  1   
 45  22  44  1   
 46  22  45  1   
 47  23  46  1   
 48  23  47  1   
@<TRIPOS>SUBSTRUCTURE
  1 ****   7 GROUP 4 **** **** 0

# MOE 2024.06 (io_trps.svl 2023.06)
