@<TRIPOS>MOLECULE
NONAME
50 52 1 0 0 
SMALL
USER_CHARGES


@<TRIPOS>ATOM
  1 O        3.9440    -9.0520     0.4400 O.2   1 <1>  -0.5700 
  2 C        3.5040    -8.0220    -0.0090 C.2   1 <1>   0.5690 
  3 N        2.2360    -7.9820    -0.5370 N.am  1 <1>  -0.6600 
  4 C        4.3620    -6.7620     0.0470 C.3   1 <1>  -0.0990 
  5 C        1.4880    -9.2500    -0.8010 C.3   1 <1>   0.1400 
  6 C        1.4120    -6.7470    -0.6970 C.3   1 <1>   0.1400 
  7 C        5.8720    -7.0390     0.1790 C.3   1 <1>  -0.1600 
  8 C        0.2460    -9.3320     0.1020 C.3   1 <1>   0.3430 
  9 C        0.1400    -6.8360     0.1750 C.3   1 <1>   0.3430 
 10 C        6.7070    -5.7490     0.2430 C.3   1 <1>  -0.0800 
 11 N       -0.6330    -8.1160    -0.0460 N.4   1 <1>  -0.9590 
 12 C        6.6550    -4.9020    -1.0290 C.3   1 <1>  -0.1600 
 13 C        8.1960    -6.0300     0.4190 C.3   1 <1>  -0.1600 
 14 C       -1.8290    -8.2050     0.8400 C.3   1 <1>   0.4860 
 15 C        7.9350    -4.0620    -1.0110 C.3   1 <1>  -0.1600 
 16 C        8.8880    -4.7410    -0.0220 C.3   1 <1>  -0.1600 
 17 C       -2.7540    -7.0490     0.5260 C.ar  1 <1>  -0.1440 
 18 C       -2.8460    -5.9810     1.4070 C.ar  1 <1>   0.1600 
 19 C       -3.5120    -7.0280    -0.6300 C.ar  1 <1>  -0.1500 
 20 N       -3.5890    -4.9090     1.2120 N.ar  1 <1>  -0.6200 
 21 C       -4.3050    -5.9190    -0.8360 C.ar  1 <1>  -0.1500 
 22 C       -4.3060    -4.9000     0.1000 C.ar  1 <1>   0.1600 
 23 H        4.0410    -6.1710     0.8840 H     1 <1>   0.0800 
 24 H        4.1970    -6.2020    -0.8540 H     1 <1>   0.0800 
 25 H        2.1140   -10.1080    -0.6200 H     1 <1>   0.0800 
 26 H        1.1960    -9.2820    -1.8360 H     1 <1>   0.0800 
 27 H        1.1390    -6.6310    -1.7320 H     1 <1>   0.0800 
 28 H        1.9670    -5.8730    -0.4060 H     1 <1>   0.0800 
 29 H        6.1980    -7.6430    -0.6510 H     1 <1>   0.0800 
 30 H        6.0480    -7.6060     1.0780 H     1 <1>   0.0800 
 31 H        0.5810    -9.4220     1.1230 H     1 <1>   0.0800 
 32 H       -0.3080   -10.2230    -0.1450 H     1 <1>   0.0800 
 33 H       -0.4880    -5.9850    -0.0390 H     1 <1>   0.0800 
 34 H        0.4380    -6.7700     1.2090 H     1 <1>   0.0800 
 35 H        6.3800    -5.1460     1.0740 H     1 <1>   0.0800 
 36 H       -0.9820    -8.0900    -1.0130 H     1 <1>   0.4500 
 37 H        5.7770    -4.2810    -1.0660 H     1 <1>   0.0800 
 38 H        6.6710    -5.5440    -1.8930 H     1 <1>   0.0800 
 39 H        8.4960    -6.8320    -0.2340 H     1 <1>   0.0800 
 40 H        8.4410    -6.2920     1.4340 H     1 <1>   0.0800 
 41 H       -1.5300    -8.1690     1.8750 H     1 <1>   0.0800 
 42 H       -2.3510    -9.1330     0.6690 H     1 <1>   0.0800 
 43 H        7.7200    -3.0610    -0.6780 H     1 <1>   0.0800 
 44 H        8.3680    -4.0150    -1.9960 H     1 <1>   0.0800 
 45 H        9.8460    -4.9470    -0.4680 H     1 <1>   0.0800 
 46 H        9.0330    -4.1010     0.8320 H     1 <1>   0.0800 
 47 H       -2.2780    -5.9940     2.3230 H     1 <1>   0.1500 
 48 H       -3.5060    -7.8300    -1.3490 H     1 <1>   0.1500 
 49 H       -4.9240    -5.8380    -1.7130 H     1 <1>   0.1500 
 50 H       -4.9280    -4.0360    -0.0710 H     1 <1>   0.1500 
@<TRIPOS>BOND
  1   1   2  2   
  2   2   3  am  
  3   2   4  1   
  4   3   5  1   
  5   3   6  1   
  6   4   7  1   
  7   4  23  1   
  8   4  24  1   
  9   5   8  1   
 10   5  25  1   
 11   5  26  1   
 12   6   9  1   
 13   6  27  1   
 14   6  28  1   
 15   7  10  1   
 16   7  29  1   
 17   7  30  1   
 18   8  11  1   
 19   8  31  1   
 20   8  32  1   
 21   9  11  1   
 22   9  33  1   
 23   9  34  1   
 24  10  12  1   
 25  10  13  1   
 26  10  35  1   
 27  11  14  1   
 28  11  36  1   
 29  12  15  1   
 30  12  37  1   
 31  12  38  1   
 32  13  16  1   
 33  13  39  1   
 34  13  40  1   
 35  14  17  1   
 36  14  41  1   
 37  14  42  1   
 38  15  16  1   
 39  15  43  1   
 40  15  44  1   
 41  16  45  1   
 42  16  46  1   
 43  17  18  ar  
 44  17  19  ar  
 45  18  20  ar  
 46  18  47  1   
 47  19  21  ar  
 48  19  48  1   
 49  20  22  ar  
 50  21  22  ar  
 51  21  49  1   
 52  22  50  1   
@<TRIPOS>SUBSTRUCTURE
  1 ****   6 GROUP 4 **** **** 0

# MOE 2024.06 (io_trps.svl 2023.06)
