@<TRIPOS>MOLECULE
NONAME
23 23 1 0 0 
SMALL
USER_CHARGES


@<TRIPOS>ATOM
  1 O       -0.4100    -0.3380    -0.8590 O.3   1 <1>  -0.6800 
  2 C       -1.7280     0.0960    -0.7320 C.3   1 <1>   0.1200 
  3 C       -2.6770    -1.0740    -0.4080 C.3   1 <1>   0.0640 
  4 C       -4.0980    -0.5260    -0.2790 C.ar  1 <1>   0.1660 
  5 C       -2.2840    -1.8790     0.8460 C.3   1 <1>   0.1200 
  6 N       -4.8870    -0.7050    -1.3290 N.ar  1 <1>  -0.6200 
  7 C       -4.5120     0.1320     0.8730 C.ar  1 <1>  -0.1500 
  8 O       -1.0810    -2.5260     0.6320 O.3   1 <1>  -0.6800 
  9 C       -6.1200    -0.2360    -1.2250 C.ar  1 <1>   0.1600 
 10 C       -5.8000     0.6160     0.9640 C.ar  1 <1>  -0.1500 
 11 C       -6.6380     0.4260    -0.1210 C.ar  1 <1>   0.0730 
 12 C       -7.9930     0.8880    -0.1210 C.1   1 <1>   0.4840 
 13 N       -9.0720     1.2560    -0.1240 N.1   1 <1>  -0.5570 
 14 H        0.1630     0.3860    -1.1860 H     1 <1>   0.4000 
 15 H       -2.0220     0.5520    -1.6630 H     1 <1>   0.0800 
 16 H       -1.7600     0.8370     0.0490 H     1 <1>   0.0800 
 17 H       -2.6700    -1.7540    -1.2430 H     1 <1>   0.0800 
 18 H       -3.0240    -2.6290     1.0680 H     1 <1>   0.0800 
 19 H       -2.1590    -1.2350     1.6990 H     1 <1>   0.0800 
 20 H       -3.8390     0.2710     1.7000 H     1 <1>   0.1500 
 21 H       -0.4980    -1.9190     0.1100 H     1 <1>   0.4000 
 22 H       -6.7630    -0.3880    -2.0770 H     1 <1>   0.1500 
 23 H       -6.1420     1.1260     1.8490 H     1 <1>   0.1500 
@<TRIPOS>BOND
  1   1   2  1   
  2   1  14  1   
  3   2   3  1   
  4   2  15  1   
  5   2  16  1   
  6   3   4  1   
  7   3   5  1   
  8   3  17  1   
  9   4   6  ar  
 10   4   7  ar  
 11   5   8  1   
 12   5  18  1   
 13   5  19  1   
 14   6   9  ar  
 15   7  10  ar  
 16   7  20  1   
 17   8  21  1   
 18   9  11  ar  
 19   9  22  1   
 20  10  11  ar  
 21  10  23  1   
 22  11  12  1   
 23  12  13  3   
@<TRIPOS>SUBSTRUCTURE
  1 ****   4 GROUP 4 **** **** 0

# MOE 2024.06 (io_trps.svl 2023.06)
