@<TRIPOS>MOLECULE
NONAME
50 52 1 0 0 
SMALL
USER_CHARGES


@<TRIPOS>ATOM
  1 O        1.3070    -0.6900    -2.1340 O.2   1 <1>  -0.5700 
  2 C        2.2670    -0.6930    -1.3780 C.2   1 <1>   0.7670 
  3 N        3.1580     0.3300    -1.5050 N.2   1 <1>  -0.6610 
  4 C        2.4610    -1.7170    -0.3990 C.2   1 <1>  -0.0140 
  5 C        4.1970     0.3400    -0.7660 C.2   1 <1>   0.4390 
  6 C        1.4390    -2.7310    -0.2590 C.ar  1 <1>   0.0280 
  7 C        3.6010    -1.6810     0.3590 C.2   1 <1>  -0.0380 
  8 N        4.5060    -0.6510     0.1560 N.pl3 1 <1>  -0.5190 
  9 C        5.1120     1.5390    -0.9460 C.3   1 <1>  -0.1790 
 10 C        0.5470    -2.7020     0.8100 C.ar  1 <1>  -0.1500 
 11 C        1.3250    -3.7700    -1.1790 C.ar  1 <1>  -0.1500 
 12 C        3.8820    -2.7440     1.4260 C.3   1 <1>  -0.1020 
 13 C        5.8020    -0.6080     0.9040 C.3   1 <1>   0.2090 
 14 C       -0.4140    -3.6850     0.9660 C.ar  1 <1>  -0.1500 
 15 C        0.3670    -4.7550    -1.0280 C.ar  1 <1>  -0.1500 
 16 C        6.8790    -1.3560     0.1040 C.3   1 <1>  -0.1600 
 17 C       -0.5040    -4.7150     0.0470 C.ar  1 <1>  -0.1500 
 18 C        8.2030    -1.3930     0.8680 C.3   1 <1>   0.3430 
 19 N        9.2770    -2.0110     0.0380 N.4   1 <1>  -0.9590 
 20 C        9.0550    -3.4840    -0.2100 C.3   1 <1>   0.3430 
 21 C       10.6300    -1.7960     0.6690 C.3   1 <1>   0.3430 
 22 C       10.2440    -4.1230    -0.9530 C.3   1 <1>   0.1200 
 23 C       11.7460    -2.5120    -0.1160 C.3   1 <1>   0.1200 
 24 O       11.4340    -3.8660    -0.2680 O.3   1 <1>  -0.5600 
 25 H        5.1660     2.1040    -0.0350 H     1 <1>   0.0800 
 26 H        4.7170     2.1880    -1.7080 H     1 <1>   0.0800 
 27 H        6.0920     1.2340    -1.2550 H     1 <1>   0.0800 
 28 H        0.6080    -1.9000     1.5240 H     1 <1>   0.1500 
 29 H        1.9910    -3.8010    -2.0230 H     1 <1>   0.1500 
 30 H        3.8720    -2.2950     2.4030 H     1 <1>   0.0800 
 31 H        4.8310    -3.2160     1.2580 H     1 <1>   0.0800 
 32 H        3.1450    -3.5260     1.4280 H     1 <1>   0.0800 
 33 H        5.6830    -1.0490     1.8760 H     1 <1>   0.0800 
 34 H        6.1020     0.4100     1.0760 H     1 <1>   0.0800 
 35 H       -1.0940    -3.6470     1.7990 H     1 <1>   0.1500 
 36 H        0.2930    -5.5500    -1.7500 H     1 <1>   0.1500 
 37 H        7.0210    -0.8600    -0.8380 H     1 <1>   0.0800 
 38 H        6.5330    -2.3570    -0.0800 H     1 <1>   0.0800 
 39 H       -1.2510    -5.4810     0.1650 H     1 <1>   0.1500 
 40 H        8.0830    -1.9480     1.7860 H     1 <1>   0.0800 
 41 H        8.4860    -0.3830     1.1230 H     1 <1>   0.0800 
 42 H        9.2950    -1.5450    -0.8800 H     1 <1>   0.4500 
 43 H        8.1590    -3.6320    -0.7910 H     1 <1>   0.0800 
 44 H        8.9300    -3.9970     0.7290 H     1 <1>   0.0800 
 45 H       10.6290    -2.1820     1.6750 H     1 <1>   0.0800 
 46 H       10.8530    -0.7430     0.7190 H     1 <1>   0.0800 
 47 H       10.3310    -3.7440    -1.9570 H     1 <1>   0.0800 
 48 H       10.1200    -5.1920    -1.0010 H     1 <1>   0.0800 
 49 H       12.6760    -2.4510     0.4220 H     1 <1>   0.0800 
 50 H       11.8850    -2.0750    -1.0900 H     1 <1>   0.0800 
@<TRIPOS>BOND
  1   1   2  2   
  2   2   3  1   
  3   2   4  1   
  4   3   5  2   
  5   4   6  1   
  6   4   7  2   
  7   5   8  1   
  8   5   9  1   
  9   6  10  ar  
 10   6  11  ar  
 11   7   8  1   
 12   7  12  1   
 13   8  13  1   
 14   9  25  1   
 15   9  26  1   
 16   9  27  1   
 17  10  14  ar  
 18  10  28  1   
 19  11  15  ar  
 20  11  29  1   
 21  12  30  1   
 22  12  31  1   
 23  12  32  1   
 24  13  16  1   
 25  13  33  1   
 26  13  34  1   
 27  14  17  ar  
 28  14  35  1   
 29  15  17  ar  
 30  15  36  1   
 31  16  18  1   
 32  16  37  1   
 33  16  38  1   
 34  17  39  1   
 35  18  19  1   
 36  18  40  1   
 37  18  41  1   
 38  19  20  1   
 39  19  21  1   
 40  19  42  1   
 41  20  22  1   
 42  20  43  1   
 43  20  44  1   
 44  21  23  1   
 45  21  45  1   
 46  21  46  1   
 47  22  24  1   
 48  22  47  1   
 49  22  48  1   
 50  23  24  1   
 51  23  49  1   
 52  23  50  1   
@<TRIPOS>SUBSTRUCTURE
  1 ****   7 GROUP 4 **** **** 0

# MOE 2024.06 (io_trps.svl 2023.06)
