@<TRIPOS>MOLECULE
NONAME
35 36 1 0 0 
SMALL
USER_CHARGES


@<TRIPOS>ATOM
  1 O        2.0360    -2.4880     0.4310 O.2   1 <1>  -0.5700 
  2 C        1.9860    -1.5220    -0.2840 C.2   1 <1>   0.5690 
  3 N        0.9140    -1.3170    -1.0690 N.am  1 <1>  -0.8000 
  4 C        3.1510    -0.5440    -0.3010 C.3   1 <1>  -0.0190 
  5 C        4.2620    -1.0770     0.6140 C.3   1 <1>   0.3430 
  6 C        2.7250     0.8800     0.1240 C.3   1 <1>  -0.1600 
  7 N        5.4760    -0.1860     0.6480 N.4   1 <1>  -0.9590 
  8 C        3.9060     1.7320     0.6310 C.3   1 <1>  -0.1600 
  9 C        5.2590     1.2100     0.1470 C.3   1 <1>   0.3430 
 10 C        6.6420    -0.8280    -0.0190 C.3   1 <1>   0.4860 
 11 C        7.8840    -0.0170     0.2940 C.ar  1 <1>  -0.1440 
 12 C        8.4660    -0.0860     1.5530 C.ar  1 <1>  -0.1500 
 13 C        8.4450     0.8060    -0.6730 C.ar  1 <1>  -0.1500 
 14 C        9.5870     0.6710     1.8440 C.ar  1 <1>  -0.1500 
 15 C        9.5660     1.5620    -0.3800 C.ar  1 <1>  -0.1500 
 16 C       10.1350     1.4960     0.8790 C.ar  1 <1>  -0.1500 
 17 H        0.1410    -1.9880    -1.0380 H     1 <1>   0.3700 
 18 H        0.7790    -0.5220    -1.6940 H     1 <1>   0.3700 
 19 H        3.5290    -0.5220    -1.3070 H     1 <1>   0.0800 
 20 H        4.5340    -2.0730     0.3010 H     1 <1>   0.0800 
 21 H        3.8550    -1.1590     1.6100 H     1 <1>   0.0800 
 22 H        1.9850     0.8230     0.9060 H     1 <1>   0.0800 
 23 H        2.2610     1.3690    -0.7160 H     1 <1>   0.0800 
 24 H        5.7530    -0.0900     1.6340 H     1 <1>   0.4500 
 25 H        3.9070     1.7510     1.7080 H     1 <1>   0.0800 
 26 H        3.7790     2.7490     0.3000 H     1 <1>   0.0800 
 27 H        5.2740     1.2180    -0.9310 H     1 <1>   0.0800 
 28 H        6.0510     1.8540     0.4980 H     1 <1>   0.0800 
 29 H        6.4870    -0.8700    -1.0850 H     1 <1>   0.0800 
 30 H        6.7740    -1.8330     0.3480 H     1 <1>   0.0800 
 31 H        8.0640    -0.7270     2.3190 H     1 <1>   0.1500 
 32 H        8.0240     0.8690    -1.6620 H     1 <1>   0.1500 
 33 H       10.0400     0.6190     2.8200 H     1 <1>   0.1500 
 34 H       10.0030     2.2010    -1.1300 H     1 <1>   0.1500 
 35 H       11.0090     2.0840     1.1060 H     1 <1>   0.1500 
@<TRIPOS>BOND
  1   1   2  2   
  2   2   3  am  
  3   2   4  1   
  4   3  17  1   
  5   3  18  1   
  6   4   5  1   
  7   4   6  1   
  8   4  19  1   
  9   5   7  1   
 10   5  20  1   
 11   5  21  1   
 12   6   8  1   
 13   6  22  1   
 14   6  23  1   
 15   7   9  1   
 16   7  10  1   
 17   7  24  1   
 18   8   9  1   
 19   8  25  1   
 20   8  26  1   
 21   9  27  1   
 22   9  28  1   
 23  10  11  1   
 24  10  29  1   
 25  10  30  1   
 26  11  12  ar  
 27  11  13  ar  
 28  12  14  ar  
 29  12  31  1   
 30  13  15  ar  
 31  13  32  1   
 32  14  16  ar  
 33  14  33  1   
 34  15  16  ar  
 35  15  34  1   
 36  16  35  1   
@<TRIPOS>SUBSTRUCTURE
  1 ****   7 GROUP 4 **** **** 0

# MOE 2024.06 (io_trps.svl 2023.06)
