@<TRIPOS>MOLECULE
NONAME
33 36 1 0 0 
SMALL
USER_CHARGES


@<TRIPOS>ATOM
  1 S       -0.2440     0.6170    -0.5060 S.3   1 <1>  -0.1970 
  2 C        1.4330     0.6930    -0.0080 C.2   1 <1>   0.2420 
  3 C       -0.1660    -1.1510    -0.3270 C.2   1 <1>   0.5300 
  4 N        2.2920     1.6260     0.1990 N.2   1 <1>  -0.3380 
  5 N        1.8740    -0.5360     0.2060 N.pl3 1 <1>   0.5050 
  6 N        0.9700    -1.5950     0.0430 N.2   1 <1>  -0.6520 
  7 C       -1.4450    -1.9150    -0.6440 C.3   1 <1>   0.2610 
  8 N        3.4060     0.9740     0.5840 N.2   1 <1>  -0.3380 
  9 C        3.1400    -0.2990     0.5780 C.2   1 <1>   0.0060 
 10 O       -2.4640    -1.5330     0.2690 O.3   1 <1>  -0.3630 
 11 C       -1.2340    -3.4370    -0.5790 C.3   1 <1>   0.1200 
 12 C        4.1050    -1.4060     0.9420 C.3   1 <1>   0.3000 
 13 C       -3.5650    -2.3240     0.3300 C.ar  1 <1>   0.0830 
 14 O       -2.4550    -4.1110    -0.8230 O.3   1 <1>  -0.3630 
 15 O        4.2050    -2.2960    -0.1280 O.3   1 <1>  -0.5600 
 16 C       -3.5640    -3.6050    -0.2270 C.ar  1 <1>   0.0830 
 17 C       -4.7030    -1.8410     0.9520 C.ar  1 <1>  -0.1500 
 18 C        5.1150    -3.3290     0.0750 C.3   1 <1>   0.0400 
 19 C       -4.7080    -4.3830    -0.1720 C.ar  1 <1>  -0.1500 
 20 C       -5.8430    -2.6260     1.0100 C.ar  1 <1>  -0.1500 
 21 C       -5.8470    -3.8920     0.4470 C.ar  1 <1>  -0.1500 
 22 H       -1.7750    -1.6450    -1.6300 H     1 <1>   0.0800 
 23 H       -0.8800    -3.7270     0.3940 H     1 <1>   0.0800 
 24 H       -0.5250    -3.7570    -1.3200 H     1 <1>   0.0800 
 25 H        3.7500    -1.9400     1.8050 H     1 <1>   0.0800 
 26 H        5.0780    -0.9910     1.1400 H     1 <1>   0.0800 
 27 H       -4.6930    -0.8570     1.3850 H     1 <1>   0.1500 
 28 H        5.1120    -3.9530    -0.8010 H     1 <1>   0.0800 
 29 H        4.8150    -3.9070     0.9320 H     1 <1>   0.0800 
 30 H        6.0980    -2.9150     0.2200 H     1 <1>   0.0800 
 31 H       -4.7020    -5.3650    -0.6080 H     1 <1>   0.1500 
 32 H       -6.7290    -2.2500     1.4920 H     1 <1>   0.1500 
 33 H       -6.7350    -4.4980     0.4910 H     1 <1>   0.1500 
@<TRIPOS>BOND
  1   1   2  1   
  2   1   3  1   
  3   2   4  2   
  4   2   5  1   
  5   3   6  2   
  6   3   7  1   
  7   4   8  1   
  8   5   6  1   
  9   5   9  1   
 10   7  10  1   
 11   7  11  1   
 12   7  22  1   
 13   8   9  2   
 14   9  12  1   
 15  10  13  1   
 16  11  14  1   
 17  11  23  1   
 18  11  24  1   
 19  12  15  1   
 20  12  25  1   
 21  12  26  1   
 22  13  16  ar  
 23  13  17  ar  
 24  14  16  1   
 25  15  18  1   
 26  16  19  ar  
 27  17  20  ar  
 28  17  27  1   
 29  18  28  1   
 30  18  29  1   
 31  18  30  1   
 32  19  21  ar  
 33  19  31  1   
 34  20  21  ar  
 35  20  32  1   
 36  21  33  1   
@<TRIPOS>SUBSTRUCTURE
  1 ****   3 GROUP 4 **** **** 0

# MOE 2024.06 (io_trps.svl 2023.06)
