@<TRIPOS>MOLECULE
NONAME
24 24 1 0 0 
SMALL
USER_CHARGES


@<TRIPOS>ATOM
  1 F        0.4430     0.3640     1.4240 F     1 <1>  -0.3400 
  2 C        1.1420     1.2360     0.6980 C.3   1 <1>   0.6800 
  3 F        1.1810     2.3240     1.4670 F     1 <1>  -0.3400 
  4 C        2.5740     0.6920     0.4780 C.3   1 <1>   0.6000 
  5 C        0.3360     1.5420    -0.5880 C.3   1 <1>   0.1400 
  6 F        3.3070     1.5170    -0.2700 F     1 <1>  -0.3400 
  7 F        2.5510    -0.4440    -0.2190 F     1 <1>  -0.3400 
  8 N        0.7930     2.7530    -1.3540 N.am  1 <1>  -0.7300 
  9 C        0.3450     4.0280    -1.1990 C.2   1 <1>   0.5440 
 10 O        1.1140     4.9060    -1.5200 O.2   1 <1>  -0.5700 
 11 C       -0.9600     4.3450    -0.6570 C.ar  1 <1>   0.0860 
 12 C       -2.1350     3.7850    -1.1390 C.ar  1 <1>  -0.1500 
 13 C       -1.1230     5.2430     0.3860 C.ar  1 <1>  -0.1500 
 14 C       -3.3500     4.1190    -0.5720 C.ar  1 <1>   0.1600 
 15 C       -2.3830     5.5110     0.8850 C.ar  1 <1>   0.1600 
 16 N       -3.5010     4.9650     0.4340 N.ar  1 <1>  -0.6200 
 17 H        3.1010     0.5140     1.3970 H     1 <1>   0.0800 
 18 H       -0.6940     1.6640    -0.3080 H     1 <1>   0.0800 
 19 H        0.3960     0.6900    -1.2410 H     1 <1>   0.0800 
 20 H        1.7440     2.7040    -1.7400 H     1 <1>   0.3700 
 21 H       -2.0980     3.0930    -1.9600 H     1 <1>   0.1500 
 22 H       -0.2600     5.7310     0.8030 H     1 <1>   0.1500 
 23 H       -4.2470     3.6710    -0.9640 H     1 <1>   0.1500 
 24 H       -2.4800     6.2110     1.6980 H     1 <1>   0.1500 
@<TRIPOS>BOND
  1   1   2  1   
  2   2   3  1   
  3   2   4  1   
  4   2   5  1   
  5   4   6  1   
  6   4   7  1   
  7   4  17  1   
  8   5   8  1   
  9   5  18  1   
 10   5  19  1   
 11   8   9  am  
 12   8  20  1   
 13   9  10  2   
 14   9  11  1   
 15  11  12  ar  
 16  11  13  ar  
 17  12  14  ar  
 18  12  21  1   
 19  13  15  ar  
 20  13  22  1   
 21  14  16  ar  
 22  14  23  1   
 23  15  16  ar  
 24  15  24  1   
@<TRIPOS>SUBSTRUCTURE
  1 ****   8 GROUP 4 **** **** 0

# MOE 2024.06 (io_trps.svl 2023.06)
