@<TRIPOS>MOLECULE
NONAME
40 40 1 0 0 
SMALL
USER_CHARGES


@<TRIPOS>ATOM
  1 S        0.3070    -0.1920     0.5270 S.o2  1 <1>   1.3330 
  2 O        1.3650    -0.9200    -0.1330 O.2   1 <1>  -0.6500 
  3 O        0.4180     0.1410     1.9250 O.2   1 <1>  -0.6500 
  4 N        0.0790     1.2710    -0.3600 N.am  1 <1>  -0.6930 
  5 C       -1.2200    -1.0590     0.2360 C.3   1 <1>  -0.1350 
  6 C       -1.0400     2.0590    -0.0920 C.ar  1 <1>   0.1990 
  7 C        1.3440     1.9400    -0.8090 C.3   1 <1>   0.3370 
  8 C       -1.1820     2.7420     1.1100 C.ar  1 <1>  -0.1500 
  9 C       -2.0570     2.1510    -1.0350 C.ar  1 <1>  -0.1500 
 10 C        2.0320     2.7980     0.2920 C.2   1 <1>   0.5690 
 11 C        1.0610     2.7420    -2.0900 C.3   1 <1>  -0.2400 
 12 C       -2.3110     3.4990     1.3690 C.ar  1 <1>  -0.1500 
 13 C       -3.1890     2.9040    -0.7810 C.ar  1 <1>  -0.1500 
 14 O        1.6710     3.9500     0.4130 O.2   1 <1>  -0.5700 
 15 N        3.0270     2.2950     1.1110 N.am  1 <1>  -0.6600 
 16 C       -3.3250     3.5820     0.4190 C.ar  1 <1>   0.0820 
 17 C        3.6110     0.9250     1.0420 C.3   1 <1>   0.0600 
 18 C        3.5480     3.0880     2.2620 C.3   1 <1>   0.0600 
 19 O       -4.4670     4.3010     0.5890 O.3   1 <1>  -0.3630 
 20 C       -4.6420     5.1130     1.7290 C.3   1 <1>   0.0400 
 21 H       -1.1920    -2.0200     0.7110 H     1 <1>   0.0800 
 22 H       -1.3720    -1.1980    -0.8160 H     1 <1>   0.0800 
 23 H       -2.0450    -0.5030     0.6360 H     1 <1>   0.0800 
 24 H        2.0350     1.1790    -1.1090 H     1 <1>   0.0800 
 25 H       -0.3990     2.6810     1.8450 H     1 <1>   0.1500 
 26 H       -1.9540     1.6310    -1.9690 H     1 <1>   0.1500 
 27 H        0.3960     3.5630    -1.8860 H     1 <1>   0.0800 
 28 H        0.6300     2.1060    -2.8410 H     1 <1>   0.0800 
 29 H        1.9810     3.1480    -2.4690 H     1 <1>   0.0800 
 30 H       -2.3780     4.0110     2.3090 H     1 <1>   0.1500 
 31 H       -3.9740     2.9750    -1.5120 H     1 <1>   0.1500 
 32 H        3.0810     0.2710     1.7130 H     1 <1>   0.0800 
 33 H        4.6460     0.9530     1.3370 H     1 <1>   0.0800 
 34 H        3.5680     0.5220     0.0470 H     1 <1>   0.0800 
 35 H        3.0440     4.0360     2.3440 H     1 <1>   0.0800 
 36 H        4.5990     3.2710     2.1310 H     1 <1>   0.0800 
 37 H        3.3930     2.5420     3.1760 H     1 <1>   0.0800 
 38 H       -5.5850     5.6200     1.6370 H     1 <1>   0.0800 
 39 H       -3.8430     5.8330     1.7700 H     1 <1>   0.0800 
 40 H       -4.6460     4.4900     2.6050 H     1 <1>   0.0800 
@<TRIPOS>BOND
  1   1   2  2   
  2   1   3  2   
  3   1   4  am  
  4   1   5  1   
  5   4   6  1   
  6   4   7  1   
  7   5  21  1   
  8   5  22  1   
  9   5  23  1   
 10   6   8  ar  
 11   6   9  ar  
 12   7  10  1   
 13   7  11  1   
 14   7  24  1   
 15   8  12  ar  
 16   8  25  1   
 17   9  13  ar  
 18   9  26  1   
 19  10  14  2   
 20  10  15  am  
 21  11  27  1   
 22  11  28  1   
 23  11  29  1   
 24  12  16  ar  
 25  12  30  1   
 26  13  16  ar  
 27  13  31  1   
 28  15  17  1   
 29  15  18  1   
 30  16  19  1   
 31  17  32  1   
 32  17  33  1   
 33  17  34  1   
 34  18  35  1   
 35  18  36  1   
 36  18  37  1   
 37  19  20  1   
 38  20  38  1   
 39  20  39  1   
 40  20  40  1   
@<TRIPOS>SUBSTRUCTURE
  1 ****   6 GROUP 4 **** **** 0

# MOE 2024.06 (io_trps.svl 2023.06)
