@<TRIPOS>MOLECULE
NONAME
48 50 1 0 0 
SMALL
USER_CHARGES


@<TRIPOS>ATOM
  1 O        0.0790    -0.4050    -0.4760 O.3   1 <1>  -0.5600 
  2 C        1.3980    -0.0070    -0.2770 C.3   1 <1>   0.2000 
  3 C       -0.3120    -0.5240    -1.8130 C.3   1 <1>   0.1200 
  4 C        2.3070    -1.2440    -0.3000 C.3   1 <1>  -0.1600 
  5 C        1.4550     0.6980     1.0810 C.3   1 <1>  -0.1600 
  6 C       -1.7570    -1.0250    -1.8620 C.3   1 <1>   0.2000 
  7 C        3.7510    -0.8800     0.0780 C.3   1 <1>  -0.1600 
  8 C        2.8970     1.0690     1.4570 C.3   1 <1>  -0.1600 
  9 O       -2.1710    -1.0270    -3.1890 O.3   1 <1>  -0.6800 
 10 C       -2.6990    -0.1450    -1.0260 C.3   1 <1>   0.0960 
 11 C        3.8080    -0.1660     1.4350 C.3   1 <1>  -0.1600 
 12 N       -4.0920    -0.6110    -1.1460 N.pl3 1 <1>   0.0480 
 13 C       -4.6220    -1.7300    -0.5870 C.ar  1 <1>  -0.1520 
 14 C       -5.0640    -0.1160    -1.9540 C.2   1 <1>   0.0360 
 15 C       -5.8980    -1.8320    -1.1030 C.ar  1 <1>   0.2270 
 16 C       -4.1330    -2.6780     0.3130 C.ar  1 <1>  -0.1500 
 17 N       -6.1510    -0.8060    -1.9620 N.2   1 <1>  -0.5650 
 18 C       -6.7140    -2.8940    -0.7230 C.ar  1 <1>  -0.1500 
 19 C       -4.9420    -3.7310     0.6870 C.ar  1 <1>  -0.1430 
 20 C       -6.2450    -3.8410     0.1650 C.ar  1 <1>  -0.1430 
 21 C       -4.4060    -4.7630     1.6690 C.3   1 <1>  -0.0970 
 22 C       -7.1560    -4.9930     0.5640 C.3   1 <1>  -0.0970 
 23 H        1.6830     0.6870    -1.0500 H     1 <1>   0.0800 
 24 H        0.3340    -1.2270    -2.3090 H     1 <1>   0.0800 
 25 H       -0.2360     0.4440    -2.2770 H     1 <1>   0.0800 
 26 H        2.3060    -1.6860    -1.2800 H     1 <1>   0.0800 
 27 H        1.9330    -1.9680     0.4020 H     1 <1>   0.0800 
 28 H        1.0520     0.0440     1.8350 H     1 <1>   0.0800 
 29 H        0.8540     1.5890     1.0450 H     1 <1>   0.0800 
 30 H       -1.7860    -2.0410    -1.5070 H     1 <1>   0.0800 
 31 H        4.1660    -0.2360    -0.6790 H     1 <1>   0.0800 
 32 H        4.3500    -1.7730     0.1160 H     1 <1>   0.0800 
 33 H        2.9110     1.5100     2.4390 H     1 <1>   0.0800 
 34 H        3.2720     1.8000     0.7610 H     1 <1>   0.0800 
 35 H       -3.0570    -1.4420    -3.2640 H     1 <1>   0.4000 
 36 H       -2.6320     0.8760    -1.3530 H     1 <1>   0.0800 
 37 H       -2.4120    -0.1860     0.0090 H     1 <1>   0.0800 
 38 H        4.8210     0.1300     1.6450 H     1 <1>   0.0800 
 39 H        3.4980    -0.8490     2.2090 H     1 <1>   0.0800 
 40 H       -4.9100     0.7750    -2.5370 H     1 <1>   0.1500 
 41 H       -3.1370    -2.5740     0.7040 H     1 <1>   0.1500 
 42 H       -7.7000    -2.9410    -1.1440 H     1 <1>   0.1500 
 43 H       -3.3990    -4.5270     1.9650 H     1 <1>   0.0800 
 44 H       -4.4040    -5.7370     1.2160 H     1 <1>   0.0800 
 45 H       -5.0190    -4.7850     2.5520 H     1 <1>   0.0800 
 46 H       -8.1080    -4.9180     0.0720 H     1 <1>   0.0800 
 47 H       -7.3240    -4.9800     1.6260 H     1 <1>   0.0800 
 48 H       -6.7070    -5.9310     0.2890 H     1 <1>   0.0800 
@<TRIPOS>BOND
  1   1   2  1   
  2   1   3  1   
  3   2   4  1   
  4   2   5  1   
  5   2  23  1   
  6   3   6  1   
  7   3  24  1   
  8   3  25  1   
  9   4   7  1   
 10   4  26  1   
 11   4  27  1   
 12   5   8  1   
 13   5  28  1   
 14   5  29  1   
 15   6   9  1   
 16   6  10  1   
 17   6  30  1   
 18   7  11  1   
 19   7  31  1   
 20   7  32  1   
 21   8  11  1   
 22   8  33  1   
 23   8  34  1   
 24   9  35  1   
 25  10  12  1   
 26  10  36  1   
 27  10  37  1   
 28  11  38  1   
 29  11  39  1   
 30  12  13  1   
 31  12  14  1   
 32  13  15  ar  
 33  13  16  ar  
 34  14  17  2   
 35  14  40  1   
 36  15  17  1   
 37  15  18  ar  
 38  16  19  ar  
 39  16  41  1   
 40  18  20  ar  
 41  18  42  1   
 42  19  20  ar  
 43  19  21  1   
 44  20  22  1   
 45  21  43  1   
 46  21  44  1   
 47  21  45  1   
 48  22  46  1   
 49  22  47  1   
 50  22  48  1   
@<TRIPOS>SUBSTRUCTURE
  1 ****  10 GROUP 4 **** **** 0

# MOE 2024.06 (io_trps.svl 2023.06)
