@<TRIPOS>MOLECULE
NONAME
48 50 1 0 0 
SMALL
USER_CHARGES


@<TRIPOS>ATOM
  1 O       -0.7900    -2.2350     2.5890 O.2   1 <1>  -0.5700 
  2 C        0.3600    -2.2830     2.1990 C.2   1 <1>   0.5440 
  3 N        1.1750    -1.2790     2.6160 N.am  1 <1>  -0.7300 
  4 C        0.8020    -3.3180     1.2900 C.ar  1 <1>   0.0860 
  5 C        2.3310    -0.7390     1.8620 C.3   1 <1>   0.1400 
  6 C        0.1190    -3.5540     0.0870 C.ar  1 <1>   0.1170 
  7 C        1.9280    -4.0880     1.5850 C.ar  1 <1>  -0.1500 
  8 C        1.8750    -0.0320     0.5720 C.3   1 <1>  -0.0800 
  9 N       -1.0240    -2.7980    -0.2130 N.am  1 <1>  -0.5470 
 10 C        0.5890    -4.5400    -0.7780 C.ar  1 <1>  -0.1500 
 11 C        2.3820    -5.0610     0.7170 C.ar  1 <1>  -0.1500 
 12 C        3.0910     0.5300    -0.1740 C.3   1 <1>  -0.2400 
 13 C        0.8700     1.0990     0.8440 C.3   1 <1>  -0.2400 
 14 C       -1.5910    -2.4170    -1.4000 C.2   1 <1>   0.5690 
 15 C        1.7090    -5.2860    -0.4710 C.ar  1 <1>  -0.1500 
 16 O       -1.1540    -2.7500    -2.4760 O.2   1 <1>  -0.5700 
 17 C       -2.8250    -1.5200    -1.3670 C.3   1 <1>   0.2610 
 18 O       -3.1130    -1.1110    -0.0310 O.3   1 <1>  -0.3630 
 19 C       -4.0370    -2.2440    -1.9700 C.3   1 <1>   0.1200 
 20 C       -4.3540    -0.6220     0.2160 C.ar  1 <1>   0.0830 
 21 O       -5.1980    -1.4370    -1.8760 O.3   1 <1>  -0.3620 
 22 C       -5.3880    -0.7690    -0.7100 C.ar  1 <1>   0.0830 
 23 C       -4.5830     0.0360     1.4120 C.ar  1 <1>  -0.1500 
 24 C       -6.6360    -0.2340    -0.4410 C.ar  1 <1>  -0.1500 
 25 C       -5.8360     0.5640     1.6800 C.ar  1 <1>  -0.1500 
 26 C       -6.8590     0.4320     0.7540 C.ar  1 <1>  -0.1500 
 27 H        0.7120    -0.6020     3.2260 H     1 <1>   0.3700 
 28 H        3.0060    -1.5400     1.6160 H     1 <1>   0.0800 
 29 H        2.8600    -0.0430     2.4910 H     1 <1>   0.0800 
 30 H        2.4480    -3.9160     2.5110 H     1 <1>   0.1500 
 31 H        1.4070    -0.7600    -0.0700 H     1 <1>   0.0800 
 32 H       -1.4730    -2.3790     0.6170 H     1 <1>   0.3700 
 33 H        0.0720    -4.7300    -1.7010 H     1 <1>   0.1500 
 34 H        3.2530    -5.6460     0.9600 H     1 <1>   0.1500 
 35 H        3.5940     1.2730     0.4200 H     1 <1>   0.0800 
 36 H        2.7840     0.9830    -1.1000 H     1 <1>   0.0800 
 37 H        3.7870    -0.2590    -0.4030 H     1 <1>   0.0800 
 38 H        1.2880     1.8270     1.5160 H     1 <1>   0.0800 
 39 H       -0.0350     0.7080     1.2770 H     1 <1>   0.0800 
 40 H        0.6070     1.5920    -0.0750 H     1 <1>   0.0800 
 41 H        2.0570    -6.0420    -1.1540 H     1 <1>   0.1500 
 42 H       -2.6190    -0.6350    -1.9400 H     1 <1>   0.0800 
 43 H       -4.2240    -3.1640    -1.4440 H     1 <1>   0.0800 
 44 H       -3.8690    -2.4630    -3.0090 H     1 <1>   0.0800 
 45 H       -3.7830     0.1320     2.1240 H     1 <1>   0.1500 
 46 H       -7.4250    -0.3450    -1.1630 H     1 <1>   0.1500 
 47 H       -6.0140     1.0770     2.6090 H     1 <1>   0.1500 
 48 H       -7.8310     0.8460     0.9630 H     1 <1>   0.1500 
@<TRIPOS>BOND
  1   1   2  2   
  2   2   3  am  
  3   2   4  1   
  4   3   5  1   
  5   3  27  1   
  6   4   6  ar  
  7   4   7  ar  
  8   5   8  1   
  9   5  28  1   
 10   5  29  1   
 11   6   9  1   
 12   6  10  ar  
 13   7  11  ar  
 14   7  30  1   
 15   8  12  1   
 16   8  13  1   
 17   8  31  1   
 18   9  14  am  
 19   9  32  1   
 20  10  15  ar  
 21  10  33  1   
 22  11  15  ar  
 23  11  34  1   
 24  12  35  1   
 25  12  36  1   
 26  12  37  1   
 27  13  38  1   
 28  13  39  1   
 29  13  40  1   
 30  14  16  2   
 31  14  17  1   
 32  15  41  1   
 33  17  18  1   
 34  17  19  1   
 35  17  42  1   
 36  18  20  1   
 37  19  21  1   
 38  19  43  1   
 39  19  44  1   
 40  20  22  ar  
 41  20  23  ar  
 42  21  22  1   
 43  22  24  ar  
 44  23  25  ar  
 45  23  45  1   
 46  24  26  ar  
 47  24  46  1   
 48  25  26  ar  
 49  25  47  1   
 50  26  48  1   
@<TRIPOS>SUBSTRUCTURE
  1 ****   9 GROUP 4 **** **** 0

# MOE 2024.06 (io_trps.svl 2023.06)
