@<TRIPOS>MOLECULE
NONAME
40 41 1 0 0 
SMALL
USER_CHARGES


@<TRIPOS>ATOM
  1 CL       0.6270     0.4920    -1.3000 Cl    1 <1>  -0.1770 
  2 C        1.9730    -0.5970    -1.0780 C.ar  1 <1>   0.1770 
  3 C        2.4330    -0.8560     0.1990 C.ar  1 <1>  -0.1500 
  4 C        2.5590    -1.1840    -2.1830 C.ar  1 <1>  -0.1500 
  5 C        3.5000    -1.7220     0.3710 C.ar  1 <1>  -0.1500 
  6 C        3.6260    -2.0490    -2.0050 C.ar  1 <1>  -0.1500 
  7 C        4.0990    -2.3240    -0.7280 C.ar  1 <1>  -0.1430 
  8 C        5.2630    -3.2810    -0.5280 C.3   1 <1>   0.2640 
  9 O        6.3990    -2.5300    -0.2240 O.3   1 <1>  -0.5600 
 10 C        7.5640    -3.2740    -0.0430 C.3   1 <1>   0.1200 
 11 C        8.7120    -2.2960     0.2490 C.3   1 <1>   0.2000 
 12 O        8.6610    -1.2700    -0.6920 O.3   1 <1>  -0.6800 
 13 C       10.1060    -2.9580     0.2000 C.3   1 <1>   0.3430 
 14 N       11.1670    -1.9410    -0.0810 N.4   1 <1>  -0.9590 
 15 C       12.4160    -2.4920    -0.7050 C.3   1 <1>   0.3430 
 16 C       11.4660    -1.0110     1.0550 C.3   1 <1>   0.3430 
 17 C       13.5320    -1.4270    -0.8080 C.3   1 <1>   0.1200 
 18 C       12.4540     0.1010     0.6290 C.3   1 <1>   0.1200 
 19 O       13.0090    -0.1400    -0.6380 O.3   1 <1>  -0.5600 
 20 H        1.9620    -0.3840     1.0420 H     1 <1>   0.1500 
 21 H        2.1840    -0.9640    -3.1660 H     1 <1>   0.1500 
 22 H        3.8660    -1.9230     1.3630 H     1 <1>   0.1500 
 23 H        4.0850    -2.5050    -2.8660 H     1 <1>   0.1500 
 24 H        5.4480    -3.8460    -1.4260 H     1 <1>   0.0800 
 25 H        5.0590    -3.9520     0.2880 H     1 <1>   0.0800 
 26 H        7.7600    -3.8310    -0.9430 H     1 <1>   0.0800 
 27 H        7.4200    -3.9520     0.7810 H     1 <1>   0.0800 
 28 H        8.5520    -1.8560     1.2180 H     1 <1>   0.0800 
 29 H        7.7050    -1.0590    -0.8370 H     1 <1>   0.4000 
 30 H       10.0990    -3.6870    -0.5930 H     1 <1>   0.0800 
 31 H       10.3070    -3.4750     1.1240 H     1 <1>   0.0800 
 32 H       10.7330    -1.3190    -0.7940 H     1 <1>   0.4500 
 33 H       12.1920    -2.8540    -1.6950 H     1 <1>   0.0800 
 34 H       12.7850    -3.3240    -0.1300 H     1 <1>   0.0800 
 35 H       11.8940    -1.5620     1.8760 H     1 <1>   0.0800 
 36 H       10.5570    -0.5510     1.4070 H     1 <1>   0.0800 
 37 H       14.0000    -1.4710    -1.7760 H     1 <1>   0.0800 
 38 H       14.2880    -1.5910    -0.0600 H     1 <1>   0.0800 
 39 H       13.2550     0.1900     1.3430 H     1 <1>   0.0800 
 40 H       11.9430     1.0470     0.5800 H     1 <1>   0.0800 
@<TRIPOS>BOND
  1   1   2  1   
  2   2   3  ar  
  3   2   4  ar  
  4   3   5  ar  
  5   3  20  1   
  6   4   6  ar  
  7   4  21  1   
  8   5   7  ar  
  9   5  22  1   
 10   6   7  ar  
 11   6  23  1   
 12   7   8  1   
 13   8   9  1   
 14   8  24  1   
 15   8  25  1   
 16   9  10  1   
 17  10  11  1   
 18  10  26  1   
 19  10  27  1   
 20  11  12  1   
 21  11  13  1   
 22  11  28  1   
 23  12  29  1   
 24  13  14  1   
 25  13  30  1   
 26  13  31  1   
 27  14  15  1   
 28  14  16  1   
 29  14  32  1   
 30  15  17  1   
 31  15  33  1   
 32  15  34  1   
 33  16  18  1   
 34  16  35  1   
 35  16  36  1   
 36  17  19  1   
 37  17  37  1   
 38  17  38  1   
 39  18  19  1   
 40  18  39  1   
 41  18  40  1   
@<TRIPOS>SUBSTRUCTURE
  1 ****   9 GROUP 4 **** **** 0

# MOE 2024.06 (io_trps.svl 2023.06)
