@<TRIPOS>MOLECULE
NONAME
49 50 1 0 0 
SMALL
USER_CHARGES


@<TRIPOS>ATOM
  1 O        0.7460    -1.1930     1.0220 O.2   1 <1>  -0.5700 
  2 C        0.3660    -1.4250    -0.1100 C.2   1 <1>   0.6900 
  3 N        1.2760    -1.7220    -1.0780 N.am  1 <1>  -0.6600 
  4 N       -0.9440    -1.4530    -0.4280 N.am  1 <1>  -0.7300 
  5 C        2.6250    -1.1030    -0.9670 C.3   1 <1>   0.1400 
  6 C        1.3270    -3.1310    -1.5440 C.3   1 <1>   0.1400 
  7 C       -2.0470    -1.1340     0.5020 C.3   1 <1>   0.1400 
  8 C        3.5140    -1.9330    -0.0190 C.3   1 <1>   0.3430 
  9 C        2.2170    -3.9640    -0.5960 C.3   1 <1>   0.3430 
 10 C       -3.2170    -2.0800     0.2320 C.3   1 <1>  -0.1600 
 11 N        3.6080    -3.3890    -0.4280 N.4   1 <1>  -0.9590 
 12 C       -4.3890    -1.7950     1.1800 C.3   1 <1>  -0.1600 
 13 C        4.4410    -4.1860     0.5300 C.3   1 <1>   0.4230 
 14 C       -5.5590    -2.7440     0.9100 C.3   1 <1>  -0.2400 
 15 C        5.8580    -3.5850     0.6330 C.3   1 <1>  -0.1600 
 16 C        4.5240    -5.6560     0.0710 C.3   1 <1>  -0.1600 
 17 C        6.7830    -4.4270     1.5230 C.3   1 <1>  -0.1600 
 18 C        5.4530    -6.4920     0.9630 C.3   1 <1>  -0.1600 
 19 C        6.8530    -5.8780     1.0390 C.3   1 <1>  -0.1600 
 20 H       -1.1800    -1.4270    -1.4190 H     1 <1>   0.3700 
 21 H        2.5290    -0.1030    -0.5770 H     1 <1>   0.0800 
 22 H        3.0760    -1.0350    -1.9410 H     1 <1>   0.0800 
 23 H        1.7110    -3.1680    -2.5480 H     1 <1>   0.0800 
 24 H        0.3340    -3.5480    -1.5540 H     1 <1>   0.0800 
 25 H       -2.3530    -0.1120     0.3530 H     1 <1>   0.0800 
 26 H       -1.7130    -1.2440     1.5200 H     1 <1>   0.0800 
 27 H        3.0990    -1.8630     0.9740 H     1 <1>   0.0800 
 28 H        4.4930    -1.4870     0.0010 H     1 <1>   0.0800 
 29 H        2.2750    -4.9660    -0.9840 H     1 <1>   0.0800 
 30 H        1.7310    -4.0090     0.3650 H     1 <1>   0.0800 
 31 H       -2.8880    -3.0950     0.3720 H     1 <1>   0.0800 
 32 H       -3.5470    -1.9590    -0.7850 H     1 <1>   0.0800 
 33 H        4.0790    -3.4280    -1.3390 H     1 <1>   0.4500 
 34 H       -4.7210    -0.7780     1.0510 H     1 <1>   0.0800 
 35 H       -4.0660    -1.9130     2.2010 H     1 <1>   0.0800 
 36 H        3.9870    -4.1580     1.5080 H     1 <1>   0.0800 
 37 H       -5.9160    -2.6270    -0.0980 H     1 <1>   0.0800 
 38 H       -6.3690    -2.5310     1.5850 H     1 <1>   0.0800 
 39 H       -5.2560    -3.7670     1.0540 H     1 <1>   0.0800 
 40 H        5.8240    -2.6020     1.0640 H     1 <1>   0.0800 
 41 H        6.2960    -3.5180    -0.3470 H     1 <1>   0.0800 
 42 H        4.8900    -5.7010    -0.9390 H     1 <1>   0.0800 
 43 H        3.5560    -6.1220     0.1100 H     1 <1>   0.0800 
 44 H        6.4260    -4.4080     2.5390 H     1 <1>   0.0800 
 45 H        7.7740    -4.0030     1.5200 H     1 <1>   0.0800 
 46 H        5.5260    -7.4940     0.5730 H     1 <1>   0.0800 
 47 H        5.0410    -6.5600     1.9560 H     1 <1>   0.0800 
 48 H        7.4630    -6.4540     1.7140 H     1 <1>   0.0800 
 49 H        7.3190    -5.9150     0.0680 H     1 <1>   0.0800 
@<TRIPOS>BOND
  1   1   2  2   
  2   2   3  am  
  3   2   4  am  
  4   3   5  1   
  5   3   6  1   
  6   4   7  1   
  7   4  20  1   
  8   5   8  1   
  9   5  21  1   
 10   5  22  1   
 11   6   9  1   
 12   6  23  1   
 13   6  24  1   
 14   7  10  1   
 15   7  25  1   
 16   7  26  1   
 17   8  11  1   
 18   8  27  1   
 19   8  28  1   
 20   9  11  1   
 21   9  29  1   
 22   9  30  1   
 23  10  12  1   
 24  10  31  1   
 25  10  32  1   
 26  11  13  1   
 27  11  33  1   
 28  12  14  1   
 29  12  34  1   
 30  12  35  1   
 31  13  15  1   
 32  13  16  1   
 33  13  36  1   
 34  14  37  1   
 35  14  38  1   
 36  14  39  1   
 37  15  17  1   
 38  15  40  1   
 39  15  41  1   
 40  16  18  1   
 41  16  42  1   
 42  16  43  1   
 43  17  19  1   
 44  17  44  1   
 45  17  45  1   
 46  18  19  1   
 47  18  46  1   
 48  18  47  1   
 49  19  48  1   
 50  19  49  1   
@<TRIPOS>SUBSTRUCTURE
  1 ****   9 GROUP 4 **** **** 0

# MOE 2024.06 (io_trps.svl 2023.06)
