@<TRIPOS>MOLECULE
NONAME
50 51 1 0 0 
SMALL
USER_CHARGES


@<TRIPOS>ATOM
  1 O       -0.7220    -5.8780    -0.2070 O.3   1 <1>  -0.3630 
  2 C        0.4810    -6.5040    -0.1580 C.ar  1 <1>   0.0830 
  3 C       -1.8380    -6.3820     0.4810 C.3   1 <1>   0.1200 
  4 C        1.5080    -5.9440    -0.8970 C.ar  1 <1>  -0.1500 
  5 C        0.7300    -7.6560     0.5780 C.ar  1 <1>  -0.1500 
  6 C       -3.0110    -5.4490     0.1810 C.3   1 <1>  -0.1600 
  7 C        2.7640    -6.5220    -0.9040 C.ar  1 <1>  -0.1500 
  8 C        1.9900    -8.2310     0.5680 C.ar  1 <1>  -0.1500 
  9 C       -4.2810    -5.9290     0.8790 C.3   1 <1>   0.3430 
 10 C        3.0310    -7.6740    -0.1710 C.ar  1 <1>  -0.1440 
 11 N       -5.3940    -4.9580     0.6630 N.4   1 <1>  -0.9590 
 12 C        4.4510    -8.2820    -0.2280 C.3   1 <1>   0.2870 
 13 C       -6.5240    -5.2340     1.6040 C.3   1 <1>   0.2630 
 14 C       -5.8870    -4.9600    -0.7520 C.3   1 <1>   0.2630 
 15 C        5.5160    -7.1750    -0.0510 C.ar  1 <1>  -0.1430 
 16 C        4.5610    -9.0110    -1.5770 C.3   1 <1>  -0.2400 
 17 C        4.7070    -9.3170     0.8810 C.3   1 <1>  -0.2400 
 18 C        5.3610    -6.2530     0.9790 C.ar  1 <1>  -0.1500 
 19 C        6.6400    -7.0590    -0.8660 C.ar  1 <1>  -0.1500 
 20 C        6.2870    -5.2460     1.1880 C.ar  1 <1>  -0.1500 
 21 C        7.5690    -6.0530    -0.6590 C.ar  1 <1>  -0.1500 
 22 C        7.3940    -5.1440     0.3670 C.ar  1 <1>  -0.1500 
 23 H       -1.6050    -6.3960     1.5330 H     1 <1>   0.0800 
 24 H       -2.0290    -7.3800     0.1240 H     1 <1>   0.0800 
 25 H        1.3210    -5.0520    -1.4680 H     1 <1>   0.1500 
 26 H       -0.0360    -8.1240     1.1650 H     1 <1>   0.1500 
 27 H       -3.1550    -5.4290    -0.8840 H     1 <1>   0.0800 
 28 H       -2.7560    -4.4630     0.5290 H     1 <1>   0.0800 
 29 H        3.5430    -6.0640    -1.4880 H     1 <1>   0.1500 
 30 H        2.1360    -9.1230     1.1470 H     1 <1>   0.1500 
 31 H       -4.0840    -6.0180     1.9360 H     1 <1>   0.0800 
 32 H       -4.5620    -6.9020     0.5060 H     1 <1>   0.0800 
 33 H       -5.0270    -4.0160     0.8730 H     1 <1>   0.4500 
 34 H       -6.9350    -6.2130     1.4200 H     1 <1>   0.0800 
 35 H       -7.3060    -4.5020     1.4740 H     1 <1>   0.0800 
 36 H       -6.1820    -5.1890     2.6250 H     1 <1>   0.0800 
 37 H       -6.2490    -5.9380    -1.0230 H     1 <1>   0.0800 
 38 H       -5.0930    -4.6870    -1.4290 H     1 <1>   0.0800 
 39 H       -6.6900    -4.2500    -0.8700 H     1 <1>   0.0800 
 40 H        4.5060    -8.3070    -2.3880 H     1 <1>   0.0800 
 41 H        3.7490    -9.7080    -1.6840 H     1 <1>   0.0800 
 42 H        5.4840    -9.5580    -1.6480 H     1 <1>   0.0800 
 43 H        4.5210    -8.8830     1.8470 H     1 <1>   0.0800 
 44 H        5.7330    -9.6380     0.8510 H     1 <1>   0.0800 
 45 H        4.0820   -10.1810     0.7560 H     1 <1>   0.0800 
 46 H        4.5050    -6.3130     1.6290 H     1 <1>   0.1500 
 47 H        6.8190    -7.7440    -1.6730 H     1 <1>   0.1500 
 48 H        6.1430    -4.5430     1.9890 H     1 <1>   0.1500 
 49 H        8.4300    -5.9780    -1.3000 H     1 <1>   0.1500 
 50 H        8.1150    -4.3630     0.5270 H     1 <1>   0.1500 
@<TRIPOS>BOND
  1   1   2  1   
  2   1   3  1   
  3   2   4  ar  
  4   2   5  ar  
  5   3   6  1   
  6   3  23  1   
  7   3  24  1   
  8   4   7  ar  
  9   4  25  1   
 10   5   8  ar  
 11   5  26  1   
 12   6   9  1   
 13   6  27  1   
 14   6  28  1   
 15   7  10  ar  
 16   7  29  1   
 17   8  10  ar  
 18   8  30  1   
 19   9  11  1   
 20   9  31  1   
 21   9  32  1   
 22  10  12  1   
 23  11  13  1   
 24  11  14  1   
 25  11  33  1   
 26  12  15  1   
 27  12  16  1   
 28  12  17  1   
 29  13  34  1   
 30  13  35  1   
 31  13  36  1   
 32  14  37  1   
 33  14  38  1   
 34  14  39  1   
 35  15  18  ar  
 36  15  19  ar  
 37  16  40  1   
 38  16  41  1   
 39  16  42  1   
 40  17  43  1   
 41  17  44  1   
 42  17  45  1   
 43  18  20  ar  
 44  18  46  1   
 45  19  21  ar  
 46  19  47  1   
 47  20  22  ar  
 48  20  48  1   
 49  21  22  ar  
 50  21  49  1   
 51  22  50  1   
@<TRIPOS>SUBSTRUCTURE
  1 ****   2 GROUP 4 **** **** 0

# MOE 2024.06 (io_trps.svl 2023.06)
