@<TRIPOS>MOLECULE
NONAME
48 49 1 0 0 
SMALL
USER_CHARGES


@<TRIPOS>ATOM
  1 O        2.9830     7.8570     0.9890 O.3   1 <1>  -0.5600 
  2 C        2.3300     8.5120    -0.0660 C.3   1 <1>   0.2000 
  3 C        3.3790     6.5240     0.7860 C.3   1 <1>   0.2000 
  4 C        1.0250     7.7630    -0.4480 C.3   1 <1>   0.3430 
  5 C        3.3000     8.6930    -1.2400 C.3   1 <1>  -0.2400 
  6 C        2.3050     5.7180     0.0090 C.3   1 <1>   0.3430 
  7 C        3.6240     5.9430     2.1770 C.3   1 <1>  -0.2400 
  8 N        0.9590     6.3680     0.1250 N.4   1 <1>  -0.9590 
  9 C       -0.1390     5.5320    -0.4300 C.3   1 <1>   0.3430 
 10 C       -1.4950     6.0980    -0.0180 C.3   1 <1>  -0.1600 
 11 C       -2.6310     5.1900    -0.4880 C.3   1 <1>   0.1200 
 12 O       -3.8340     5.7950    -0.0910 O.3   1 <1>  -0.3630 
 13 C       -5.0350     5.2290    -0.3690 C.ar  1 <1>   0.0820 
 14 C       -6.1610     5.9100     0.0650 C.ar  1 <1>  -0.1500 
 15 C       -5.1850     4.0250    -1.0540 C.ar  1 <1>  -0.1500 
 16 C       -7.4310     5.4110    -0.1750 C.ar  1 <1>  -0.1440 
 17 C       -6.4510     3.5230    -1.2940 C.ar  1 <1>  -0.1500 
 18 C       -7.5690     4.2120    -0.8560 C.ar  1 <1>  -0.1500 
 19 C       -8.6580     6.1680     0.3050 C.3   1 <1>  -0.0170 
 20 C       -9.0630     5.7030     1.7050 C.3   1 <1>  -0.2400 
 21 H        2.0660     9.4910     0.2990 H     1 <1>   0.0800 
 22 H        4.3060     6.5250     0.2380 H     1 <1>   0.0800 
 23 H        0.9530     7.7260    -1.5220 H     1 <1>   0.0800 
 24 H        0.1850     8.3380    -0.0930 H     1 <1>   0.0800 
 25 H        3.5500     7.7590    -1.7080 H     1 <1>   0.0800 
 26 H        4.2000     9.1720    -0.8960 H     1 <1>   0.0800 
 27 H        2.8540     9.3280    -1.9850 H     1 <1>   0.0800 
 28 H        2.2740     4.7110     0.3920 H     1 <1>   0.0800 
 29 H        2.5930     5.6640    -1.0270 H     1 <1>   0.0800 
 30 H        2.7240     5.9590     2.7650 H     1 <1>   0.0800 
 31 H        4.3810     6.5190     2.6820 H     1 <1>   0.0800 
 32 H        3.9730     4.9280     2.1050 H     1 <1>   0.0800 
 33 H        0.8120     6.4970     1.1380 H     1 <1>   0.4500 
 34 H       -0.0510     4.5260    -0.0500 H     1 <1>   0.0800 
 35 H       -0.0680     5.4930    -1.5060 H     1 <1>   0.0800 
 36 H       -1.6430     7.0690    -0.4560 H     1 <1>   0.0800 
 37 H       -1.5460     6.1760     1.0540 H     1 <1>   0.0800 
 38 H       -2.5740     4.2190    -0.0260 H     1 <1>   0.0800 
 39 H       -2.6410     5.0980    -1.5610 H     1 <1>   0.0800 
 40 H       -6.0340     6.8360     0.5940 H     1 <1>   0.1500 
 41 H       -4.3400     3.4660    -1.4060 H     1 <1>   0.1500 
 42 H       -6.5710     2.5930    -1.8220 H     1 <1>   0.1500 
 43 H       -8.5490     3.8110    -1.0470 H     1 <1>   0.1500 
 44 H       -9.4730     6.0080    -0.3790 H     1 <1>   0.0800 
 45 H       -8.4500     7.2240     0.3220 H     1 <1>   0.0800 
 46 H       -9.2880     4.6510     1.6960 H     1 <1>   0.0800 
 47 H       -9.9310     6.2410     2.0390 H     1 <1>   0.0800 
 48 H       -8.2590     5.8760     2.3990 H     1 <1>   0.0800 
@<TRIPOS>BOND
  1   1   2  1   
  2   1   3  1   
  3   2   4  1   
  4   2   5  1   
  5   2  21  1   
  6   3   6  1   
  7   3   7  1   
  8   3  22  1   
  9   4   8  1   
 10   4  23  1   
 11   4  24  1   
 12   5  25  1   
 13   5  26  1   
 14   5  27  1   
 15   6   8  1   
 16   6  28  1   
 17   6  29  1   
 18   7  30  1   
 19   7  31  1   
 20   7  32  1   
 21   8   9  1   
 22   8  33  1   
 23   9  10  1   
 24   9  34  1   
 25   9  35  1   
 26  10  11  1   
 27  10  36  1   
 28  10  37  1   
 29  11  12  1   
 30  11  38  1   
 31  11  39  1   
 32  12  13  1   
 33  13  14  ar  
 34  13  15  ar  
 35  14  16  ar  
 36  14  40  1   
 37  15  17  ar  
 38  15  41  1   
 39  16  18  ar  
 40  16  19  1   
 41  17  18  ar  
 42  17  42  1   
 43  18  43  1   
 44  19  20  1   
 45  19  44  1   
 46  19  45  1   
 47  20  46  1   
 48  20  47  1   
 49  20  48  1   
@<TRIPOS>SUBSTRUCTURE
  1 ****  10 GROUP 4 **** **** 0

# MOE 2024.06 (io_trps.svl 2023.06)
