@<TRIPOS>MOLECULE
NONAME
38 38 1 0 0 
SMALL
USER_CHARGES


@<TRIPOS>ATOM
  1 S        0.4960    -0.8330     0.6070 S.o2  1 <1>   1.3330 
  2 O        1.5050    -0.1310     1.3650 O.2   1 <1>  -0.6500 
  3 O        0.8380    -2.0360    -0.1100 O.2   1 <1>  -0.6500 
  4 N       -0.1030     0.2800    -0.5720 N.am  1 <1>  -0.6930 
  5 C       -0.9350    -1.1550     1.6150 C.3   1 <1>  -0.1350 
  6 C       -0.8460     1.4040    -0.2190 C.ar  1 <1>   0.1990 
  7 C        0.6680     0.3460    -1.8550 C.3   1 <1>   0.2570 
  8 C       -2.1020     1.5940    -0.7820 C.ar  1 <1>  -0.1500 
  9 C       -0.3720     2.3490     0.6850 C.ar  1 <1>  -0.1500 
 10 C        1.8540     1.3210    -1.8450 C.2   1 <1>   0.5690 
 11 C       -2.8750     2.6930    -0.4490 C.ar  1 <1>  -0.1500 
 12 C       -1.1400     3.4480     1.0220 C.ar  1 <1>  -0.1500 
 13 O        2.0900     1.9450    -2.8530 O.2   1 <1>  -0.5700 
 14 N        2.6140     1.4690    -0.7290 N.am  1 <1>  -0.7300 
 15 C       -2.3940     3.6290     0.4620 C.ar  1 <1>   0.0820 
 16 C        3.6380     2.4990    -0.5340 C.3   1 <1>   0.2780 
 17 O       -3.0820     4.7350     0.8500 O.3   1 <1>  -0.3630 
 18 C        3.4940     3.0090     0.8840 C.2   1 <1>  -0.2880 
 19 C       -4.3310     5.0500     0.2740 C.3   1 <1>   0.0400 
 20 C        3.1380     4.2510     1.2250 C.2   1 <1>  -0.3000 
 21 H       -0.6940    -1.8680     2.3790 H     1 <1>   0.0800 
 22 H       -1.7290    -1.5510     1.0130 H     1 <1>   0.0800 
 23 H       -1.2720    -0.2510     2.0840 H     1 <1>   0.0800 
 24 H        0.0000     0.6540    -2.6390 H     1 <1>   0.0800 
 25 H        1.0360    -0.6290    -2.1160 H     1 <1>   0.0800 
 26 H       -2.4730     0.8710    -1.4850 H     1 <1>   0.1500 
 27 H        0.6040     2.2380     1.1230 H     1 <1>   0.1500 
 28 H       -3.8400     2.8030    -0.9040 H     1 <1>   0.1500 
 29 H       -0.7680     4.1770     1.7200 H     1 <1>   0.1500 
 30 H        2.3680     0.9520     0.1270 H     1 <1>   0.3700 
 31 H        3.4960     3.2990    -1.2410 H     1 <1>   0.0800 
 32 H        4.6150     2.0720    -0.6820 H     1 <1>   0.0800 
 33 H        3.7080     2.2460     1.6150 H     1 <1>   0.1500 
 34 H       -4.6730     5.9740     0.7040 H     1 <1>   0.0800 
 35 H       -5.0280     4.2620     0.5000 H     1 <1>   0.0800 
 36 H       -4.2070     5.1650    -0.7880 H     1 <1>   0.0800 
 37 H        3.0410     4.5900     2.2420 H     1 <1>   0.1500 
 38 H        2.9120     5.0320     0.5190 H     1 <1>   0.1500 
@<TRIPOS>BOND
  1   1   2  2   
  2   1   3  2   
  3   1   4  am  
  4   1   5  1   
  5   4   6  1   
  6   4   7  1   
  7   5  21  1   
  8   5  22  1   
  9   5  23  1   
 10   6   8  ar  
 11   6   9  ar  
 12   7  10  1   
 13   7  24  1   
 14   7  25  1   
 15   8  11  ar  
 16   8  26  1   
 17   9  12  ar  
 18   9  27  1   
 19  10  13  2   
 20  10  14  am  
 21  11  15  ar  
 22  11  28  1   
 23  12  15  ar  
 24  12  29  1   
 25  14  16  1   
 26  14  30  1   
 27  15  17  1   
 28  16  18  1   
 29  16  31  1   
 30  16  32  1   
 31  17  19  1   
 32  18  20  2   
 33  18  33  1   
 34  19  34  1   
 35  19  35  1   
 36  19  36  1   
 37  20  37  1   
 38  20  38  1   
@<TRIPOS>SUBSTRUCTURE
  1 ****   9 GROUP 4 **** **** 0

# MOE 2024.06 (io_trps.svl 2023.06)
