@<TRIPOS>MOLECULE
NONAME
38 39 1 0 0 
SMALL
USER_CHARGES


@<TRIPOS>ATOM
  1 O       -0.6440     0.4360    -0.6190 O.2   1 <1>  -0.5700 
  2 C       -1.7180     0.9930    -0.5130 C.2   1 <1>   0.7060 
  3 O       -2.8280     0.2680    -0.6350 O.3   1 <1>  -0.2330 
  4 C       -1.8580     2.3850    -0.2630 C.2   1 <1>  -0.1360 
  5 C       -4.0670     0.7990    -0.5320 C.ar  1 <1>   0.0820 
  6 C       -3.0670     2.9830    -0.1500 C.2   1 <1>  -0.1670 
  7 C       -4.2600     2.1750    -0.2890 C.ar  1 <1>   0.0280 
  8 C       -5.1290    -0.0770    -0.6760 C.ar  1 <1>  -0.1500 
  9 C       -3.1160     4.4830     0.1200 C.3   1 <1>  -0.1020 
 10 C       -5.6000     2.6120    -0.2130 C.ar  1 <1>   0.0830 
 11 C       -6.4270     0.3760    -0.5770 C.ar  1 <1>   0.0830 
 12 O       -5.8830     3.9160     0.0270 O.3   1 <1>  -0.2330 
 13 C       -6.6570     1.7250    -0.3510 C.ar  1 <1>  -0.1500 
 14 O       -7.4280    -0.5260    -0.7290 O.3   1 <1>  -0.2330 
 15 C       -6.7630     4.6600    -0.6440 C.2   1 <1>   0.6590 
 16 C       -8.6050    -0.5390    -0.1010 C.2   1 <1>   0.6590 
 17 O       -7.3410     4.2780    -1.6280 O.2   1 <1>  -0.5700 
 18 C       -6.9940     6.0550    -0.0900 C.3   1 <1>  -0.0990 
 19 O       -8.9050     0.2310     0.7740 O.2   1 <1>  -0.5700 
 20 C       -9.5750    -1.6120    -0.5630 C.3   1 <1>  -0.0990 
 21 C       -7.6850     6.0440     1.2840 C.3   1 <1>  -0.2400 
 22 C       -9.1160    -3.0330    -0.1940 C.3   1 <1>  -0.2400 
 23 H       -0.9330     2.9210    -0.1710 H     1 <1>   0.1500 
 24 H       -4.9380    -1.1190    -0.8620 H     1 <1>   0.1500 
 25 H       -3.6330     4.6780     1.0430 H     1 <1>   0.0800 
 26 H       -3.6180     4.9880    -0.6860 H     1 <1>   0.0800 
 27 H       -2.1260     4.8950     0.2030 H     1 <1>   0.0800 
 28 H       -7.6670     2.0870    -0.2850 H     1 <1>   0.1500 
 29 H       -7.6030     6.6010    -0.7880 H     1 <1>   0.0800 
 30 H       -6.0470     6.5550    -0.0160 H     1 <1>   0.0800 
 31 H       -9.6880    -1.5330    -1.6290 H     1 <1>   0.0800 
 32 H      -10.5330    -1.4200    -0.1150 H     1 <1>   0.0800 
 33 H       -8.6400     5.5520     1.2150 H     1 <1>   0.0800 
 34 H       -7.0810     5.5240     2.0070 H     1 <1>   0.0800 
 35 H       -7.8420     7.0510     1.6270 H     1 <1>   0.0800 
 36 H       -8.1690    -3.2550    -0.6540 H     1 <1>   0.0800 
 37 H       -9.8390    -3.7540    -0.5310 H     1 <1>   0.0800 
 38 H       -9.0120    -3.1240     0.8740 H     1 <1>   0.0800 
@<TRIPOS>BOND
  1   1   2  2   
  2   2   3  1   
  3   2   4  1   
  4   3   5  1   
  5   4   6  2   
  6   4  23  1   
  7   5   7  ar  
  8   5   8  ar  
  9   6   7  1   
 10   6   9  1   
 11   7  10  ar  
 12   8  11  ar  
 13   8  24  1   
 14   9  25  1   
 15   9  26  1   
 16   9  27  1   
 17  10  12  1   
 18  10  13  ar  
 19  11  13  ar  
 20  11  14  1   
 21  12  15  1   
 22  13  28  1   
 23  14  16  1   
 24  15  17  2   
 25  15  18  1   
 26  16  19  2   
 27  16  20  1   
 28  18  21  1   
 29  18  29  1   
 30  18  30  1   
 31  20  22  1   
 32  20  31  1   
 33  20  32  1   
 34  21  33  1   
 35  21  34  1   
 36  21  35  1   
 37  22  36  1   
 38  22  37  1   
 39  22  38  1   
@<TRIPOS>SUBSTRUCTURE
  1 ****  10 GROUP 4 **** **** 0

# MOE 2024.06 (io_trps.svl 2023.06)
