@<TRIPOS>MOLECULE
NONAME
40 41 1 0 0 
SMALL
USER_CHARGES


@<TRIPOS>ATOM
  1 O       -2.2270     1.2660    -1.9330 O.2   1 <1>  -0.5700 
  2 C       -2.1140     1.8250    -0.8690 C.2   1 <1>   0.6590 
  3 O       -2.2380     1.1710     0.2840 O.3   1 <1>  -0.4300 
  4 C       -1.7940     3.3340    -0.7960 C.3   1 <1>   0.2510 
  5 C       -2.4440    -0.2210     0.3610 C.3   1 <1>   0.1200 
  6 N       -0.4390     3.6720    -0.2490 N.3   1 <1>  -0.8100 
  7 C       -2.8750     4.0670     0.0210 C.3   1 <1>  -0.1600 
  8 C       -1.0880    -0.9200     0.2930 C.3   1 <1>  -0.2400 
  9 C       -0.1830     5.1230    -0.2980 C.3   1 <1>   0.1100 
 10 C        0.6270     2.9220    -0.9500 C.3   1 <1>   0.2530 
 11 C       -2.6460     5.5830     0.0450 C.3   1 <1>  -0.1600 
 12 C       -1.2250     5.8790     0.5300 C.3   1 <1>  -0.1600 
 13 C        1.9930     3.1460    -0.3110 C.ar  1 <1>  -0.1440 
 14 C        2.1700     2.9220     1.0480 C.ar  1 <1>  -0.1500 
 15 C        3.0710     3.5690    -1.0770 C.ar  1 <1>  -0.1500 
 16 C        3.4080     3.1170     1.6350 C.ar  1 <1>  -0.1500 
 17 C        4.3120     3.7660    -0.4950 C.ar  1 <1>  -0.1500 
 18 C        4.4750     3.5380     0.8620 C.ar  1 <1>   0.0820 
 19 O        5.6720     3.7240     1.4400 O.3   1 <1>  -0.5330 
 20 H       -1.8420     3.7010    -1.8070 H     1 <1>   0.0800 
 21 H       -3.0900    -0.5310    -0.4440 H     1 <1>   0.0800 
 22 H       -2.9270    -0.4270     1.3000 H     1 <1>   0.0800 
 23 H       -2.8650     3.6880     1.0290 H     1 <1>   0.0800 
 24 H       -3.8430     3.8590    -0.3990 H     1 <1>   0.0800 
 25 H       -0.6190    -0.7330    -0.6560 H     1 <1>   0.0800 
 26 H       -1.2210    -1.9810     0.4010 H     1 <1>   0.0800 
 27 H       -0.4500    -0.5710     1.0860 H     1 <1>   0.0800 
 28 H       -0.2050     5.4660    -1.3190 H     1 <1>   0.0800 
 29 H        0.7910     5.3390     0.1100 H     1 <1>   0.0800 
 30 H        0.6510     3.2100    -1.9870 H     1 <1>   0.0800 
 31 H        0.4250     1.8670    -0.9030 H     1 <1>   0.0800 
 32 H       -3.3620     6.0520     0.6980 H     1 <1>   0.0800 
 33 H       -2.7790     5.9840    -0.9450 H     1 <1>   0.0800 
 34 H       -1.0320     6.9350     0.4660 H     1 <1>   0.0800 
 35 H       -1.1210     5.5870     1.5610 H     1 <1>   0.0800 
 36 H        1.3340     2.6020     1.6450 H     1 <1>   0.1500 
 37 H        2.9480     3.7460    -2.1310 H     1 <1>   0.1500 
 38 H        3.5480     2.9470     2.6870 H     1 <1>   0.1500 
 39 H        5.1390     4.0930    -1.0960 H     1 <1>   0.1500 
 40 H        6.3560     4.0200     0.8150 H     1 <1>   0.4500 
@<TRIPOS>BOND
  1   1   2  2   
  2   2   3  1   
  3   2   4  1   
  4   3   5  1   
  5   4   6  1   
  6   4   7  1   
  7   4  20  1   
  8   5   8  1   
  9   5  21  1   
 10   5  22  1   
 11   6   9  1   
 12   6  10  1   
 13   7  11  1   
 14   7  23  1   
 15   7  24  1   
 16   8  25  1   
 17   8  26  1   
 18   8  27  1   
 19   9  12  1   
 20   9  28  1   
 21   9  29  1   
 22  10  13  1   
 23  10  30  1   
 24  10  31  1   
 25  11  12  1   
 26  11  32  1   
 27  11  33  1   
 28  12  34  1   
 29  12  35  1   
 30  13  14  ar  
 31  13  15  ar  
 32  14  16  ar  
 33  14  36  1   
 34  15  17  ar  
 35  15  37  1   
 36  16  18  ar  
 37  16  38  1   
 38  17  18  ar  
 39  17  39  1   
 40  18  19  1   
 41  19  40  1   
@<TRIPOS>SUBSTRUCTURE
  1 ****  10 GROUP 4 **** **** 0

# MOE 2024.06 (io_trps.svl 2023.06)
