@<TRIPOS>MOLECULE
NONAME
47 48 1 0 0 
SMALL
USER_CHARGES


@<TRIPOS>ATOM
  1 CL       2.7920     1.0500     3.6640 Cl    1 <1>  -0.1770 
  2 C        2.2820     2.0780     2.3500 C.ar  1 <1>   0.1770 
  3 C        1.2080     2.9290     2.5340 C.ar  1 <1>  -0.1500 
  4 C        2.9580     2.0230     1.1470 C.ar  1 <1>  -0.1500 
  5 C        0.7770     3.7590     1.5040 C.ar  1 <1>  -0.0090 
  6 C        2.5450     2.8420     0.1130 C.ar  1 <1>  -0.1500 
  7 S       -0.6180     4.8890     1.7580 S.o2  1 <1>   1.4470 
  8 C        1.4710     3.7020     0.2960 C.ar  1 <1>   0.0830 
  9 O       -0.1430     6.2540     1.7000 O.2   1 <1>  -0.6500 
 10 O       -1.3560     4.4730     2.9330 O.2   1 <1>  -0.6500 
 11 N       -1.6680     4.6480     0.4480 N.am  1 <1>  -0.8490 
 12 O        1.0920     4.4660    -0.7450 O.3   1 <1>  -0.3630 
 13 C       -2.6420     5.7410     0.3320 C.3   1 <1>   0.1960 
 14 C       -2.3150     3.3350     0.4840 C.3   1 <1>   0.1960 
 15 C        1.7610     5.6930    -0.9170 C.3   1 <1>   0.1200 
 16 C       -3.4890     5.5920    -0.9380 C.3   1 <1>  -0.0190 
 17 C       -3.1100     3.1070    -0.8050 C.3   1 <1>  -0.1600 
 18 C        0.9470     6.5320    -1.8970 C.3   1 <1>  -0.2400 
 19 C       -4.4890     6.7360    -1.0210 C.2   1 <1>   0.5690 
 20 C       -4.1590     4.2060    -1.0120 C.3   1 <1>  -0.1600 
 21 O       -4.3400     7.5770    -1.8730 O.2   1 <1>  -0.5700 
 22 N       -5.5150     6.7900    -0.1300 N.am  1 <1>  -0.7300 
 23 C       -6.5560     7.8350    -0.1000 C.3   1 <1>   0.1400 
 24 C       -7.9180     7.1600     0.0010 C.3   1 <1>  -0.2400 
 25 H        0.7090     2.9430     3.4880 H     1 <1>   0.1500 
 26 H        3.7890     1.3500     1.0270 H     1 <1>   0.1500 
 27 H        3.0480     2.8160    -0.8380 H     1 <1>   0.1500 
 28 H       -2.1230     6.6840     0.2820 H     1 <1>   0.0800 
 29 H       -3.2730     5.7540     1.2040 H     1 <1>   0.0800 
 30 H       -2.9710     3.2690     1.3380 H     1 <1>   0.0800 
 31 H       -1.5670     2.5650     0.5720 H     1 <1>   0.0800 
 32 H        2.7460     5.4930    -1.3000 H     1 <1>   0.0800 
 33 H        1.8340     6.1890     0.0360 H     1 <1>   0.0800 
 34 H       -2.8220     5.6890    -1.7780 H     1 <1>   0.0800 
 35 H       -3.5930     2.1470    -0.7620 H     1 <1>   0.0800 
 36 H       -2.4240     3.0940    -1.6350 H     1 <1>   0.0800 
 37 H        0.8630     6.0250    -2.8410 H     1 <1>   0.0800 
 38 H        1.4300     7.4790    -2.0540 H     1 <1>   0.0800 
 39 H       -0.0350     6.7110    -1.4960 H     1 <1>   0.0800 
 40 H       -4.6360     4.0840    -1.9700 H     1 <1>   0.0800 
 41 H       -4.9130     4.1180    -0.2490 H     1 <1>   0.0800 
 42 H       -5.6170     6.0570     0.5720 H     1 <1>   0.3700 
 43 H       -6.5060     8.4330    -0.9960 H     1 <1>   0.0800 
 44 H       -6.3930     8.4780     0.7480 H     1 <1>   0.0800 
 45 H       -8.0780     6.5200    -0.8490 H     1 <1>   0.0800 
 46 H       -8.6890     7.9090     0.0110 H     1 <1>   0.0800 
 47 H       -7.9900     6.5850     0.9070 H     1 <1>   0.0800 
@<TRIPOS>BOND
  1   1   2  1   
  2   2   3  ar  
  3   2   4  ar  
  4   3   5  ar  
  5   3  25  1   
  6   4   6  ar  
  7   4  26  1   
  8   5   7  1   
  9   5   8  ar  
 10   6   8  ar  
 11   6  27  1   
 12   7   9  2   
 13   7  10  2   
 14   7  11  am  
 15   8  12  1   
 16  11  13  1   
 17  11  14  1   
 18  12  15  1   
 19  13  16  1   
 20  13  28  1   
 21  13  29  1   
 22  14  17  1   
 23  14  30  1   
 24  14  31  1   
 25  15  18  1   
 26  15  32  1   
 27  15  33  1   
 28  16  19  1   
 29  16  20  1   
 30  16  34  1   
 31  17  20  1   
 32  17  35  1   
 33  17  36  1   
 34  18  37  1   
 35  18  38  1   
 36  18  39  1   
 37  19  21  2   
 38  19  22  am  
 39  20  40  1   
 40  20  41  1   
 41  22  23  1   
 42  22  42  1   
 43  23  24  1   
 44  23  43  1   
 45  23  44  1   
 46  24  45  1   
 47  24  46  1   
 48  24  47  1   
@<TRIPOS>SUBSTRUCTURE
  1 ****  11 GROUP 4 **** **** 0

# MOE 2024.06 (io_trps.svl 2023.06)
