@<TRIPOS>MOLECULE
NONAME
37 38 1 0 0 
SMALL
USER_CHARGES


@<TRIPOS>ATOM
  1 O       -1.5110    -0.3120    -0.7970 O.3   1 <1>  -0.5600 
  2 C       -2.0640    -0.9550     0.3190 C.3   1 <1>   0.1200 
  3 C       -1.3200     1.0680    -0.6270 C.3   1 <1>   0.1200 
  4 C       -3.4490    -0.3640     0.6710 C.3   1 <1>   0.3430 
  5 C       -2.6410     1.7760    -0.2430 C.3   1 <1>   0.3430 
  6 N       -3.7900     0.8080    -0.2120 N.4   1 <1>  -0.9590 
  7 C       -5.0850     1.4810     0.1310 C.3   1 <1>   0.3430 
  8 C       -6.3040     0.5870    -0.1160 C.3   1 <1>   0.1200 
  9 O       -7.4400     1.3260     0.2590 O.3   1 <1>  -0.3630 
 10 C       -8.6880     0.7950     0.1670 C.ar  1 <1>   0.0820 
 11 C       -9.7320     1.5860     0.6190 C.ar  1 <1>  -0.1500 
 12 C       -8.9590    -0.4720    -0.3440 C.ar  1 <1>  -0.1500 
 13 C      -11.0340     1.1230     0.5640 C.ar  1 <1>  -0.1500 
 14 C      -10.2640    -0.9340    -0.3980 C.ar  1 <1>  -0.1500 
 15 C      -11.3100    -0.1360     0.0580 C.ar  1 <1>   0.0820 
 16 O      -12.6150    -0.5140     0.0400 O.3   1 <1>  -0.3620 
 17 C      -13.0050    -1.7740    -0.4580 C.3   1 <1>   0.0400 
 18 H       -1.3830    -0.8560     1.1480 H     1 <1>   0.0800 
 19 H       -2.1550    -2.0020     0.0840 H     1 <1>   0.0800 
 20 H       -0.9440     1.4620    -1.5560 H     1 <1>   0.0800 
 21 H       -0.5690     1.2230     0.1300 H     1 <1>   0.0800 
 22 H       -3.4450    -0.0600     1.7050 H     1 <1>   0.0800 
 23 H       -4.1920    -1.1360     0.5640 H     1 <1>   0.0800 
 24 H       -2.8360     2.5620    -0.9540 H     1 <1>   0.0800 
 25 H       -2.5210     2.2360     0.7240 H     1 <1>   0.0800 
 26 H       -3.8290     0.4260    -1.1700 H     1 <1>   0.4500 
 27 H       -5.1960     2.3680    -0.4720 H     1 <1>   0.0800 
 28 H       -5.0750     1.7770     1.1670 H     1 <1>   0.0800 
 29 H       -6.2720    -0.2990     0.4920 H     1 <1>   0.0800 
 30 H       -6.3950     0.3410    -1.1600 H     1 <1>   0.0800 
 31 H       -9.5260     2.5650     1.0130 H     1 <1>   0.1500 
 32 H       -8.1800    -1.1140    -0.7070 H     1 <1>   0.1500 
 33 H      -11.8460     1.7350     0.9140 H     1 <1>   0.1500 
 34 H      -10.4490    -1.9140    -0.7970 H     1 <1>   0.1500 
 35 H      -14.0740    -1.8500    -0.3730 H     1 <1>   0.0800 
 36 H      -12.5360    -2.5430     0.1310 H     1 <1>   0.0800 
 37 H      -12.7150    -1.8460    -1.4910 H     1 <1>   0.0800 
@<TRIPOS>BOND
  1   1   2  1   
  2   1   3  1   
  3   2   4  1   
  4   2  18  1   
  5   2  19  1   
  6   3   5  1   
  7   3  20  1   
  8   3  21  1   
  9   4   6  1   
 10   4  22  1   
 11   4  23  1   
 12   5   6  1   
 13   5  24  1   
 14   5  25  1   
 15   6   7  1   
 16   6  26  1   
 17   7   8  1   
 18   7  27  1   
 19   7  28  1   
 20   8   9  1   
 21   8  29  1   
 22   8  30  1   
 23   9  10  1   
 24  10  11  ar  
 25  10  12  ar  
 26  11  13  ar  
 27  11  31  1   
 28  12  14  ar  
 29  12  32  1   
 30  13  15  ar  
 31  13  33  1   
 32  14  15  ar  
 33  14  34  1   
 34  15  16  1   
 35  16  17  1   
 36  17  35  1   
 37  17  36  1   
 38  17  37  1   
@<TRIPOS>SUBSTRUCTURE
  1 ****   8 GROUP 4 **** **** 0

# MOE 2024.06 (io_trps.svl 2023.06)
