@<TRIPOS>MOLECULE
NONAME
43 44 1 0 0 
SMALL
USER_CHARGES


@<TRIPOS>ATOM
  1 O        1.1100    -0.1140    -0.0960 O.2   1 <1>  -0.5700 
  2 C        1.9550     0.7620    -0.1880 C.2   1 <1>   0.6900 
  3 N        2.9020     0.6940    -1.2040 N.am  1 <1>  -0.4200 
  4 N        1.9680     1.8120     0.7110 N.am  1 <1>  -0.4230 
  5 C        3.8460     1.6940    -1.3570 C.2   1 <1>   0.7150 
  6 C        2.8650    -0.4560    -2.1550 C.3   1 <1>   0.0600 
  7 C        2.9180     2.8160     0.5610 C.2   1 <1>   0.2900 
  8 C        0.9850     1.9320     1.8200 C.3   1 <1>   0.0600 
  9 O        4.6710     1.6470    -2.2530 O.2   1 <1>  -0.5700 
 10 C        3.8280     2.7700    -0.4350 C.2   1 <1>  -0.2370 
 11 N        3.0580     3.9040     1.3280 N.2   1 <1>  -0.5650 
 12 N        4.5870     3.8890    -0.2930 N.pl3 1 <1>   0.0480 
 13 C        4.0620     4.5200     0.7820 C.2   1 <1>   0.0360 
 14 C        5.7200     4.3260    -1.1440 C.3   1 <1>   0.1570 
 15 C        6.7750     5.0480    -0.3270 C.2   1 <1>   0.5690 
 16 O        6.6490     6.2380    -0.1850 O.2   1 <1>  -0.5700 
 17 N        7.8430     4.4420     0.2480 N.am  1 <1>  -0.7300 
 18 C        8.3650     3.0690     0.3010 C.3   1 <1>   0.3000 
 19 C        9.4850     3.0540     1.3640 C.3   1 <1>  -0.1600 
 20 C        7.2680     2.0940     0.7400 C.3   1 <1>  -0.2400 
 21 C        8.9100     2.6840    -1.0770 C.3   1 <1>  -0.2400 
 22 C       10.6640     4.0180     1.1250 C.3   1 <1>  -0.2400 
 23 H        2.6450    -1.3660    -1.6240 H     1 <1>   0.0800 
 24 H        3.8110    -0.5760    -2.6540 H     1 <1>   0.0800 
 25 H        2.0980    -0.2860    -2.8900 H     1 <1>   0.0800 
 26 H        0.3630     1.0570     1.8830 H     1 <1>   0.0800 
 27 H        0.3640     2.7940     1.6530 H     1 <1>   0.0800 
 28 H        1.5100     2.0550     2.7510 H     1 <1>   0.0800 
 29 H        4.4550     5.4580     1.1420 H     1 <1>   0.1500 
 30 H        5.3420     4.9950    -1.8940 H     1 <1>   0.0800 
 31 H        6.1550     3.4840    -1.6370 H     1 <1>   0.0800 
 32 H        8.4510     5.0910     0.7500 H     1 <1>   0.3700 
 33 H        9.8840     2.0560     1.4290 H     1 <1>   0.0800 
 34 H        9.0520     3.2750     2.3240 H     1 <1>   0.0800 
 35 H        7.7010     1.1390     0.9790 H     1 <1>   0.0800 
 36 H        6.5560     1.9230    -0.0420 H     1 <1>   0.0800 
 37 H        6.7610     2.4610     1.6140 H     1 <1>   0.0800 
 38 H        9.4330     1.7470    -1.0150 H     1 <1>   0.0800 
 39 H        9.5920     3.4300    -1.4420 H     1 <1>   0.0800 
 40 H        8.1190     2.5670    -1.7930 H     1 <1>   0.0800 
 41 H       11.1830     3.7760     0.2150 H     1 <1>   0.0800 
 42 H       11.3660     3.9350     1.9360 H     1 <1>   0.0800 
 43 H       10.3360     5.0410     1.0750 H     1 <1>   0.0800 
@<TRIPOS>BOND
  1   1   2  2   
  2   2   3  am  
  3   2   4  am  
  4   3   5  am  
  5   3   6  1   
  6   4   7  1   
  7   4   8  1   
  8   5   9  2   
  9   5  10  1   
 10   6  23  1   
 11   6  24  1   
 12   6  25  1   
 13   7  10  2   
 14   7  11  1   
 15   8  26  1   
 16   8  27  1   
 17   8  28  1   
 18  10  12  1   
 19  11  13  2   
 20  12  13  1   
 21  12  14  1   
 22  13  29  1   
 23  14  15  1   
 24  14  30  1   
 25  14  31  1   
 26  15  16  2   
 27  15  17  am  
 28  17  18  1   
 29  17  32  1   
 30  18  19  1   
 31  18  20  1   
 32  18  21  1   
 33  19  22  1   
 34  19  33  1   
 35  19  34  1   
 36  20  35  1   
 37  20  36  1   
 38  20  37  1   
 39  21  38  1   
 40  21  39  1   
 41  21  40  1   
 42  22  41  1   
 43  22  42  1   
 44  22  43  1   
@<TRIPOS>SUBSTRUCTURE
  1 ****  12 GROUP 4 **** **** 0

# MOE 2024.06 (io_trps.svl 2023.06)
