@<TRIPOS>MOLECULE
NONAME
48 50 1 0 0 
SMALL
USER_CHARGES


@<TRIPOS>ATOM
  1 O       -0.1440    -0.4730     0.4320 O.3   1 <1>  -0.3630 
  2 C       -1.3370    -1.0990     0.5720 C.ar  1 <1>   0.0830 
  3 C        0.7250    -0.7610    -0.6430 C.3   1 <1>   0.2640 
  4 C       -2.0600    -0.8030     1.7140 C.ar  1 <1>  -0.1500 
  5 C       -1.8570    -2.0020    -0.3500 C.ar  1 <1>  -0.1500 
  6 C        1.9740     0.0970    -0.5150 C.ar  1 <1>  -0.1440 
  7 C       -3.2910    -1.3910     1.9410 C.ar  1 <1>  -0.1500 
  8 C       -3.0890    -2.5910    -0.1250 C.ar  1 <1>  -0.1500 
  9 C        1.8770     1.4790    -0.5700 C.ar  1 <1>  -0.1500 
 10 C        3.2210    -0.4890    -0.3500 C.ar  1 <1>  -0.1500 
 11 C       -3.8170    -2.2840     1.0180 C.ar  1 <1>  -0.1430 
 12 C        3.0110     2.2670    -0.4670 C.ar  1 <1>  -0.1500 
 13 C        4.3560     0.2980    -0.2470 C.ar  1 <1>  -0.1500 
 14 C       -5.1770    -2.9130     1.2580 C.3   1 <1>   0.4860 
 15 C        4.2510     1.6760    -0.3060 C.ar  1 <1>  -0.1500 
 16 N       -6.1610    -2.3010     0.3240 N.4   1 <1>  -0.9590 
 17 C       -6.3750    -0.8570     0.6350 C.3   1 <1>   0.3430 
 18 C       -7.4100    -3.1100     0.2830 C.3   1 <1>   0.3430 
 19 C       -6.7280    -0.1010    -0.6460 C.3   1 <1>  -0.1600 
 20 C       -8.3420    -2.6810    -0.8520 C.3   1 <1>  -0.1600 
 21 C       -8.2180    -0.1090    -1.0270 C.3   1 <1>  -0.1600 
 22 C       -9.0330    -1.3350    -0.5930 C.3   1 <1>  -0.1600 
 23 H        0.2170    -0.5330    -1.5620 H     1 <1>   0.0800 
 24 H        0.9730    -1.8070    -0.6050 H     1 <1>   0.0800 
 25 H       -1.6450    -0.1090     2.4240 H     1 <1>   0.1500 
 26 H       -1.3170    -2.2580    -1.2430 H     1 <1>   0.1500 
 27 H       -3.8230    -1.1430     2.8440 H     1 <1>   0.1500 
 28 H       -3.4660    -3.2920    -0.8500 H     1 <1>   0.1500 
 29 H        0.9140     1.9450    -0.6890 H     1 <1>   0.1500 
 30 H        3.3170    -1.5590    -0.2990 H     1 <1>   0.1500 
 31 H        2.9250     3.3380    -0.5100 H     1 <1>   0.1500 
 32 H        5.3200    -0.1630    -0.1180 H     1 <1>   0.1500 
 33 H       -5.4830    -2.7580     2.2790 H     1 <1>   0.0800 
 34 H       -5.1070    -3.9740     1.0810 H     1 <1>   0.0800 
 35 H        5.1330     2.2880    -0.2260 H     1 <1>   0.1500 
 36 H       -5.7280    -2.3310    -0.6060 H     1 <1>   0.4500 
 37 H       -5.4630    -0.4340     1.0220 H     1 <1>   0.0800 
 38 H       -7.1460    -0.7290     1.3770 H     1 <1>   0.0800 
 39 H       -7.9310    -3.0290     1.2240 H     1 <1>   0.0800 
 40 H       -7.1550    -4.1470     0.1340 H     1 <1>   0.0800 
 41 H       -6.1370    -0.4780    -1.4620 H     1 <1>   0.0800 
 42 H       -6.4360     0.9270    -0.5130 H     1 <1>   0.0800 
 43 H       -9.1130    -3.4290    -0.9190 H     1 <1>   0.0800 
 44 H       -7.8280    -2.6790    -1.7970 H     1 <1>   0.0800 
 45 H       -8.2910    -0.0020    -2.0970 H     1 <1>   0.0800 
 46 H       -8.6880     0.7630    -0.6020 H     1 <1>   0.0800 
 47 H       -9.2930    -1.2520     0.4500 H     1 <1>   0.0800 
 48 H       -9.9610    -1.3150    -1.1410 H     1 <1>   0.0800 
@<TRIPOS>BOND
  1   1   2  1   
  2   1   3  1   
  3   2   4  ar  
  4   2   5  ar  
  5   3   6  1   
  6   3  23  1   
  7   3  24  1   
  8   4   7  ar  
  9   4  25  1   
 10   5   8  ar  
 11   5  26  1   
 12   6   9  ar  
 13   6  10  ar  
 14   7  11  ar  
 15   7  27  1   
 16   8  11  ar  
 17   8  28  1   
 18   9  12  ar  
 19   9  29  1   
 20  10  13  ar  
 21  10  30  1   
 22  11  14  1   
 23  12  15  ar  
 24  12  31  1   
 25  13  15  ar  
 26  13  32  1   
 27  14  16  1   
 28  14  33  1   
 29  14  34  1   
 30  15  35  1   
 31  16  17  1   
 32  16  18  1   
 33  16  36  1   
 34  17  19  1   
 35  17  37  1   
 36  17  38  1   
 37  18  20  1   
 38  18  39  1   
 39  18  40  1   
 40  19  21  1   
 41  19  41  1   
 42  19  42  1   
 43  20  22  1   
 44  20  43  1   
 45  20  44  1   
 46  21  22  1   
 47  21  45  1   
 48  21  46  1   
 49  22  47  1   
 50  22  48  1   
@<TRIPOS>SUBSTRUCTURE
  1 ****   2 GROUP 4 **** **** 0

# MOE 2024.06 (io_trps.svl 2023.06)
