@<TRIPOS>MOLECULE
NONAME
38 40 1 0 0 
SMALL
USER_CHARGES


@<TRIPOS>ATOM
  1 S       -0.2890    -0.1270     0.2840 S.3   1 <1>  -0.3320 
  2 C       -2.0670    -0.3410     0.3330 C.ar  1 <1>   0.7220 
  3 C        0.3840    -1.6610    -0.5010 C.3   1 <1>   0.0700 
  4 N       -2.7390     0.6740     0.9280 N.ar  1 <1>  -0.3100 
  5 N       -2.5560    -1.4360    -0.1980 N.ar  1 <1>  -0.5670 
  6 C        0.4880    -2.7500     0.5700 C.3   1 <1>  -0.1600 
  7 N       -4.0370     0.6260     1.0240 N.ar  1 <1>  -0.2560 
  8 C       -3.8830    -1.4660    -0.0890 C.ar  1 <1>   0.1050 
  9 C        1.0420    -4.0530    -0.0200 C.3   1 <1>  -0.1600 
 10 C       -4.6210    -0.4610     0.5080 C.ar  1 <1>   0.2560 
 11 N       -4.7290    -2.4440    -0.5230 N.pl3 1 <1>   0.0330 
 12 C        1.1390    -5.1460     1.0500 C.3   1 <1>  -0.1600 
 13 C       -5.9880    -0.8470     0.4340 C.ar  1 <1>   0.0000 
 14 C       -6.0240    -2.0820    -0.2100 C.ar  1 <1>  -0.1520 
 15 C        1.6860    -6.4480     0.4600 C.3   1 <1>  -0.2400 
 16 C       -7.1750    -0.2520     0.8590 C.ar  1 <1>  -0.1500 
 17 C       -7.2330    -2.7410    -0.4420 C.ar  1 <1>  -0.1440 
 18 C       -8.3700    -0.8990     0.6330 C.ar  1 <1>  -0.1500 
 19 C       -8.3980    -2.1370    -0.0140 C.ar  1 <1>  -0.1500 
 20 C       -7.2570    -4.0860    -1.1460 C.3   1 <1>  -0.0970 
 21 H        1.3530    -1.4090    -0.8950 H     1 <1>   0.0800 
 22 H       -0.2730    -1.9410    -1.3050 H     1 <1>   0.0800 
 23 H       -0.4860    -2.9340     0.9880 H     1 <1>   0.0800 
 24 H        1.1360    -2.4070     1.3590 H     1 <1>   0.0800 
 25 H        2.0190    -3.8720    -0.4350 H     1 <1>   0.0800 
 26 H        0.3970    -4.3880    -0.8150 H     1 <1>   0.0800 
 27 H       -4.4370    -3.3000    -0.9990 H     1 <1>   0.2700 
 28 H        0.1640    -5.3300     1.4700 H     1 <1>   0.0800 
 29 H        1.7870    -4.8180     1.8450 H     1 <1>   0.0800 
 30 H        1.0410    -6.8080    -0.3220 H     1 <1>   0.0800 
 31 H        1.7480    -7.2020     1.2250 H     1 <1>   0.0800 
 32 H        2.6710    -6.2930     0.0550 H     1 <1>   0.0800 
 33 H       -7.1380     0.7010     1.3560 H     1 <1>   0.1500 
 34 H       -9.2950    -0.4530     0.9540 H     1 <1>   0.1500 
 35 H       -9.3490    -2.6130    -0.1740 H     1 <1>   0.1500 
 36 H       -6.8340    -3.9940    -2.1300 H     1 <1>   0.0800 
 37 H       -8.2650    -4.4490    -1.2420 H     1 <1>   0.0800 
 38 H       -6.6900    -4.8060    -0.5830 H     1 <1>   0.0800 
@<TRIPOS>BOND
  1   1   2  1   
  2   1   3  1   
  3   2   4  ar  
  4   2   5  ar  
  5   3   6  1   
  6   3  21  1   
  7   3  22  1   
  8   4   7  ar  
  9   5   8  ar  
 10   6   9  1   
 11   6  23  1   
 12   6  24  1   
 13   7  10  ar  
 14   8  10  ar  
 15   8  11  1   
 16   9  12  1   
 17   9  25  1   
 18   9  26  1   
 19  10  13  1   
 20  11  14  1   
 21  11  27  1   
 22  12  15  1   
 23  12  28  1   
 24  12  29  1   
 25  13  14  ar  
 26  13  16  ar  
 27  14  17  ar  
 28  15  30  1   
 29  15  31  1   
 30  15  32  1   
 31  16  18  ar  
 32  16  33  1   
 33  17  19  ar  
 34  17  20  1   
 35  18  19  ar  
 36  18  34  1   
 37  19  35  1   
 38  20  36  1   
 39  20  37  1   
 40  20  38  1   
@<TRIPOS>SUBSTRUCTURE
  1 ****   8 GROUP 4 **** **** 0

# MOE 2024.06 (io_trps.svl 2023.06)
