@<TRIPOS>MOLECULE
NONAME
39 40 1 0 0 
SMALL
USER_CHARGES


@<TRIPOS>ATOM
  1 CL      -0.5010     1.4610    -2.7450 Cl    1 <1>  -0.1770 
  2 C       -1.2540     1.9560    -1.2440 C.ar  1 <1>   0.1770 
  3 C       -0.5200     2.6440    -0.2850 C.ar  1 <1>   0.0820 
  4 C       -2.5850     1.6440    -1.0490 C.ar  1 <1>  -0.1500 
  5 O        0.7860     2.9190    -0.5400 O.3   1 <1>  -0.3630 
  6 C       -1.1640     3.0170     0.8910 C.ar  1 <1>  -0.1500 
  7 C       -3.2340     2.0050     0.1250 C.ar  1 <1>  -0.0090 
  8 C        1.5630     3.7030     0.3340 C.3   1 <1>   0.1200 
  9 C       -2.4990     2.6980     1.0840 C.ar  1 <1>  -0.1500 
 10 S       -4.9890     1.6130     0.3810 S.o2  1 <1>   1.4470 
 11 C        2.9500     3.8620    -0.2820 C.3   1 <1>  -0.2400 
 12 O       -5.3090     1.6700     1.7920 O.2   1 <1>  -0.6500 
 13 O       -5.3010     0.4030    -0.3500 O.2   1 <1>  -0.6500 
 14 N       -5.8120     2.8800    -0.3830 N.am  1 <1>  -0.8490 
 15 C       -5.5680     4.1750     0.2800 C.3   1 <1>   0.1960 
 16 C       -7.2490     2.6070    -0.4450 C.3   1 <1>   0.1960 
 17 C       -6.2180     5.3250    -0.4940 C.3   1 <1>  -0.1860 
 18 C       -7.9690     3.6900    -1.2550 C.3   1 <1>  -0.1600 
 19 C       -5.9170     6.6480     0.1920 C.2   1 <1>   0.9060 
 20 C       -7.7290     5.0820    -0.6600 C.3   1 <1>  -0.1600 
 21 O       -6.2790     7.6910    -0.3600 O.co2 1 <1>  -0.9000 
 22 O       -5.3130     6.6500     1.2720 O.co2 1 <1>  -0.9000 
 23 H       -3.1230     1.1150    -1.8170 H     1 <1>   0.1500 
 24 H       -0.6510     3.5560     1.6650 H     1 <1>   0.1500 
 25 H        1.6250     3.1980     1.2820 H     1 <1>   0.0800 
 26 H        1.0860     4.6620     0.4490 H     1 <1>   0.0800 
 27 H       -2.9850     2.9990     1.9980 H     1 <1>   0.1500 
 28 H        3.4110     2.8990    -0.4090 H     1 <1>   0.0800 
 29 H        3.5700     4.4590     0.3620 H     1 <1>   0.0800 
 30 H        2.8760     4.3520    -1.2370 H     1 <1>   0.0800 
 31 H       -4.5110     4.3710     0.3360 H     1 <1>   0.0800 
 32 H       -5.9540     4.1580     1.2880 H     1 <1>   0.0800 
 33 H       -7.6550     2.5640     0.5530 H     1 <1>   0.0800 
 34 H       -7.4160     1.6530    -0.9180 H     1 <1>   0.0800 
 35 H       -5.7600     5.3790    -1.4630 H     1 <1>   0.0800 
 36 H       -9.0240     3.4830    -1.2720 H     1 <1>   0.0800 
 37 H       -7.6080     3.6630    -2.2680 H     1 <1>   0.0800 
 38 H       -8.1470     5.8420    -1.2980 H     1 <1>   0.0800 
 39 H       -8.2050     5.1570     0.3030 H     1 <1>   0.0800 
@<TRIPOS>BOND
  1   1   2  1   
  2   2   3  ar  
  3   2   4  ar  
  4   3   5  1   
  5   3   6  ar  
  6   4   7  ar  
  7   4  23  1   
  8   5   8  1   
  9   6   9  ar  
 10   6  24  1   
 11   7   9  ar  
 12   7  10  1   
 13   8  11  1   
 14   8  25  1   
 15   8  26  1   
 16   9  27  1   
 17  10  12  2   
 18  10  13  2   
 19  10  14  am  
 20  11  28  1   
 21  11  29  1   
 22  11  30  1   
 23  14  15  1   
 24  14  16  1   
 25  15  17  1   
 26  15  31  1   
 27  15  32  1   
 28  16  18  1   
 29  16  33  1   
 30  16  34  1   
 31  17  19  1   
 32  17  20  1   
 33  17  35  1   
 34  18  20  1   
 35  18  36  1   
 36  18  37  1   
 37  19  21  ar  
 38  19  22  ar  
 39  20  38  1   
 40  20  39  1   
@<TRIPOS>SUBSTRUCTURE
  1 ****   7 GROUP 4 **** **** 0

# MOE 2024.06 (io_trps.svl 2023.06)
