@<TRIPOS>MOLECULE
NONAME
43 46 1 0 0 
SMALL
USER_CHARGES


@<TRIPOS>ATOM
  1 O        0.1350     0.5570    -0.0500 O.2   1 <1>  -0.5700 
  2 C       -0.1030     1.7360    -0.0070 C.2   1 <1>   0.5690 
  3 N       -1.3430     2.2940    -0.0480 N.am  1 <1>  -0.4200 
  4 C        0.9700     2.8010     0.1110 C.3   1 <1>  -0.0190 
  5 C       -1.2790     3.6490     0.0400 C.2   1 <1>   0.5690 
  6 C       -2.5950     1.5130    -0.2220 C.3   1 <1>   0.1400 
  7 C        0.1570     4.1240     0.1350 C.3   1 <1>  -0.0190 
  8 C        2.0410     2.6720    -0.9900 C.3   1 <1>  -0.0220 
  9 O       -2.2320     4.3890     0.0670 O.2   1 <1>  -0.5700 
 10 C       -3.4710     1.5700     1.0360 C.3   1 <1>  -0.0990 
 11 C        0.4990     5.1590    -0.9550 C.3   1 <1>  -0.0220 
 12 C        2.6840     4.0140    -1.2820 C.2   1 <1>  -0.2880 
 13 C       -4.8270     2.1630     0.7230 C.2   1 <1>   0.5690 
 14 C        1.9820     5.1460    -1.2660 C.2   1 <1>  -0.2880 
 15 O       -5.7740     1.4190     0.6850 O.2   1 <1>  -0.5700 
 16 N       -4.8910     3.5040     0.4760 N.am  1 <1>  -0.5470 
 17 C       -5.9660     4.3470     0.1510 C.ar  1 <1>   0.1170 
 18 C       -5.6700     5.5870    -0.4110 C.ar  1 <1>  -0.1500 
 19 C       -7.3040     4.0020     0.3760 C.ar  1 <1>  -0.1500 
 20 C       -6.7100     6.4330    -0.7330 C.ar  1 <1>   0.0820 
 21 C       -8.3400     4.8660     0.0450 C.ar  1 <1>  -0.1500 
 22 O       -6.6470     7.6530    -1.2770 O.3   1 <1>  -0.3620 
 23 C       -8.0100     6.0840    -0.5130 C.ar  1 <1>   0.0820 
 24 C       -7.9920     8.1090    -1.4130 C.3   1 <1>   0.4000 
 25 O       -8.8270     7.0690    -0.9090 O.3   1 <1>  -0.3620 
 26 H        1.4530     2.6830     1.0640 H     1 <1>   0.0800 
 27 H       -2.3500     0.4860    -0.4390 H     1 <1>   0.0800 
 28 H       -3.1290     1.9020    -1.0730 H     1 <1>   0.0800 
 29 H        0.2940     4.5890     1.0950 H     1 <1>   0.0800 
 30 H        1.6050     2.2990    -1.9010 H     1 <1>   0.0800 
 31 H        2.7880     1.9660    -0.6700 H     1 <1>   0.0800 
 32 H       -3.0080     2.1410     1.8190 H     1 <1>   0.0800 
 33 H       -3.6190     0.5700     1.4020 H     1 <1>   0.0800 
 34 H        0.2010     6.1370    -0.6150 H     1 <1>   0.0800 
 35 H       -0.0410     4.9470    -1.8620 H     1 <1>   0.0800 
 36 H        3.7340     3.9600    -1.5220 H     1 <1>   0.1500 
 37 H        2.3990     6.1150    -1.4920 H     1 <1>   0.1500 
 38 H       -3.9770     3.9750     0.4360 H     1 <1>   0.3700 
 39 H       -4.6550     5.8880    -0.5950 H     1 <1>   0.1500 
 40 H       -7.5470     3.0530     0.8160 H     1 <1>   0.1500 
 41 H       -9.3680     4.6050     0.2130 H     1 <1>   0.1500 
 42 H       -8.2130     8.2770    -2.4520 H     1 <1>   0.0800 
 43 H       -8.1310     9.0000    -0.8270 H     1 <1>   0.0800 
@<TRIPOS>BOND
  1   1   2  2   
  2   2   3  am  
  3   2   4  1   
  4   3   5  am  
  5   3   6  1   
  6   4   7  1   
  7   4   8  1   
  8   4  26  1   
  9   5   7  1   
 10   5   9  2   
 11   6  10  1   
 12   6  27  1   
 13   6  28  1   
 14   7  11  1   
 15   7  29  1   
 16   8  12  1   
 17   8  30  1   
 18   8  31  1   
 19  10  13  1   
 20  10  32  1   
 21  10  33  1   
 22  11  14  1   
 23  11  34  1   
 24  11  35  1   
 25  12  14  2   
 26  12  36  1   
 27  13  15  2   
 28  13  16  am  
 29  14  37  1   
 30  16  17  1   
 31  16  38  1   
 32  17  18  ar  
 33  17  19  ar  
 34  18  20  ar  
 35  18  39  1   
 36  19  21  ar  
 37  19  40  1   
 38  20  22  1   
 39  20  23  ar  
 40  21  23  ar  
 41  21  41  1   
 42  22  24  1   
 43  23  25  1   
 44  24  25  1   
 45  24  42  1   
 46  24  43  1   
@<TRIPOS>SUBSTRUCTURE
  1 ****   9 GROUP 4 **** **** 0

# MOE 2024.06 (io_trps.svl 2023.06)
