@<TRIPOS>MOLECULE
NONAME
24 25 1 0 0 
SMALL
USER_CHARGES


@<TRIPOS>ATOM
  1 F       -0.0830    -0.6340    -0.0550 F     1 <1>  -0.1900 
  2 C        0.8210    -1.5720    -0.0130 C.ar  1 <1>   0.1900 
  3 C        2.0640    -1.3300    -0.5620 C.ar  1 <1>  -0.1500 
  4 C        0.5090    -2.7780     0.5810 C.ar  1 <1>  -0.1500 
  5 C        3.0200    -2.3300    -0.5140 C.ar  1 <1>  -0.1500 
  6 C        1.4760    -3.7670     0.6200 C.ar  1 <1>  -0.1500 
  7 C        2.7530    -3.5740     0.0750 C.ar  1 <1>   0.0860 
  8 C        3.7360    -4.6360     0.1360 C.2   1 <1>   0.3030 
  9 N        3.6010    -5.7680     0.6940 N.2   1 <1>  -0.5130 
 10 C        5.1000    -4.4940    -0.4880 C.3   1 <1>  -0.0990 
 11 O        4.6940    -6.4930     0.5640 O.3   1 <1>  -0.2170 
 12 C        5.6340    -5.9150    -0.3190 C.3   1 <1>   0.5600 
 13 O        5.4120    -6.6000    -1.5150 O.3   1 <1>  -0.6800 
 14 C        7.1050    -6.0130     0.2390 C.3   1 <1>   1.0200 
 15 F        7.9900    -5.4200    -0.5610 F     1 <1>  -0.3400 
 16 F        7.5390    -7.2610     0.4070 F     1 <1>  -0.3400 
 17 F        7.2470    -5.4160     1.4220 F     1 <1>  -0.3400 
 18 H        2.2710    -0.3760    -1.0150 H     1 <1>   0.1500 
 19 H       -0.4690    -2.9350     1.0010 H     1 <1>   0.1500 
 20 H        3.9840    -2.1260    -0.9430 H     1 <1>   0.1500 
 21 H        1.2400    -4.7110     1.0820 H     1 <1>   0.1500 
 22 H        5.6820    -3.7860     0.0730 H     1 <1>   0.0800 
 23 H        5.0630    -4.2030    -1.5220 H     1 <1>   0.0800 
 24 H        4.4770    -6.8880    -1.4950 H     1 <1>   0.4000 
@<TRIPOS>BOND
  1   1   2  1   
  2   2   3  ar  
  3   2   4  ar  
  4   3   5  ar  
  5   3  18  1   
  6   4   6  ar  
  7   4  19  1   
  8   5   7  ar  
  9   5  20  1   
 10   6   7  ar  
 11   6  21  1   
 12   7   8  1   
 13   8   9  2   
 14   8  10  1   
 15   9  11  1   
 16  10  12  1   
 17  10  22  1   
 18  10  23  1   
 19  11  12  1   
 20  12  13  1   
 21  12  14  1   
 22  13  24  1   
 23  14  15  1   
 24  14  16  1   
 25  14  17  1   
@<TRIPOS>SUBSTRUCTURE
  1 ****   8 GROUP 4 **** **** 0

# MOE 2024.06 (io_trps.svl 2023.06)
