@<TRIPOS>MOLECULE
NONAME
49 51 1 0 0 
SMALL
USER_CHARGES


@<TRIPOS>ATOM
  1 BR       1.3950     0.5650    -2.7470 Br    1 <1>  -0.1110 
  2 C        1.6960    -0.6650    -1.2990 C.ar  1 <1>   0.1110 
  3 C        2.8600    -1.4100    -1.2920 C.ar  1 <1>  -0.1500 
  4 C        0.7450    -0.7690    -0.3030 C.ar  1 <1>  -0.1500 
  5 C        3.0870    -2.2930    -0.2460 C.ar  1 <1>  -0.1440 
  6 C        0.9740    -1.6550     0.7360 C.ar  1 <1>  -0.1500 
  7 C        2.1380    -2.4100     0.7620 C.ar  1 <1>  -0.1500 
  8 C        4.3670    -3.1150    -0.2100 C.3   1 <1>   0.2540 
  9 N        5.5470    -2.2270    -0.1770 N.3   1 <1>  -0.8100 
 10 C        5.5680    -1.3660     1.0350 C.3   1 <1>   0.1100 
 11 C        6.8130    -2.9870    -0.2960 C.3   1 <1>   0.1100 
 12 C        6.8150    -0.4500     1.0880 C.3   1 <1>   0.3430 
 13 C        8.0520    -2.0550    -0.3210 C.3   1 <1>   0.3430 
 14 N        7.6540    -0.6190    -0.1470 N.4   1 <1>  -0.9590 
 15 C        8.7730     0.3430    -0.3190 C.3   1 <1>   0.4230 
 16 C        9.6800     0.3650     0.9240 C.3   1 <1>  -0.1600 
 17 C        8.1850     1.7080    -0.7010 C.3   1 <1>  -0.1600 
 18 C       11.0560     0.9700     0.6100 C.3   1 <1>  -0.1600 
 19 C        9.2320     2.7990    -0.9840 C.3   1 <1>  -0.1600 
 20 C       11.1370     2.4980     0.7480 C.3   1 <1>  -0.1600 
 21 C        9.9120     3.3080     0.2950 C.3   1 <1>  -0.1600 
 22 H        3.5740    -1.2990    -2.0870 H     1 <1>   0.1500 
 23 H       -0.1500    -0.1750    -0.3420 H     1 <1>   0.1500 
 24 H        0.2470    -1.7570     1.5240 H     1 <1>   0.1500 
 25 H        2.2960    -3.0940     1.5780 H     1 <1>   0.1500 
 26 H        4.4030    -3.7280    -1.0950 H     1 <1>   0.0800 
 27 H        4.3690    -3.7650     0.6490 H     1 <1>   0.0800 
 28 H        5.5380    -1.9750     1.9220 H     1 <1>   0.0800 
 29 H        4.6920    -0.7390     1.0480 H     1 <1>   0.0800 
 30 H        6.7990    -3.5670    -1.2040 H     1 <1>   0.0800 
 31 H        6.9050    -3.6760     0.5270 H     1 <1>   0.0800 
 32 H        7.3940    -0.6900     1.9640 H     1 <1>   0.0800 
 33 H        6.4890     0.5720     1.1800 H     1 <1>   0.0800 
 34 H        8.5610    -2.1810    -1.2620 H     1 <1>   0.0800 
 35 H        8.7310    -2.3510     0.4610 H     1 <1>   0.0800 
 36 H        6.9740    -0.4730    -0.9080 H     1 <1>   0.4500 
 37 H        9.3710     0.0110    -1.1520 H     1 <1>   0.0800 
 38 H        9.8530    -0.6450     1.2500 H     1 <1>   0.0800 
 39 H        9.2200     0.9020     1.7350 H     1 <1>   0.0800 
 40 H        7.5250     2.0620     0.0700 H     1 <1>   0.0800 
 41 H        7.6040     1.5830    -1.5980 H     1 <1>   0.0800 
 42 H       11.3600     0.6870    -0.3840 H     1 <1>   0.0800 
 43 H       11.7850     0.5480     1.2830 H     1 <1>   0.0800 
 44 H        8.7180     3.6330    -1.4320 H     1 <1>   0.0800 
 45 H        9.9660     2.4620    -1.6970 H     1 <1>   0.0800 
 46 H       11.9960     2.8350     0.1910 H     1 <1>   0.0800 
 47 H       11.3270     2.7430     1.7800 H     1 <1>   0.0800 
 48 H        9.1930     3.3540     1.0950 H     1 <1>   0.0800 
 49 H       10.2400     4.3200     0.1260 H     1 <1>   0.0800 
@<TRIPOS>BOND
  1   1   2  1   
  2   2   3  ar  
  3   2   4  ar  
  4   3   5  ar  
  5   3  22  1   
  6   4   6  ar  
  7   4  23  1   
  8   5   7  ar  
  9   5   8  1   
 10   6   7  ar  
 11   6  24  1   
 12   7  25  1   
 13   8   9  1   
 14   8  26  1   
 15   8  27  1   
 16   9  10  1   
 17   9  11  1   
 18  10  12  1   
 19  10  28  1   
 20  10  29  1   
 21  11  13  1   
 22  11  30  1   
 23  11  31  1   
 24  12  14  1   
 25  12  32  1   
 26  12  33  1   
 27  13  14  1   
 28  13  34  1   
 29  13  35  1   
 30  14  15  1   
 31  14  36  1   
 32  15  16  1   
 33  15  17  1   
 34  15  37  1   
 35  16  18  1   
 36  16  38  1   
 37  16  39  1   
 38  17  19  1   
 39  17  40  1   
 40  17  41  1   
 41  18  20  1   
 42  18  42  1   
 43  18  43  1   
 44  19  21  1   
 45  19  44  1   
 46  19  45  1   
 47  20  21  1   
 48  20  46  1   
 49  20  47  1   
 50  21  48  1   
 51  21  49  1   
@<TRIPOS>SUBSTRUCTURE
  1 ****  12 GROUP 4 **** **** 0

# MOE 2024.06 (io_trps.svl 2023.06)
