@<TRIPOS>MOLECULE
NONAME
34 35 1 0 0 
SMALL
USER_CHARGES


@<TRIPOS>ATOM
  1 F       -0.3780    -0.3180     0.9860 F     1 <1>  -0.1900 
  2 C       -0.1850    -1.5430     0.5610 C.ar  1 <1>   0.1900 
  3 C        0.9970    -1.9190    -0.0900 C.ar  1 <1>   0.0830 
  4 C       -1.2140    -2.4380     0.7880 C.ar  1 <1>  -0.1500 
  5 O        2.0740    -1.1290    -0.3650 O.3   1 <1>  -0.3630 
  6 C        1.1040    -3.2370    -0.5110 C.ar  1 <1>  -0.1500 
  7 C       -1.0790    -3.7470     0.3590 C.ar  1 <1>  -0.1500 
  8 C        2.1750     0.2060     0.0790 C.3   1 <1>   0.1200 
  9 C        0.0790    -4.1430    -0.2900 C.ar  1 <1>  -0.1500 
 10 C        3.5380     0.7500    -0.3570 C.3   1 <1>   0.1100 
 11 N        3.7570     2.1370     0.1170 N.3   1 <1>  -0.8100 
 12 C        2.9490     3.1240    -0.6330 C.3   1 <1>   0.1100 
 13 C        5.1930     2.4760     0.0900 C.3   1 <1>   0.1100 
 14 C        3.1700     4.5520    -0.0940 C.3   1 <1>   0.3430 
 15 C        5.4450     3.8940     0.6420 C.3   1 <1>   0.3430 
 16 N        4.6250     4.9200    -0.0840 N.4   1 <1>  -0.9060 
 17 H       -2.1060    -2.1140     1.2930 H     1 <1>   0.1500 
 18 H        2.0000    -3.5520    -1.0150 H     1 <1>   0.1500 
 19 H       -1.8720    -4.4560     0.5290 H     1 <1>   0.1500 
 20 H        2.0950     0.2130     1.1510 H     1 <1>   0.0800 
 21 H        1.3750     0.7640    -0.3710 H     1 <1>   0.0800 
 22 H        0.1850    -5.1610    -0.6250 H     1 <1>   0.1500 
 23 H        3.6200     0.7060    -1.4300 H     1 <1>   0.0800 
 24 H        4.2900     0.1070     0.0700 H     1 <1>   0.0800 
 25 H        1.9040     2.8860    -0.5330 H     1 <1>   0.0800 
 26 H        3.1970     3.0850    -1.6810 H     1 <1>   0.0800 
 27 H        5.5730     2.4010    -0.9160 H     1 <1>   0.0800 
 28 H        5.7340     1.7710     0.6990 H     1 <1>   0.0800 
 29 H        2.7780     4.5960     0.9090 H     1 <1>   0.0800 
 30 H        2.6150     5.2520    -0.6980 H     1 <1>   0.0800 
 31 H        6.4930     4.1290     0.5580 H     1 <1>   0.0800 
 32 H        5.1860     3.8970     1.6890 H     1 <1>   0.0800 
 33 H        4.7510     5.8420     0.3520 H     1 <1>   0.4500 
 34 H        4.9580     4.9850    -1.0520 H     1 <1>   0.4500 
@<TRIPOS>BOND
  1   1   2  1   
  2   2   3  ar  
  3   2   4  ar  
  4   3   5  1   
  5   3   6  ar  
  6   4   7  ar  
  7   4  17  1   
  8   5   8  1   
  9   6   9  ar  
 10   6  18  1   
 11   7   9  ar  
 12   7  19  1   
 13   8  10  1   
 14   8  20  1   
 15   8  21  1   
 16   9  22  1   
 17  10  11  1   
 18  10  23  1   
 19  10  24  1   
 20  11  12  1   
 21  11  13  1   
 22  12  14  1   
 23  12  25  1   
 24  12  26  1   
 25  13  15  1   
 26  13  27  1   
 27  13  28  1   
 28  14  16  1   
 29  14  29  1   
 30  14  30  1   
 31  15  16  1   
 32  15  31  1   
 33  15  32  1   
 34  16  33  1   
 35  16  34  1   
@<TRIPOS>SUBSTRUCTURE
  1 ****   8 GROUP 4 **** **** 0

# MOE 2024.06 (io_trps.svl 2023.06)
