@<TRIPOS>MOLECULE
NONAME
30 31 1 0 0 
SMALL
USER_CHARGES


@<TRIPOS>ATOM
  1 CL       1.1650     0.0030    -0.6220 Cl    1 <1>  -0.1770 
  2 C       -0.4250     0.7220    -0.5220 C.ar  1 <1>   0.1770 
  3 C       -0.5850     2.0070    -0.0220 C.ar  1 <1>  -0.1440 
  4 C       -1.5020    -0.0310    -0.9550 C.ar  1 <1>  -0.1500 
  5 C       -1.8750     2.5160     0.0270 C.ar  1 <1>   0.1770 
  6 C        0.6090     2.8230     0.4470 C.3   1 <1>   0.2140 
  7 C       -2.7810     0.4980    -0.8950 C.ar  1 <1>  -0.1500 
  8 CL      -2.1740     4.1250     0.6410 Cl    1 <1>  -0.1770 
  9 C       -2.9660     1.7780    -0.4020 C.ar  1 <1>  -0.1500 
 10 S        1.3140     3.6510    -1.0080 S.3   1 <1>  -0.4600 
 11 C        2.6260     4.7030    -0.2910 C.3   1 <1>   0.1310 
 12 C        3.6980     3.8650     0.3890 C.2   1 <1>   0.5690 
 13 O        4.1850     4.2780     1.4140 O.2   1 <1>  -0.5700 
 14 N        4.0640     2.6830    -0.1750 N.am  1 <1>  -0.5790 
 15 C        5.0940     1.7680     0.3350 C.3   1 <1>   0.0490 
 16 C        5.9620     1.0670    -0.6570 C.3   1 <1>  -0.2000 
 17 C        4.9160     0.3050     0.1010 C.3   1 <1>  -0.2000 
 18 H       -1.3380    -1.0230    -1.3370 H     1 <1>   0.1500 
 19 H        1.3760     2.2030     0.8770 H     1 <1>   0.0800 
 20 H        0.3340     3.5850     1.1530 H     1 <1>   0.0800 
 21 H       -3.6240    -0.0820    -1.2310 H     1 <1>   0.1500 
 22 H       -3.9510     2.2070    -0.3490 H     1 <1>   0.1500 
 23 H        2.1590     5.3630     0.4170 H     1 <1>   0.0800 
 24 H        3.0530     5.2740    -1.0940 H     1 <1>   0.0800 
 25 H        3.5560     2.3590    -1.0030 H     1 <1>   0.3700 
 26 H        5.5350     2.0960     1.2640 H     1 <1>   0.1000 
 27 H        6.9940     0.8970    -0.4090 H     1 <1>   0.1000 
 28 H        5.8120     1.2590    -1.7050 H     1 <1>   0.1000 
 29 H        4.0470    -0.0430    -0.4260 H     1 <1>   0.1000 
 30 H        5.2400    -0.3810     0.8640 H     1 <1>   0.1000 
@<TRIPOS>BOND
  1   1   2  1   
  2   2   3  ar  
  3   2   4  ar  
  4   3   5  ar  
  5   3   6  1   
  6   4   7  ar  
  7   4  18  1   
  8   5   8  1   
  9   5   9  ar  
 10   6  10  1   
 11   6  19  1   
 12   6  20  1   
 13   7   9  ar  
 14   7  21  1   
 15   9  22  1   
 16  10  11  1   
 17  11  12  1   
 18  11  23  1   
 19  11  24  1   
 20  12  13  2   
 21  12  14  am  
 22  14  15  1   
 23  14  25  1   
 24  15  16  1   
 25  15  17  1   
 26  15  26  1   
 27  16  17  1   
 28  16  27  1   
 29  16  28  1   
 30  17  29  1   
 31  17  30  1   
@<TRIPOS>SUBSTRUCTURE
  1 ****   6 GROUP 4 **** **** 0

# MOE 2024.06 (io_trps.svl 2023.06)
