@<TRIPOS>MOLECULE
NONAME
36 36 1 0 0 
SMALL
USER_CHARGES


@<TRIPOS>ATOM
  1 CL       0.5050     0.4160    -1.4720 Cl    1 <1>  -0.1770 
  2 C        0.1060     2.0460    -0.9900 C.ar  1 <1>   0.1770 
  3 C       -1.1970     2.3600    -0.6700 C.ar  1 <1>  -0.1500 
  4 C        1.1080     2.9930    -0.9320 C.ar  1 <1>  -0.1500 
  5 C       -1.5280     3.6550    -0.2820 C.ar  1 <1>   0.1170 
  6 C        0.7910     4.2830    -0.5450 C.ar  1 <1>  -0.1500 
  7 N       -2.8430     3.9980     0.0690 N.am  1 <1>  -0.5470 
  8 C       -0.5160     4.6200    -0.2210 C.ar  1 <1>  -0.1430 
  9 C       -4.0370     3.4880    -0.3430 C.2   1 <1>   0.6900 
 10 C       -0.8200     6.0550     0.1930 C.3   1 <1>  -0.0960 
 11 O       -4.1140     2.6630    -1.2300 O.2   1 <1>  -0.5700 
 12 N       -5.1530     3.9480     0.2730 N.am  1 <1>  -0.7300 
 13 C       -6.5290     3.5360    -0.0570 C.3   1 <1>   0.2200 
 14 C       -7.3760     4.8090    -0.2460 C.3   1 <1>  -0.1600 
 15 C       -7.0130     2.6180     1.0790 C.3   1 <1>  -0.1600 
 16 C       -8.4370     4.6630    -1.3470 C.3   1 <1>  -0.2400 
 17 C       -8.4150     2.0330     0.8680 C.3   1 <1>  -0.2400 
 18 H       -1.9480     1.5940    -0.7230 H     1 <1>   0.1500 
 19 H        2.1170     2.7230    -1.1870 H     1 <1>   0.1500 
 20 H        1.5720     5.0220    -0.5020 H     1 <1>   0.1500 
 21 H       -2.9290     4.8470     0.6130 H     1 <1>   0.3700 
 22 H       -1.5870     6.4660    -0.4390 H     1 <1>   0.0800 
 23 H        0.0540     6.6760     0.1010 H     1 <1>   0.0800 
 24 H       -1.1470     6.0840     1.2160 H     1 <1>   0.0800 
 25 H       -5.0640     4.4920     1.1250 H     1 <1>   0.3700 
 26 H       -6.5150     2.9800    -0.9810 H     1 <1>   0.0800 
 27 H       -6.7340     5.6240    -0.5360 H     1 <1>   0.0800 
 28 H       -7.8510     5.0790     0.6810 H     1 <1>   0.0800 
 29 H       -6.9970     3.1550     2.0110 H     1 <1>   0.0800 
 30 H       -6.3220     1.7960     1.1560 H     1 <1>   0.0800 
 31 H       -7.9660     4.4400    -2.2880 H     1 <1>   0.0800 
 32 H       -8.9840     5.5830    -1.4520 H     1 <1>   0.0800 
 33 H       -9.1350     3.8790    -1.1200 H     1 <1>   0.0800 
 34 H       -9.1640     2.8030     0.9260 H     1 <1>   0.0800 
 35 H       -8.6250     1.3050     1.6310 H     1 <1>   0.0800 
 36 H       -8.4800     1.5490    -0.0910 H     1 <1>   0.0800 
@<TRIPOS>BOND
  1   1   2  1   
  2   2   3  ar  
  3   2   4  ar  
  4   3   5  ar  
  5   3  18  1   
  6   4   6  ar  
  7   4  19  1   
  8   5   7  1   
  9   5   8  ar  
 10   6   8  ar  
 11   6  20  1   
 12   7   9  am  
 13   7  21  1   
 14   8  10  1   
 15   9  11  2   
 16   9  12  am  
 17  10  22  1   
 18  10  23  1   
 19  10  24  1   
 20  12  13  1   
 21  12  25  1   
 22  13  14  1   
 23  13  15  1   
 24  13  26  1   
 25  14  16  1   
 26  14  27  1   
 27  14  28  1   
 28  15  17  1   
 29  15  29  1   
 30  15  30  1   
 31  16  31  1   
 32  16  32  1   
 33  16  33  1   
 34  17  34  1   
 35  17  35  1   
 36  17  36  1   
@<TRIPOS>SUBSTRUCTURE
  1 ****   9 GROUP 4 **** **** 0

# MOE 2024.06 (io_trps.svl 2023.06)
