@<TRIPOS>MOLECULE
NONAME
50 51 1 0 0 
SMALL
USER_CHARGES


@<TRIPOS>ATOM
  1 O        0.3930    -2.6480     0.7650 O.2   1 <1>  -0.5700 
  2 C        0.5300    -3.4820    -0.0940 C.2   1 <1>   0.5690 
  3 N        1.7380    -3.8650    -0.5950 N.am  1 <1>  -0.5470 
  4 C       -0.7150    -4.1450    -0.6420 C.3   1 <1>  -0.0990 
  5 C        3.0090    -3.4190    -0.1990 C.ar  1 <1>   0.1170 
  6 C       -1.9440    -3.5880     0.0770 C.3   1 <1>   0.3430 
  7 C        3.8830    -4.3140     0.4230 C.ar  1 <1>  -0.1440 
  8 C        3.4300    -2.1070    -0.4390 C.ar  1 <1>  -0.1440 
  9 N       -3.1950    -4.2060    -0.4430 N.4   1 <1>  -0.9060 
 10 C        5.1480    -3.8960     0.7980 C.ar  1 <1>  -0.1500 
 11 C        3.4730    -5.7530     0.7120 C.3   1 <1>  -0.0970 
 12 C        4.6980    -1.7110    -0.0500 C.ar  1 <1>  -0.1500 
 13 C        2.5360    -1.0830    -1.1260 C.3   1 <1>  -0.0970 
 14 C       -4.4070    -3.7180     0.2460 C.3   1 <1>   0.4230 
 15 C        5.5630    -2.5970     0.5660 C.ar  1 <1>  -0.1430 
 16 C       -5.5700    -4.6440    -0.1240 C.3   1 <1>  -0.1600 
 17 C       -4.7030    -2.2690    -0.1670 C.3   1 <1>  -0.1600 
 18 C        6.9500    -2.1470     0.9880 C.3   1 <1>  -0.0970 
 19 C       -6.8870    -4.1570     0.4990 C.3   1 <1>  -0.1600 
 20 C       -6.0200    -1.7750     0.4510 C.3   1 <1>  -0.1600 
 21 C       -7.1850    -2.7070     0.0970 C.3   1 <1>  -0.1600 
 22 H        1.7650    -4.6370    -1.2560 H     1 <1>   0.3700 
 23 H       -0.6370    -5.2040    -0.4790 H     1 <1>   0.0800 
 24 H       -0.7740    -3.9380    -1.6950 H     1 <1>   0.0800 
 25 H       -1.9720    -2.5180    -0.0610 H     1 <1>   0.0800 
 26 H       -1.8490    -3.7770     1.1350 H     1 <1>   0.0800 
 27 H       -3.1540    -5.2250    -0.3260 H     1 <1>   0.4500 
 28 H       -3.3020    -4.0150    -1.4450 H     1 <1>   0.4500 
 29 H        5.8210    -4.5820     1.2810 H     1 <1>   0.1500 
 30 H        2.5730    -5.7670     1.3010 H     1 <1>   0.0800 
 31 H        4.2390    -6.2680     1.2640 H     1 <1>   0.0800 
 32 H        3.3060    -6.2820    -0.2080 H     1 <1>   0.0800 
 33 H        5.0200    -0.7000    -0.2250 H     1 <1>   0.1500 
 34 H        2.0380    -1.5220    -1.9700 H     1 <1>   0.0800 
 35 H        3.1120    -0.2460    -1.4770 H     1 <1>   0.0800 
 36 H        1.8000    -0.7200    -0.4310 H     1 <1>   0.0800 
 37 H       -4.2640    -3.7570     1.3150 H     1 <1>   0.0800 
 38 H       -5.3750    -5.6410     0.2310 H     1 <1>   0.0800 
 39 H       -5.6930    -4.6760    -1.1930 H     1 <1>   0.0800 
 40 H       -4.7830    -2.1990    -1.2380 H     1 <1>   0.0800 
 41 H       -3.9150    -1.6150     0.1630 H     1 <1>   0.0800 
 42 H        7.6370    -2.9730     0.9660 H     1 <1>   0.0800 
 43 H        6.9130    -1.7500     1.9860 H     1 <1>   0.0800 
 44 H        7.3150    -1.3840     0.3240 H     1 <1>   0.0800 
 45 H       -6.8290    -4.2230     1.5730 H     1 <1>   0.0800 
 46 H       -7.6970    -4.7900     0.1780 H     1 <1>   0.0800 
 47 H       -6.2370    -0.7810     0.0960 H     1 <1>   0.0800 
 48 H       -5.9210    -1.7220     1.5230 H     1 <1>   0.0800 
 49 H       -8.0780    -2.3720     0.5990 H     1 <1>   0.0800 
 50 H       -7.3750    -2.6590    -0.9630 H     1 <1>   0.0800 
@<TRIPOS>BOND
  1   1   2  2   
  2   2   3  am  
  3   2   4  1   
  4   3   5  1   
  5   3  22  1   
  6   4   6  1   
  7   4  23  1   
  8   4  24  1   
  9   5   7  ar  
 10   5   8  ar  
 11   6   9  1   
 12   6  25  1   
 13   6  26  1   
 14   7  10  ar  
 15   7  11  1   
 16   8  12  ar  
 17   8  13  1   
 18   9  14  1   
 19   9  27  1   
 20   9  28  1   
 21  10  15  ar  
 22  10  29  1   
 23  11  30  1   
 24  11  31  1   
 25  11  32  1   
 26  12  15  ar  
 27  12  33  1   
 28  13  34  1   
 29  13  35  1   
 30  13  36  1   
 31  14  16  1   
 32  14  17  1   
 33  14  37  1   
 34  15  18  1   
 35  16  19  1   
 36  16  38  1   
 37  16  39  1   
 38  17  20  1   
 39  17  40  1   
 40  17  41  1   
 41  18  42  1   
 42  18  43  1   
 43  18  44  1   
 44  19  21  1   
 45  19  45  1   
 46  19  46  1   
 47  20  21  1   
 48  20  47  1   
 49  20  48  1   
 50  21  49  1   
 51  21  50  1   
@<TRIPOS>SUBSTRUCTURE
  1 ****   2 GROUP 4 **** **** 0

# MOE 2024.06 (io_trps.svl 2023.06)
