@<TRIPOS>MOLECULE
NONAME
40 43 1 0 0 
SMALL
USER_CHARGES


@<TRIPOS>ATOM
  1 O        0.2330     0.4490     0.5060 O.2   1 <1>  -0.5700 
  2 C        0.3080     1.5230    -0.0320 C.2   1 <1>   0.5690 
  3 N        1.4610     2.2090    -0.3190 N.am  1 <1>  -0.2370 
  4 C       -0.9200     2.2870    -0.4790 C.3   1 <1>  -0.0190 
  5 C        2.7690     1.7800    -0.0010 C.ar  1 <1>   0.1170 
  6 C        1.1610     3.4020    -0.9280 C.2   1 <1>   0.5690 
  7 C       -0.3320     3.5810    -1.0990 C.3   1 <1>  -0.0190 
  8 C       -1.7910     2.8150     0.6810 C.3   1 <1>   0.0580 
  9 C        3.6670     2.6490     0.6030 C.ar  1 <1>  -0.1500 
 10 C        3.1930     0.4890    -0.2940 C.ar  1 <1>  -0.1500 
 11 O        1.9540     4.2340    -1.2910 O.2   1 <1>  -0.5700 
 12 C       -0.9350     4.6990    -0.2210 C.3   1 <1>   0.0580 
 13 C       -2.9280     3.5680     0.0170 C.2   1 <1>  -0.2880 
 14 C       -0.9790     4.0240     1.1500 C.3   1 <1>  -0.1600 
 15 C        4.9810     2.2840     0.8870 C.ar  1 <1>   0.0860 
 16 C        4.4820     0.0880     0.0030 C.ar  1 <1>  -0.1500 
 17 C       -2.4230     4.6790    -0.5150 C.2   1 <1>  -0.2880 
 18 C        5.9200     3.2180     1.4780 C.2   1 <1>   0.6340 
 19 C        5.3640     0.9770     0.5880 C.ar  1 <1>  -0.1500 
 20 O        6.6120     2.9230     2.4240 O.2   1 <1>  -0.5700 
 21 O        6.0710     4.4460     0.9750 O.3   1 <1>  -0.4300 
 22 C        5.7780     4.7840    -0.3640 C.3   1 <1>   0.1200 
 23 C        6.4670     6.1090    -0.6710 C.3   1 <1>  -0.2400 
 24 H       -1.4910     1.7100    -1.1850 H     1 <1>   0.0800 
 25 H       -0.5860     3.6970    -2.1370 H     1 <1>   0.0800 
 26 H       -2.0720     2.1130     1.4480 H     1 <1>   0.0800 
 27 H        3.3440     3.6430     0.8610 H     1 <1>   0.1500 
 28 H        2.5120    -0.2090    -0.7500 H     1 <1>   0.1500 
 29 H       -0.4600     5.6650    -0.2540 H     1 <1>   0.0800 
 30 H       -3.9300     3.1730     0.0200 H     1 <1>   0.1500 
 31 H       -0.0120     3.7750     1.5500 H     1 <1>   0.0800 
 32 H       -1.5210     4.6150     1.8710 H     1 <1>   0.0800 
 33 H        4.7970    -0.9180    -0.2190 H     1 <1>   0.1500 
 34 H       -2.8880     5.4700    -1.0810 H     1 <1>   0.1500 
 35 H        6.3680     0.6620     0.8210 H     1 <1>   0.1500 
 36 H        4.7120     4.8820    -0.4780 H     1 <1>   0.0800 
 37 H        6.1480     4.0050    -1.0090 H     1 <1>   0.0800 
 38 H        6.0990     6.8780    -0.0160 H     1 <1>   0.0800 
 39 H        6.2650     6.3970    -1.6870 H     1 <1>   0.0800 
 40 H        7.5310     6.0100    -0.5470 H     1 <1>   0.0800 
@<TRIPOS>BOND
  1   1   2  2   
  2   2   3  am  
  3   2   4  1   
  4   3   5  1   
  5   3   6  am  
  6   4   7  1   
  7   4   8  1   
  8   4  24  1   
  9   5   9  ar  
 10   5  10  ar  
 11   6   7  1   
 12   6  11  2   
 13   7  12  1   
 14   7  25  1   
 15   8  13  1   
 16   8  14  1   
 17   8  26  1   
 18   9  15  ar  
 19   9  27  1   
 20  10  16  ar  
 21  10  28  1   
 22  12  14  1   
 23  12  17  1   
 24  12  29  1   
 25  13  17  2   
 26  13  30  1   
 27  14  31  1   
 28  14  32  1   
 29  15  18  1   
 30  15  19  ar  
 31  16  19  ar  
 32  16  33  1   
 33  17  34  1   
 34  18  20  2   
 35  18  21  1   
 36  19  35  1   
 37  21  22  1   
 38  22  23  1   
 39  22  36  1   
 40  22  37  1   
 41  23  38  1   
 42  23  39  1   
 43  23  40  1   
@<TRIPOS>SUBSTRUCTURE
  1 ****   3 GROUP 4 **** **** 0

# MOE 2024.06 (io_trps.svl 2023.06)
