@<TRIPOS>MOLECULE
NONAME
45 47 1 0 0 
SMALL
USER_CHARGES


@<TRIPOS>ATOM
  1 S        0.2330     0.2420     0.8270 S.3   1 <1>  -0.0800 
  2 C        1.4550    -0.6070    -0.0660 C.2   1 <1>   0.4420 
  3 C       -0.9160    -0.8720     0.1700 C.2   1 <1>   0.1980 
  4 N        0.9620    -1.5800    -0.7450 N.2   1 <1>  -0.3380 
  5 N        2.7470    -0.1380     0.0530 N.am  1 <1>  -0.4940 
  6 N       -0.3880    -1.7260    -0.6040 N.2   1 <1>  -0.3380 
  7 C       -2.3710    -0.7370     0.5590 C.3   1 <1>   0.0200 
  8 C        3.9210    -0.6730    -0.4180 C.2   1 <1>   0.5440 
  9 C       -3.1640    -1.8660    -0.1100 C.3   1 <1>   0.3430 
 10 O        3.9390    -1.7910    -0.8820 O.2   1 <1>  -0.5700 
 11 C        5.1420     0.1030    -0.3130 C.ar  1 <1>   0.0860 
 12 N       -4.6130    -1.8770     0.2730 N.4   1 <1>  -0.9590 
 13 C        6.3500    -0.5080     0.0160 C.ar  1 <1>  -0.1500 
 14 C        5.1580     1.4830    -0.5310 C.ar  1 <1>  -0.1500 
 15 C       -5.2540    -3.1540    -0.2080 C.3   1 <1>   0.3430 
 16 C       -5.3720    -0.6910    -0.2690 C.3   1 <1>   0.3430 
 17 C        7.5220     0.2150     0.1460 C.ar  1 <1>   0.0830 
 18 C        6.3230     2.2180    -0.4060 C.ar  1 <1>  -0.1500 
 19 C       -6.7710    -3.1660     0.0610 C.3   1 <1>   0.1200 
 20 C       -6.8840    -0.8120     0.0030 C.3   1 <1>   0.1200 
 21 O        8.6360    -0.4830     0.4780 O.3   1 <1>  -0.3630 
 22 C        7.5070     1.5900    -0.0650 C.ar  1 <1>  -0.1500 
 23 O       -7.3680    -2.0280    -0.4870 O.3   1 <1>  -0.5600 
 24 C        9.8950     0.1440     0.5860 C.3   1 <1>   0.0400 
 25 H        2.8530     0.7070     0.6070 H     1 <1>   0.3700 
 26 H       -2.7240     0.2230     0.2330 H     1 <1>   0.0800 
 27 H       -2.4490    -0.8100     1.6290 H     1 <1>   0.0800 
 28 H       -2.7120    -2.8040     0.1730 H     1 <1>   0.0800 
 29 H       -3.0690    -1.7760    -1.1810 H     1 <1>   0.0800 
 30 H       -4.6950    -1.8690     1.2980 H     1 <1>   0.4500 
 31 H        6.3750    -1.5720     0.1740 H     1 <1>   0.1500 
 32 H        4.2530     1.9910    -0.8150 H     1 <1>   0.1500 
 33 H       -4.8000    -4.0020     0.2780 H     1 <1>   0.0800 
 34 H       -5.1000    -3.2610    -1.2700 H     1 <1>   0.0800 
 35 H       -5.2280    -0.6220    -1.3350 H     1 <1>   0.0800 
 36 H       -5.0070     0.2200     0.1740 H     1 <1>   0.0800 
 37 H        6.3130     3.2810    -0.5780 H     1 <1>   0.1500 
 38 H       -6.9830    -3.1970     1.1160 H     1 <1>   0.0800 
 39 H       -7.2230    -4.0260    -0.4030 H     1 <1>   0.0800 
 40 H       -7.4160    -0.0230    -0.5010 H     1 <1>   0.0800 
 41 H       -7.1000    -0.7500     1.0560 H     1 <1>   0.0800 
 42 H        8.3990     2.1800     0.0280 H     1 <1>   0.1500 
 43 H       10.6210    -0.6080     0.8370 H     1 <1>   0.0800 
 44 H        9.8520     0.8840     1.3650 H     1 <1>   0.0800 
 45 H       10.1450     0.5910    -0.3600 H     1 <1>   0.0800 
@<TRIPOS>BOND
  1   1   2  1   
  2   1   3  1   
  3   2   4  2   
  4   2   5  1   
  5   3   6  2   
  6   3   7  1   
  7   4   6  1   
  8   5   8  am  
  9   5  25  1   
 10   7   9  1   
 11   7  26  1   
 12   7  27  1   
 13   8  10  2   
 14   8  11  1   
 15   9  12  1   
 16   9  28  1   
 17   9  29  1   
 18  11  13  ar  
 19  11  14  ar  
 20  12  15  1   
 21  12  16  1   
 22  12  30  1   
 23  13  17  ar  
 24  13  31  1   
 25  14  18  ar  
 26  14  32  1   
 27  15  19  1   
 28  15  33  1   
 29  15  34  1   
 30  16  20  1   
 31  16  35  1   
 32  16  36  1   
 33  17  21  1   
 34  17  22  ar  
 35  18  22  ar  
 36  18  37  1   
 37  19  23  1   
 38  19  38  1   
 39  19  39  1   
 40  20  23  1   
 41  20  40  1   
 42  20  41  1   
 43  21  24  1   
 44  22  42  1   
 45  24  43  1   
 46  24  44  1   
 47  24  45  1   
@<TRIPOS>SUBSTRUCTURE
  1 ****   2 GROUP 4 **** **** 0

# MOE 2024.06 (io_trps.svl 2023.06)
