@<TRIPOS>MOLECULE
NONAME
29 29 1 0 0 
SMALL
USER_CHARGES


@<TRIPOS>ATOM
  1 CL      -2.0480     2.3380     3.2610 Cl    1 <1>  -0.1770 
  2 C       -2.3290     2.0510     1.5570 C.ar  1 <1>   0.1770 
  3 C       -1.3530     2.3750     0.6220 C.ar  1 <1>   0.0820 
  4 C       -3.5360     1.4990     1.1770 C.ar  1 <1>  -0.1500 
  5 O       -0.1880     2.9180     1.0620 O.3   1 <1>  -0.3630 
  6 C       -1.6190     2.1260    -0.7220 C.ar  1 <1>  -0.1500 
  7 C       -3.8130     1.2520    -0.1630 C.ar  1 <1>  -0.0090 
  8 C        0.8580     3.2560     0.1780 C.3   1 <1>   0.0400 
  9 C       -2.8320     1.5720    -1.0970 C.ar  1 <1>  -0.1500 
 10 S       -5.3930     0.5180    -0.6690 S.o2  1 <1>   1.4470 
 11 O       -5.6650     0.8840    -2.0440 O.2   1 <1>  -0.6500 
 12 O       -5.3730    -0.8830    -0.3050 O.2   1 <1>  -0.6500 
 13 N       -6.5020     1.3250     0.3260 N.am  1 <1>  -0.8490 
 14 C       -7.7540     0.5260     0.5670 C.3   1 <1>   0.0900 
 15 C       -6.8530     2.6670    -0.1550 C.3   1 <1>   0.1160 
 16 C       -8.8870     1.1480     1.4040 C.2   1 <1>   0.9060 
 17 O       -9.0510     0.7790     2.5740 O.co2 1 <1>  -0.9000 
 18 O       -9.6290     1.9890     0.8750 O.co2 1 <1>  -0.9000 
 19 H       -4.2710     1.2600     1.9280 H     1 <1>   0.1500 
 20 H       -0.8990     2.3550    -1.4850 H     1 <1>   0.1500 
 21 H        1.6680     3.6570     0.7600 H     1 <1>   0.0800 
 22 H        0.5050     3.9970    -0.5160 H     1 <1>   0.0800 
 23 H        1.1830     2.3680    -0.3350 H     1 <1>   0.0800 
 24 H       -3.0280     1.3840    -2.1410 H     1 <1>   0.1500 
 25 H       -7.4860    -0.3910     1.0590 H     1 <1>   0.0800 
 26 H       -8.1880     0.2680    -0.3820 H     1 <1>   0.0800 
 27 H       -5.9640     3.2280    -0.3800 H     1 <1>   0.0800 
 28 H       -7.4040     3.1990     0.6020 H     1 <1>   0.0800 
 29 H       -7.4630     2.5990    -1.0410 H     1 <1>   0.0800 
@<TRIPOS>BOND
  1   1   2  1   
  2   2   3  ar  
  3   2   4  ar  
  4   3   5  1   
  5   3   6  ar  
  6   4   7  ar  
  7   4  19  1   
  8   5   8  1   
  9   6   9  ar  
 10   6  20  1   
 11   7   9  ar  
 12   7  10  1   
 13   8  21  1   
 14   8  22  1   
 15   8  23  1   
 16   9  24  1   
 17  10  11  2   
 18  10  12  2   
 19  10  13  am  
 20  13  14  1   
 21  13  15  1   
 22  14  16  1   
 23  14  25  1   
 24  14  26  1   
 25  15  27  1   
 26  15  28  1   
 27  15  29  1   
 28  16  17  ar  
 29  16  18  ar  
@<TRIPOS>SUBSTRUCTURE
  1 ****   7 GROUP 4 **** **** 0

# MOE 2024.06 (io_trps.svl 2023.06)
