@<TRIPOS>MOLECULE
NONAME
39 39 1 0 0 
SMALL
USER_CHARGES


@<TRIPOS>ATOM
  1 F       -2.2020     1.6260     2.0780 F     1 <1>  -0.1900 
  2 C       -1.2470     2.1970     1.3890 C.ar  1 <1>   0.1900 
  3 C       -1.3740     2.2770     0.0100 C.ar  1 <1>  -0.1440 
  4 C       -0.1600     2.7100     2.0700 C.ar  1 <1>  -0.1500 
  5 C       -0.3590     2.8990    -0.7030 C.ar  1 <1>  -0.1500 
  6 C       -2.5870     1.6950    -0.6880 C.3   1 <1>   0.4870 
  7 C        0.8410     3.3300     1.3430 C.ar  1 <1>  -0.1500 
  8 C        0.7390     3.4220    -0.0370 C.ar  1 <1>  -0.1500 
  9 N       -3.8140     2.3880    -0.1840 N.4   1 <1>  -0.9590 
 10 C       -5.0540     1.5930    -0.5120 C.3   1 <1>   0.3430 
 11 C       -3.8230     3.8090    -0.6470 C.3   1 <1>   0.3430 
 12 C       -6.3370     2.0430     0.2450 C.3   1 <1>   0.3430 
 13 C       -4.2290     4.7070     0.5140 C.3   1 <1>  -0.2400 
 14 N       -7.5320     1.1340     0.0630 N.4   1 <1>  -0.9590 
 15 C       -8.0540     1.0970    -1.3460 C.3   1 <1>   0.2630 
 16 C       -8.6450     1.5560     0.9800 C.3   1 <1>   0.2630 
 17 H       -0.0960     2.6280     3.1410 H     1 <1>   0.1500 
 18 H       -0.3990     2.9830    -1.7770 H     1 <1>   0.1500 
 19 H       -2.6350     0.6410    -0.4650 H     1 <1>   0.0800 
 20 H       -2.4940     1.8150    -1.7560 H     1 <1>   0.0800 
 21 H        1.7010     3.7380     1.8490 H     1 <1>   0.1500 
 22 H        1.5270     3.9040    -0.5930 H     1 <1>   0.1500 
 23 H       -3.6560     2.4090     0.8390 H     1 <1>   0.4500 
 24 H       -4.8690     0.5610    -0.2610 H     1 <1>   0.0800 
 25 H       -5.2350     1.6500    -1.5730 H     1 <1>   0.0800 
 26 H       -4.4930     3.9380    -1.4820 H     1 <1>   0.0800 
 27 H       -2.8340     4.1020    -0.9660 H     1 <1>   0.0800 
 28 H       -6.6030     3.0360    -0.0790 H     1 <1>   0.0800 
 29 H       -6.1040     2.0900     1.2970 H     1 <1>   0.0800 
 30 H       -5.2300     4.5140     0.8510 H     1 <1>   0.0800 
 31 H       -4.1870     5.7330     0.1910 H     1 <1>   0.0800 
 32 H       -3.5410     4.6010     1.3350 H     1 <1>   0.0800 
 33 H       -7.2860     0.1670     0.3400 H     1 <1>   0.4500 
 34 H       -8.3540     2.0820    -1.6650 H     1 <1>   0.0800 
 35 H       -8.9130     0.4460    -1.4070 H     1 <1>   0.0800 
 36 H       -7.3040     0.7250    -2.0250 H     1 <1>   0.0800 
 37 H       -8.9760     2.5550     0.7420 H     1 <1>   0.0800 
 38 H       -8.3180     1.5370     2.0080 H     1 <1>   0.0800 
 39 H       -9.4860     0.8870     0.8810 H     1 <1>   0.0800 
@<TRIPOS>BOND
  1   1   2  1   
  2   2   3  ar  
  3   2   4  ar  
  4   3   5  ar  
  5   3   6  1   
  6   4   7  ar  
  7   4  17  1   
  8   5   8  ar  
  9   5  18  1   
 10   6   9  1   
 11   6  19  1   
 12   6  20  1   
 13   7   8  ar  
 14   7  21  1   
 15   8  22  1   
 16   9  10  1   
 17   9  11  1   
 18   9  23  1   
 19  10  12  1   
 20  10  24  1   
 21  10  25  1   
 22  11  13  1   
 23  11  26  1   
 24  11  27  1   
 25  12  14  1   
 26  12  28  1   
 27  12  29  1   
 28  13  30  1   
 29  13  31  1   
 30  13  32  1   
 31  14  15  1   
 32  14  16  1   
 33  14  33  1   
 34  15  34  1   
 35  15  35  1   
 36  15  36  1   
 37  16  37  1   
 38  16  38  1   
 39  16  39  1   
@<TRIPOS>SUBSTRUCTURE
  1 ****   9 GROUP 4 **** **** 0

# MOE 2024.06 (io_trps.svl 2023.06)
