@<TRIPOS>MOLECULE
NONAME
40 41 1 0 0 
SMALL
USER_CHARGES


@<TRIPOS>ATOM
  1 S       -1.0580     0.1610    -0.4650 S.3   1 <1>  -0.3320 
  2 C        0.0640     1.5670    -0.3770 C.ar  1 <1>   0.1020 
  3 C       -1.6470    -0.1560     1.2700 C.3   1 <1>   0.1310 
  4 C        0.4480     2.1330     0.8300 C.ar  1 <1>  -0.1500 
  5 C        0.5340     2.0690    -1.5770 C.ar  1 <1>  -0.1500 
  6 C       -2.6770    -1.2810     1.3090 C.2   1 <1>   0.5690 
  7 C        1.3060     3.2200     0.8250 C.ar  1 <1>  -0.1500 
  8 C        1.3910     3.1560    -1.5760 C.ar  1 <1>  -0.1500 
  9 O       -2.4500    -2.2030     2.0540 O.2   1 <1>  -0.5700 
 10 N       -3.8340    -1.2560     0.5600 N.am  1 <1>  -0.6600 
 11 C        1.7750     3.7310    -0.3750 C.ar  1 <1>  -0.1500 
 12 C       -4.6770    -2.4870     0.4340 C.3   1 <1>   0.1400 
 13 C       -4.3070    -0.0920    -0.2540 C.3   1 <1>   0.1400 
 14 C       -6.1630    -2.1750     0.6800 C.3   1 <1>   0.3430 
 15 C       -5.8090     0.1810    -0.0310 C.3   1 <1>   0.3430 
 16 N       -6.6520    -1.0560    -0.1980 N.4   1 <1>  -0.9590 
 17 C       -8.0910    -0.7920     0.0230 C.3   1 <1>   0.4810 
 18 C       -8.5880    -0.0100    -1.1700 C.2   1 <1>  -0.2880 
 19 C       -9.3260    -0.5130    -2.1660 C.2   1 <1>  -0.3000 
 20 H       -2.0660     0.7570     1.6470 H     1 <1>   0.0800 
 21 H       -0.7830    -0.4310     1.8470 H     1 <1>   0.0800 
 22 H        0.1040     1.7480     1.7690 H     1 <1>   0.1500 
 23 H        0.2320     1.6140    -2.5030 H     1 <1>   0.1500 
 24 H        1.6130     3.6700     1.7530 H     1 <1>   0.1500 
 25 H        1.7600     3.5530    -2.5060 H     1 <1>   0.1500 
 26 H        2.4410     4.5760    -0.3750 H     1 <1>   0.1500 
 27 H       -4.3630    -3.2390     1.1380 H     1 <1>   0.0800 
 28 H       -4.5500    -2.9010    -0.5510 H     1 <1>   0.0800 
 29 H       -4.1250    -0.2940    -1.2960 H     1 <1>   0.0800 
 30 H       -3.7600     0.7980     0.0040 H     1 <1>   0.0800 
 31 H       -6.2850    -1.9070     1.7170 H     1 <1>   0.0800 
 32 H       -6.7410    -3.0660     0.4980 H     1 <1>   0.0800 
 33 H       -6.1300     0.9400    -0.7260 H     1 <1>   0.0800 
 34 H       -5.9370     0.5710     0.9650 H     1 <1>   0.0800 
 35 H       -6.5730    -1.3570    -1.1790 H     1 <1>   0.4500 
 36 H       -8.2540    -0.2470     0.9390 H     1 <1>   0.0800 
 37 H       -8.6280    -1.7260     0.0770 H     1 <1>   0.0800 
 38 H       -8.2990     1.0270    -1.1480 H     1 <1>   0.1500 
 39 H       -9.6760     0.0690    -3.0050 H     1 <1>   0.1500 
 40 H       -9.6550    -1.5370    -2.2420 H     1 <1>   0.1500 
@<TRIPOS>BOND
  1   1   2  1   
  2   1   3  1   
  3   2   4  ar  
  4   2   5  ar  
  5   3   6  1   
  6   3  20  1   
  7   3  21  1   
  8   4   7  ar  
  9   4  22  1   
 10   5   8  ar  
 11   5  23  1   
 12   6   9  2   
 13   6  10  am  
 14   7  11  ar  
 15   7  24  1   
 16   8  11  ar  
 17   8  25  1   
 18  10  12  1   
 19  10  13  1   
 20  11  26  1   
 21  12  14  1   
 22  12  27  1   
 23  12  28  1   
 24  13  15  1   
 25  13  29  1   
 26  13  30  1   
 27  14  16  1   
 28  14  31  1   
 29  14  32  1   
 30  15  16  1   
 31  15  33  1   
 32  15  34  1   
 33  16  17  1   
 34  16  35  1   
 35  17  18  1   
 36  17  36  1   
 37  17  37  1   
 38  18  19  2   
 39  18  38  1   
 40  19  39  1   
 41  19  40  1   
@<TRIPOS>SUBSTRUCTURE
  1 ****  13 GROUP 4 **** **** 0

# MOE 2024.06 (io_trps.svl 2023.06)
