@<TRIPOS>MOLECULE
NONAME
40 41 1 0 0 
SMALL
USER_CHARGES


@<TRIPOS>ATOM
  1 CL      -2.3390     1.2910     2.3060 Cl    1 <1>  -0.1770 
  2 C       -1.1980     2.1540     1.2940 C.ar  1 <1>   0.1770 
  3 C       -0.0490     2.6940     1.8490 C.ar  1 <1>   0.1770 
  4 C       -1.4670     2.2990    -0.0600 C.ar  1 <1>  -0.1440 
  5 CL       0.2790     2.5210     3.5560 Cl    1 <1>  -0.1770 
  6 C        0.8510     3.3850     1.0600 C.ar  1 <1>  -0.1500 
  7 C       -0.5580     2.9920    -0.8510 C.ar  1 <1>  -0.1500 
  8 C       -2.7280     1.7080    -0.6620 C.3   1 <1>   0.4870 
  9 C        0.5920     3.5320    -0.2940 C.ar  1 <1>  -0.1500 
 10 N       -3.9170     2.4290    -0.1310 N.4   1 <1>  -0.9590 
 11 C       -5.1820     1.7290    -0.5190 C.3   1 <1>   0.3430 
 12 C       -3.9240     3.8710    -0.5200 C.3   1 <1>   0.3430 
 13 C       -6.4060     2.3960     0.1170 C.3   1 <1>  -0.0190 
 14 C       -5.1100     4.5750     0.1440 C.3   1 <1>  -0.1600 
 15 C       -7.6530     1.6840    -0.3760 C.2   1 <1>   0.6590 
 16 C       -6.4460     3.9030    -0.2060 C.3   1 <1>  -0.1600 
 17 O       -7.6060     0.9120    -1.2970 O.2   1 <1>  -0.5700 
 18 O       -8.7730     1.9650     0.2690 O.3   1 <1>  -0.4300 
 19 C      -10.0010     1.3740    -0.0920 C.3   1 <1>   0.1200 
 20 C      -11.0790     1.9180     0.8410 C.3   1 <1>  -0.2400 
 21 H        1.7410     3.8010     1.5000 H     1 <1>   0.1500 
 22 H       -0.7270     3.1190    -1.9090 H     1 <1>   0.1500 
 23 H       -2.7850     0.6630    -0.4000 H     1 <1>   0.0800 
 24 H       -2.6960     1.7850    -1.7370 H     1 <1>   0.0800 
 25 H        1.2940     4.0670    -0.9140 H     1 <1>   0.1500 
 26 H       -3.8370     2.3880     0.8970 H     1 <1>   0.4500 
 27 H       -5.1460     0.6960    -0.2110 H     1 <1>   0.0800 
 28 H       -5.2940     1.7490    -1.5920 H     1 <1>   0.0800 
 29 H       -4.0080     3.9610    -1.5910 H     1 <1>   0.0800 
 30 H       -3.0070     4.3470    -0.2100 H     1 <1>   0.0800 
 31 H       -6.3600     2.2590     1.1820 H     1 <1>   0.0800 
 32 H       -5.1330     5.6010    -0.1810 H     1 <1>   0.0800 
 33 H       -4.9680     4.5830     1.2120 H     1 <1>   0.0800 
 34 H       -7.2450     4.3730     0.3440 H     1 <1>   0.0800 
 35 H       -6.6500     4.0400    -1.2560 H     1 <1>   0.0800 
 36 H       -9.9100     0.3050     0.0050 H     1 <1>   0.0800 
 37 H      -10.2150     1.6270    -1.1170 H     1 <1>   0.0800 
 38 H      -10.8500     1.6670     1.8610 H     1 <1>   0.0800 
 39 H      -12.0290     1.4830     0.5880 H     1 <1>   0.0800 
 40 H      -11.1550     2.9860     0.7400 H     1 <1>   0.0800 
@<TRIPOS>BOND
  1   1   2  1   
  2   2   3  ar  
  3   2   4  ar  
  4   3   5  1   
  5   3   6  ar  
  6   4   7  ar  
  7   4   8  1   
  8   6   9  ar  
  9   6  21  1   
 10   7   9  ar  
 11   7  22  1   
 12   8  10  1   
 13   8  23  1   
 14   8  24  1   
 15   9  25  1   
 16  10  11  1   
 17  10  12  1   
 18  10  26  1   
 19  11  13  1   
 20  11  27  1   
 21  11  28  1   
 22  12  14  1   
 23  12  29  1   
 24  12  30  1   
 25  13  15  1   
 26  13  16  1   
 27  13  31  1   
 28  14  16  1   
 29  14  32  1   
 30  14  33  1   
 31  15  17  2   
 32  15  18  1   
 33  16  34  1   
 34  16  35  1   
 35  18  19  1   
 36  19  20  1   
 37  19  36  1   
 38  19  37  1   
 39  20  38  1   
 40  20  39  1   
 41  20  40  1   
@<TRIPOS>SUBSTRUCTURE
  1 ****  10 GROUP 4 **** **** 0

# MOE 2024.06 (io_trps.svl 2023.06)
