@<TRIPOS>MOLECULE
NONAME
53 56 1 0 0 
SMALL
USER_CHARGES


@<TRIPOS>ATOM
  1 O       -1.9150     0.9750     1.0050 O.3   1 <1>   0.2420 
  2 N       -3.1030     0.4800     1.1830 N.2   1 <1>  -0.4100 
  3 N       -1.6060     1.2700    -0.2270 N.2   1 <1>  -0.4100 
  4 C       -3.5720     0.4080    -0.0070 C.2   1 <1>   0.2120 
  5 C       -2.6280     0.9140    -0.8910 C.2   1 <1>   0.3720 
  6 N       -4.8740    -0.0130    -0.3810 N.pl3 1 <1>   0.6470 
  7 N       -2.7410     1.1150    -2.2570 N.pl3 1 <1>  -0.8830 
  8 N       -5.1250    -0.8920    -1.3630 N.2   1 <1>  -0.4180 
  9 C       -6.0580     0.3950     0.1270 C.2   1 <1>  -0.3320 
 10 N       -6.3890    -1.0660    -1.4660 N.2   1 <1>  -0.2270 
 11 C       -6.9950    -0.3050    -0.5510 C.2   1 <1>   0.0460 
 12 C       -6.1170     1.4130     1.2500 C.3   1 <1>   0.5230 
 13 C       -8.5230    -0.3870    -0.4600 C.3   1 <1>   0.5240 
 14 N       -6.2120     2.7960     0.7020 N.4   1 <1>  -0.9590 
 15 N       -8.9730    -1.8030    -0.6170 N.4   1 <1>  -0.9590 
 16 C       -5.0050     3.2350    -0.0750 C.3   1 <1>   0.3430 
 17 C       -6.4840     3.7600     1.8150 C.3   1 <1>   0.3430 
 18 C      -10.4280    -1.9060    -0.9330 C.3   1 <1>   0.3430 
 19 C       -8.5760    -2.6760     0.5290 C.3   1 <1>   0.3430 
 20 C       -5.2480     4.6160    -0.6860 C.3   1 <1>  -0.1600 
 21 C       -6.7730     5.1490     1.2450 C.3   1 <1>  -0.1600 
 22 C      -10.7730    -3.3530    -1.2900 C.3   1 <1>  -0.1600 
 23 C       -8.8940    -4.1350     0.1960 C.3   1 <1>  -0.1600 
 24 C       -5.6130     5.6540     0.3800 C.3   1 <1>  -0.1600 
 25 C      -10.3700    -4.3270    -0.1760 C.3   1 <1>  -0.1600 
 26 H       -3.0000     0.2590    -2.7650 H     1 <1>   0.4000 
 27 H       -1.8410     1.4370    -2.6360 H     1 <1>   0.4000 
 28 H       -5.2510     1.3280     1.8890 H     1 <1>   0.0800 
 29 H       -6.9840     1.2150     1.8590 H     1 <1>   0.0800 
 30 H       -8.9400     0.2040    -1.2590 H     1 <1>   0.0800 
 31 H       -8.8700     0.0120     0.4780 H     1 <1>   0.0800 
 32 H       -7.0060     2.8580     0.0550 H     1 <1>   0.4500 
 33 H       -8.4560    -2.1680    -1.4340 H     1 <1>   0.4500 
 34 H       -4.7990     2.5440    -0.8770 H     1 <1>   0.0800 
 35 H       -4.1410     3.2750     0.5710 H     1 <1>   0.0800 
 36 H       -5.6270     3.8160     2.4690 H     1 <1>   0.0800 
 37 H       -7.3320     3.4340     2.3960 H     1 <1>   0.0800 
 38 H      -10.6760    -1.2680    -1.7670 H     1 <1>   0.0800 
 39 H      -11.0130    -1.6000    -0.0810 H     1 <1>   0.0800 
 40 H       -9.1140    -2.3880     1.4170 H     1 <1>   0.0800 
 41 H       -7.5190    -2.5830     0.7200 H     1 <1>   0.0800 
 42 H       -6.0300     4.5520    -1.4220 H     1 <1>   0.0800 
 43 H       -4.3550     4.9330    -1.1970 H     1 <1>   0.0800 
 44 H       -6.9310     5.8370     2.0580 H     1 <1>   0.0800 
 45 H       -7.6800     5.1240     0.6670 H     1 <1>   0.0800 
 46 H      -10.2810    -3.6230    -2.2090 H     1 <1>   0.0800 
 47 H      -11.8330    -3.4290    -1.4620 H     1 <1>   0.0800 
 48 H       -8.6600    -4.7500     1.0480 H     1 <1>   0.0800 
 49 H       -8.2650    -4.4610    -0.6150 H     1 <1>   0.0800 
 50 H       -5.8850     6.5850    -0.0920 H     1 <1>   0.0800 
 51 H       -4.7550     5.8450     1.0040 H     1 <1>   0.0800 
 52 H      -10.5360    -5.3420    -0.5000 H     1 <1>   0.0800 
 53 H      -10.9860    -4.1580     0.6920 H     1 <1>   0.0800 
@<TRIPOS>BOND
  1   1   2  1   
  2   1   3  1   
  3   2   4  2   
  4   3   5  2   
  5   4   5  1   
  6   4   6  1   
  7   5   7  1   
  8   6   8  1   
  9   6   9  1   
 10   7  26  1   
 11   7  27  1   
 12   8  10  2   
 13   9  11  2   
 14   9  12  1   
 15  10  11  1   
 16  11  13  1   
 17  12  14  1   
 18  12  28  1   
 19  12  29  1   
 20  13  15  1   
 21  13  30  1   
 22  13  31  1   
 23  14  16  1   
 24  14  17  1   
 25  14  32  1   
 26  15  18  1   
 27  15  19  1   
 28  15  33  1   
 29  16  20  1   
 30  16  34  1   
 31  16  35  1   
 32  17  21  1   
 33  17  36  1   
 34  17  37  1   
 35  18  22  1   
 36  18  38  1   
 37  18  39  1   
 38  19  23  1   
 39  19  40  1   
 40  19  41  1   
 41  20  24  1   
 42  20  42  1   
 43  20  43  1   
 44  21  24  1   
 45  21  44  1   
 46  21  45  1   
 47  22  25  1   
 48  22  46  1   
 49  22  47  1   
 50  23  25  1   
 51  23  48  1   
 52  23  49  1   
 53  24  50  1   
 54  24  51  1   
 55  25  52  1   
 56  25  53  1   
@<TRIPOS>SUBSTRUCTURE
  1 ****   9 GROUP 4 **** **** 0

# MOE 2024.06 (io_trps.svl 2023.06)
