@<TRIPOS>MOLECULE
NONAME
44 45 1 0 0 
SMALL
USER_CHARGES


@<TRIPOS>ATOM
  1 S        0.0430     0.1610     1.1560 S.o2  1 <1>   1.4470 
  2 O        0.5700     0.1210     2.4980 O.2   1 <1>  -0.6500 
  3 O        0.0410     1.3920     0.4030 O.2   1 <1>  -0.6500 
  4 N        1.0660    -0.8010     0.2340 N.am  1 <1>  -0.9140 
  5 C       -1.5540    -0.6910     1.0480 C.ar  1 <1>  -0.0090 
  6 C        2.4720    -0.5020     0.5000 C.3   1 <1>   0.1960 
  7 C       -2.6110    -0.1410     0.3260 C.ar  1 <1>  -0.1500 
  8 C       -1.7430    -1.9210     1.6750 C.ar  1 <1>  -0.1500 
  9 C        3.3980    -1.4350    -0.3000 C.3   1 <1>   0.3430 
 10 C       -3.8350    -0.7960     0.2200 C.ar  1 <1>   0.0830 
 11 C       -2.9490    -2.5940     1.5840 C.ar  1 <1>  -0.1500 
 12 N        4.8400    -1.2910     0.0850 N.4   1 <1>  -0.9590 
 13 O       -4.8920    -0.2950    -0.4750 O.3   1 <1>  -0.3630 
 14 C       -3.9740    -2.0230     0.8580 C.ar  1 <1>   0.1900 
 15 C        5.4340     0.0700    -0.1770 C.3   1 <1>   0.3430 
 16 C        5.7040    -2.3570    -0.5290 C.3   1 <1>   0.3430 
 17 C       -4.8600     0.9860    -1.0620 C.3   1 <1>   0.1200 
 18 F       -5.1070    -2.6740     0.7820 F     1 <1>  -0.1900 
 19 C        6.9320     0.1160     0.2040 C.3   1 <1>   0.1200 
 20 C        7.1810    -2.2060    -0.0940 C.3   1 <1>   0.1200 
 21 C       -6.2200     1.2420    -1.7030 C.3   1 <1>  -0.2400 
 22 O        7.3500    -1.1030     0.7560 O.3   1 <1>  -0.5600 
 23 H        0.8400    -0.4970    -0.7140 H     1 <1>   0.4200 
 24 H        2.6700    -0.6520     1.5490 H     1 <1>   0.0800 
 25 H        2.6700     0.5290     0.2540 H     1 <1>   0.0800 
 26 H       -2.4590     0.8100    -0.1520 H     1 <1>   0.1500 
 27 H       -0.9360    -2.3560     2.2420 H     1 <1>   0.1500 
 28 H        3.2810    -1.2340    -1.3520 H     1 <1>   0.0800 
 29 H        3.0850    -2.4500    -0.1130 H     1 <1>   0.0800 
 30 H       -3.0970    -3.5440     2.0670 H     1 <1>   0.1500 
 31 H        4.9480    -1.4350     1.1030 H     1 <1>   0.4500 
 32 H        4.9100     0.8190     0.3940 H     1 <1>   0.0800 
 33 H        5.3320     0.3250    -1.2190 H     1 <1>   0.0800 
 34 H        5.6510    -2.3040    -1.6040 H     1 <1>   0.0800 
 35 H        5.3530    -3.3330    -0.2350 H     1 <1>   0.0800 
 36 H       -4.0820     1.0030    -1.8050 H     1 <1>   0.0800 
 37 H       -4.6610     1.7110    -0.2920 H     1 <1>   0.0800 
 38 H        7.1060     0.8850     0.9370 H     1 <1>   0.0800 
 39 H        7.5410     0.3320    -0.6580 H     1 <1>   0.0800 
 40 H        7.8220    -2.0840    -0.9510 H     1 <1>   0.0800 
 41 H        7.5020    -3.0830     0.4410 H     1 <1>   0.0800 
 42 H       -6.4180     0.5030    -2.4590 H     1 <1>   0.0800 
 43 H       -6.2300     2.2140    -2.1610 H     1 <1>   0.0800 
 44 H       -6.9930     1.2060    -0.9560 H     1 <1>   0.0800 
@<TRIPOS>BOND
  1   1   2  2   
  2   1   3  2   
  3   1   4  am  
  4   1   5  1   
  5   4   6  1   
  6   4  23  1   
  7   5   7  ar  
  8   5   8  ar  
  9   6   9  1   
 10   6  24  1   
 11   6  25  1   
 12   7  10  ar  
 13   7  26  1   
 14   8  11  ar  
 15   8  27  1   
 16   9  12  1   
 17   9  28  1   
 18   9  29  1   
 19  10  13  1   
 20  10  14  ar  
 21  11  14  ar  
 22  11  30  1   
 23  12  15  1   
 24  12  16  1   
 25  12  31  1   
 26  13  17  1   
 27  14  18  1   
 28  15  19  1   
 29  15  32  1   
 30  15  33  1   
 31  16  20  1   
 32  16  34  1   
 33  16  35  1   
 34  17  21  1   
 35  17  36  1   
 36  17  37  1   
 37  19  22  1   
 38  19  38  1   
 39  19  39  1   
 40  20  22  1   
 41  20  40  1   
 42  20  41  1   
 43  21  42  1   
 44  21  43  1   
 45  21  44  1   
@<TRIPOS>SUBSTRUCTURE
  1 ****   4 GROUP 4 **** **** 0

# MOE 2024.06 (io_trps.svl 2023.06)
