@<TRIPOS>MOLECULE
NONAME
43 45 1 0 0 
SMALL
USER_CHARGES


@<TRIPOS>ATOM
  1 F        0.2440    -0.4790    -0.2910 F     1 <1>  -0.1900 
  2 C        1.4130    -1.0670    -0.2640 C.ar  1 <1>   0.1900 
  3 C        2.1270    -1.0790     0.9190 C.ar  1 <1>  -0.1500 
  4 C        1.8900    -1.6550    -1.4200 C.ar  1 <1>  -0.1500 
  5 C        3.3620    -1.7030     0.9410 C.ar  1 <1>  -0.1500 
  6 C        3.1270    -2.2760    -1.3830 C.ar  1 <1>  -0.1500 
  7 C        3.8720    -2.3060    -0.2080 C.ar  1 <1>   0.1000 
  8 N        5.1110    -2.9370    -0.2050 N.pl3 1 <1>  -0.8380 
  9 C        5.2020    -4.2120     0.5620 C.3   1 <1>   0.2090 
 10 C        6.3040    -2.0510    -0.0860 C.3   1 <1>   0.2090 
 11 C        6.5090    -4.9620     0.2230 C.3   1 <1>   0.3430 
 12 C        7.5980    -2.8260    -0.4170 C.3   1 <1>   0.3430 
 13 N        7.7410    -4.1000     0.3890 N.4   1 <1>  -0.9590 
 14 C        8.9650    -4.8770     0.0210 C.3   1 <1>   0.3430 
 15 C       10.2530    -4.1570     0.4270 C.3   1 <1>  -0.0170 
 16 C       11.4270    -5.0650     0.1180 C.ar  1 <1>  -0.1430 
 17 C       12.0180    -5.0410    -1.1360 C.ar  1 <1>  -0.1500 
 18 C       11.9120    -5.9340     1.0840 C.ar  1 <1>  -0.1500 
 19 C       13.0790    -5.8830    -1.4230 C.ar  1 <1>  -0.1500 
 20 C       12.9720    -6.7750     0.7960 C.ar  1 <1>  -0.1500 
 21 C       13.5550    -6.7510    -0.4580 C.ar  1 <1>  -0.1500 
 22 H        1.7190    -0.6100     1.7960 H     1 <1>   0.1500 
 23 H        1.3050    -1.6250    -2.3220 H     1 <1>   0.1500 
 24 H        3.9310    -1.7220     1.8510 H     1 <1>   0.1500 
 25 H        3.5230    -2.7410    -2.2660 H     1 <1>   0.1500 
 26 H        4.3590    -4.8340     0.3130 H     1 <1>   0.0800 
 27 H        5.1600    -4.0050     1.6180 H     1 <1>   0.0800 
 28 H        6.3610    -1.6490     0.9110 H     1 <1>   0.0800 
 29 H        6.1980    -1.2240    -0.7690 H     1 <1>   0.0800 
 30 H        6.4410    -5.2970    -0.7990 H     1 <1>   0.0800 
 31 H        6.5830    -5.8340     0.8510 H     1 <1>   0.0800 
 32 H        8.4420    -2.1800    -0.2410 H     1 <1>   0.0800 
 33 H        7.5800    -3.0660    -1.4670 H     1 <1>   0.0800 
 34 H        7.7990    -3.8400     1.3820 H     1 <1>   0.4500 
 35 H        8.9810    -5.0600    -1.0420 H     1 <1>   0.0800 
 36 H        8.9470    -5.8340     0.5170 H     1 <1>   0.0800 
 37 H       10.2420    -3.9350     1.4790 H     1 <1>   0.0800 
 38 H       10.3690    -3.2380    -0.1200 H     1 <1>   0.0800 
 39 H       11.6680    -4.3710    -1.9020 H     1 <1>   0.1500 
 40 H       11.4780    -5.9670     2.0680 H     1 <1>   0.1500 
 41 H       13.5370    -5.8630    -2.3970 H     1 <1>   0.1500 
 42 H       13.3490    -7.4490     1.5470 H     1 <1>   0.1500 
 43 H       14.3800    -7.4050    -0.6810 H     1 <1>   0.1500 
@<TRIPOS>BOND
  1   1   2  1   
  2   2   3  ar  
  3   2   4  ar  
  4   3   5  ar  
  5   3  22  1   
  6   4   6  ar  
  7   4  23  1   
  8   5   7  ar  
  9   5  24  1   
 10   6   7  ar  
 11   6  25  1   
 12   7   8  1   
 13   8   9  1   
 14   8  10  1   
 15   9  11  1   
 16   9  26  1   
 17   9  27  1   
 18  10  12  1   
 19  10  28  1   
 20  10  29  1   
 21  11  13  1   
 22  11  30  1   
 23  11  31  1   
 24  12  13  1   
 25  12  32  1   
 26  12  33  1   
 27  13  14  1   
 28  13  34  1   
 29  14  15  1   
 30  14  35  1   
 31  14  36  1   
 32  15  16  1   
 33  15  37  1   
 34  15  38  1   
 35  16  17  ar  
 36  16  18  ar  
 37  17  19  ar  
 38  17  39  1   
 39  18  20  ar  
 40  18  40  1   
 41  19  21  ar  
 42  19  41  1   
 43  20  21  ar  
 44  20  42  1   
 45  21  43  1   
@<TRIPOS>SUBSTRUCTURE
  1 ****  13 GROUP 4 **** **** 0

# MOE 2024.06 (io_trps.svl 2023.06)
