@<TRIPOS>MOLECULE
NONAME
47 49 1 0 0 
SMALL
USER_CHARGES


@<TRIPOS>ATOM
  1 CL       0.3710    -0.0460     0.9650 Cl    1 <1>  -0.1770 
  2 C        1.8240    -0.9640     0.6520 C.ar  1 <1>   0.1770 
  3 C        2.0030    -1.5510    -0.5880 C.ar  1 <1>  -0.1500 
  4 C        2.7740    -1.0910     1.6480 C.ar  1 <1>  -0.1500 
  5 C        3.1560    -2.2770    -0.8300 C.ar  1 <1>  -0.1500 
  6 C        3.9240    -1.8190     1.3970 C.ar  1 <1>  -0.1500 
  7 C        4.1250    -2.4190     0.1570 C.ar  1 <1>   0.1000 
  8 N        5.2720    -3.1550    -0.1160 N.pl3 1 <1>  -0.8380 
  9 C        5.3990    -4.4670     0.5810 C.3   1 <1>   0.2090 
 10 C        6.5470    -2.3850    -0.2200 C.3   1 <1>   0.2090 
 11 C        6.5130    -5.3200    -0.0640 C.3   1 <1>   0.3430 
 12 C        7.6570    -3.2490    -0.8550 C.3   1 <1>   0.3430 
 13 N        7.8280    -4.5850    -0.1630 N.4   1 <1>  -0.9590 
 14 C        8.8730    -5.4130    -0.8230 C.3   1 <1>   0.4860 
 15 C       10.2020    -4.6910    -0.7140 C.ar  1 <1>  -0.1430 
 16 C       10.7260    -4.0280    -1.8160 C.ar  1 <1>  -0.1500 
 17 C       10.9040    -4.6820     0.4840 C.ar  1 <1>  -0.1500 
 18 C       11.9290    -3.3540    -1.7120 C.ar  1 <1>  -0.1500 
 19 C       12.1090    -4.0080     0.5860 C.ar  1 <1>  -0.1500 
 20 C       12.6270    -3.3360    -0.5170 C.ar  1 <1>   0.0830 
 21 O       13.7950    -2.6500    -0.5060 O.3   1 <1>  -0.3620 
 22 C       14.6400    -2.6440     0.6210 C.3   1 <1>   0.1200 
 23 C       15.8800    -1.8240     0.2760 C.3   1 <1>  -0.2400 
 24 H        1.2490    -1.4380    -1.3460 H     1 <1>   0.1500 
 25 H        2.6080    -0.6240     2.6030 H     1 <1>   0.1500 
 26 H        3.3110    -2.7400    -1.7870 H     1 <1>   0.1500 
 27 H        4.6660    -1.9210     2.1670 H     1 <1>   0.1500 
 28 H        4.4610    -4.9930     0.5160 H     1 <1>   0.0800 
 29 H        5.6150    -4.3050     1.6230 H     1 <1>   0.0800 
 30 H        6.8540    -2.0550     0.7570 H     1 <1>   0.0800 
 31 H        6.3830    -1.5110    -0.8280 H     1 <1>   0.0800 
 32 H        6.1820    -5.6000    -1.0500 H     1 <1>   0.0800 
 33 H        6.6370    -6.2230     0.5110 H     1 <1>   0.0800 
 34 H        8.5840    -2.7000    -0.8280 H     1 <1>   0.0800 
 35 H        7.4000    -3.4100    -1.8890 H     1 <1>   0.0800 
 36 H        8.1640    -4.3830     0.7860 H     1 <1>   0.4500 
 37 H        8.6250    -5.5720    -1.8600 H     1 <1>   0.0800 
 38 H        8.9500    -6.3720    -0.3390 H     1 <1>   0.0800 
 39 H       10.2150    -4.0280    -2.7640 H     1 <1>   0.1500 
 40 H       10.5300    -5.2010     1.3500 H     1 <1>   0.1500 
 41 H       12.3440    -2.8370    -2.5610 H     1 <1>   0.1500 
 42 H       12.6330    -4.0170     1.5230 H     1 <1>   0.1500 
 43 H       14.9090    -3.6600     0.8530 H     1 <1>   0.0800 
 44 H       14.1090    -2.1990     1.4450 H     1 <1>   0.0800 
 45 H       16.3950    -2.2670    -0.5570 H     1 <1>   0.0800 
 46 H       16.5470    -1.8000     1.1190 H     1 <1>   0.0800 
 47 H       15.6000    -0.8150     0.0310 H     1 <1>   0.0800 
@<TRIPOS>BOND
  1   1   2  1   
  2   2   3  ar  
  3   2   4  ar  
  4   3   5  ar  
  5   3  24  1   
  6   4   6  ar  
  7   4  25  1   
  8   5   7  ar  
  9   5  26  1   
 10   6   7  ar  
 11   6  27  1   
 12   7   8  1   
 13   8   9  1   
 14   8  10  1   
 15   9  11  1   
 16   9  28  1   
 17   9  29  1   
 18  10  12  1   
 19  10  30  1   
 20  10  31  1   
 21  11  13  1   
 22  11  32  1   
 23  11  33  1   
 24  12  13  1   
 25  12  34  1   
 26  12  35  1   
 27  13  14  1   
 28  13  36  1   
 29  14  15  1   
 30  14  37  1   
 31  14  38  1   
 32  15  16  ar  
 33  15  17  ar  
 34  16  18  ar  
 35  16  39  1   
 36  17  19  ar  
 37  17  40  1   
 38  18  20  ar  
 39  18  41  1   
 40  19  20  ar  
 41  19  42  1   
 42  20  21  1   
 43  21  22  1   
 44  22  23  1   
 45  22  43  1   
 46  22  44  1   
 47  23  45  1   
 48  23  46  1   
 49  23  47  1   
@<TRIPOS>SUBSTRUCTURE
  1 ****  12 GROUP 4 **** **** 0

# MOE 2024.06 (io_trps.svl 2023.06)
