@<TRIPOS>MOLECULE
NONAME
33 34 1 0 0 
SMALL
USER_CHARGES


@<TRIPOS>ATOM
  1 O       -2.1310     1.0500    -1.6000 O.3   1 <1>  -0.2800 
  2 C       -1.8440     0.8040    -0.3340 C.2   1 <1>  -0.0400 
  3 C       -1.1950     1.8500    -2.0720 C.2   1 <1>  -0.0100 
  4 C       -0.7130     1.4500     0.0270 C.2   1 <1>  -0.1500 
  5 C       -2.7630    -0.1020     0.4710 C.3   1 <1>   0.2900 
  6 C       -0.2870     2.1370    -1.1160 C.2   1 <1>  -0.1500 
  7 N       -4.1310     0.4580     0.5000 N.3   1 <1>  -0.8100 
  8 C       -5.1630    -0.5360     0.8730 C.3   1 <1>   0.1100 
  9 C       -4.2230     1.7060     1.2780 C.3   1 <1>   0.1100 
 10 C       -6.5800    -0.0760     0.4610 C.3   1 <1>   0.3430 
 11 C       -5.0120     2.7460     0.4760 C.3   1 <1>  -0.1600 
 12 N       -6.4790     1.0390    -0.5280 N.4   1 <1>  -0.9590 
 13 C       -6.4570     2.3610     0.1440 C.3   1 <1>   0.3430 
 14 C       -7.4620     0.9490    -1.6430 C.3   1 <1>   0.2630 
 15 H       -1.2500     2.1660    -3.0990 H     1 <1>   0.1500 
 16 H       -0.2110     1.4590     0.9780 H     1 <1>   0.1500 
 17 H       -2.3860    -0.2200     1.4730 H     1 <1>   0.0800 
 18 H       -2.7730    -1.0670    -0.0050 H     1 <1>   0.0800 
 19 H        0.5900     2.7570    -1.1840 H     1 <1>   0.1500 
 20 H       -5.1300    -0.7420     1.9300 H     1 <1>   0.0800 
 21 H       -4.9610    -1.4600     0.3580 H     1 <1>   0.0800 
 22 H       -3.2390     2.1070     1.4640 H     1 <1>   0.0800 
 23 H       -4.6840     1.5280     2.2360 H     1 <1>   0.0800 
 24 H       -7.1260     0.2480     1.3310 H     1 <1>   0.0800 
 25 H       -7.1050    -0.9140     0.0330 H     1 <1>   0.0800 
 26 H       -4.4790     2.9540    -0.4360 H     1 <1>   0.0800 
 27 H       -5.0310     3.6630     1.0380 H     1 <1>   0.0800 
 28 H       -5.5010     0.9280    -0.8790 H     1 <1>   0.4500 
 29 H       -6.8710     3.1120    -0.5090 H     1 <1>   0.0800 
 30 H       -7.0500     2.3300     1.0430 H     1 <1>   0.0800 
 31 H       -8.4660     1.0550    -1.2670 H     1 <1>   0.0800 
 32 H       -7.3740    -0.0030    -2.1410 H     1 <1>   0.0800 
 33 H       -7.2770     1.7290    -2.3640 H     1 <1>   0.0800 
@<TRIPOS>BOND
  1   1   2  1   
  2   1   3  1   
  3   2   4  2   
  4   2   5  1   
  5   3   6  2   
  6   3  15  1   
  7   4   6  1   
  8   4  16  1   
  9   5   7  1   
 10   5  17  1   
 11   5  18  1   
 12   6  19  1   
 13   7   8  1   
 14   7   9  1   
 15   8  10  1   
 16   8  20  1   
 17   8  21  1   
 18   9  11  1   
 19   9  22  1   
 20   9  23  1   
 21  10  12  1   
 22  10  24  1   
 23  10  25  1   
 24  11  13  1   
 25  11  26  1   
 26  11  27  1   
 27  12  13  1   
 28  12  14  1   
 29  12  28  1   
 30  13  29  1   
 31  13  30  1   
 32  14  31  1   
 33  14  32  1   
 34  14  33  1   
@<TRIPOS>SUBSTRUCTURE
  1 ****   7 GROUP 4 **** **** 0

# MOE 2024.06 (io_trps.svl 2023.06)
