@<TRIPOS>MOLECULE
NONAME
52 55 1 0 0 
SMALL
USER_CHARGES


@<TRIPOS>ATOM
  1 S       -0.3320    -0.9090     0.3800 S.3   1 <1>  -0.0800 
  2 C        1.1140     0.0870     0.2640 C.2   1 <1>   0.1660 
  3 C       -1.3320     0.5220     0.5870 C.2   1 <1>  -0.1400 
  4 N        2.3320    -0.4480     0.0870 N.2   1 <1>  -0.5760 
  5 C        0.8120     1.4100     0.3760 C.2   1 <1>  -0.0860 
  6 C       -0.5960     1.6390     0.5530 C.2   1 <1>  -0.1810 
  7 C       -2.8320     0.4360     0.7680 C.3   1 <1>   0.3000 
  8 C        3.3230     0.4000     0.0230 C.2   1 <1>   0.5600 
  9 C        1.9020     2.3120     0.3030 C.2   1 <1>   0.7160 
 10 C       -1.2920     2.9780     0.7100 C.3   1 <1>   0.0210 
 11 O       -3.3320     1.7040     1.1300 O.3   1 <1>  -0.5600 
 12 N        3.1680     1.7790     0.1250 N.am  1 <1>  -0.2370 
 13 N        4.6140    -0.0630    -0.1570 N.pl3 1 <1>  -0.4080 
 14 O        1.7450     3.5260     0.3900 O.2   1 <1>  -0.5700 
 15 C       -2.8220     2.8420     0.4770 C.3   1 <1>   0.2800 
 16 C        4.2900     2.6310     0.0470 C.ar  1 <1>   0.1170 
 17 N        5.0530    -1.3730    -0.2950 N.2   1 <1>  -0.4920 
 18 C       -3.5590     4.0310     1.0960 C.3   1 <1>  -0.2400 
 19 C       -3.1740     2.7590    -1.0170 C.3   1 <1>  -0.2400 
 20 C        4.7360     3.0990    -1.1820 C.ar  1 <1>  -0.1500 
 21 C        4.9960     2.9730     1.1930 C.ar  1 <1>  -0.1500 
 22 C        6.2720    -1.6730    -0.4560 C.2   1 <1>   0.3280 
 23 C        5.8720     3.8830    -1.2650 C.ar  1 <1>  -0.1500 
 24 C        6.1320     3.7560     1.1110 C.ar  1 <1>  -0.1500 
 25 C        6.6870    -3.1220    -0.6000 C.3   1 <1>  -0.1790 
 26 C        7.4410    -0.6980    -0.5280 C.3   1 <1>  -0.1790 
 27 C        6.5790     4.2120    -0.1200 C.ar  1 <1>  -0.1430 
 28 C        7.8240     5.0760    -0.2100 C.3   1 <1>  -0.0970 
 29 H       -3.0780    -0.2500     1.5590 H     1 <1>   0.0800 
 30 H       -3.3110     0.1190    -0.1410 H     1 <1>   0.0800 
 31 H       -0.8870     3.6900     0.0140 H     1 <1>   0.0800 
 32 H       -1.1020     3.3480     1.7020 H     1 <1>   0.0800 
 33 H        5.3220     0.6740    -0.1910 H     1 <1>   0.4000 
 34 H       -3.3730     4.0720     2.1540 H     1 <1>   0.0800 
 35 H       -4.6170     3.9380     0.9320 H     1 <1>   0.0800 
 36 H       -3.2230     4.9510     0.6530 H     1 <1>   0.0800 
 37 H       -2.9290     3.6850    -1.5030 H     1 <1>   0.0800 
 38 H       -4.2270     2.5790    -1.1420 H     1 <1>   0.0800 
 39 H       -2.6180     1.9800    -1.5060 H     1 <1>   0.0800 
 40 H        4.1910     2.8500    -2.0760 H     1 <1>   0.1500 
 41 H        4.6540     2.6250     2.1530 H     1 <1>   0.1500 
 42 H        6.2030     4.2410    -2.2250 H     1 <1>   0.1500 
 43 H        6.6660     4.0150     2.0090 H     1 <1>   0.1500 
 44 H        7.1630    -3.2770    -1.5500 H     1 <1>   0.0800 
 45 H        5.8210    -3.7580    -0.5420 H     1 <1>   0.0800 
 46 H        7.3650    -3.3910     0.1880 H     1 <1>   0.0800 
 47 H        7.9390    -0.8050    -1.4740 H     1 <1>   0.0800 
 48 H        8.1400    -0.9190     0.2580 H     1 <1>   0.0800 
 49 H        7.1340     0.3240    -0.4240 H     1 <1>   0.0800 
 50 H        7.5520     6.1130    -0.1220 H     1 <1>   0.0800 
 51 H        8.3200     4.9260    -1.1520 H     1 <1>   0.0800 
 52 H        8.5120     4.8310     0.5790 H     1 <1>   0.0800 
@<TRIPOS>BOND
  1   1   2  1   
  2   1   3  1   
  3   2   4  1   
  4   2   5  2   
  5   3   6  2   
  6   3   7  1   
  7   4   8  2   
  8   5   6  1   
  9   5   9  1   
 10   6  10  1   
 11   7  11  1   
 12   7  29  1   
 13   7  30  1   
 14   8  12  1   
 15   8  13  1   
 16   9  12  am  
 17   9  14  2   
 18  10  15  1   
 19  10  31  1   
 20  10  32  1   
 21  11  15  1   
 22  12  16  1   
 23  13  17  1   
 24  13  33  1   
 25  15  18  1   
 26  15  19  1   
 27  16  20  ar  
 28  16  21  ar  
 29  17  22  2   
 30  18  34  1   
 31  18  35  1   
 32  18  36  1   
 33  19  37  1   
 34  19  38  1   
 35  19  39  1   
 36  20  23  ar  
 37  20  40  1   
 38  21  24  ar  
 39  21  41  1   
 40  22  25  1   
 41  22  26  1   
 42  23  27  ar  
 43  23  42  1   
 44  24  27  ar  
 45  24  43  1   
 46  25  44  1   
 47  25  45  1   
 48  25  46  1   
 49  26  47  1   
 50  26  48  1   
 51  26  49  1   
 52  27  28  1   
 53  28  50  1   
 54  28  51  1   
 55  28  52  1   
@<TRIPOS>SUBSTRUCTURE
  1 ****  12 GROUP 4 **** **** 0

# MOE 2024.06 (io_trps.svl 2023.06)
