@<TRIPOS>MOLECULE
NONAME
49 52 1 0 0 
SMALL
USER_CHARGES


@<TRIPOS>ATOM
  1 S        1.7460    -0.4110    -2.4080 S.3   1 <1>  -0.2420 
  2 C        2.4830    -0.4780    -0.8040 C.2   1 <1>   0.6510 
  3 C        0.7970     1.0240    -1.9750 C.2   1 <1>  -0.0490 
  4 N        3.3430    -1.3750    -0.4560 N.2   1 <1>  -0.6210 
  5 N        1.9990     0.5540    -0.0430 N.am  1 <1>  -0.2290 
  6 C        1.0630     1.3760    -0.7100 C.2   1 <1>  -0.0410 
  7 C        3.8250    -1.2830     0.8210 C.2   1 <1>   0.0330 
  8 C        2.4710     0.6690     1.2400 C.2   1 <1>   0.6160 
  9 C        3.4150    -0.2980     1.6640 C.2   1 <1>  -0.1360 
 10 C        4.8390    -2.3440     1.2510 C.3   1 <1>   0.2480 
 11 O        2.0930     1.5750     1.9680 O.2   1 <1>  -0.5700 
 12 N        6.0500    -2.3460     0.3980 N.3   1 <1>  -0.8100 
 13 C        6.9300    -3.4940     0.6700 C.3   1 <1>   0.1100 
 14 C        6.7850    -1.0680     0.4000 C.3   1 <1>   0.1100 
 15 C        8.0810    -3.5540    -0.3560 C.3   1 <1>   0.3430 
 16 C        7.9330    -1.0980    -0.6270 C.3   1 <1>   0.3430 
 17 N        8.8570    -2.2670    -0.4050 N.4   1 <1>  -0.9590 
 18 C        9.9370    -2.3270    -1.4120 C.3   1 <1>   0.4810 
 19 C       10.8890    -1.1970    -1.1080 C.2   1 <1>  -0.2880 
 20 C       12.0790    -1.3410    -0.5000 C.2   1 <1>  -0.1780 
 21 C       13.0350    -0.3050    -0.1750 C.ar  1 <1>   0.0280 
 22 C       13.0030     0.9560    -0.7680 C.ar  1 <1>  -0.1500 
 23 C       14.0350    -0.5510     0.7630 C.ar  1 <1>  -0.1500 
 24 C       13.9240     1.9320    -0.4320 C.ar  1 <1>  -0.1500 
 25 C       14.9590     0.4200     1.1030 C.ar  1 <1>  -0.1500 
 26 C       14.9030     1.6660     0.5060 C.ar  1 <1>  -0.1500 
 27 H        0.1490     1.4320    -2.7320 H     1 <1>   0.1500 
 28 H        0.6400     2.2060    -0.1670 H     1 <1>   0.1500 
 29 H        3.7730    -0.2030     2.6720 H     1 <1>   0.1500 
 30 H        4.3570    -3.3040     1.1770 H     1 <1>   0.0800 
 31 H        5.1190    -2.1910     2.2790 H     1 <1>   0.0800 
 32 H        7.3290    -3.4280     1.6680 H     1 <1>   0.0800 
 33 H        6.3590    -4.4040     0.5980 H     1 <1>   0.0800 
 34 H        6.1170    -0.2670     0.1310 H     1 <1>   0.0800 
 35 H        7.1730    -0.8620     1.3830 H     1 <1>   0.0800 
 36 H        7.6520    -3.7550    -1.3240 H     1 <1>   0.0800 
 37 H        8.7360    -4.3710    -0.1040 H     1 <1>   0.0800 
 38 H        8.4840    -0.1740    -0.5640 H     1 <1>   0.0800 
 39 H        7.4990    -1.1610    -1.6110 H     1 <1>   0.0800 
 40 H        9.3120    -2.1270     0.5050 H     1 <1>   0.4500 
 41 H       10.4630    -3.2640    -1.3250 H     1 <1>   0.0800 
 42 H        9.5430    -2.2430    -2.4120 H     1 <1>   0.0800 
 43 H       10.5200    -0.2410    -1.4320 H     1 <1>   0.1500 
 44 H       12.4080    -2.3200    -0.1920 H     1 <1>   0.1500 
 45 H       12.2600     1.1860    -1.5080 H     1 <1>   0.1500 
 46 H       14.0960    -1.5130     1.2390 H     1 <1>   0.1500 
 47 H       13.8830     2.9000    -0.9020 H     1 <1>   0.1500 
 48 H       15.7220     0.2090     1.8320 H     1 <1>   0.1500 
 49 H       15.6210     2.4240     0.7690 H     1 <1>   0.1500 
@<TRIPOS>BOND
  1   1   2  1   
  2   1   3  1   
  3   2   4  2   
  4   2   5  1   
  5   3   6  2   
  6   3  27  1   
  7   4   7  1   
  8   5   6  1   
  9   5   8  am  
 10   6  28  1   
 11   7   9  2   
 12   7  10  1   
 13   8   9  1   
 14   8  11  2   
 15   9  29  1   
 16  10  12  1   
 17  10  30  1   
 18  10  31  1   
 19  12  13  1   
 20  12  14  1   
 21  13  15  1   
 22  13  32  1   
 23  13  33  1   
 24  14  16  1   
 25  14  34  1   
 26  14  35  1   
 27  15  17  1   
 28  15  36  1   
 29  15  37  1   
 30  16  17  1   
 31  16  38  1   
 32  16  39  1   
 33  17  18  1   
 34  17  40  1   
 35  18  19  1   
 36  18  41  1   
 37  18  42  1   
 38  19  20  2   
 39  19  43  1   
 40  20  21  1   
 41  20  44  1   
 42  21  22  ar  
 43  21  23  ar  
 44  22  24  ar  
 45  22  45  1   
 46  23  25  ar  
 47  23  46  1   
 48  24  26  ar  
 49  24  47  1   
 50  25  26  ar  
 51  25  48  1   
 52  26  49  1   
@<TRIPOS>SUBSTRUCTURE
  1 ****  14 GROUP 4 **** **** 0

# MOE 2024.06 (io_trps.svl 2023.06)
