@<TRIPOS>MOLECULE
NONAME
33 34 1 0 0 
SMALL
USER_CHARGES


@<TRIPOS>ATOM
  1 O       -0.6230     0.3820     1.2460 O.2   1 <1>  -0.5700 
  2 C       -1.7510     0.7160     0.9820 C.2   1 <1>   0.5690 
  3 N       -2.7830    -0.1110     0.6460 N.am  1 <1>  -0.4770 
  4 C       -2.1610     2.1630     1.0010 C.3   1 <1>  -0.0990 
  5 C       -2.7040    -1.5060     0.4530 C.ar  1 <1>   0.1170 
  6 C       -3.9860     0.6890     0.3830 C.3   1 <1>   0.5800 
  7 C       -3.4590     2.1550     0.1780 C.3   1 <1>   0.0000 
  8 C       -3.6460    -2.3750     1.0010 C.ar  1 <1>  -0.1500 
  9 C       -1.6690    -2.0530    -0.2980 C.ar  1 <1>  -0.1500 
 10 O       -4.6990     0.6000     1.5470 O.3   1 <1>  -0.6800 
 11 C       -4.8740     0.1420    -0.7370 C.3   1 <1>  -0.2400 
 12 C       -4.4190     3.2700     0.6480 C.3   1 <1>  -0.2400 
 13 C       -3.0920     2.4480    -1.2970 C.3   1 <1>  -0.2400 
 14 C       -3.5620    -3.7400     0.7930 C.ar  1 <1>  -0.1500 
 15 C       -1.5800    -3.4170    -0.5080 C.ar  1 <1>  -0.1500 
 16 C       -2.5290    -4.2640     0.0360 C.ar  1 <1>  -0.1500 
 17 H       -1.3950     2.7890     0.5820 H     1 <1>   0.0800 
 18 H       -2.3410     2.4490     2.0210 H     1 <1>   0.0800 
 19 H       -4.4520    -1.9870     1.5950 H     1 <1>   0.1500 
 20 H       -0.9230    -1.4020    -0.7190 H     1 <1>   0.1500 
 21 H       -4.0800     0.2790     2.2270 H     1 <1>   0.4000 
 22 H       -4.3030     0.0000    -1.6350 H     1 <1>   0.0800 
 23 H       -5.6670     0.8370    -0.9400 H     1 <1>   0.0800 
 24 H       -5.3120    -0.7970    -0.4570 H     1 <1>   0.0800 
 25 H       -4.6450     3.1740     1.6960 H     1 <1>   0.0800 
 26 H       -5.3440     3.2190     0.1020 H     1 <1>   0.0800 
 27 H       -3.9810     4.2400     0.4900 H     1 <1>   0.0800 
 28 H       -2.4230     1.6990    -1.6850 H     1 <1>   0.0800 
 29 H       -2.6080     3.4050    -1.3840 H     1 <1>   0.0800 
 30 H       -3.9720     2.4710    -1.9140 H     1 <1>   0.0800 
 31 H       -4.3000    -4.3960     1.2220 H     1 <1>   0.1500 
 32 H       -0.7710    -3.8190    -1.0930 H     1 <1>   0.1500 
 33 H       -2.4620    -5.3250    -0.1260 H     1 <1>   0.1500 
@<TRIPOS>BOND
  1   1   2  2   
  2   2   3  am  
  3   2   4  1   
  4   3   5  1   
  5   3   6  1   
  6   4   7  1   
  7   4  17  1   
  8   4  18  1   
  9   5   8  ar  
 10   5   9  ar  
 11   6   7  1   
 12   6  10  1   
 13   6  11  1   
 14   7  12  1   
 15   7  13  1   
 16   8  14  ar  
 17   8  19  1   
 18   9  15  ar  
 19   9  20  1   
 20  10  21  1   
 21  11  22  1   
 22  11  23  1   
 23  11  24  1   
 24  12  25  1   
 25  12  26  1   
 26  12  27  1   
 27  13  28  1   
 28  13  29  1   
 29  13  30  1   
 30  14  16  ar  
 31  14  31  1   
 32  15  16  ar  
 33  15  32  1   
 34  16  33  1   
@<TRIPOS>SUBSTRUCTURE
  1 ****   3 GROUP 4 **** **** 0

# MOE 2024.06 (io_trps.svl 2023.06)
