@<TRIPOS>MOLECULE
NONAME
47 49 1 0 0 
SMALL
USER_CHARGES


@<TRIPOS>ATOM
  1 O       -0.5400     0.3060     0.9610 O.2   1 <1>  -0.5700 
  2 C       -1.6000     0.7880     0.6430 C.2   1 <1>   0.4950 
  3 C       -1.9200     2.1810     0.7390 C.2   1 <1>   0.0290 
  4 C       -2.6400    -0.1790     0.1070 C.3   1 <1>  -0.0990 
  5 C       -3.1890     2.6500     0.4630 C.2   1 <1>  -0.0380 
  6 C       -0.8710     3.0740     1.1430 C.2   1 <1>   0.4950 
  7 C       -4.0680     0.2370     0.4910 C.3   1 <1>   0.0000 
  8 N       -3.5160     3.9780     0.5630 N.pl3 1 <1>  -0.5840 
  9 C       -4.3050     1.6920     0.0410 C.3   1 <1>  -0.0220 
 10 O       -1.0550     3.9650     1.9430 O.2   1 <1>  -0.5700 
 11 C        0.5260     2.9890     0.5280 C.3   1 <1>  -0.0990 
 12 C       -4.2700     0.1120     2.0130 C.3   1 <1>  -0.2400 
 13 C       -5.0760    -0.6910    -0.2050 C.3   1 <1>  -0.2400 
 14 C       -4.5950     4.7610     0.1760 C.2   1 <1>   0.2700 
 15 C        1.0050     4.3350    -0.0440 C.3   1 <1>  -0.1600 
 16 N       -4.7920     5.9280     0.6870 N.2   1 <1>  -0.5650 
 17 N       -5.5070     4.4240    -0.7740 N.pl3 1 <1>   0.0330 
 18 C        2.3880     4.2070    -0.6890 C.3   1 <1>  -0.2400 
 19 C       -5.9020     6.3920     0.0510 C.ar  1 <1>   0.2270 
 20 C       -6.3650     5.4700    -0.8680 C.ar  1 <1>  -0.1520 
 21 C       -6.5700     7.6050     0.2100 C.ar  1 <1>  -0.1500 
 22 C       -7.4920     5.7220    -1.6500 C.ar  1 <1>  -0.1500 
 23 C       -7.6860     7.8660    -0.5570 C.ar  1 <1>  -0.1500 
 24 C       -8.1460     6.9250    -1.4860 C.ar  1 <1>  -0.1500 
 25 H       -2.4320    -1.1630     0.4880 H     1 <1>   0.0800 
 26 H       -2.5380    -0.2150    -0.9620 H     1 <1>   0.0800 
 27 H       -2.8460     4.5530     1.1050 H     1 <1>   0.4000 
 28 H       -4.3880     1.7280    -1.0310 H     1 <1>   0.0800 
 29 H       -5.2390     2.0200     0.4610 H     1 <1>   0.0800 
 30 H        0.5350     2.2630    -0.2640 H     1 <1>   0.0800 
 31 H        1.2070     2.6570     1.2910 H     1 <1>   0.0800 
 32 H       -3.6120     0.7670     2.5580 H     1 <1>   0.0800 
 33 H       -4.0820    -0.8960     2.3390 H     1 <1>   0.0800 
 34 H       -5.2800     0.3660     2.2830 H     1 <1>   0.0800 
 35 H       -4.9680    -0.6460    -1.2750 H     1 <1>   0.0800 
 36 H       -6.0850    -0.4120     0.0450 H     1 <1>   0.0800 
 37 H       -4.9250    -1.7110     0.1040 H     1 <1>   0.0800 
 38 H        1.0500     5.0650     0.7480 H     1 <1>   0.0800 
 39 H        0.2990     4.6870    -0.7770 H     1 <1>   0.0800 
 40 H       -5.5020     3.5720    -1.3320 H     1 <1>   0.2700 
 41 H        3.1110     3.8760     0.0360 H     1 <1>   0.0800 
 42 H        2.7040     5.1600    -1.0740 H     1 <1>   0.0800 
 43 H        2.3640     3.5010    -1.5010 H     1 <1>   0.0800 
 44 H       -6.1950     8.3080     0.9290 H     1 <1>   0.1500 
 45 H       -7.8400     4.9940    -2.3620 H     1 <1>   0.1500 
 46 H       -8.2120     8.7980    -0.4460 H     1 <1>   0.1500 
 47 H       -9.0190     7.1520    -2.0730 H     1 <1>   0.1500 
@<TRIPOS>BOND
  1   1   2  2   
  2   2   3  1   
  3   2   4  1   
  4   3   5  2   
  5   3   6  1   
  6   4   7  1   
  7   4  25  1   
  8   4  26  1   
  9   5   8  1   
 10   5   9  1   
 11   6  10  2   
 12   6  11  1   
 13   7   9  1   
 14   7  12  1   
 15   7  13  1   
 16   8  14  1   
 17   8  27  1   
 18   9  28  1   
 19   9  29  1   
 20  11  15  1   
 21  11  30  1   
 22  11  31  1   
 23  12  32  1   
 24  12  33  1   
 25  12  34  1   
 26  13  35  1   
 27  13  36  1   
 28  13  37  1   
 29  14  16  2   
 30  14  17  1   
 31  15  18  1   
 32  15  38  1   
 33  15  39  1   
 34  16  19  1   
 35  17  20  1   
 36  17  40  1   
 37  18  41  1   
 38  18  42  1   
 39  18  43  1   
 40  19  20  ar  
 41  19  21  ar  
 42  20  22  ar  
 43  21  23  ar  
 44  21  44  1   
 45  22  24  ar  
 46  22  45  1   
 47  23  24  ar  
 48  23  46  1   
 49  24  47  1   
@<TRIPOS>SUBSTRUCTURE
  1 ****   8 GROUP 4 **** **** 0

# MOE 2024.06 (io_trps.svl 2023.06)
