@<TRIPOS>MOLECULE
NONAME
43 45 1 0 0 
SMALL
USER_CHARGES


@<TRIPOS>ATOM
  1 S        0.0300    -0.4050    -0.5940 S.3   1 <1>  -0.0800 
  2 C       -0.1830     1.2990    -0.2080 C.2   1 <1>   0.1040 
  3 C        1.7670    -0.2190    -0.6500 C.2   1 <1>  -0.1400 
  4 N       -1.4520     1.8260    -0.0170 N.am  1 <1>  -0.4940 
  5 C        1.0260     1.9480    -0.1480 C.2   1 <1>  -0.0860 
  6 C        2.1300     1.0390    -0.3820 C.2   1 <1>  -0.1810 
  7 C        2.6680    -1.3940    -0.9610 C.3   1 <1>   0.3000 
  8 C       -2.7290     1.3050    -0.0530 C.2   1 <1>   0.5440 
  9 C        1.1380     3.3630     0.1000 C.2   1 <1>   0.8060 
 10 C        3.6220     1.3470    -0.3700 C.3   1 <1>   0.0210 
 11 O        3.9830    -0.9300    -1.1600 O.3   1 <1>  -0.5600 
 12 O       -2.9060     0.1120    -0.1830 O.2   1 <1>  -0.5700 
 13 C       -3.8630     2.2040     0.0920 C.ar  1 <1>   0.0860 
 14 O        0.1710     4.0740     0.3210 O.2   1 <1>  -0.5700 
 15 O        2.3470     3.9410     0.0770 O.3   1 <1>  -0.4300 
 16 C        4.4810     0.0540    -0.2900 C.3   1 <1>   0.2800 
 17 C       -5.0940     1.7310     0.5520 C.ar  1 <1>  -0.1500 
 18 C       -3.7820     3.5660    -0.2170 C.ar  1 <1>  -0.1500 
 19 C        2.5210     5.3280     0.2990 C.3   1 <1>   0.0400 
 20 C        4.5350    -0.5190     1.1360 C.3   1 <1>  -0.2400 
 21 C        5.9060     0.3350    -0.7660 C.3   1 <1>  -0.2400 
 22 C       -6.1840     2.5680     0.7090 C.ar  1 <1>  -0.1500 
 23 C       -4.8680     4.4090    -0.0600 C.ar  1 <1>  -0.1500 
 24 C       -6.0720     3.9110     0.4040 C.ar  1 <1>  -0.1500 
 25 H       -1.4300     2.8230     0.2160 H     1 <1>   0.3700 
 26 H        2.3540    -1.8820    -1.8670 H     1 <1>   0.0800 
 27 H        2.6670    -2.1050    -0.1550 H     1 <1>   0.0800 
 28 H        3.8680     1.9670     0.4720 H     1 <1>   0.0800 
 29 H        3.8660     1.8920    -1.2630 H     1 <1>   0.0800 
 30 H       -5.1930     0.6850     0.7900 H     1 <1>   0.1500 
 31 H       -2.8640     3.9820    -0.5920 H     1 <1>   0.1500 
 32 H        3.5700     5.5540     0.2320 H     1 <1>   0.0800 
 33 H        2.1510     5.5740     1.2790 H     1 <1>   0.0800 
 34 H        1.9770     5.8730    -0.4530 H     1 <1>   0.0800 
 35 H        3.5480    -0.6570     1.5390 H     1 <1>   0.0800 
 36 H        5.0570     0.1590     1.7850 H     1 <1>   0.0800 
 37 H        5.0570    -1.4590     1.1390 H     1 <1>   0.0800 
 38 H        5.8960     0.6800    -1.7850 H     1 <1>   0.0800 
 39 H        6.5000    -0.5600    -0.7100 H     1 <1>   0.0800 
 40 H        6.3660     1.0890    -0.1540 H     1 <1>   0.0800 
 41 H       -7.1190     2.1730     1.0670 H     1 <1>   0.1500 
 42 H       -4.7790     5.4540    -0.3030 H     1 <1>   0.1500 
 43 H       -6.9180     4.5660     0.5260 H     1 <1>   0.1500 
@<TRIPOS>BOND
  1   1   2  1   
  2   1   3  1   
  3   2   4  1   
  4   2   5  2   
  5   3   6  2   
  6   3   7  1   
  7   4   8  am  
  8   4  25  1   
  9   5   6  1   
 10   5   9  1   
 11   6  10  1   
 12   7  11  1   
 13   7  26  1   
 14   7  27  1   
 15   8  12  2   
 16   8  13  1   
 17   9  14  2   
 18   9  15  1   
 19  10  16  1   
 20  10  28  1   
 21  10  29  1   
 22  11  16  1   
 23  13  17  ar  
 24  13  18  ar  
 25  15  19  1   
 26  16  20  1   
 27  16  21  1   
 28  17  22  ar  
 29  17  30  1   
 30  18  23  ar  
 31  18  31  1   
 32  19  32  1   
 33  19  33  1   
 34  19  34  1   
 35  20  35  1   
 36  20  36  1   
 37  20  37  1   
 38  21  38  1   
 39  21  39  1   
 40  21  40  1   
 41  22  24  ar  
 42  22  41  1   
 43  23  24  ar  
 44  23  42  1   
 45  24  43  1   
@<TRIPOS>SUBSTRUCTURE
  1 ****   2 GROUP 4 **** **** 0

# MOE 2024.06 (io_trps.svl 2023.06)
