@<TRIPOS>MOLECULE
NONAME
38 39 1 0 0 
SMALL
USER_CHARGES


@<TRIPOS>ATOM
  1 CL       1.9010     1.3840     2.6420 Cl    1 <1>  -0.1770 
  2 C        1.0020     2.3290     1.4830 C.ar  1 <1>   0.1770 
  3 C       -0.2550     2.7960     1.8210 C.ar  1 <1>  -0.1500 
  4 C        1.5590     2.5920     0.2470 C.ar  1 <1>  -0.1500 
  5 C       -0.9960     3.5500     0.9160 C.ar  1 <1>  -0.0090 
  6 C        0.8380     3.3410    -0.6630 C.ar  1 <1>  -0.1500 
  7 S       -2.6380     4.1720     1.3600 S.o2  1 <1>   1.4470 
  8 C       -0.4230     3.8170    -0.3270 C.ar  1 <1>   0.0830 
  9 O       -2.6460     5.6180     1.2940 O.2   1 <1>  -0.6500 
 10 O       -3.0640     3.5460     2.5950 O.2   1 <1>  -0.6500 
 11 N       -3.6910     3.5870     0.1650 N.am  1 <1>  -0.8490 
 12 O       -1.1000     4.5290    -1.2470 O.3   1 <1>  -0.3630 
 13 C       -4.9760     4.2990     0.1930 C.3   1 <1>   0.1960 
 14 C       -3.8660     2.1350     0.2410 C.3   1 <1>   0.1960 
 15 C       -0.7450     5.8850    -1.3920 C.3   1 <1>   0.0400 
 16 C       -5.8800     3.8620    -0.9680 C.3   1 <1>  -0.0190 
 17 C       -4.6940     1.6420    -0.9500 C.3   1 <1>  -0.1600 
 18 C       -7.2050     4.6080    -0.8970 C.2   1 <1>   0.5690 
 19 C       -6.0620     2.3320    -0.9970 C.3   1 <1>  -0.1600 
 20 O       -7.4760     5.4240    -1.7370 O.2   1 <1>  -0.5700 
 21 N       -8.0760     4.3670     0.1020 N.am  1 <1>  -0.8000 
 22 H       -0.6530     2.5700     2.7950 H     1 <1>   0.1500 
 23 H        2.5370     2.2140     0.0070 H     1 <1>   0.1500 
 24 H        1.2440     3.5550    -1.6370 H     1 <1>   0.1500 
 25 H       -4.8030     5.3590     0.1040 H     1 <1>   0.0800 
 26 H       -5.4660     4.1180     1.1360 H     1 <1>   0.0800 
 27 H       -4.3570     1.8690     1.1640 H     1 <1>   0.0800 
 28 H       -2.9030     1.6520     0.2190 H     1 <1>   0.0800 
 29 H       -1.4120     6.3320    -2.1070 H     1 <1>   0.0800 
 30 H        0.2700     5.9480    -1.7420 H     1 <1>   0.0800 
 31 H       -0.8460     6.3790    -0.4410 H     1 <1>   0.0800 
 32 H       -5.3940     4.1610    -1.8800 H     1 <1>   0.0800 
 33 H       -4.8260     0.5770    -0.8760 H     1 <1>   0.0800 
 34 H       -4.1500     1.8440    -1.8570 H     1 <1>   0.0800 
 35 H       -6.5870     2.0450    -1.8920 H     1 <1>   0.0800 
 36 H       -6.6450     2.0130    -0.1500 H     1 <1>   0.0800 
 37 H       -8.9580     4.8830     0.1200 H     1 <1>   0.3700 
 38 H       -7.9360     3.6800     0.8400 H     1 <1>   0.3700 
@<TRIPOS>BOND
  1   1   2  1   
  2   2   3  ar  
  3   2   4  ar  
  4   3   5  ar  
  5   3  22  1   
  6   4   6  ar  
  7   4  23  1   
  8   5   7  1   
  9   5   8  ar  
 10   6   8  ar  
 11   6  24  1   
 12   7   9  2   
 13   7  10  2   
 14   7  11  am  
 15   8  12  1   
 16  11  13  1   
 17  11  14  1   
 18  12  15  1   
 19  13  16  1   
 20  13  25  1   
 21  13  26  1   
 22  14  17  1   
 23  14  27  1   
 24  14  28  1   
 25  15  29  1   
 26  15  30  1   
 27  15  31  1   
 28  16  18  1   
 29  16  19  1   
 30  16  32  1   
 31  17  19  1   
 32  17  33  1   
 33  17  34  1   
 34  18  20  2   
 35  18  21  am  
 36  19  35  1   
 37  19  36  1   
 38  21  37  1   
 39  21  38  1   
@<TRIPOS>SUBSTRUCTURE
  1 ****  11 GROUP 4 **** **** 0

# MOE 2024.06 (io_trps.svl 2023.06)
