@<TRIPOS>MOLECULE
NONAME
44 46 1 0 0 
SMALL
USER_CHARGES


@<TRIPOS>ATOM
  1 S       -0.1690     0.2060     0.1310 S.3   1 <1>  -0.3320 
  2 C        1.6230     0.0250     0.1110 C.ar  1 <1>   0.1020 
  3 C       -0.8720    -1.4940    -0.0260 C.3   1 <1>   0.2140 
  4 C        2.2430    -1.2090    -0.0130 C.ar  1 <1>  -0.1500 
  5 C        2.3720     1.1820     0.2250 C.ar  1 <1>  -0.1500 
  6 C       -2.3880    -1.3870    -0.0190 C.ar  1 <1>  -0.1440 
  7 C        3.6270    -1.2750    -0.0210 C.ar  1 <1>  -0.1500 
  8 C        3.7540     1.1070     0.2160 C.ar  1 <1>  -0.1500 
  9 C       -3.1150    -1.7350     1.1090 C.ar  1 <1>  -0.1500 
 10 C       -3.0630    -0.9460    -1.1460 C.ar  1 <1>  -0.1500 
 11 C        4.3870    -0.1200     0.0940 C.ar  1 <1>  -0.1430 
 12 C       -4.4950    -1.6420     1.1050 C.ar  1 <1>  -0.1500 
 13 C       -4.4430    -0.8550    -1.1430 C.ar  1 <1>  -0.1500 
 14 C        5.9030    -0.1990     0.0830 C.3   1 <1>  -0.0970 
 15 C       -5.1900    -1.1920    -0.0150 C.ar  1 <1>   0.0860 
 16 C       -6.6370    -1.0830     0.0000 C.2   1 <1>   0.5440 
 17 O       -7.3020    -2.0330     0.3690 O.2   1 <1>  -0.5700 
 18 N       -7.2840     0.0750    -0.3800 N.am  1 <1>  -0.6600 
 19 C       -8.7660     0.1360    -0.5640 C.3   1 <1>   0.1400 
 20 C       -6.6350     1.4210    -0.4100 C.3   1 <1>   0.1400 
 21 C       -9.3840     1.1890     0.3680 C.3   1 <1>   0.1200 
 22 C       -7.3830     2.4040     0.5070 C.3   1 <1>   0.1200 
 23 O       -8.7500     2.4270     0.2040 O.3   1 <1>  -0.5600 
 24 H       -0.5100    -2.0690     0.8070 H     1 <1>   0.0800 
 25 H       -0.5150    -1.9070    -0.9520 H     1 <1>   0.0800 
 26 H        1.6810    -2.1160    -0.1040 H     1 <1>   0.1500 
 27 H        1.8760     2.1300     0.3200 H     1 <1>   0.1500 
 28 H        4.1120    -2.2300    -0.1190 H     1 <1>   0.1500 
 29 H        4.3330     2.0100     0.3040 H     1 <1>   0.1500 
 30 H       -2.6100    -2.0800     1.9950 H     1 <1>   0.1500 
 31 H       -2.5110    -0.6710    -2.0290 H     1 <1>   0.1500 
 32 H       -5.0540    -1.9210     1.9820 H     1 <1>   0.1500 
 33 H       -4.9560    -0.5200    -2.0270 H     1 <1>   0.1500 
 34 H        6.2350    -1.1370     0.4910 H     1 <1>   0.0800 
 35 H        6.3240     0.5950     0.6740 H     1 <1>   0.0800 
 36 H        6.2640    -0.1110    -0.9260 H     1 <1>   0.0800 
 37 H       -9.2160    -0.8220    -0.3670 H     1 <1>   0.0800 
 38 H       -8.9830     0.3960    -1.5840 H     1 <1>   0.0800 
 39 H       -6.6470     1.7980    -1.4170 H     1 <1>   0.0800 
 40 H       -5.6110     1.3600    -0.0870 H     1 <1>   0.0800 
 41 H       -9.2900     0.8830     1.3960 H     1 <1>   0.0800 
 42 H      -10.4270     1.3200     0.1400 H     1 <1>   0.0800 
 43 H       -7.0010     3.4010     0.3730 H     1 <1>   0.0800 
 44 H       -7.2640     2.1240     1.5390 H     1 <1>   0.0800 
@<TRIPOS>BOND
  1   1   2  1   
  2   1   3  1   
  3   2   4  ar  
  4   2   5  ar  
  5   3   6  1   
  6   3  24  1   
  7   3  25  1   
  8   4   7  ar  
  9   4  26  1   
 10   5   8  ar  
 11   5  27  1   
 12   6   9  ar  
 13   6  10  ar  
 14   7  11  ar  
 15   7  28  1   
 16   8  11  ar  
 17   8  29  1   
 18   9  12  ar  
 19   9  30  1   
 20  10  13  ar  
 21  10  31  1   
 22  11  14  1   
 23  12  15  ar  
 24  12  32  1   
 25  13  15  ar  
 26  13  33  1   
 27  14  34  1   
 28  14  35  1   
 29  14  36  1   
 30  15  16  1   
 31  16  17  2   
 32  16  18  am  
 33  18  19  1   
 34  18  20  1   
 35  19  21  1   
 36  19  37  1   
 37  19  38  1   
 38  20  22  1   
 39  20  39  1   
 40  20  40  1   
 41  21  23  1   
 42  21  41  1   
 43  21  42  1   
 44  22  23  1   
 45  22  43  1   
 46  22  44  1   
@<TRIPOS>SUBSTRUCTURE
  1 ****   6 GROUP 4 **** **** 0

# MOE 2024.06 (io_trps.svl 2023.06)
