@<TRIPOS>MOLECULE
NONAME
37 37 1 0 0 
SMALL
USER_CHARGES


@<TRIPOS>ATOM
  1 O        0.8500     3.3810     2.0120 O.2   1 <1>  -0.5700 
  2 C        1.1060     2.5680     1.1420 C.2   1 <1>   0.5440 
  3 N        0.0480     2.0290     0.4740 N.am  1 <1>  -0.7300 
  4 C        2.4870     2.2090     0.8390 C.ar  1 <1>   0.0860 
  5 C       -1.3680     2.2970     0.7350 C.3   1 <1>   0.2780 
  6 C        2.8730     1.1300     0.0170 C.ar  1 <1>   0.0830 
  7 C        3.5170     2.9780     1.3930 C.ar  1 <1>  -0.1500 
  8 C       -2.1310     1.9480    -0.5260 C.2   1 <1>  -0.2880 
  9 O        1.9110     0.3470    -0.5390 O.3   1 <1>  -0.3620 
 10 C        4.2210     0.8690    -0.2180 C.ar  1 <1>  -0.1500 
 11 C        4.8520     2.7160     1.1580 C.ar  1 <1>  -0.1500 
 12 C       -3.0440     0.9780    -0.6380 C.2   1 <1>  -0.3000 
 13 C        2.1860    -0.7490    -1.3810 C.3   1 <1>   0.1200 
 14 C        5.2120     1.6500     0.3430 C.ar  1 <1>   0.0830 
 15 C        0.8510    -1.3520    -1.8090 C.3   1 <1>  -0.2400 
 16 O        6.4910     1.3180     0.0560 O.3   1 <1>  -0.3630 
 17 C        7.5810     2.0420     0.5780 C.3   1 <1>   0.1200 
 18 C        8.8650     1.4020     0.0590 C.3   1 <1>  -0.2400 
 19 H        0.2410     1.2630    -0.1790 H     1 <1>   0.3700 
 20 H       -1.5080     3.3350     0.9870 H     1 <1>   0.0800 
 21 H       -1.6990     1.6900     1.5600 H     1 <1>   0.0800 
 22 H        3.2610     3.8100     2.0270 H     1 <1>   0.1500 
 23 H       -1.8510     2.5830    -1.3500 H     1 <1>   0.1500 
 24 H        4.5400     0.0550    -0.8390 H     1 <1>   0.1500 
 25 H        5.5920     3.3460     1.6140 H     1 <1>   0.1500 
 26 H       -3.5710     0.7530    -1.5500 H     1 <1>   0.1500 
 27 H       -3.3410     0.3280     0.1670 H     1 <1>   0.1500 
 28 H        2.7700    -1.4670    -0.8290 H     1 <1>   0.0800 
 29 H        2.7360    -0.3950    -2.2360 H     1 <1>   0.0800 
 30 H        0.3030    -1.6870    -0.9460 H     1 <1>   0.0800 
 31 H        1.0230    -2.1940    -2.4540 H     1 <1>   0.0800 
 32 H        0.2690    -0.6230    -2.3440 H     1 <1>   0.0800 
 33 H        7.5390     1.9950     1.6520 H     1 <1>   0.0800 
 34 H        7.5030     3.0630     0.2440 H     1 <1>   0.0800 
 35 H        8.9250     0.3780     0.3840 H     1 <1>   0.0800 
 36 H        9.7180     1.9340     0.4410 H     1 <1>   0.0800 
 37 H        8.8890     1.4400    -1.0150 H     1 <1>   0.0800 
@<TRIPOS>BOND
  1   1   2  2   
  2   2   3  am  
  3   2   4  1   
  4   3   5  1   
  5   3  19  1   
  6   4   6  ar  
  7   4   7  ar  
  8   5   8  1   
  9   5  20  1   
 10   5  21  1   
 11   6   9  1   
 12   6  10  ar  
 13   7  11  ar  
 14   7  22  1   
 15   8  12  2   
 16   8  23  1   
 17   9  13  1   
 18  10  14  ar  
 19  10  24  1   
 20  11  14  ar  
 21  11  25  1   
 22  12  26  1   
 23  12  27  1   
 24  13  15  1   
 25  13  28  1   
 26  13  29  1   
 27  14  16  1   
 28  15  30  1   
 29  15  31  1   
 30  15  32  1   
 31  16  17  1   
 32  17  18  1   
 33  17  33  1   
 34  17  34  1   
 35  18  35  1   
 36  18  36  1   
 37  18  37  1   
@<TRIPOS>SUBSTRUCTURE
  1 ****   6 GROUP 4 **** **** 0

# MOE 2024.06 (io_trps.svl 2023.06)
