@<TRIPOS>MOLECULE
NONAME
35 35 1 0 0 
SMALL
USER_CHARGES


@<TRIPOS>ATOM
  1 O       -0.6990    -1.2090     1.1950 O.3   1 <1>  -0.5320 
  2 C       -1.9060    -1.4240     0.6540 C.ar  1 <1>   0.0830 
  3 C       -2.1150    -1.0930    -0.6720 C.ar  1 <1>  -0.1500 
  4 C       -2.9280    -1.9720     1.4110 C.ar  1 <1>  -0.1500 
  5 C       -3.3540    -1.3050    -1.2470 C.ar  1 <1>  -0.1500 
  6 C       -4.1680    -2.1830     0.8350 C.ar  1 <1>  -0.1500 
  7 C       -4.3900    -1.8450    -0.4950 C.ar  1 <1>  -0.1430 
  8 C       -5.7530    -2.0570    -1.1240 C.3   1 <1>   0.4860 
  9 N       -6.6960    -1.0580    -0.5570 N.4   1 <1>  -0.9590 
 10 C       -8.1030    -1.4090    -0.8360 C.3   1 <1>   0.4810 
 11 C       -6.3390     0.3280    -0.9570 C.3   1 <1>   0.3430 
 12 C       -8.6320    -2.0850     0.4150 C.2   1 <1>  -0.2760 
 13 C       -7.0050     1.3230    -0.0120 C.3   1 <1>  -0.2400 
 14 C       -9.3570    -1.4340     1.3300 C.2   1 <1>  -0.3000 
 15 C       -8.3090    -3.5690     0.5610 C.3   1 <1>  -0.1020 
 16 H       -0.6290    -1.4910     2.1250 H     1 <1>   0.4500 
 17 H       -1.3030    -0.6750    -1.2420 H     1 <1>   0.1500 
 18 H       -2.7590    -2.2340     2.4410 H     1 <1>   0.1500 
 19 H       -3.4930    -1.0450    -2.2830 H     1 <1>   0.1500 
 20 H       -4.9500    -2.6150     1.4360 H     1 <1>   0.1500 
 21 H       -6.0880    -3.0570    -0.9060 H     1 <1>   0.0800 
 22 H       -5.6880    -1.9460    -2.1940 H     1 <1>   0.0800 
 23 H       -6.6040    -1.1100     0.4650 H     1 <1>   0.4500 
 24 H       -8.1940    -2.0510    -1.6970 H     1 <1>   0.0800 
 25 H       -8.6760    -0.5140    -1.0150 H     1 <1>   0.0800 
 26 H       -6.6410     0.5180    -1.9750 H     1 <1>   0.0800 
 27 H       -5.2700     0.4630    -0.8920 H     1 <1>   0.0800 
 28 H       -8.0750     1.2990    -0.0970 H     1 <1>   0.0800 
 29 H       -6.6800     2.3170    -0.2650 H     1 <1>   0.0800 
 30 H       -6.7160     1.1310     1.0060 H     1 <1>   0.0800 
 31 H       -9.6280    -0.3920     1.2790 H     1 <1>   0.1500 
 32 H       -9.7550    -1.8900     2.2230 H     1 <1>   0.1500 
 33 H       -7.2580    -3.7290     0.7090 H     1 <1>   0.0800 
 34 H       -8.6320    -4.1130    -0.3100 H     1 <1>   0.0800 
 35 H       -8.8240    -3.9810     1.4130 H     1 <1>   0.0800 
@<TRIPOS>BOND
  1   1   2  1   
  2   1  16  1   
  3   2   3  ar  
  4   2   4  ar  
  5   3   5  ar  
  6   3  17  1   
  7   4   6  ar  
  8   4  18  1   
  9   5   7  ar  
 10   5  19  1   
 11   6   7  ar  
 12   6  20  1   
 13   7   8  1   
 14   8   9  1   
 15   8  21  1   
 16   8  22  1   
 17   9  10  1   
 18   9  11  1   
 19   9  23  1   
 20  10  12  1   
 21  10  24  1   
 22  10  25  1   
 23  11  13  1   
 24  11  26  1   
 25  11  27  1   
 26  12  14  2   
 27  12  15  1   
 28  13  28  1   
 29  13  29  1   
 30  13  30  1   
 31  14  31  1   
 32  14  32  1   
 33  15  33  1   
 34  15  34  1   
 35  15  35  1   
@<TRIPOS>SUBSTRUCTURE
  1 ****   7 GROUP 4 **** **** 0

# MOE 2024.06 (io_trps.svl 2023.06)
