@<TRIPOS>MOLECULE
NONAME
39 40 1 0 0 
SMALL
USER_CHARGES


@<TRIPOS>ATOM
  1 BR       0.6690     2.5970     1.9730 Br    1 <1>  -0.1110 
  2 C        2.1480     2.1650     0.8190 C.ar  1 <1>   0.1110 
  3 C        2.5310     0.8410     0.6960 C.ar  1 <1>  -0.1500 
  4 C        2.7850     3.1900     0.1430 C.ar  1 <1>  -0.1500 
  5 C        3.5950     0.5310    -0.1350 C.ar  1 <1>  -0.1500 
  6 C        3.8500     2.8730    -0.6840 C.ar  1 <1>  -0.1500 
  7 C        4.2500     1.5520    -0.8130 C.ar  1 <1>   0.1020 
  8 S        5.6480     1.2380    -1.9040 S.3   1 <1>  -0.3320 
  9 C        6.2850    -0.4690    -1.5190 C.3   1 <1>   0.1310 
 10 C        6.6810    -0.6290    -0.0550 C.2   1 <1>   0.5690 
 11 O        6.1180    -1.4740     0.5960 O.2   1 <1>  -0.5700 
 12 N        7.6520     0.1130     0.5290 N.am  1 <1>  -0.7300 
 13 C        8.4960     1.1770    -0.0490 C.3   1 <1>   0.2200 
 14 C        9.9890     0.8410     0.1490 C.3   1 <1>  -0.0800 
 15 C        8.1230     2.5000     0.6280 C.3   1 <1>  -0.1600 
 16 C       10.8690     2.0000    -0.3520 C.3   1 <1>  -0.1600 
 17 C       10.3900    -0.4580    -0.5710 C.3   1 <1>  -0.2400 
 18 C        9.0050     3.6500     0.1240 C.3   1 <1>  -0.1600 
 19 C       10.4920     3.3280     0.3190 C.3   1 <1>  -0.1600 
 20 H        2.0090     0.0720     1.2370 H     1 <1>   0.1500 
 21 H        2.4550     4.2060     0.2630 H     1 <1>   0.1500 
 22 H        3.8910    -0.4950    -0.2420 H     1 <1>   0.1500 
 23 H        4.3700     3.6430    -1.2260 H     1 <1>   0.1500 
 24 H        7.1370    -0.6360    -2.1510 H     1 <1>   0.0800 
 25 H        5.5070    -1.1630    -1.7780 H     1 <1>   0.0800 
 26 H        7.8180    -0.0810     1.5170 H     1 <1>   0.3700 
 27 H        8.3070     1.2650    -1.1040 H     1 <1>   0.0800 
 28 H       10.1730     0.7190     1.2030 H     1 <1>   0.0800 
 29 H        8.2440     2.4060     1.6930 H     1 <1>   0.0800 
 30 H        7.0920     2.7290     0.4220 H     1 <1>   0.0800 
 31 H       10.7590     2.1020    -1.4190 H     1 <1>   0.0800 
 32 H       11.9040     1.7840    -0.1480 H     1 <1>   0.0800 
 33 H       10.1980    -0.3820    -1.6270 H     1 <1>   0.0800 
 34 H        9.8370    -1.2950    -0.1810 H     1 <1>   0.0800 
 35 H       11.4370    -0.6570    -0.4250 H     1 <1>   0.0800 
 36 H        8.7580     4.5540     0.6550 H     1 <1>   0.0800 
 37 H        8.8090     3.8180    -0.9210 H     1 <1>   0.0800 
 38 H       11.0890     4.1230    -0.0950 H     1 <1>   0.0800 
 39 H       10.7090     3.2700     1.3720 H     1 <1>   0.0800 
@<TRIPOS>BOND
  1   1   2  1   
  2   2   3  ar  
  3   2   4  ar  
  4   3   5  ar  
  5   3  20  1   
  6   4   6  ar  
  7   4  21  1   
  8   5   7  ar  
  9   5  22  1   
 10   6   7  ar  
 11   6  23  1   
 12   7   8  1   
 13   8   9  1   
 14   9  10  1   
 15   9  24  1   
 16   9  25  1   
 17  10  11  2   
 18  10  12  am  
 19  12  13  1   
 20  12  26  1   
 21  13  14  1   
 22  13  15  1   
 23  13  27  1   
 24  14  16  1   
 25  14  17  1   
 26  14  28  1   
 27  15  18  1   
 28  15  29  1   
 29  15  30  1   
 30  16  19  1   
 31  16  31  1   
 32  16  32  1   
 33  17  33  1   
 34  17  34  1   
 35  17  35  1   
 36  18  19  1   
 37  18  36  1   
 38  18  37  1   
 39  19  38  1   
 40  19  39  1   
@<TRIPOS>SUBSTRUCTURE
  1 ****  12 GROUP 4 **** **** 0

# MOE 2024.06 (io_trps.svl 2023.06)
