@<TRIPOS>MOLECULE
NONAME
48 49 1 0 0 
SMALL
USER_CHARGES


@<TRIPOS>ATOM
  1 S        0.3990     0.0100     1.8950 S.o2  1 <1>   1.4470 
  2 O        0.7080    -0.2760     3.2760 O.2   1 <1>  -0.6500 
  3 O        0.8680     1.2580     1.3370 O.2   1 <1>  -0.6500 
  4 N       -1.2790     0.1140     1.9320 N.am  1 <1>  -0.9140 
  5 C        0.7070    -1.4840     0.9100 C.ar  1 <1>  -0.0090 
  6 C       -1.8960     0.9920     0.9250 C.3   1 <1>   0.1960 
  7 C        1.2540    -1.4590    -0.3700 C.ar  1 <1>   0.0830 
  8 C        0.3510    -2.7160     1.4430 C.ar  1 <1>  -0.1500 
  9 C       -1.7960     0.4530    -0.5130 C.3   1 <1>   0.2000 
 10 O        1.5840    -0.2560    -0.8990 O.3   1 <1>  -0.3630 
 11 C        1.4430    -2.6420    -1.0810 C.ar  1 <1>  -0.1500 
 12 C        0.5280    -3.9010     0.7370 C.ar  1 <1>   0.0830 
 13 O       -2.5380     1.2670    -1.3610 O.3   1 <1>  -0.5600 
 14 C       -2.3930    -0.9330    -0.7290 C.3   1 <1>  -0.1600 
 15 C        1.7620    -0.0680    -2.2830 C.3   1 <1>   0.1200 
 16 C        1.0810    -3.8600    -0.5370 C.ar  1 <1>  -0.1430 
 17 O        0.1830    -5.1180     1.2360 O.3   1 <1>  -0.3630 
 18 C       -2.8430     0.5850    -2.5350 C.3   1 <1>   0.1200 
 19 C       -2.7930    -0.9030    -2.1940 C.3   1 <1>  -0.1600 
 20 C        1.7880     1.4340    -2.5470 C.3   1 <1>  -0.2400 
 21 C        1.2910    -5.1430    -1.3300 C.3   1 <1>  -0.0970 
 22 C       -0.3130    -5.2670     2.5460 C.3   1 <1>   0.1200 
 23 C       -0.5510    -6.7540     2.7930 C.3   1 <1>  -0.2400 
 24 H       -1.4470     0.5250     2.8480 H     1 <1>   0.4200 
 25 H       -1.4500     1.9730     0.9640 H     1 <1>   0.0800 
 26 H       -2.9400     1.0950     1.1650 H     1 <1>   0.0800 
 27 H       -0.0760    -2.7240     2.4290 H     1 <1>   0.1500 
 28 H       -0.7800     0.4930    -0.8580 H     1 <1>   0.0800 
 29 H        1.8790    -2.6260    -2.0610 H     1 <1>   0.1500 
 30 H       -3.2630    -1.0520    -0.1070 H     1 <1>   0.0800 
 31 H       -1.6940    -1.7190    -0.5100 H     1 <1>   0.0800 
 32 H        0.9390    -0.5280    -2.8030 H     1 <1>   0.0800 
 33 H        2.6930    -0.5250    -2.5730 H     1 <1>   0.0800 
 34 H       -2.1060     0.8430    -3.2760 H     1 <1>   0.0800 
 35 H       -3.8210     0.8930    -2.8620 H     1 <1>   0.0800 
 36 H       -3.7460    -1.3750    -2.3560 H     1 <1>   0.0800 
 37 H       -2.0520    -1.3890    -2.8040 H     1 <1>   0.0800 
 38 H        0.8580     1.8800    -2.2390 H     1 <1>   0.0800 
 39 H        1.9290     1.6200    -3.5950 H     1 <1>   0.0800 
 40 H        2.5960     1.8890    -2.0030 H     1 <1>   0.0800 
 41 H        1.7270    -4.9440    -2.2910 H     1 <1>   0.0800 
 42 H        0.3480    -5.6390    -1.4750 H     1 <1>   0.0800 
 43 H        1.9450    -5.8020    -0.7860 H     1 <1>   0.0800 
 44 H       -1.2350    -4.7170     2.6270 H     1 <1>   0.0800 
 45 H        0.4180    -4.8790     3.2350 H     1 <1>   0.0800 
 46 H       -1.2700    -7.1350     2.0890 H     1 <1>   0.0800 
 47 H       -0.9300    -6.9020     3.7870 H     1 <1>   0.0800 
 48 H        0.3720    -7.2960     2.6930 H     1 <1>   0.0800 
@<TRIPOS>BOND
  1   1   2  2   
  2   1   3  2   
  3   1   4  am  
  4   1   5  1   
  5   4   6  1   
  6   4  24  1   
  7   5   7  ar  
  8   5   8  ar  
  9   6   9  1   
 10   6  25  1   
 11   6  26  1   
 12   7  10  1   
 13   7  11  ar  
 14   8  12  ar  
 15   8  27  1   
 16   9  13  1   
 17   9  14  1   
 18   9  28  1   
 19  10  15  1   
 20  11  16  ar  
 21  11  29  1   
 22  12  16  ar  
 23  12  17  1   
 24  13  18  1   
 25  14  19  1   
 26  14  30  1   
 27  14  31  1   
 28  15  20  1   
 29  15  32  1   
 30  15  33  1   
 31  16  21  1   
 32  17  22  1   
 33  18  19  1   
 34  18  34  1   
 35  18  35  1   
 36  19  36  1   
 37  19  37  1   
 38  20  38  1   
 39  20  39  1   
 40  20  40  1   
 41  21  41  1   
 42  21  42  1   
 43  21  43  1   
 44  22  23  1   
 45  22  44  1   
 46  22  45  1   
 47  23  46  1   
 48  23  47  1   
 49  23  48  1   
@<TRIPOS>SUBSTRUCTURE
  1 ****   5 GROUP 4 **** **** 0

# MOE 2024.06 (io_trps.svl 2023.06)
