@<TRIPOS>MOLECULE
NONAME
39 40 1 0 0 
SMALL
USER_CHARGES


@<TRIPOS>ATOM
  1 O       -0.0830    -0.8150    -1.0970 O.2   1 <1>  -0.5700 
  2 C        0.0190    -1.7960    -0.3990 C.2   1 <1>   0.5690 
  3 N        1.2220    -2.1900     0.0820 N.am  1 <1>  -0.7300 
  4 C       -1.2200    -2.6180    -0.0420 C.3   1 <1>  -0.0190 
  5 C        2.4780    -1.4880    -0.1900 C.3   1 <1>   0.2010 
  6 C       -1.8790    -3.2150    -1.3010 C.3   1 <1>  -0.1600 
  7 C       -2.2380    -1.7810     0.7570 C.3   1 <1>  -0.1600 
  8 C        3.7030    -2.1350     0.4880 C.2   1 <1>   0.5690 
  9 C       -3.1300    -4.0340    -0.9490 C.3   1 <1>  -0.1600 
 10 C       -3.4890    -2.6000     1.1090 C.3   1 <1>  -0.1600 
 11 O        3.5580    -3.1590     1.1560 O.2   1 <1>  -0.5700 
 12 N        4.9370    -1.5590     0.3400 N.am  1 <1>  -0.6600 
 13 C       -4.1340    -3.1930    -0.1500 C.3   1 <1>  -0.1600 
 14 C        5.2480    -0.3330    -0.4280 C.3   1 <1>   0.1400 
 15 C        6.1510    -2.1130     0.9780 C.3   1 <1>   0.1400 
 16 C        6.7710    -0.2670    -0.4500 C.3   1 <1>  -0.1600 
 17 C        7.2110    -1.0330     0.7950 C.3   1 <1>  -0.1600 
 18 H        1.3020    -3.0120     0.6650 H     1 <1>   0.3700 
 19 H       -0.9050    -3.4350     0.5820 H     1 <1>   0.0800 
 20 H        2.3960    -0.4590     0.1600 H     1 <1>   0.0800 
 21 H        2.6520    -1.4680    -1.2650 H     1 <1>   0.0800 
 22 H       -1.1710    -3.8420    -1.8150 H     1 <1>   0.0800 
 23 H       -2.1540    -2.4160    -1.9690 H     1 <1>   0.0800 
 24 H       -2.5280    -0.9240     0.1720 H     1 <1>   0.0800 
 25 H       -1.7770    -1.4200     1.6600 H     1 <1>   0.0800 
 26 H       -2.8420    -4.8940    -0.3690 H     1 <1>   0.0800 
 27 H       -3.5950    -4.3860    -1.8540 H     1 <1>   0.0800 
 28 H       -4.2000    -1.9690     1.6150 H     1 <1>   0.0800 
 29 H       -3.2180    -3.3960     1.7810 H     1 <1>   0.0800 
 30 H       -4.9750    -3.8050     0.1300 H     1 <1>   0.0800 
 31 H       -4.5010    -2.3940    -0.7710 H     1 <1>   0.0800 
 32 H        4.8450     0.5210     0.0900 H     1 <1>   0.0800 
 33 H        4.8450    -0.3830    -1.4250 H     1 <1>   0.0800 
 34 H        6.4350    -3.0160     0.4640 H     1 <1>   0.0800 
 35 H        5.9750    -2.3300     2.0180 H     1 <1>   0.0800 
 36 H        7.1280     0.7480    -0.4540 H     1 <1>   0.0800 
 37 H        7.1300    -0.7680    -1.3320 H     1 <1>   0.0800 
 38 H        8.1960    -1.4540     0.6930 H     1 <1>   0.0800 
 39 H        7.1960    -0.3820     1.6520 H     1 <1>   0.0800 
@<TRIPOS>BOND
  1   1   2  2   
  2   2   3  am  
  3   2   4  1   
  4   3   5  1   
  5   3  18  1   
  6   4   6  1   
  7   4   7  1   
  8   4  19  1   
  9   5   8  1   
 10   5  20  1   
 11   5  21  1   
 12   6   9  1   
 13   6  22  1   
 14   6  23  1   
 15   7  10  1   
 16   7  24  1   
 17   7  25  1   
 18   8  11  2   
 19   8  12  am  
 20   9  13  1   
 21   9  26  1   
 22   9  27  1   
 23  10  13  1   
 24  10  28  1   
 25  10  29  1   
 26  12  14  1   
 27  12  15  1   
 28  13  30  1   
 29  13  31  1   
 30  14  16  1   
 31  14  32  1   
 32  14  33  1   
 33  15  17  1   
 34  15  34  1   
 35  15  35  1   
 36  16  17  1   
 37  16  36  1   
 38  16  37  1   
 39  17  38  1   
 40  17  39  1   
@<TRIPOS>SUBSTRUCTURE
  1 ****   3 GROUP 4 **** **** 0

# MOE 2024.06 (io_trps.svl 2023.06)
