@<TRIPOS>MOLECULE
NONAME
37 39 1 0 0 
SMALL
USER_CHARGES


@<TRIPOS>ATOM
  1 CL      -0.1980    -0.5920     0.2120 Cl    1 <1>  -0.1770 
  2 C        1.3800    -1.3290     0.0760 C.ar  1 <1>   0.1770 
  3 C        1.8220    -1.7640    -1.1600 C.ar  1 <1>  -0.1500 
  4 C        2.1650    -1.4650     1.2060 C.ar  1 <1>  -0.1500 
  5 C        3.0730    -2.3460    -1.2630 C.ar  1 <1>  -0.1500 
  6 C        3.4150    -2.0490     1.0940 C.ar  1 <1>  -0.1500 
  7 C        3.8810    -2.4950    -0.1410 C.ar  1 <1>   0.1000 
  8 N        5.1320    -3.0840    -0.2740 N.pl3 1 <1>  -0.8380 
  9 C        5.2880    -4.4440     0.3180 C.3   1 <1>   0.2090 
 10 C        6.3110    -2.1900    -0.0770 C.3   1 <1>   0.2090 
 11 C        6.5810    -5.1170    -0.1940 C.3   1 <1>   0.3430 
 12 C        7.6000    -2.8680    -0.5870 C.3   1 <1>   0.3430 
 13 N        7.7980    -4.2480    -0.0050 N.4   1 <1>  -0.9590 
 14 C        9.0420    -4.8840    -0.5150 C.3   1 <1>   0.5230 
 15 C       10.2220    -4.0940     0.0150 C.2   1 <1>  -0.0400 
 16 O       10.2600    -3.8240     1.3070 O.3   1 <1>  -0.2800 
 17 C       11.2980    -3.5680    -0.6110 C.2   1 <1>  -0.1500 
 18 C       11.3590    -3.1310     1.5360 C.2   1 <1>  -0.0100 
 19 C       12.0450    -2.9370     0.3910 C.2   1 <1>  -0.1500 
 20 H        1.1930    -1.6460    -2.0240 H     1 <1>   0.1500 
 21 H        1.7960    -1.1180     2.1540 H     1 <1>   0.1500 
 22 H        3.4330    -2.6890    -2.2150 H     1 <1>   0.1500 
 23 H        4.0300    -2.1580     1.9670 H     1 <1>   0.1500 
 24 H        4.4390    -5.0480     0.0450 H     1 <1>   0.0800 
 25 H        5.3120    -4.3730     1.3910 H     1 <1>   0.0800 
 26 H        6.4140    -1.9470     0.9660 H     1 <1>   0.0800 
 27 H        6.1530    -1.2710    -0.6170 H     1 <1>   0.0800 
 28 H        6.4490    -5.3280    -1.2430 H     1 <1>   0.0800 
 29 H        6.7130    -6.0550     0.3190 H     1 <1>   0.0800 
 30 H        8.4440    -2.2420    -0.3430 H     1 <1>   0.0800 
 31 H        7.5370    -2.9350    -1.6600 H     1 <1>   0.0800 
 32 H        7.9670    -4.1190     1.0040 H     1 <1>   0.4500 
 33 H        9.0520    -4.8980    -1.5930 H     1 <1>   0.0800 
 34 H        9.1130    -5.8960    -0.1520 H     1 <1>   0.0800 
 35 H       11.5750    -3.5990    -1.6520 H     1 <1>   0.1500 
 36 H       11.5820    -2.8170     2.5430 H     1 <1>   0.1500 
 37 H       12.9760    -2.4140     0.2450 H     1 <1>   0.1500 
@<TRIPOS>BOND
  1   1   2  1   
  2   2   3  ar  
  3   2   4  ar  
  4   3   5  ar  
  5   3  20  1   
  6   4   6  ar  
  7   4  21  1   
  8   5   7  ar  
  9   5  22  1   
 10   6   7  ar  
 11   6  23  1   
 12   7   8  1   
 13   8   9  1   
 14   8  10  1   
 15   9  11  1   
 16   9  24  1   
 17   9  25  1   
 18  10  12  1   
 19  10  26  1   
 20  10  27  1   
 21  11  13  1   
 22  11  28  1   
 23  11  29  1   
 24  12  13  1   
 25  12  30  1   
 26  12  31  1   
 27  13  14  1   
 28  13  32  1   
 29  14  15  1   
 30  14  33  1   
 31  14  34  1   
 32  15  16  1   
 33  15  17  2   
 34  16  18  1   
 35  17  19  1   
 36  17  35  1   
 37  18  19  2   
 38  18  36  1   
 39  19  37  1   
@<TRIPOS>SUBSTRUCTURE
  1 ****  10 GROUP 4 **** **** 0

# MOE 2024.06 (io_trps.svl 2023.06)
