@<TRIPOS>MOLECULE
NONAME
34 35 1 0 0 
SMALL
USER_CHARGES


@<TRIPOS>ATOM
  1 O        0.3350     0.1910    -0.8070 O.2   1 <1>  -0.5700 
  2 C        0.7850     1.2530    -0.4210 C.2   1 <1>   0.6900 
  3 N        2.1380     1.4120    -0.2820 N.am  1 <1>  -0.6600 
  4 N       -0.0260     2.3150    -0.1350 N.am  1 <1>  -0.5470 
  5 C        3.0860     0.3060    -0.5370 C.3   1 <1>   0.1400 
  6 C        2.8200     2.5580     0.3590 C.3   1 <1>   0.1400 
  7 C       -1.4220     2.4470    -0.0920 C.ar  1 <1>   0.1170 
  8 C        4.3480     0.6910     0.2250 C.3   1 <1>  -0.1600 
  9 C        4.3050     2.2140     0.2970 C.3   1 <1>  -0.1600 
 10 C       -2.2810     1.3680     0.0880 C.ar  1 <1>  -0.1500 
 11 C       -1.9750     3.7170    -0.2140 C.ar  1 <1>  -0.1500 
 12 C       -3.6530     1.5460     0.1390 C.ar  1 <1>  -0.1440 
 13 C       -3.3440     3.9110    -0.1620 C.ar  1 <1>  -0.1440 
 14 C       -4.1800     2.8210     0.0160 C.ar  1 <1>  -0.1500 
 15 C       -4.5760     0.3570     0.3330 C.3   1 <1>  -0.0970 
 16 C       -3.9410     5.3010    -0.2960 C.3   1 <1>  -0.0970 
 17 H        0.4920     3.1720    -0.0040 H     1 <1>   0.3700 
 18 H        3.2800     0.2500    -1.5950 H     1 <1>   0.0800 
 19 H        2.6860    -0.6350    -0.1950 H     1 <1>   0.0800 
 20 H        2.4950     2.6330     1.3830 H     1 <1>   0.0800 
 21 H        2.6120     3.4750    -0.1650 H     1 <1>   0.0800 
 22 H        5.2350     0.3250    -0.2620 H     1 <1>   0.0800 
 23 H        4.2950     0.2750     1.2160 H     1 <1>   0.0800 
 24 H        4.8410     2.6000     1.1450 H     1 <1>   0.0800 
 25 H        4.7230     2.6330    -0.6020 H     1 <1>   0.0800 
 26 H       -1.8720     0.3800     0.1920 H     1 <1>   0.1500 
 27 H       -1.3240     4.5590    -0.3530 H     1 <1>   0.1500 
 28 H       -5.2450     2.9640     0.0580 H     1 <1>   0.1500 
 29 H       -4.0690    -0.5590     0.0880 H     1 <1>   0.0800 
 30 H       -5.4380     0.4490    -0.3030 H     1 <1>   0.0800 
 31 H       -4.8990     0.3110     1.3570 H     1 <1>   0.0800 
 32 H       -3.1930     6.0130    -0.5940 H     1 <1>   0.0800 
 33 H       -4.3580     5.6100     0.6450 H     1 <1>   0.0800 
 34 H       -4.7200     5.2950    -1.0380 H     1 <1>   0.0800 
@<TRIPOS>BOND
  1   1   2  2   
  2   2   3  am  
  3   2   4  am  
  4   3   5  1   
  5   3   6  1   
  6   4   7  1   
  7   4  17  1   
  8   5   8  1   
  9   5  18  1   
 10   5  19  1   
 11   6   9  1   
 12   6  20  1   
 13   6  21  1   
 14   7  10  ar  
 15   7  11  ar  
 16   8   9  1   
 17   8  22  1   
 18   8  23  1   
 19   9  24  1   
 20   9  25  1   
 21  10  12  ar  
 22  10  26  1   
 23  11  13  ar  
 24  11  27  1   
 25  12  14  ar  
 26  12  15  1   
 27  13  14  ar  
 28  13  16  1   
 29  14  28  1   
 30  15  29  1   
 31  15  30  1   
 32  15  31  1   
 33  16  32  1   
 34  16  33  1   
 35  16  34  1   
@<TRIPOS>SUBSTRUCTURE
  1 ****   4 GROUP 4 **** **** 0

# MOE 2024.06 (io_trps.svl 2023.06)
