@<TRIPOS>MOLECULE
NONAME
39 40 1 0 0 
SMALL
USER_CHARGES


@<TRIPOS>ATOM
  1 CL       0.4470     0.2020    -0.8940 Cl    1 <1>  -0.1770 
  2 C        0.1150     1.8760    -0.5090 C.ar  1 <1>   0.1770 
  3 C        1.1490     2.7500    -0.2190 C.ar  1 <1>   0.1770 
  4 C       -1.1960     2.3130    -0.5050 C.ar  1 <1>  -0.1500 
  5 CL       2.8130     2.2100    -0.2220 Cl    1 <1>  -0.1770 
  6 C        0.8760     4.0730     0.0790 C.ar  1 <1>  -0.1500 
  7 C       -1.4890     3.6420    -0.2030 C.ar  1 <1>   0.1170 
  8 C       -0.4380     4.5100     0.0840 C.ar  1 <1>  -0.1500 
  9 N       -2.7990     4.1470    -0.1910 N.am  1 <1>  -0.5470 
 10 C       -3.9970     3.5150    -0.0070 C.2   1 <1>   0.5690 
 11 O       -4.0990     2.3320     0.2080 O.2   1 <1>  -0.5700 
 12 C       -5.2430     4.3790    -0.0730 C.3   1 <1>  -0.0990 
 13 C       -6.5430     3.6310     0.2920 C.3   1 <1>  -0.0990 
 14 C       -7.7900     4.5040     0.2420 C.2   1 <1>   0.5690 
 15 O       -7.6520     5.6750    -0.0300 O.2   1 <1>  -0.5700 
 16 N       -9.0240     3.9620     0.5010 N.am  1 <1>  -0.6600 
 17 C       -9.2810     2.5400     0.8720 C.3   1 <1>   0.1400 
 18 C      -10.2630     4.7860     0.4080 C.3   1 <1>   0.1400 
 19 C      -10.2140     1.9010    -0.1620 C.3   1 <1>  -0.1600 
 20 C      -11.2130     4.1720    -0.6260 C.3   1 <1>  -0.1600 
 21 C      -11.5170     2.6990    -0.3150 C.3   1 <1>  -0.1600 
 22 H       -1.9770     1.6150    -0.7390 H     1 <1>   0.1500 
 23 H        1.6860     4.7460     0.3030 H     1 <1>   0.1500 
 24 H       -0.6480     5.5390     0.3190 H     1 <1>   0.1500 
 25 H       -2.8680     5.1580    -0.2980 H     1 <1>   0.3700 
 26 H       -5.3330     4.7690    -1.0710 H     1 <1>   0.0800 
 27 H       -5.1190     5.2070     0.6000 H     1 <1>   0.0800 
 28 H       -6.4480     3.2330     1.2850 H     1 <1>   0.0800 
 29 H       -6.6750     2.8130    -0.3920 H     1 <1>   0.0800 
 30 H       -9.7460     2.5140     1.8430 H     1 <1>   0.0800 
 31 H       -8.3700     1.9740     0.9290 H     1 <1>   0.0800 
 32 H      -10.0300     5.7980     0.1230 H     1 <1>   0.0800 
 33 H      -10.7380     4.8140     1.3730 H     1 <1>   0.0800 
 34 H      -10.4420     0.8940     0.1390 H     1 <1>   0.0800 
 35 H       -9.7040     1.8540    -1.1080 H     1 <1>   0.0800 
 36 H      -10.7600     4.2520    -1.5990 H     1 <1>   0.0800 
 37 H      -12.1290     4.7350    -0.6450 H     1 <1>   0.0800 
 38 H      -12.0830     2.6380     0.5990 H     1 <1>   0.0800 
 39 H      -12.1140     2.2760    -1.1050 H     1 <1>   0.0800 
@<TRIPOS>BOND
  1   1   2  1   
  2   2   3  ar  
  3   2   4  ar  
  4   3   5  1   
  5   3   6  ar  
  6   4   7  ar  
  7   4  22  1   
  8   6   8  ar  
  9   6  23  1   
 10   7   8  ar  
 11   7   9  1   
 12   8  24  1   
 13   9  10  am  
 14   9  25  1   
 15  10  11  2   
 16  10  12  1   
 17  12  13  1   
 18  12  26  1   
 19  12  27  1   
 20  13  14  1   
 21  13  28  1   
 22  13  29  1   
 23  14  15  2   
 24  14  16  am  
 25  16  17  1   
 26  16  18  1   
 27  17  19  1   
 28  17  30  1   
 29  17  31  1   
 30  18  20  1   
 31  18  32  1   
 32  18  33  1   
 33  19  21  1   
 34  19  34  1   
 35  19  35  1   
 36  20  21  1   
 37  20  36  1   
 38  20  37  1   
 39  21  38  1   
 40  21  39  1   
@<TRIPOS>SUBSTRUCTURE
  1 ****  10 GROUP 4 **** **** 0

# MOE 2024.06 (io_trps.svl 2023.06)
