@<TRIPOS>MOLECULE
NONAME
56 59 1 0 0 
SMALL
USER_CHARGES


@<TRIPOS>ATOM
  1 O       -0.4170     1.1580    -0.7680 O.3   1 <1>  -0.6800 
  2 C       -1.3140     0.3480    -0.1000 C.3   1 <1>   0.2800 
  3 C       -2.7970     0.8040    -0.3350 C.3   1 <1>   0.0000 
  4 C       -1.2520    -1.0700    -0.7140 C.3   1 <1>  -0.1600 
  5 C       -0.8180     0.3210     1.3540 C.3   1 <1>  -0.2400 
  6 C       -3.5360    -0.5190    -0.1030 C.3   1 <1>  -0.0800 
  7 C       -3.4020     1.8650     0.6360 C.3   1 <1>  -0.1600 
  8 C       -2.9550     1.2920    -1.8110 C.3   1 <1>  -0.2400 
  9 C       -2.7040    -1.5770    -0.8280 C.3   1 <1>  -0.1600 
 10 C       -5.0690    -0.5000    -0.3460 C.3   1 <1>  -0.0800 
 11 C       -4.8550     1.5750     1.1070 C.3   1 <1>  -0.1600 
 12 C       -5.7070     0.8860     0.0070 C.3   1 <1>  -0.0800 
 13 C       -5.6670    -1.6560     0.4800 C.3   1 <1>  -0.1600 
 14 C       -7.2720     0.8690     0.1790 C.3   1 <1>   0.0000 
 15 C       -7.1870    -1.6830     0.4520 C.3   1 <1>  -0.1600 
 16 C       -7.7670    -0.3630     0.9910 C.3   1 <1>  -0.0800 
 17 C       -7.9200     0.8380    -1.2360 C.3   1 <1>  -0.1600 
 18 C       -7.7390     2.1710     0.8780 C.3   1 <1>  -0.2400 
 19 C       -9.3080    -0.4690     1.0300 C.3   1 <1>  -0.1600 
 20 C       -9.4550     0.6850    -1.2400 C.3   1 <1>  -0.1600 
 21 C       -9.9170    -0.4920    -0.3770 C.3   1 <1>   0.2000 
 22 O      -11.2870    -0.4260    -0.2550 O.3   1 <1>  -0.6800 
 23 H        0.4840     0.8140    -0.6380 H     1 <1>   0.4000 
 24 H       -0.6800    -1.7410    -0.0980 H     1 <1>   0.0800 
 25 H       -0.8140    -1.0440    -1.6970 H     1 <1>   0.0800 
 26 H        0.1480    -0.1470     1.4150 H     1 <1>   0.0800 
 27 H       -0.7310     1.3190     1.7440 H     1 <1>   0.0800 
 28 H       -1.4910    -0.2330     1.9800 H     1 <1>   0.0800 
 29 H       -3.4060    -0.7320     0.9440 H     1 <1>   0.0800 
 30 H       -3.3820     2.8250     0.1510 H     1 <1>   0.0800 
 31 H       -2.8060     1.9730     1.5190 H     1 <1>   0.0800 
 32 H       -2.4760     0.6200    -2.4990 H     1 <1>   0.0800 
 33 H       -2.4830     2.2520    -1.9290 H     1 <1>   0.0800 
 34 H       -3.9700     1.3890    -2.1300 H     1 <1>   0.0800 
 35 H       -2.8220    -2.5460    -0.3760 H     1 <1>   0.0800 
 36 H       -2.9950    -1.6340    -1.8620 H     1 <1>   0.0800 
 37 H       -5.2590    -0.6930    -1.3880 H     1 <1>   0.0800 
 38 H       -5.2680     2.5190     1.4040 H     1 <1>   0.0800 
 39 H       -4.8380     0.9440     1.9790 H     1 <1>   0.0800 
 40 H       -5.5640     1.5260    -0.8390 H     1 <1>   0.0800 
 41 H       -5.3600    -1.5710     1.5080 H     1 <1>   0.0800 
 42 H       -5.2950    -2.5940     0.1050 H     1 <1>   0.0800 
 43 H       -7.5270    -2.5010     1.0640 H     1 <1>   0.0800 
 44 H       -7.5120    -1.8760    -0.5540 H     1 <1>   0.0800 
 45 H       -7.4210    -0.2530     2.0050 H     1 <1>   0.0800 
 46 H       -7.5050     0.0250    -1.8030 H     1 <1>   0.0800 
 47 H       -7.6700     1.7400    -1.7660 H     1 <1>   0.0800 
 48 H       -7.4190     2.1870     1.9040 H     1 <1>   0.0800 
 49 H       -8.8050     2.2790     0.8860 H     1 <1>   0.0800 
 50 H       -7.3340     3.0300     0.3750 H     1 <1>   0.0800 
 51 H       -9.7090     0.3580     1.5860 H     1 <1>   0.0800 
 52 H       -9.5920    -1.3700     1.5460 H     1 <1>   0.0800 
 53 H       -9.7860     0.5230    -2.2510 H     1 <1>   0.0800 
 54 H       -9.9080     1.5940    -0.8900 H     1 <1>   0.0800 
 55 H       -9.6830    -1.4210    -0.8680 H     1 <1>   0.0800 
 56 H      -11.5370     0.4050     0.1870 H     1 <1>   0.4000 
@<TRIPOS>BOND
  1   1   2  1   
  2   1  23  1   
  3   2   3  1   
  4   2   4  1   
  5   2   5  1   
  6   3   6  1   
  7   3   7  1   
  8   3   8  1   
  9   4   9  1   
 10   4  24  1   
 11   4  25  1   
 12   5  26  1   
 13   5  27  1   
 14   5  28  1   
 15   6   9  1   
 16   6  10  1   
 17   6  29  1   
 18   7  11  1   
 19   7  30  1   
 20   7  31  1   
 21   8  32  1   
 22   8  33  1   
 23   8  34  1   
 24   9  35  1   
 25   9  36  1   
 26  10  12  1   
 27  10  13  1   
 28  10  37  1   
 29  11  12  1   
 30  11  38  1   
 31  11  39  1   
 32  12  14  1   
 33  12  40  1   
 34  13  15  1   
 35  13  41  1   
 36  13  42  1   
 37  14  16  1   
 38  14  17  1   
 39  14  18  1   
 40  15  16  1   
 41  15  43  1   
 42  15  44  1   
 43  16  19  1   
 44  16  45  1   
 45  17  20  1   
 46  17  46  1   
 47  17  47  1   
 48  18  48  1   
 49  18  49  1   
 50  18  50  1   
 51  19  21  1   
 52  19  51  1   
 53  19  52  1   
 54  20  21  1   
 55  20  53  1   
 56  20  54  1   
 57  21  22  1   
 58  21  55  1   
 59  22  56  1   
@<TRIPOS>SUBSTRUCTURE
  1 ****  12 GROUP 4 **** **** 0

# MOE 2024.06 (io_trps.svl 2023.06)
