@<TRIPOS>MOLECULE
NONAME
39 40 1 0 0 
SMALL
USER_CHARGES


@<TRIPOS>ATOM
  1 CL      -0.0500     0.3580    -1.1040 Cl    1 <1>  -0.1770 
  2 C       -0.0610     1.9270    -0.3250 C.ar  1 <1>   0.1770 
  3 C       -1.2820     2.5110     0.0090 C.ar  1 <1>   0.1170 
  4 C        1.1500     2.5330    -0.0640 C.ar  1 <1>  -0.1500 
  5 N       -2.4780     1.8330    -0.2900 N.am  1 <1>  -0.5470 
  6 C       -1.2290     3.7520     0.6380 C.ar  1 <1>  -0.1500 
  7 C        1.2030     3.7840     0.5530 C.ar  1 <1>   0.0860 
  8 C       -3.7890     2.2110    -0.2230 C.2   1 <1>   0.5690 
  9 C       -0.0180     4.3660     0.9010 C.ar  1 <1>  -0.1500 
 10 C        2.4600     4.4530     0.8300 C.2   1 <1>   0.5440 
 11 O       -4.1660     3.2980     0.1300 O.2   1 <1>  -0.5700 
 12 C       -4.8200     1.1880    -0.6290 C.3   1 <1>  -0.1790 
 13 O        2.5520     5.2400     1.7520 O.2   1 <1>  -0.5700 
 14 N        3.5600     4.2220     0.0510 N.am  1 <1>  -0.7300 
 15 C        4.8880     4.8300     0.2420 C.3   1 <1>   0.2200 
 16 C        5.1600     5.7970    -0.9150 C.3   1 <1>  -0.1600 
 17 C        5.9380     3.7160     0.2950 C.3   1 <1>  -0.1600 
 18 C        6.5790     6.3800    -0.8290 C.3   1 <1>  -0.1600 
 19 C        7.3580     4.2950     0.3840 C.3   1 <1>  -0.1600 
 20 C        7.6340     5.2670    -0.7720 C.3   1 <1>  -0.1600 
 21 H        2.0560     2.0240    -0.3360 H     1 <1>   0.1500 
 22 H       -2.3310     0.8910    -0.6540 H     1 <1>   0.3700 
 23 H       -2.1350     4.2510     0.9320 H     1 <1>   0.1500 
 24 H       -0.0100     5.3260     1.3910 H     1 <1>   0.1500 
 25 H       -4.6770     0.9140    -1.6570 H     1 <1>   0.0800 
 26 H       -5.8050     1.6020    -0.5150 H     1 <1>   0.0800 
 27 H       -4.7370     0.3170    -0.0060 H     1 <1>   0.0800 
 28 H        3.4670     3.6690    -0.7990 H     1 <1>   0.3700 
 29 H        4.9110     5.3780     1.1700 H     1 <1>   0.0800 
 30 H        4.4440     6.5990    -0.8800 H     1 <1>   0.0800 
 31 H        5.0510     5.2800    -1.8520 H     1 <1>   0.0800 
 32 H        5.8650     3.1070    -0.5880 H     1 <1>   0.0800 
 33 H        5.7540     3.0970     1.1560 H     1 <1>   0.0800 
 34 H        6.6580     6.9910     0.0540 H     1 <1>   0.0800 
 35 H        6.7630     7.0100    -1.6820 H     1 <1>   0.0800 
 36 H        8.0770     3.4950     0.3630 H     1 <1>   0.0800 
 37 H        7.4720     4.8160     1.3200 H     1 <1>   0.0800 
 38 H        8.6110     5.7030    -0.6500 H     1 <1>   0.0800 
 39 H        7.6310     4.7250    -1.7020 H     1 <1>   0.0800 
@<TRIPOS>BOND
  1   1   2  1   
  2   2   3  ar  
  3   2   4  ar  
  4   3   5  1   
  5   3   6  ar  
  6   4   7  ar  
  7   4  21  1   
  8   5   8  am  
  9   5  22  1   
 10   6   9  ar  
 11   6  23  1   
 12   7   9  ar  
 13   7  10  1   
 14   8  11  2   
 15   8  12  1   
 16   9  24  1   
 17  10  13  2   
 18  10  14  am  
 19  12  25  1   
 20  12  26  1   
 21  12  27  1   
 22  14  15  1   
 23  14  28  1   
 24  15  16  1   
 25  15  17  1   
 26  15  29  1   
 27  16  18  1   
 28  16  30  1   
 29  16  31  1   
 30  17  19  1   
 31  17  32  1   
 32  17  33  1   
 33  18  20  1   
 34  18  34  1   
 35  18  35  1   
 36  19  20  1   
 37  19  36  1   
 38  19  37  1   
 39  20  38  1   
 40  20  39  1   
@<TRIPOS>SUBSTRUCTURE
  1 ****   7 GROUP 4 **** **** 0

# MOE 2024.06 (io_trps.svl 2023.06)
