@<TRIPOS>MOLECULE
NONAME
37 39 1 0 0 
SMALL
USER_CHARGES


@<TRIPOS>ATOM
  1 BR      -1.2760     2.3980     2.2720 Br    1 <1>  -0.0580 
  2 C       -2.2930     1.2670     1.0990 C.2   1 <1>   0.0980 
  3 S       -3.7080     0.5160     1.7970 S.3   1 <1>  -0.0800 
  4 C       -2.1070     0.9430    -0.1910 C.2   1 <1>  -0.1500 
  5 C       -4.0550    -0.2680     0.2530 C.2   1 <1>  -0.1400 
  6 C       -3.1260     0.0570    -0.6730 C.2   1 <1>  -0.1500 
  7 C       -5.2870    -1.1460     0.1990 C.3   1 <1>   0.5230 
  8 N       -6.4700    -0.3150     0.5390 N.4   1 <1>  -0.9590 
  9 C       -7.7120    -1.1500     0.7360 C.3   1 <1>   0.3430 
 10 C       -6.6980     0.7770    -0.4840 C.3   1 <1>   0.3430 
 11 C       -8.9560    -0.2950     1.0630 C.3   1 <1>   0.2090 
 12 C       -7.9360     1.6410    -0.1630 C.3   1 <1>   0.2090 
 13 N       -9.1370     0.7810     0.0470 N.pl3 1 <1>  -0.8380 
 14 C      -10.3660     1.4310     0.0540 C.ar  1 <1>   0.1000 
 15 C      -10.7220     2.2980     1.0870 C.ar  1 <1>  -0.1500 
 16 C      -11.2580     1.2120    -0.9910 C.ar  1 <1>  -0.1500 
 17 C      -11.9500     2.9370     1.0780 C.ar  1 <1>  -0.1500 
 18 C      -12.4900     1.8430    -1.0130 C.ar  1 <1>  -0.1500 
 19 C      -12.8130     2.6950     0.0250 C.ar  1 <1>   0.1900 
 20 F      -13.9750     3.2960     0.0110 F     1 <1>  -0.1900 
 21 H       -1.3010     1.2870    -0.8160 H     1 <1>   0.1500 
 22 H       -3.0960    -0.2860    -1.6950 H     1 <1>   0.1500 
 23 H       -5.1790    -1.9490     0.9110 H     1 <1>   0.0800 
 24 H       -5.3950    -1.5700    -0.7860 H     1 <1>   0.0800 
 25 H       -6.2480     0.1510     1.4290 H     1 <1>   0.4500 
 26 H       -7.5580    -1.8600     1.5310 H     1 <1>   0.0800 
 27 H       -7.9210    -1.7020    -0.1660 H     1 <1>   0.0800 
 28 H       -6.8450     0.3350    -1.4550 H     1 <1>   0.0800 
 29 H       -5.8320     1.4160    -0.5390 H     1 <1>   0.0800 
 30 H       -8.8550     0.1420     2.0420 H     1 <1>   0.0800 
 31 H       -9.8310    -0.9240     1.0700 H     1 <1>   0.0800 
 32 H       -8.1230     2.3150    -0.9830 H     1 <1>   0.0800 
 33 H       -7.7520     2.2330     0.7160 H     1 <1>   0.0800 
 34 H      -10.0390     2.4730     1.8960 H     1 <1>   0.1500 
 35 H      -10.9800     0.5430    -1.7850 H     1 <1>   0.1500 
 36 H      -12.2400     3.6080     1.8660 H     1 <1>   0.1500 
 37 H      -13.1880     1.6810    -1.8150 H     1 <1>   0.1500 
@<TRIPOS>BOND
  1   1   2  1   
  2   2   3  1   
  3   2   4  2   
  4   3   5  1   
  5   4   6  1   
  6   4  21  1   
  7   5   6  2   
  8   5   7  1   
  9   6  22  1   
 10   7   8  1   
 11   7  23  1   
 12   7  24  1   
 13   8   9  1   
 14   8  10  1   
 15   8  25  1   
 16   9  11  1   
 17   9  26  1   
 18   9  27  1   
 19  10  12  1   
 20  10  28  1   
 21  10  29  1   
 22  11  13  1   
 23  11  30  1   
 24  11  31  1   
 25  12  13  1   
 26  12  32  1   
 27  12  33  1   
 28  13  14  1   
 29  14  15  ar  
 30  14  16  ar  
 31  15  17  ar  
 32  15  34  1   
 33  16  18  ar  
 34  16  35  1   
 35  17  19  ar  
 36  17  36  1   
 37  18  19  ar  
 38  18  37  1   
 39  19  20  1   
@<TRIPOS>SUBSTRUCTURE
  1 ****  12 GROUP 4 **** **** 0

# MOE 2024.06 (io_trps.svl 2023.06)
