@<TRIPOS>MOLECULE
NONAME
49 50 1 0 0 
SMALL
USER_CHARGES


@<TRIPOS>ATOM
  1 O       -0.8640     0.8920    -0.5640 O.2   1 <1>  -0.5700 
  2 C       -0.5970     2.0770    -0.4390 C.2   1 <1>   0.5440 
  3 N       -1.6200     2.9800    -0.3430 N.am  1 <1>  -0.4300 
  4 C        0.7800     2.5300    -0.4240 C.ar  1 <1>   0.0860 
  5 N       -3.0200     2.6430    -0.0640 N.am  1 <1>  -0.4300 
  6 C        1.7510     1.9080    -1.2040 C.ar  1 <1>  -0.1500 
  7 C        1.1960     3.6020     0.3640 C.ar  1 <1>  -0.1500 
  8 C       -3.6080     2.6710     1.1620 C.2   1 <1>   0.5690 
  9 C        3.0640     2.3420    -1.2150 C.ar  1 <1>  -0.1500 
 10 C        2.5080     4.0390     0.3530 C.ar  1 <1>  -0.1500 
 11 O       -3.0750     3.1800     2.1260 O.2   1 <1>  -0.5700 
 12 C       -4.9890     2.0550     1.3390 C.3   1 <1>   0.1810 
 13 C        3.4720     3.4220    -0.4380 C.ar  1 <1>  -0.1430 
 14 O       -5.6050     1.8050     0.0820 O.3   1 <1>  -0.3630 
 15 C        4.9250     3.9450    -0.4160 C.3   1 <1>   0.1430 
 16 C       -6.8440     1.2590     0.0070 C.ar  1 <1>   0.0830 
 17 C        5.4900     3.8350     1.0080 C.3   1 <1>  -0.2400 
 18 C        5.8650     3.1620    -1.3490 C.3   1 <1>  -0.2400 
 19 C        4.9510     5.4150    -0.8620 C.3   1 <1>  -0.2400 
 20 C       -7.6060     0.9070     1.1190 C.ar  1 <1>  -0.1500 
 21 C       -7.3590     1.0500    -1.2620 C.ar  1 <1>  -0.1500 
 22 C       -8.8640     0.3550     0.9480 C.ar  1 <1>  -0.1500 
 23 C       -8.6170     0.4980    -1.4270 C.ar  1 <1>  -0.1500 
 24 C       -9.3770     0.1490    -0.3230 C.ar  1 <1>  -0.1430 
 25 C      -10.7570    -0.4580    -0.5040 C.3   1 <1>  -0.0970 
 26 H       -1.3940     3.9790    -0.3410 H     1 <1>   0.3700 
 27 H       -3.5430     2.1960    -0.8280 H     1 <1>   0.3700 
 28 H        1.4650     1.0660    -1.8110 H     1 <1>   0.1500 
 29 H        0.4870     4.0980     1.0040 H     1 <1>   0.1500 
 30 H        3.7540     1.8120    -1.8440 H     1 <1>   0.1500 
 31 H        2.7750     4.8710     0.9790 H     1 <1>   0.1500 
 32 H       -5.6110     2.7330     1.8940 H     1 <1>   0.0800 
 33 H       -4.8950     1.1230     1.8640 H     1 <1>   0.0800 
 34 H        5.4430     2.8140     1.3430 H     1 <1>   0.0800 
 35 H        4.9300     4.4410     1.6960 H     1 <1>   0.0800 
 36 H        6.5150     4.1580     1.0380 H     1 <1>   0.0800 
 37 H        5.5260     3.2270    -2.3680 H     1 <1>   0.0800 
 38 H        5.9090     2.1270    -1.0590 H     1 <1>   0.0800 
 39 H        6.8620     3.5610    -1.3050 H     1 <1>   0.0800 
 40 H        4.5260     5.5080    -1.8460 H     1 <1>   0.0800 
 41 H        5.9600     5.7860    -0.8900 H     1 <1>   0.0800 
 42 H        4.3870     6.0350    -0.1910 H     1 <1>   0.0800 
 43 H       -7.2450     1.0510     2.1190 H     1 <1>   0.1500 
 44 H       -6.7710     1.3190    -2.1200 H     1 <1>   0.1500 
 45 H       -9.4450     0.0850     1.8120 H     1 <1>   0.1500 
 46 H       -9.0010     0.3400    -2.4200 H     1 <1>   0.1500 
 47 H      -10.6790    -1.5280    -0.5630 H     1 <1>   0.0800 
 48 H      -11.2130    -0.0930    -1.4060 H     1 <1>   0.0800 
 49 H      -11.3930    -0.2010     0.3240 H     1 <1>   0.0800 
@<TRIPOS>BOND
  1   1   2  2   
  2   2   3  am  
  3   2   4  1   
  4   3   5  1   
  5   3  26  1   
  6   4   6  ar  
  7   4   7  ar  
  8   5   8  am  
  9   5  27  1   
 10   6   9  ar  
 11   6  28  1   
 12   7  10  ar  
 13   7  29  1   
 14   8  11  2   
 15   8  12  1   
 16   9  13  ar  
 17   9  30  1   
 18  10  13  ar  
 19  10  31  1   
 20  12  14  1   
 21  12  32  1   
 22  12  33  1   
 23  13  15  1   
 24  14  16  1   
 25  15  17  1   
 26  15  18  1   
 27  15  19  1   
 28  16  20  ar  
 29  16  21  ar  
 30  17  34  1   
 31  17  35  1   
 32  17  36  1   
 33  18  37  1   
 34  18  38  1   
 35  18  39  1   
 36  19  40  1   
 37  19  41  1   
 38  19  42  1   
 39  20  22  ar  
 40  20  43  1   
 41  21  23  ar  
 42  21  44  1   
 43  22  24  ar  
 44  22  45  1   
 45  23  24  ar  
 46  23  46  1   
 47  24  25  1   
 48  25  47  1   
 49  25  48  1   
 50  25  49  1   
@<TRIPOS>SUBSTRUCTURE
  1 ****   3 GROUP 4 **** **** 0

# MOE 2024.06 (io_trps.svl 2023.06)
