@<TRIPOS>MOLECULE
NONAME
46 48 1 0 0 
SMALL
USER_CHARGES


@<TRIPOS>ATOM
  1 O        0.5350    -7.0900     0.8340 O.3   1 <1>  -0.5600 
  2 C        0.7910    -8.4580     1.0060 C.3   1 <1>   0.1200 
  3 C        0.8390    -6.6060    -0.4470 C.3   1 <1>   0.1200 
  4 C        2.2750    -8.7910     0.7200 C.3   1 <1>   0.3430 
  5 C        2.3260    -6.8460    -0.7980 C.3   1 <1>   0.3430 
  6 N        3.0470    -7.5690     0.3090 N.4   1 <1>  -0.9590 
  7 C        4.4790    -7.8620     0.0270 C.3   1 <1>   0.3430 
  8 C        5.2730    -6.5640    -0.0880 C.3   1 <1>  -0.1600 
  9 C        6.7690    -6.8440    -0.2250 C.3   1 <1>   0.1200 
 10 O        7.4000    -5.5960    -0.3330 O.3   1 <1>  -0.3630 
 11 C        8.7500    -5.4540    -0.3140 C.ar  1 <1>   0.0820 
 12 C        9.2570    -4.1580    -0.1710 C.ar  1 <1>   0.0000 
 13 C        9.6170    -6.5380    -0.4240 C.ar  1 <1>  -0.1500 
 14 C        8.3920    -3.0050    -0.0540 C.ar  1 <1>   0.0000 
 15 C       10.6380    -3.9880    -0.1370 C.ar  1 <1>  -0.1500 
 16 C       10.9850    -6.3430    -0.3870 C.ar  1 <1>  -0.1500 
 17 C        8.2770    -2.3170     1.1500 C.ar  1 <1>  -0.1500 
 18 C        7.6540    -2.5480    -1.1420 C.ar  1 <1>  -0.1500 
 19 C       11.4960    -5.0650    -0.2430 C.ar  1 <1>  -0.1500 
 20 C        7.4530    -1.2120     1.2660 C.ar  1 <1>  -0.1500 
 21 C        6.8290    -1.4430    -1.0330 C.ar  1 <1>  -0.1500 
 22 C        6.7270    -0.7730     0.1730 C.ar  1 <1>  -0.1500 
 23 H        0.1420    -9.0160     0.3520 H     1 <1>   0.0800 
 24 H        0.5430    -8.7120     2.0220 H     1 <1>   0.0800 
 25 H        0.6220    -5.5510    -0.4580 H     1 <1>   0.0800 
 26 H        0.1940    -7.0880    -1.1610 H     1 <1>   0.0800 
 27 H        2.3200    -9.5350    -0.0570 H     1 <1>   0.0800 
 28 H        2.7120    -9.2210     1.6060 H     1 <1>   0.0800 
 29 H        2.7950    -5.8940    -0.9850 H     1 <1>   0.0800 
 30 H        2.3820    -7.4180    -1.7100 H     1 <1>   0.0800 
 31 H        2.9840    -6.9320     1.1190 H     1 <1>   0.4500 
 32 H        4.5690    -8.4300    -0.8850 H     1 <1>   0.0800 
 33 H        4.8880    -8.4500     0.8330 H     1 <1>   0.0800 
 34 H        5.1240    -5.9670     0.7950 H     1 <1>   0.0800 
 35 H        4.9590    -6.0090    -0.9530 H     1 <1>   0.0800 
 36 H        6.9880    -7.4090    -1.1160 H     1 <1>   0.0800 
 37 H        7.1570    -7.3440     0.6460 H     1 <1>   0.0800 
 38 H        9.2510    -7.5390    -0.5430 H     1 <1>   0.1500 
 39 H       11.0380    -2.9950    -0.0280 H     1 <1>   0.1500 
 40 H       11.6550    -7.1820    -0.4720 H     1 <1>   0.1500 
 41 H        8.8390    -2.6580     2.0020 H     1 <1>   0.1500 
 42 H        7.7330    -3.0700    -2.0780 H     1 <1>   0.1500 
 43 H       12.5610    -4.9110    -0.2140 H     1 <1>   0.1500 
 44 H        7.3770    -0.6940     2.2060 H     1 <1>   0.1500 
 45 H        6.2680    -1.1040    -1.8860 H     1 <1>   0.1500 
 46 H        6.0870     0.0880     0.2610 H     1 <1>   0.1500 
@<TRIPOS>BOND
  1   1   2  1   
  2   1   3  1   
  3   2   4  1   
  4   2  23  1   
  5   2  24  1   
  6   3   5  1   
  7   3  25  1   
  8   3  26  1   
  9   4   6  1   
 10   4  27  1   
 11   4  28  1   
 12   5   6  1   
 13   5  29  1   
 14   5  30  1   
 15   6   7  1   
 16   6  31  1   
 17   7   8  1   
 18   7  32  1   
 19   7  33  1   
 20   8   9  1   
 21   8  34  1   
 22   8  35  1   
 23   9  10  1   
 24   9  36  1   
 25   9  37  1   
 26  10  11  1   
 27  11  12  ar  
 28  11  13  ar  
 29  12  14  1   
 30  12  15  ar  
 31  13  16  ar  
 32  13  38  1   
 33  14  17  ar  
 34  14  18  ar  
 35  15  19  ar  
 36  15  39  1   
 37  16  19  ar  
 38  16  40  1   
 39  17  20  ar  
 40  17  41  1   
 41  18  21  ar  
 42  18  42  1   
 43  19  43  1   
 44  20  22  ar  
 45  20  44  1   
 46  21  22  ar  
 47  21  45  1   
 48  22  46  1   
@<TRIPOS>SUBSTRUCTURE
  1 ****  10 GROUP 4 **** **** 0

# MOE 2024.06 (io_trps.svl 2023.06)
