@<TRIPOS>MOLECULE
NONAME
41 42 1 0 0 
SMALL
USER_CHARGES


@<TRIPOS>ATOM
  1 O        0.4330     0.3240    -0.9960 O.2   1 <1>  -0.5700 
  2 C        0.6600     1.2780    -0.2760 C.2   1 <1>   0.5440 
  3 N       -0.3320     2.1840    -0.0060 N.am  1 <1>  -0.4930 
  4 C        1.9760     1.4550     0.3120 C.ar  1 <1>   0.0860 
  5 C       -1.6650     2.2020    -0.4860 C.2   1 <1>   0.0630 
  6 C        2.5120     2.7210     0.5670 C.ar  1 <1>  -0.1500 
  7 C        2.7600     0.3510     0.6480 C.ar  1 <1>  -0.1500 
  8 C       -2.2790     3.2360    -1.1940 C.2   1 <1>   0.1080 
  9 C       -2.6240     1.2600    -0.3510 C.2   1 <1>  -0.3320 
 10 C        3.7590     2.8730     1.1450 C.ar  1 <1>  -0.1500 
 11 C        4.0090     0.4960     1.2240 C.ar  1 <1>  -0.1500 
 12 N       -3.5140     2.9730    -1.4790 N.2   1 <1>  -0.7070 
 13 C       -1.6160     4.5300    -1.6110 C.3   1 <1>  -0.0590 
 14 N       -3.7340     1.7490    -0.9620 N.pl3 1 <1>   0.3140 
 15 C       -2.5380    -0.1000     0.3300 C.3   1 <1>  -0.0600 
 16 C        4.5100     1.7600     1.4770 C.ar  1 <1>  -0.1500 
 17 C       -5.0210     1.0750    -1.1600 C.3   1 <1>   0.1570 
 18 C       -5.7490     0.9640     0.1520 C.2   1 <1>   0.6590 
 19 O       -5.8970    -0.1020     0.6950 O.2   1 <1>  -0.5700 
 20 O       -6.2370     2.0910     0.6590 O.3   1 <1>  -0.4300 
 21 C       -6.9520     2.1430     1.8730 C.3   1 <1>   0.1200 
 22 C       -8.4260     1.8570     1.5900 C.3   1 <1>  -0.2400 
 23 H       -0.1020     2.9380     0.6360 H     1 <1>   0.3700 
 24 H        1.9540     3.6010     0.3030 H     1 <1>   0.1500 
 25 H        2.3780    -0.6370     0.4500 H     1 <1>   0.1500 
 26 H        4.1520     3.8580     1.3340 H     1 <1>   0.1500 
 27 H        4.5910    -0.3740     1.4750 H     1 <1>   0.1500 
 28 H       -0.5930     4.3500    -1.8820 H     1 <1>   0.0800 
 29 H       -1.6590     5.2350    -0.8030 H     1 <1>   0.0800 
 30 H       -2.1310     4.9400    -2.4610 H     1 <1>   0.0800 
 31 H       -1.5510    -0.2640     0.7230 H     1 <1>   0.0800 
 32 H       -2.7490    -0.8840    -0.3760 H     1 <1>   0.0800 
 33 H       -3.2350    -0.1610     1.1450 H     1 <1>   0.0800 
 34 H        5.4810     1.8760     1.9260 H     1 <1>   0.1500 
 35 H       -4.8430     0.0980    -1.5640 H     1 <1>   0.0800 
 36 H       -5.6110     1.6450    -1.8510 H     1 <1>   0.0800 
 37 H       -6.8320     3.1320     2.2790 H     1 <1>   0.0800 
 38 H       -6.5360     1.4270     2.5630 H     1 <1>   0.0800 
 39 H       -8.8150     2.5720     0.8880 H     1 <1>   0.0800 
 40 H       -8.9890     1.9320     2.5030 H     1 <1>   0.0800 
 41 H       -8.5460     0.8620     1.2000 H     1 <1>   0.0800 
@<TRIPOS>BOND
  1   1   2  2   
  2   2   3  am  
  3   2   4  1   
  4   3   5  1   
  5   3  23  1   
  6   4   6  ar  
  7   4   7  ar  
  8   5   8  1   
  9   5   9  2   
 10   6  10  ar  
 11   6  24  1   
 12   7  11  ar  
 13   7  25  1   
 14   8  12  2   
 15   8  13  1   
 16   9  14  1   
 17   9  15  1   
 18  10  16  ar  
 19  10  26  1   
 20  11  16  ar  
 21  11  27  1   
 22  12  14  1   
 23  13  28  1   
 24  13  29  1   
 25  13  30  1   
 26  14  17  1   
 27  15  31  1   
 28  15  32  1   
 29  15  33  1   
 30  16  34  1   
 31  17  18  1   
 32  17  35  1   
 33  17  36  1   
 34  18  19  2   
 35  18  20  1   
 36  20  21  1   
 37  21  22  1   
 38  21  37  1   
 39  21  38  1   
 40  22  39  1   
 41  22  40  1   
 42  22  41  1   
@<TRIPOS>SUBSTRUCTURE
  1 ****   5 GROUP 4 **** **** 0

# MOE 2024.06 (io_trps.svl 2023.06)
