@<TRIPOS>MOLECULE
NONAME
45 47 1 0 0 
SMALL
USER_CHARGES


@<TRIPOS>ATOM
  1 O        0.5400    -0.6260     0.8910 O.2   1 <1>  -0.5700 
  2 C        0.5900    -1.8170     0.6630 C.2   1 <1>   0.7800 
  3 O       -0.5100    -2.4790     0.3080 O.3   1 <1>  -0.4300 
  4 N        1.7640    -2.5220     0.7260 N.am  1 <1>  -0.6600 
  5 C       -1.7560    -1.8220     0.2350 C.3   1 <1>   0.1200 
  6 C        1.8920    -3.9420     0.2840 C.3   1 <1>   0.1400 
  7 C        3.0490    -1.8590     1.0970 C.3   1 <1>   0.1400 
  8 C       -2.8050    -2.8420    -0.1950 C.3   1 <1>  -0.2400 
  9 C        2.9190    -4.0540    -0.8600 C.3   1 <1>   0.3430 
 10 C        4.0620    -1.9800    -0.0540 C.3   1 <1>   0.3430 
 11 N        4.2340    -3.4100    -0.5080 N.4   1 <1>  -0.9590 
 12 C        5.2250    -3.5140    -1.6140 C.3   1 <1>   0.4860 
 13 C        6.5720    -3.0930    -1.0650 C.ar  1 <1>  -0.1440 
 14 C        7.2510    -3.9260    -0.1380 C.ar  1 <1>   0.0000 
 15 C        7.1020    -1.8890    -1.4510 C.ar  1 <1>  -0.1500 
 16 C        8.4490    -3.4430     0.4370 C.ar  1 <1>   0.0000 
 17 C        6.8070    -5.2140     0.2510 C.ar  1 <1>  -0.1500 
 18 C        8.3080    -1.4400    -0.9080 C.ar  1 <1>  -0.1500 
 19 C        8.9590    -2.1990     0.0220 C.ar  1 <1>  -0.1500 
 20 C        9.1090    -4.2220     1.4090 C.ar  1 <1>  -0.1500 
 21 C        7.4740    -5.9510     1.1900 C.ar  1 <1>  -0.1500 
 22 C        8.6330    -5.4460     1.7830 C.ar  1 <1>  -0.1500 
 23 H       -1.6810    -1.0200    -0.4800 H     1 <1>   0.0800 
 24 H       -1.9860    -1.4170     1.2070 H     1 <1>   0.0800 
 25 H        0.9450    -4.3250    -0.0550 H     1 <1>   0.0800 
 26 H        2.2050    -4.5450     1.1180 H     1 <1>   0.0800 
 27 H        3.4450    -2.3210     1.9850 H     1 <1>   0.0800 
 28 H        2.8900    -0.8170     1.3190 H     1 <1>   0.0800 
 29 H       -2.5610    -3.2430    -1.1620 H     1 <1>   0.0800 
 30 H       -3.7670    -2.3660    -0.2570 H     1 <1>   0.0800 
 31 H       -2.8650    -3.6390     0.5240 H     1 <1>   0.0800 
 32 H        2.5040    -3.5750    -1.7320 H     1 <1>   0.0800 
 33 H        3.0690    -5.0950    -1.0950 H     1 <1>   0.0800 
 34 H        5.0090    -1.5810     0.2730 H     1 <1>   0.0800 
 35 H        3.7160    -1.3750    -0.8760 H     1 <1>   0.0800 
 36 H        4.6490    -3.9120     0.2890 H     1 <1>   0.4500 
 37 H        4.9410    -2.8740    -2.4330 H     1 <1>   0.0800 
 38 H        5.2870    -4.5280    -1.9760 H     1 <1>   0.0800 
 39 H        6.6130    -1.2530    -2.1700 H     1 <1>   0.1500 
 40 H        5.9370    -5.6480    -0.2020 H     1 <1>   0.1500 
 41 H        8.7140    -0.4930    -1.2260 H     1 <1>   0.1500 
 42 H        9.8840    -1.8540     0.4510 H     1 <1>   0.1500 
 43 H       10.0080    -3.8330     1.8540 H     1 <1>   0.1500 
 44 H        7.1310    -6.9290     1.4830 H     1 <1>   0.1500 
 45 H        9.1450    -6.0350     2.5250 H     1 <1>   0.1500 
@<TRIPOS>BOND
  1   1   2  2   
  2   2   3  1   
  3   2   4  am  
  4   3   5  1   
  5   4   6  1   
  6   4   7  1   
  7   5   8  1   
  8   5  23  1   
  9   5  24  1   
 10   6   9  1   
 11   6  25  1   
 12   6  26  1   
 13   7  10  1   
 14   7  27  1   
 15   7  28  1   
 16   8  29  1   
 17   8  30  1   
 18   8  31  1   
 19   9  11  1   
 20   9  32  1   
 21   9  33  1   
 22  10  11  1   
 23  10  34  1   
 24  10  35  1   
 25  11  12  1   
 26  11  36  1   
 27  12  13  1   
 28  12  37  1   
 29  12  38  1   
 30  13  14  ar  
 31  13  15  ar  
 32  14  16  ar  
 33  14  17  ar  
 34  15  18  ar  
 35  15  39  1   
 36  16  19  ar  
 37  16  20  ar  
 38  17  21  ar  
 39  17  40  1   
 40  18  19  ar  
 41  18  41  1   
 42  19  42  1   
 43  20  22  ar  
 44  20  43  1   
 45  21  22  ar  
 46  21  44  1   
 47  22  45  1   
@<TRIPOS>SUBSTRUCTURE
  1 ****  11 GROUP 4 **** **** 0

# MOE 2024.06 (io_trps.svl 2023.06)
