@<TRIPOS>MOLECULE
NONAME
44 47 1 0 0 
SMALL
USER_CHARGES


@<TRIPOS>ATOM
  1 O        0.0770     0.7950     1.4820 O.2   1 <1>  -0.5700 
  2 C       -0.6810     1.4970     0.8580 C.2   1 <1>   0.5690 
  3 N       -1.9220     1.0890     0.4610 N.am  1 <1>  -0.5470 
  4 C       -0.2210     2.9270     0.4890 C.3   1 <1>   0.0610 
  5 C       -2.6260    -0.0660     0.6080 C.ar  1 <1>   0.7370 
  6 C       -1.2990     3.7390    -0.2830 C.3   1 <1>  -0.1600 
  7 C        1.0450     2.8530    -0.3990 C.3   1 <1>  -0.1600 
  8 C        0.1320     3.7110     1.7770 C.3   1 <1>  -0.1600 
  9 N       -3.8250    -0.0110     0.0400 N.ar  1 <1>  -0.6200 
 10 N       -2.1050    -1.0970     1.2610 N.ar  1 <1>  -0.6200 
 11 C       -0.7990     5.1550    -0.6300 C.3   1 <1>   0.0000 
 12 C        1.5730     4.2590    -0.7490 C.3   1 <1>   0.0000 
 13 C        0.6470     5.1220     1.4420 C.3   1 <1>  -0.0800 
 14 C       -4.5590    -1.0950     0.1450 C.ar  1 <1>   0.1600 
 15 C       -2.8570    -2.1660     1.3510 C.ar  1 <1>   0.1600 
 16 C        0.4700     5.0330    -1.4980 C.3   1 <1>  -0.1600 
 17 C       -0.4430     5.8910     0.6760 C.3   1 <1>  -0.1600 
 18 C       -1.8850     5.9270    -1.3900 C.3   1 <1>  -0.2400 
 19 C        1.9020     5.0050     0.5600 C.3   1 <1>  -0.1600 
 20 C        2.8280     4.1490    -1.6230 C.3   1 <1>  -0.2400 
 21 C       -4.1140    -2.2180     0.8000 C.ar  1 <1>  -0.1500 
 22 H       -2.4670     1.7640    -0.0580 H     1 <1>   0.3700 
 23 H       -2.1900     3.8210     0.3160 H     1 <1>   0.0800 
 24 H       -1.5540     3.2280    -1.1960 H     1 <1>   0.0800 
 25 H        0.8190     2.3120    -1.3010 H     1 <1>   0.0800 
 26 H        1.8120     2.3030     0.1200 H     1 <1>   0.0800 
 27 H        0.8890     3.1790     2.3280 H     1 <1>   0.0800 
 28 H       -0.7350     3.7800     2.4100 H     1 <1>   0.0800 
 29 H        0.8900     5.6440     2.3520 H     1 <1>   0.0800 
 30 H       -5.5380    -1.0880    -0.3030 H     1 <1>   0.1500 
 31 H       -2.4590    -3.0180     1.8760 H     1 <1>   0.1500 
 32 H        0.2340     4.5260    -2.4180 H     1 <1>   0.0800 
 33 H        0.8290     6.0160    -1.7520 H     1 <1>   0.0800 
 34 H       -1.3170     5.9880     1.2950 H     1 <1>   0.0800 
 35 H       -0.0900     6.8830     0.4530 H     1 <1>   0.0800 
 36 H       -2.1390     5.4200    -2.3040 H     1 <1>   0.0800 
 37 H       -1.5400     6.9160    -1.6350 H     1 <1>   0.0800 
 38 H       -2.7740     6.0160    -0.7910 H     1 <1>   0.0800 
 39 H        2.2770     5.9890     0.3370 H     1 <1>   0.0800 
 40 H        2.6710     4.4780     1.0980 H     1 <1>   0.0800 
 41 H        2.6050     3.6290    -2.5380 H     1 <1>   0.0800 
 42 H        3.6000     3.6080    -1.1040 H     1 <1>   0.0800 
 43 H        3.2030     5.1260    -1.8690 H     1 <1>   0.0800 
 44 H       -4.7230    -3.0990     0.8800 H     1 <1>   0.1500 
@<TRIPOS>BOND
  1   1   2  2   
  2   2   3  am  
  3   2   4  1   
  4   3   5  1   
  5   3  22  1   
  6   4   6  1   
  7   4   7  1   
  8   4   8  1   
  9   5   9  ar  
 10   5  10  ar  
 11   6  11  1   
 12   6  23  1   
 13   6  24  1   
 14   7  12  1   
 15   7  25  1   
 16   7  26  1   
 17   8  13  1   
 18   8  27  1   
 19   8  28  1   
 20   9  14  ar  
 21  10  15  ar  
 22  11  16  1   
 23  11  17  1   
 24  11  18  1   
 25  12  16  1   
 26  12  19  1   
 27  12  20  1   
 28  13  17  1   
 29  13  19  1   
 30  13  29  1   
 31  14  21  ar  
 32  14  30  1   
 33  15  21  ar  
 34  15  31  1   
 35  16  32  1   
 36  16  33  1   
 37  17  34  1   
 38  17  35  1   
 39  18  36  1   
 40  18  37  1   
 41  18  38  1   
 42  19  39  1   
 43  19  40  1   
 44  20  41  1   
 45  20  42  1   
 46  20  43  1   
 47  21  44  1   
@<TRIPOS>SUBSTRUCTURE
  1 ****   4 GROUP 4 **** **** 0

# MOE 2024.06 (io_trps.svl 2023.06)
