@<TRIPOS>MOLECULE
NONAME
51 53 1 0 0 
SMALL
USER_CHARGES


@<TRIPOS>ATOM
  1 S       -1.2070    -0.1360     1.3040 S.o2  1 <1>   1.4470 
  2 O       -2.6500    -0.1800     1.2530 O.2   1 <1>  -0.6500 
  3 O       -0.5100    -0.7030     2.4350 O.2   1 <1>  -0.6500 
  4 N       -0.7570     1.5410     1.2610 N.am  1 <1>  -0.6930 
  5 C       -0.5480    -0.8040    -0.2510 C.ar  1 <1>  -0.0090 
  6 C       -1.7040     2.5550     1.1660 C.ar  1 <1>   0.1990 
  7 C        0.6340     1.8720     1.7060 C.3   1 <1>   0.2570 
  8 C       -1.2280    -0.6330    -1.4520 C.ar  1 <1>  -0.1500 
  9 C        0.6590    -1.4960    -0.2870 C.ar  1 <1>  -0.1500 
 10 C       -1.9590     3.3930     2.2450 C.ar  1 <1>  -0.1500 
 11 C       -2.3990     2.7710    -0.0180 C.ar  1 <1>  -0.1500 
 12 C        1.7290     1.4120     0.7350 C.2   1 <1>   0.5690 
 13 C       -0.7210    -1.1200    -2.6440 C.ar  1 <1>  -0.1500 
 14 C        1.1720    -1.9910    -1.4730 C.ar  1 <1>  -0.1500 
 15 C       -2.8700     4.4280     2.1390 C.ar  1 <1>  -0.1500 
 16 C       -3.3120     3.8040    -0.1260 C.ar  1 <1>  -0.1500 
 17 O        2.5520     0.6340     1.1600 O.2   1 <1>  -0.5700 
 18 N        1.7740     1.8550    -0.5650 N.am  1 <1>  -0.6600 
 19 C        0.4820    -1.8010    -2.6560 C.ar  1 <1>  -0.1500 
 20 C       -3.5530     4.6410     0.9510 C.ar  1 <1>  -0.1430 
 21 C        2.7040     1.2490    -1.5650 C.3   1 <1>   0.1400 
 22 C        0.8780     2.8940    -1.1590 C.3   1 <1>   0.1400 
 23 C       -4.5570     5.7770     0.8350 C.3   1 <1>  -0.0170 
 24 C        3.3990     2.3350    -2.3990 C.3   1 <1>   0.1200 
 25 C        1.6770     3.8810    -2.0260 C.3   1 <1>   0.1200 
 26 C       -3.8680     7.0570     0.3580 C.3   1 <1>  -0.2400 
 27 O        2.4550     3.1990    -2.9670 O.3   1 <1>  -0.5600 
 28 H        0.8150     1.4190     2.6650 H     1 <1>   0.0800 
 29 H        0.7310     2.9340     1.8310 H     1 <1>   0.0800 
 30 H       -2.1740    -0.1190    -1.4530 H     1 <1>   0.1500 
 31 H        1.2100    -1.6470     0.6280 H     1 <1>   0.1500 
 32 H       -1.4470     3.2290     3.1750 H     1 <1>   0.1500 
 33 H       -2.2230     2.1280    -0.8580 H     1 <1>   0.1500 
 34 H       -1.2640    -0.9740    -3.5620 H     1 <1>   0.1500 
 35 H        2.1080    -2.5230    -1.4710 H     1 <1>   0.1500 
 36 H       -3.0520     5.0670     2.9860 H     1 <1>   0.1500 
 37 H       -3.8390     3.9540    -1.0520 H     1 <1>   0.1500 
 38 H        0.8790    -2.1840    -3.5800 H     1 <1>   0.1500 
 39 H        2.1430     0.6080    -2.2210 H     1 <1>   0.0800 
 40 H        3.4500     0.6480    -1.0750 H     1 <1>   0.0800 
 41 H        0.3720     3.4490    -0.3910 H     1 <1>   0.0800 
 42 H        0.1360     2.4100    -1.7690 H     1 <1>   0.0800 
 43 H       -5.0210     5.9510     1.7900 H     1 <1>   0.0800 
 44 H       -5.3340     5.5050     0.1410 H     1 <1>   0.0800 
 45 H        3.9570     1.8860    -3.2010 H     1 <1>   0.0800 
 46 H        4.0730     2.9100    -1.7880 H     1 <1>   0.0800 
 47 H        2.3260     4.4840    -1.4150 H     1 <1>   0.0800 
 48 H        1.0070     4.5300    -2.5630 H     1 <1>   0.0800 
 49 H       -3.1000     7.3470     1.0540 H     1 <1>   0.0800 
 50 H       -4.5830     7.8560     0.2790 H     1 <1>   0.0800 
 51 H       -3.4180     6.9000    -0.6060 H     1 <1>   0.0800 
@<TRIPOS>BOND
  1   1   2  2   
  2   1   3  2   
  3   1   4  am  
  4   1   5  1   
  5   4   6  1   
  6   4   7  1   
  7   5   8  ar  
  8   5   9  ar  
  9   6  10  ar  
 10   6  11  ar  
 11   7  12  1   
 12   7  28  1   
 13   7  29  1   
 14   8  13  ar  
 15   8  30  1   
 16   9  14  ar  
 17   9  31  1   
 18  10  15  ar  
 19  10  32  1   
 20  11  16  ar  
 21  11  33  1   
 22  12  17  2   
 23  12  18  am  
 24  13  19  ar  
 25  13  34  1   
 26  14  19  ar  
 27  14  35  1   
 28  15  20  ar  
 29  15  36  1   
 30  16  20  ar  
 31  16  37  1   
 32  18  21  1   
 33  18  22  1   
 34  19  38  1   
 35  20  23  1   
 36  21  24  1   
 37  21  39  1   
 38  21  40  1   
 39  22  25  1   
 40  22  41  1   
 41  22  42  1   
 42  23  26  1   
 43  23  43  1   
 44  23  44  1   
 45  24  27  1   
 46  24  45  1   
 47  24  46  1   
 48  25  27  1   
 49  25  47  1   
 50  25  48  1   
 51  26  49  1   
 52  26  50  1   
 53  26  51  1   
@<TRIPOS>SUBSTRUCTURE
  1 ****   4 GROUP 4 **** **** 0

# MOE 2024.06 (io_trps.svl 2023.06)
