@<TRIPOS>MOLECULE
NONAME
45 45 1 0 0 
SMALL
USER_CHARGES


@<TRIPOS>ATOM
  1 P        0.2690     0.9490    -0.2080 P.3   1 <1>   1.3490 
  2 O        0.0620     1.0360    -1.6590 O.2   1 <1>  -0.7000 
  3 O       -1.0660     0.5030     0.5860 O.3   1 <1>  -0.5510 
  4 O        0.5780     2.3920     0.4440 O.3   1 <1>  -0.5510 
  5 C        1.6070    -0.1450     0.3750 C.2   1 <1>   0.6770 
  6 C       -1.9190    -0.5460     0.2690 C.3   1 <1>   0.2000 
  7 C       -0.0010     3.6080     0.1080 C.3   1 <1>   0.2000 
  8 N        1.9870     0.0910     1.6850 N.2   1 <1>  -0.1720 
  9 N        2.0960    -1.0770    -0.4080 N.2   1 <1>  -0.5030 
 10 C       -1.1590    -1.8630     0.1020 C.3   1 <1>  -0.2400 
 11 C       -2.7560    -0.1900    -0.9590 C.3   1 <1>  -0.2400 
 12 C       -1.5270     3.5190     0.0680 C.3   1 <1>  -0.2400 
 13 C        0.5960     4.1200    -1.2030 C.3   1 <1>  -0.2400 
 14 O        2.8390    -0.5290     2.2300 O.2   1 <1>  -0.1620 
 15 N        3.0590    -1.9730    -0.0290 N.pl3 1 <1>  -0.5280 
 16 C        3.5570    -3.1260    -0.8060 C.3   1 <1>   0.6130 
 17 O        2.8350    -3.0870    -1.9560 O.3   1 <1>  -0.6800 
 18 C        3.2980    -4.4260    -0.0540 C.ar  1 <1>  -0.1440 
 19 C        2.0050    -4.8230     0.2620 C.ar  1 <1>  -0.1500 
 20 C        4.3620    -5.2260     0.3380 C.ar  1 <1>  -0.1500 
 21 C        1.7790    -5.9970     0.9600 C.ar  1 <1>  -0.1500 
 22 C        4.1380    -6.4000     1.0360 C.ar  1 <1>  -0.1500 
 23 C        2.8460    -6.7860     1.3480 C.ar  1 <1>  -0.1500 
 24 H       -2.5870    -0.6430     1.1090 H     1 <1>   0.0800 
 25 H        0.2790     4.2930     0.8910 H     1 <1>   0.0800 
 26 H       -0.5610    -1.8620    -0.7910 H     1 <1>   0.0800 
 27 H       -1.8670    -2.6670     0.0120 H     1 <1>   0.0800 
 28 H       -0.5460    -2.0610     0.9640 H     1 <1>   0.0800 
 29 H       -2.1570    -0.1630    -1.8510 H     1 <1>   0.0800 
 30 H       -3.2350     0.7620    -0.8190 H     1 <1>   0.0800 
 31 H       -3.5200    -0.9320    -1.1000 H     1 <1>   0.0800 
 32 H       -1.8600     2.9160    -0.7570 H     1 <1>   0.0800 
 33 H       -1.9390     4.5040    -0.0580 H     1 <1>   0.0800 
 34 H       -1.9020     3.1160     0.9920 H     1 <1>   0.0800 
 35 H        0.2800     3.5240    -2.0390 H     1 <1>   0.0800 
 36 H        1.6690     4.1220    -1.1470 H     1 <1>   0.0800 
 37 H        0.2670     5.1280    -1.3770 H     1 <1>   0.0800 
 38 H        3.4220    -1.9720     0.9370 H     1 <1>   0.3110 
 39 H        4.5980    -3.0000    -1.0500 H     1 <1>   0.0800 
 40 H        2.2900    -2.2830    -1.8260 H     1 <1>   0.4000 
 41 H        1.1720    -4.2130    -0.0420 H     1 <1>   0.1500 
 42 H        5.3720    -4.9400     0.1020 H     1 <1>   0.1500 
 43 H        0.7730    -6.2950     1.1980 H     1 <1>   0.1500 
 44 H        4.9680    -7.0150     1.3370 H     1 <1>   0.1500 
 45 H        2.6720    -7.6990     1.8910 H     1 <1>   0.1500 
@<TRIPOS>BOND
  1   1   2  2   
  2   1   3  1   
  3   1   4  1   
  4   1   5  1   
  5   3   6  1   
  6   4   7  1   
  7   5   8  1   
  8   5   9  2   
  9   6  10  1   
 10   6  11  1   
 11   6  24  1   
 12   7  12  1   
 13   7  13  1   
 14   7  25  1   
 15   8  14  2   
 16   9  15  1   
 17  10  26  1   
 18  10  27  1   
 19  10  28  1   
 20  11  29  1   
 21  11  30  1   
 22  11  31  1   
 23  12  32  1   
 24  12  33  1   
 25  12  34  1   
 26  13  35  1   
 27  13  36  1   
 28  13  37  1   
 29  15  16  1   
 30  15  38  1   
 31  16  17  1   
 32  16  18  1   
 33  16  39  1   
 34  17  40  1   
 35  18  19  ar  
 36  18  20  ar  
 37  19  21  ar  
 38  19  41  1   
 39  20  22  ar  
 40  20  42  1   
 41  21  23  ar  
 42  21  43  1   
 43  22  23  ar  
 44  22  44  1   
 45  23  45  1   
@<TRIPOS>SUBSTRUCTURE
  1 ****   9 GROUP 4 **** **** 0

# MOE 2024.06 (io_trps.svl 2023.06)
