@<TRIPOS>MOLECULE
NONAME
45 47 1 0 0 
SMALL
USER_CHARGES


@<TRIPOS>ATOM
  1 S        1.2680    -1.1130    -0.9500 S.3   1 <1>  -0.2860 
  2 C       -0.5250    -0.8940    -1.0350 C.2   1 <1>   0.2420 
  3 C        1.6280    -2.2830     0.4560 C.3   1 <1>   0.1310 
  4 N       -1.0380     0.1610    -1.5620 N.2   1 <1>  -0.3380 
  5 N       -1.4420    -1.7710    -0.5890 N.pl3 1 <1>   0.3260 
  6 C        3.0830    -2.2150     0.8950 C.2   1 <1>   0.5690 
  7 N       -2.3640     0.0130    -1.4710 N.2   1 <1>  -0.3380 
  8 C       -1.3070    -3.0740    -0.0500 C.ar  1 <1>  -0.0230 
  9 C       -2.5820    -1.1240    -0.9030 C.2   1 <1>   0.0060 
 10 O        3.4290    -2.9080     1.8200 O.2   1 <1>  -0.5700 
 11 N        3.9490    -1.3890     0.2550 N.am  1 <1>  -0.7300 
 12 C       -0.9810    -4.1440    -0.8740 C.ar  1 <1>  -0.1500 
 13 C       -1.4900    -3.2990     1.3090 C.ar  1 <1>  -0.1500 
 14 C       -3.9670    -1.6810    -0.6280 C.3   1 <1>  -0.0600 
 15 C        5.3750    -1.2140     0.5700 C.3   1 <1>   0.2200 
 16 C       -0.8250    -5.4120    -0.3460 C.ar  1 <1>  -0.1500 
 17 C       -1.3330    -4.5690     1.8350 C.ar  1 <1>  -0.1500 
 18 C        5.6340     0.2600     0.8550 C.3   1 <1>  -0.1600 
 19 C        6.1890    -1.4750    -0.6910 C.3   1 <1>  -0.1600 
 20 C       -0.9960    -5.6300     1.0110 C.ar  1 <1>  -0.1430 
 21 C        5.7580     0.9340    -0.5170 C.3   1 <1>  -0.1600 
 22 C        6.1200    -0.1800    -1.5090 C.3   1 <1>  -0.1600 
 23 C       -0.8200    -7.0210     1.5930 C.3   1 <1>  -0.0970 
 24 H        1.4010    -3.2780     0.1230 H     1 <1>   0.0800 
 25 H        0.9930    -2.0080     1.2760 H     1 <1>   0.0800 
 26 H        3.6090    -0.8090    -0.5160 H     1 <1>   0.3700 
 27 H       -0.8440    -3.9880    -1.9320 H     1 <1>   0.1500 
 28 H       -1.7520    -2.4840     1.9630 H     1 <1>   0.1500 
 29 H       -4.1140    -1.8070     0.4290 H     1 <1>   0.0800 
 30 H       -4.0890    -2.6310    -1.1170 H     1 <1>   0.0800 
 31 H       -4.7150    -1.0040    -1.0010 H     1 <1>   0.0800 
 32 H        5.6670    -1.8500     1.3890 H     1 <1>   0.0800 
 33 H       -0.5700    -6.2320    -0.9960 H     1 <1>   0.1500 
 34 H       -1.4730    -4.7300     2.8900 H     1 <1>   0.1500 
 35 H        6.5740     0.3450     1.3720 H     1 <1>   0.0800 
 36 H        4.8650     0.6970     1.4670 H     1 <1>   0.0800 
 37 H        5.8320    -2.3320    -1.2350 H     1 <1>   0.0800 
 38 H        7.2110    -1.6530    -0.4040 H     1 <1>   0.0800 
 39 H        6.5080     1.7060    -0.5000 H     1 <1>   0.0800 
 40 H        4.8140     1.3730    -0.7950 H     1 <1>   0.0800 
 41 H        5.3520    -0.2600    -2.2590 H     1 <1>   0.0800 
 42 H        7.0600     0.0170    -1.9960 H     1 <1>   0.0800 
 43 H       -1.7690    -7.5250     1.6280 H     1 <1>   0.0800 
 44 H       -0.4200    -6.9630     2.5900 H     1 <1>   0.0800 
 45 H       -0.1410    -7.6000     0.9920 H     1 <1>   0.0800 
@<TRIPOS>BOND
  1   1   2  1   
  2   1   3  1   
  3   2   4  2   
  4   2   5  1   
  5   3   6  1   
  6   3  24  1   
  7   3  25  1   
  8   4   7  1   
  9   5   8  1   
 10   5   9  1   
 11   6  10  2   
 12   6  11  am  
 13   7   9  2   
 14   8  12  ar  
 15   8  13  ar  
 16   9  14  1   
 17  11  15  1   
 18  11  26  1   
 19  12  16  ar  
 20  12  27  1   
 21  13  17  ar  
 22  13  28  1   
 23  14  29  1   
 24  14  30  1   
 25  14  31  1   
 26  15  18  1   
 27  15  19  1   
 28  15  32  1   
 29  16  20  ar  
 30  16  33  1   
 31  17  20  ar  
 32  17  34  1   
 33  18  21  1   
 34  18  35  1   
 35  18  36  1   
 36  19  22  1   
 37  19  37  1   
 38  19  38  1   
 39  20  23  1   
 40  21  22  1   
 41  21  39  1   
 42  21  40  1   
 43  22  41  1   
 44  22  42  1   
 45  23  43  1   
 46  23  44  1   
 47  23  45  1   
@<TRIPOS>SUBSTRUCTURE
  1 ****   3 GROUP 4 **** **** 0

# MOE 2024.06 (io_trps.svl 2023.06)
