@<TRIPOS>MOLECULE
NONAME
46 48 1 0 0 
SMALL
USER_CHARGES


@<TRIPOS>ATOM
  1 O       -0.0580     0.5630    -0.1350 O.2   1 <1>  -0.5700 
  2 C       -0.0300     1.7770    -0.1660 C.2   1 <1>   0.4950 
  3 C        1.0820     2.6460    -0.3280 C.2   1 <1>  -0.1240 
  4 C       -1.2660     2.6700    -0.0140 C.3   1 <1>   0.0610 
  5 C        2.3970     2.3770    -0.5160 C.2   1 <1>  -0.0500 
  6 C        0.4850     4.0470    -0.2500 C.3   1 <1>   0.0580 
  7 C       -0.8760     3.8440    -0.9430 C.3   1 <1>   0.0000 
  8 C       -1.1210     3.2870     1.3960 C.3   1 <1>  -0.1600 
  9 C       -2.6250     1.9980    -0.2730 C.3   1 <1>  -0.2400 
 10 N        2.9000     1.1070    -0.5790 N.pl3 1 <1>  -0.8690 
 11 C        0.0970     4.2290     1.2340 C.3   1 <1>  -0.1600 
 12 C       -0.7480     3.4620    -2.4410 C.3   1 <1>  -0.2400 
 13 C       -1.8110     5.0800    -0.8960 C.3   1 <1>  -0.2400 
 14 C        4.3130     0.7210    -0.7400 C.3   1 <1>   0.4330 
 15 C        5.2230     1.5440     0.1720 C.ar  1 <1>  -0.1430 
 16 C        4.4250    -0.7640    -0.4220 C.3   1 <1>  -0.2400 
 17 C        6.3860     2.1080    -0.3340 C.ar  1 <1>  -0.1500 
 18 C        4.9130     1.7360     1.5120 C.ar  1 <1>  -0.1500 
 19 C        7.2230     2.8480     0.4830 C.ar  1 <1>  -0.1500 
 20 C        5.7480     2.4760     2.3320 C.ar  1 <1>  -0.1500 
 21 C        6.9050     3.0320     1.8170 C.ar  1 <1>  -0.1500 
 22 H        3.1100     3.1810    -0.6170 H     1 <1>   0.1500 
 23 H        1.1080     4.8240    -0.6580 H     1 <1>   0.0800 
 24 H       -2.0020     3.8360     1.6790 H     1 <1>   0.0800 
 25 H       -0.9360     2.5240     2.1340 H     1 <1>   0.0800 
 26 H       -3.4260     2.7080    -0.1750 H     1 <1>   0.0800 
 27 H       -2.7780     1.2030     0.4350 H     1 <1>   0.0800 
 28 H       -2.6490     1.5760    -1.2620 H     1 <1>   0.0800 
 29 H        2.2450     0.3170    -0.4710 H     1 <1>   0.4000 
 30 H        0.9080     3.9450     1.8840 H     1 <1>   0.0800 
 31 H       -0.1710     5.2500     1.4430 H     1 <1>   0.0800 
 32 H       -1.7190     3.2620    -2.8580 H     1 <1>   0.0800 
 33 H       -0.1390     2.5930    -2.6160 H     1 <1>   0.0800 
 34 H       -0.3120     4.2770    -2.9910 H     1 <1>   0.0800 
 35 H       -1.3780     5.8860    -1.4620 H     1 <1>   0.0800 
 36 H       -2.0010     5.4460     0.0940 H     1 <1>   0.0800 
 37 H       -2.7620     4.8390    -1.3380 H     1 <1>   0.0800 
 38 H        4.5900     0.8830    -1.7680 H     1 <1>   0.0800 
 39 H        4.1160    -0.9520     0.5900 H     1 <1>   0.0800 
 40 H        5.4470    -1.0770    -0.5310 H     1 <1>   0.0800 
 41 H        3.8160    -1.3340    -1.0980 H     1 <1>   0.0800 
 42 H        6.6460     1.9740    -1.3690 H     1 <1>   0.1500 
 43 H        4.0100     1.3100     1.9150 H     1 <1>   0.1500 
 44 H        8.1220     3.2810     0.0810 H     1 <1>   0.1500 
 45 H        5.4950     2.6170     3.3670 H     1 <1>   0.1500 
 46 H        7.5550     3.6070     2.4530 H     1 <1>   0.1500 
@<TRIPOS>BOND
  1   1   2  2   
  2   2   3  1   
  3   2   4  1   
  4   3   5  2   
  5   3   6  1   
  6   4   7  1   
  7   4   8  1   
  8   4   9  1   
  9   5  10  1   
 10   5  22  1   
 11   6   7  1   
 12   6  11  1   
 13   6  23  1   
 14   7  12  1   
 15   7  13  1   
 16   8  11  1   
 17   8  24  1   
 18   8  25  1   
 19   9  26  1   
 20   9  27  1   
 21   9  28  1   
 22  10  14  1   
 23  10  29  1   
 24  11  30  1   
 25  11  31  1   
 26  12  32  1   
 27  12  33  1   
 28  12  34  1   
 29  13  35  1   
 30  13  36  1   
 31  13  37  1   
 32  14  15  1   
 33  14  16  1   
 34  14  38  1   
 35  15  17  ar  
 36  15  18  ar  
 37  16  39  1   
 38  16  40  1   
 39  16  41  1   
 40  17  19  ar  
 41  17  42  1   
 42  18  20  ar  
 43  18  43  1   
 44  19  21  ar  
 45  19  44  1   
 46  20  21  ar  
 47  20  45  1   
 48  21  46  1   
@<TRIPOS>SUBSTRUCTURE
  1 ****   5 GROUP 4 **** **** 0

# MOE 2024.06 (io_trps.svl 2023.06)
