@<TRIPOS>MOLECULE
NONAME
53 55 1 0 0 
SMALL
USER_CHARGES


@<TRIPOS>ATOM
  1 O        0.4010    -1.1420    -1.8870 O.2   1 <1>  -0.5700 
  2 C       -0.0430    -2.0460    -1.2190 C.2   1 <1>   0.4950 
  3 C        0.7690    -2.8830    -0.3870 C.2   1 <1>   0.0290 
  4 C       -1.5430    -2.2480    -1.3280 C.3   1 <1>  -0.0990 
  5 C        0.1380    -3.9650     0.3210 C.2   1 <1>   0.4950 
  6 C        2.1220    -2.6250    -0.2960 C.2   1 <1>  -0.0500 
  7 C       -2.1160    -2.8980    -0.0700 C.3   1 <1>   0.0640 
  8 O        0.7200    -4.7640     1.0210 O.2   1 <1>  -0.5700 
  9 C       -1.3600    -4.1920     0.2250 C.3   1 <1>  -0.0990 
 10 N        3.0250    -3.3140     0.4410 N.pl3 1 <1>  -0.8690 
 11 C       -3.6170    -3.1430    -0.2020 C.ar  1 <1>  -0.1430 
 12 C        4.4770    -3.0350     0.5370 C.3   1 <1>   0.2090 
 13 C       -4.4930    -2.5100     0.6700 C.ar  1 <1>  -0.1500 
 14 C       -4.1350    -3.9830    -1.1800 C.ar  1 <1>  -0.1500 
 15 C        5.2640    -4.1910    -0.0750 C.3   1 <1>  -0.0170 
 16 C       -5.8610    -2.7060     0.5740 C.ar  1 <1>   0.0830 
 17 C       -5.5000    -4.1980    -1.2740 C.ar  1 <1>  -0.1500 
 18 C        6.7570    -3.9200     0.0170 C.ar  1 <1>  -0.1430 
 19 O       -6.6490    -2.0210     1.4390 O.3   1 <1>  -0.3620 
 20 C       -6.3690    -3.5790    -0.3930 C.ar  1 <1>   0.0830 
 21 C        7.4080    -3.2380    -1.0000 C.ar  1 <1>  -0.1500 
 22 C        7.4800    -4.3480     1.1200 C.ar  1 <1>  -0.1500 
 23 C       -7.5230    -1.0670     0.8750 C.3   1 <1>   0.0400 
 24 O       -7.6890    -3.8630    -0.5150 O.3   1 <1>  -0.3630 
 25 C        8.7660    -2.9840    -0.9140 C.ar  1 <1>  -0.1500 
 26 C        8.8390    -4.0950     1.2060 C.ar  1 <1>  -0.1500 
 27 C       -8.2830    -4.5550     0.5610 C.3   1 <1>   0.0400 
 28 C        9.4830    -3.4130     0.1890 C.ar  1 <1>  -0.1500 
 29 H       -1.7410    -2.8510    -2.1940 H     1 <1>   0.0800 
 30 H       -2.0170    -1.2930    -1.4770 H     1 <1>   0.0800 
 31 H        2.5200    -1.7940    -0.8620 H     1 <1>   0.1500 
 32 H       -1.9500    -2.2240     0.7550 H     1 <1>   0.0800 
 33 H       -1.7140    -4.5990     1.1560 H     1 <1>   0.0800 
 34 H       -1.5410    -4.9240    -0.5400 H     1 <1>   0.0800 
 35 H        2.6930    -4.1240     0.9990 H     1 <1>   0.4000 
 36 H        4.7490    -2.9110     1.5710 H     1 <1>   0.0800 
 37 H        4.7080    -2.1220     0.0140 H     1 <1>   0.0800 
 38 H       -4.1300    -1.8490     1.4360 H     1 <1>   0.1500 
 39 H       -3.4870    -4.4830    -1.8770 H     1 <1>   0.1500 
 40 H        4.9800    -4.3090    -1.1060 H     1 <1>   0.0800 
 41 H        5.0280    -5.1020     0.4450 H     1 <1>   0.0800 
 42 H       -5.8990    -4.8520    -2.0280 H     1 <1>   0.1500 
 43 H        6.8600    -2.9000    -1.8620 H     1 <1>   0.1500 
 44 H        6.9900    -4.8790     1.9160 H     1 <1>   0.1500 
 45 H       -7.9890    -0.5220     1.6760 H     1 <1>   0.0800 
 46 H       -8.2720    -1.5700     0.2910 H     1 <1>   0.0800 
 47 H       -6.9530    -0.3980     0.2550 H     1 <1>   0.0800 
 48 H        9.2650    -2.4540    -1.7070 H     1 <1>   0.1500 
 49 H        9.3940    -4.4300     2.0650 H     1 <1>   0.1500 
 50 H       -9.2910    -4.8060     0.2840 H     1 <1>   0.0800 
 51 H       -8.2900    -3.9250     1.4320 H     1 <1>   0.0800 
 52 H       -7.7190    -5.4510     0.7520 H     1 <1>   0.0800 
 53 H       10.5380    -3.2170     0.2560 H     1 <1>   0.1500 
@<TRIPOS>BOND
  1   1   2  2   
  2   2   3  1   
  3   2   4  1   
  4   3   5  1   
  5   3   6  2   
  6   4   7  1   
  7   4  29  1   
  8   4  30  1   
  9   5   8  2   
 10   5   9  1   
 11   6  10  1   
 12   6  31  1   
 13   7   9  1   
 14   7  11  1   
 15   7  32  1   
 16   9  33  1   
 17   9  34  1   
 18  10  12  1   
 19  10  35  1   
 20  11  13  ar  
 21  11  14  ar  
 22  12  15  1   
 23  12  36  1   
 24  12  37  1   
 25  13  16  ar  
 26  13  38  1   
 27  14  17  ar  
 28  14  39  1   
 29  15  18  1   
 30  15  40  1   
 31  15  41  1   
 32  16  19  1   
 33  16  20  ar  
 34  17  20  ar  
 35  17  42  1   
 36  18  21  ar  
 37  18  22  ar  
 38  19  23  1   
 39  20  24  1   
 40  21  25  ar  
 41  21  43  1   
 42  22  26  ar  
 43  22  44  1   
 44  23  45  1   
 45  23  46  1   
 46  23  47  1   
 47  24  27  1   
 48  25  28  ar  
 49  25  48  1   
 50  26  28  ar  
 51  26  49  1   
 52  27  50  1   
 53  27  51  1   
 54  27  52  1   
 55  28  53  1   
@<TRIPOS>SUBSTRUCTURE
  1 ****   5 GROUP 4 **** **** 0

# MOE 2024.06 (io_trps.svl 2023.06)
