@<TRIPOS>MOLECULE
NONAME
48 49 1 0 0 
SMALL
USER_CHARGES


@<TRIPOS>ATOM
  1 O        0.0830    -3.5220    -1.3130 O.2   1 <1>  -0.5700 
  2 C        0.0090    -2.7450    -0.3980 C.2   1 <1>   0.6590 
  3 O       -1.0080    -1.9100    -0.2480 O.3   1 <1>  -0.4300 
  4 C        1.1030    -2.6590     0.6620 C.3   1 <1>  -0.0190 
  5 C       -2.0780    -1.8850    -1.1650 C.3   1 <1>   0.1200 
  6 C        2.3570    -1.9700     0.0920 C.3   1 <1>  -0.1600 
  7 C        1.4630    -4.0520     1.2160 C.3   1 <1>  -0.1600 
  8 C       -3.0680    -0.8190    -0.7070 C.3   1 <1>  -0.2400 
  9 C        3.5070    -1.9500     1.0960 C.3   1 <1>   0.3430 
 10 C        2.6280    -3.9950     2.2020 C.3   1 <1>   0.3430 
 11 N        3.7890    -3.3410     1.5490 N.4   1 <1>  -0.9590 
 12 C        5.0220    -3.4230     2.3720 C.3   1 <1>   0.4860 
 13 C        6.1990    -3.0260     1.5060 C.ar  1 <1>  -0.1440 
 14 C        6.5120    -3.7590     0.3650 C.ar  1 <1>   0.0820 
 15 C        6.9620    -1.9220     1.8470 C.ar  1 <1>  -0.1500 
 16 O        5.7180    -4.8250     0.0660 O.3   1 <1>  -0.3620 
 17 C        7.5960    -3.3750    -0.4210 C.ar  1 <1>  -0.1500 
 18 C        8.0360    -1.5360     1.0630 C.ar  1 <1>   0.0820 
 19 C        6.0640    -5.7210    -0.9720 C.3   1 <1>   0.0400 
 20 C        8.3530    -2.2690    -0.0750 C.ar  1 <1>  -0.1500 
 21 O        8.7170    -0.4370     1.4740 O.3   1 <1>  -0.3620 
 22 C        9.8690     0.0060     0.7900 C.3   1 <1>   0.0400 
 23 H        0.7230    -2.0610     1.4730 H     1 <1>   0.0800 
 24 H       -2.5380    -2.8590    -1.1820 H     1 <1>   0.0800 
 25 H       -1.6860    -1.6550    -2.1420 H     1 <1>   0.0800 
 26 H        2.1150    -0.9580    -0.1830 H     1 <1>   0.0800 
 27 H        2.6790    -2.4760    -0.8020 H     1 <1>   0.0800 
 28 H        1.7230    -4.7150     0.4070 H     1 <1>   0.0800 
 29 H        0.6040    -4.4740     1.7090 H     1 <1>   0.0800 
 30 H       -3.4450    -1.0570     0.2710 H     1 <1>   0.0800 
 31 H       -3.8970    -0.7790    -1.3910 H     1 <1>   0.0800 
 32 H       -2.5950     0.1460    -0.6890 H     1 <1>   0.0800 
 33 H        3.2440    -1.3350     1.9420 H     1 <1>   0.0800 
 34 H        4.3820    -1.5270     0.6270 H     1 <1>   0.0800 
 35 H        2.8900    -4.9970     2.5060 H     1 <1>   0.0800 
 36 H        2.3370    -3.4360     3.0770 H     1 <1>   0.0800 
 37 H        4.0380    -3.8870     0.7050 H     1 <1>   0.4500 
 38 H        5.1700    -4.4350     2.7150 H     1 <1>   0.0800 
 39 H        4.9480    -2.7730     3.2280 H     1 <1>   0.0800 
 40 H        6.7460    -1.3390     2.7250 H     1 <1>   0.1500 
 41 H        7.8680    -3.9170    -1.3080 H     1 <1>   0.1500 
 42 H        6.0400    -5.1990    -1.9120 H     1 <1>   0.0800 
 43 H        5.3460    -6.5210    -0.9840 H     1 <1>   0.0800 
 44 H        7.0460    -6.1190    -0.7800 H     1 <1>   0.0800 
 45 H        9.1820    -1.9950    -0.7000 H     1 <1>   0.1500 
 46 H       10.2530     0.8680     1.3060 H     1 <1>   0.0800 
 47 H        9.5990     0.2740    -0.2160 H     1 <1>   0.0800 
 48 H       10.6040    -0.7790     0.7970 H     1 <1>   0.0800 
@<TRIPOS>BOND
  1   1   2  2   
  2   2   3  1   
  3   2   4  1   
  4   3   5  1   
  5   4   6  1   
  6   4   7  1   
  7   4  23  1   
  8   5   8  1   
  9   5  24  1   
 10   5  25  1   
 11   6   9  1   
 12   6  26  1   
 13   6  27  1   
 14   7  10  1   
 15   7  28  1   
 16   7  29  1   
 17   8  30  1   
 18   8  31  1   
 19   8  32  1   
 20   9  11  1   
 21   9  33  1   
 22   9  34  1   
 23  10  11  1   
 24  10  35  1   
 25  10  36  1   
 26  11  12  1   
 27  11  37  1   
 28  12  13  1   
 29  12  38  1   
 30  12  39  1   
 31  13  14  ar  
 32  13  15  ar  
 33  14  16  1   
 34  14  17  ar  
 35  15  18  ar  
 36  15  40  1   
 37  16  19  1   
 38  17  20  ar  
 39  17  41  1   
 40  18  20  ar  
 41  18  21  1   
 42  19  42  1   
 43  19  43  1   
 44  19  44  1   
 45  20  45  1   
 46  21  22  1   
 47  22  46  1   
 48  22  47  1   
 49  22  48  1   
@<TRIPOS>SUBSTRUCTURE
  1 ****   9 GROUP 4 **** **** 0

# MOE 2024.06 (io_trps.svl 2023.06)
