@<TRIPOS>MOLECULE
NONAME
28 29 1 0 0 
SMALL
USER_CHARGES


@<TRIPOS>ATOM
  1 O        0.7450    -0.0490     1.0300 O.2   1 <1>  -0.5700 
  2 C        1.6850     0.6520     0.7070 C.2   1 <1>   0.6160 
  3 N        1.6500     1.9710     1.0590 N.am  1 <1>  -0.4940 
  4 C        2.8440     0.1660    -0.0170 C.2   1 <1>  -0.1240 
  5 C        2.7110     2.8380     0.7440 C.2   1 <1>  -0.0880 
  6 C        3.8860     1.0010    -0.3090 C.2   1 <1>  -0.1690 
  7 C        2.7980    -1.3130    -0.4130 C.3   1 <1>  -0.0220 
  8 N        3.8040     2.3580     0.0760 N.pl3 1 <1>   0.6010 
  9 C        2.9250     4.1530     0.9670 C.2   1 <1>  -0.1500 
 10 C        5.1830     0.6150    -1.0250 C.3   1 <1>  -0.1020 
 11 C        3.2090    -2.1950     0.7670 C.3   1 <1>   0.1200 
 12 N        4.7070     3.3550    -0.1280 N.2   1 <1>  -0.7070 
 13 C        4.1720     4.4080     0.4040 C.2   1 <1>   0.1080 
 14 O        3.1660    -3.5210     0.3730 O.3   1 <1>  -0.6800 
 15 C        4.8610     5.7530     0.3940 C.3   1 <1>  -0.0590 
 16 H        0.8210     2.2860     1.5650 H     1 <1>   0.3700 
 17 H        3.4420    -1.5120    -1.2480 H     1 <1>   0.0800 
 18 H        1.7990    -1.5680    -0.7200 H     1 <1>   0.0800 
 19 H        2.2890     4.8630     1.4630 H     1 <1>   0.1500 
 20 H        5.2230     1.0950    -1.9870 H     1 <1>   0.0800 
 21 H        5.2910    -0.4420    -1.1640 H     1 <1>   0.0800 
 22 H        6.0290     0.9500    -0.4490 H     1 <1>   0.0800 
 23 H        2.5440    -2.0650     1.6040 H     1 <1>   0.0800 
 24 H        4.2170    -1.9720     1.0730 H     1 <1>   0.0800 
 25 H        2.2410    -3.8030     0.2270 H     1 <1>   0.4000 
 26 H        4.2560     6.4930     0.8840 H     1 <1>   0.0800 
 27 H        5.0370     6.0580    -0.6210 H     1 <1>   0.0800 
 28 H        5.8050     5.6770     0.9020 H     1 <1>   0.0800 
@<TRIPOS>BOND
  1   1   2  2   
  2   2   3  am  
  3   2   4  1   
  4   3   5  1   
  5   3  16  1   
  6   4   6  2   
  7   4   7  1   
  8   5   8  1   
  9   5   9  2   
 10   6   8  1   
 11   6  10  1   
 12   7  11  1   
 13   7  17  1   
 14   7  18  1   
 15   8  12  1   
 16   9  13  1   
 17   9  19  1   
 18  10  20  1   
 19  10  21  1   
 20  10  22  1   
 21  11  14  1   
 22  11  23  1   
 23  11  24  1   
 24  12  13  2   
 25  13  15  1   
 26  14  25  1   
 27  15  26  1   
 28  15  27  1   
 29  15  28  1   
@<TRIPOS>SUBSTRUCTURE
  1 ****   6 GROUP 4 **** **** 0

# MOE 2024.06 (io_trps.svl 2023.06)
