@<TRIPOS>MOLECULE
NONAME
36 36 1 0 0 
SMALL
USER_CHARGES


@<TRIPOS>ATOM
  1 S       -0.5900     0.0060    -0.0350 S.3   1 <1>  -0.4100 
  2 C       -2.1320    -0.9410    -0.0310 C.3   1 <1>   0.0700 
  3 C       -3.2950     0.0520    -0.0260 C.3   1 <1>  -0.1600 
  4 C       -4.6460    -0.6750    -0.0230 C.3   1 <1>  -0.1600 
  5 C       -5.8100     0.3240    -0.0170 C.3   1 <1>  -0.1600 
  6 C       -7.1620    -0.4030    -0.0140 C.3   1 <1>  -0.1600 
  7 C       -8.3250     0.5900    -0.0090 C.3   1 <1>   0.1200 
  8 O       -9.5270    -0.1440    -0.0060 O.3   1 <1>  -0.3630 
  9 C      -10.7330     0.4780    -0.0010 C.ar  1 <1>   0.0820 
 10 C      -11.8540    -0.3340     0.0010 C.ar  1 <1>  -0.1500 
 11 C      -10.8910     1.8620     0.0010 C.ar  1 <1>  -0.1500 
 12 C      -13.1270     0.2110     0.0060 C.ar  1 <1>   0.0820 
 13 C      -12.1610     2.4130     0.0060 C.ar  1 <1>  -0.1500 
 14 O      -14.1670    -0.6610     0.0080 O.3   1 <1>  -0.3630 
 15 C      -13.2780     1.5950     0.0080 C.ar  1 <1>  -0.1500 
 16 C      -15.5020    -0.2100     0.0130 C.3   1 <1>   0.0400 
 17 H        0.3600    -0.9750    -0.0400 H     1 <1>   0.1800 
 18 H       -2.1290    -1.5570     0.8510 H     1 <1>   0.0800 
 19 H       -2.1350    -1.5540    -0.9160 H     1 <1>   0.0800 
 20 H       -3.2250     0.6800    -0.8980 H     1 <1>   0.0800 
 21 H       -3.2190     0.6770     0.8470 H     1 <1>   0.0800 
 22 H       -4.7120    -1.3050     0.8490 H     1 <1>   0.0800 
 23 H       -4.7180    -1.3020    -0.8950 H     1 <1>   0.0800 
 24 H       -5.7440     0.9540    -0.8890 H     1 <1>   0.0800 
 25 H       -5.7380     0.9510     0.8560 H     1 <1>   0.0800 
 26 H       -7.2320    -1.0270     0.8600 H     1 <1>   0.0800 
 27 H       -7.2380    -1.0240    -0.8890 H     1 <1>   0.0800 
 28 H       -8.3050     1.2040    -0.8920 H     1 <1>   0.0800 
 29 H       -8.2990     1.2020     0.8760 H     1 <1>   0.0800 
 30 H      -11.7350    -1.4010    -0.0010 H     1 <1>   0.1500 
 31 H      -10.0450     2.5220     0.0000 H     1 <1>   0.1500 
 32 H      -12.2810     3.4830     0.0080 H     1 <1>   0.1500 
 33 H      -14.2500     2.0500     0.0120 H     1 <1>   0.1500 
 34 H      -16.1460    -1.0710     0.0140 H     1 <1>   0.0800 
 35 H      -15.6760     0.3760    -0.8730 H     1 <1>   0.0800 
 36 H      -15.6700     0.3730     0.9010 H     1 <1>   0.0800 
@<TRIPOS>BOND
  1   1   2  1   
  2   1  17  1   
  3   2   3  1   
  4   2  18  1   
  5   2  19  1   
  6   3   4  1   
  7   3  20  1   
  8   3  21  1   
  9   4   5  1   
 10   4  22  1   
 11   4  23  1   
 12   5   6  1   
 13   5  24  1   
 14   5  25  1   
 15   6   7  1   
 16   6  26  1   
 17   6  27  1   
 18   7   8  1   
 19   7  28  1   
 20   7  29  1   
 21   8   9  1   
 22   9  10  ar  
 23   9  11  ar  
 24  10  12  ar  
 25  10  30  1   
 26  11  13  ar  
 27  11  31  1   
 28  12  14  1   
 29  12  15  ar  
 30  13  15  ar  
 31  13  32  1   
 32  14  16  1   
 33  15  33  1   
 34  16  34  1   
 35  16  35  1   
 36  16  36  1   
@<TRIPOS>SUBSTRUCTURE
  1 ****   8 GROUP 4 **** **** 0

# MOE 2024.06 (io_trps.svl 2023.06)
