@<TRIPOS>MOLECULE
NONAME
47 49 1 0 0 
SMALL
USER_CHARGES


@<TRIPOS>ATOM
  1 O      -10.6350     2.7870     0.0260 O.3   1 <1>  -0.3630 
  2 C      -11.8540     2.1930     0.0750 C.ar  1 <1>   0.0830 
  3 C       -9.4550     2.0550     0.2530 C.3   1 <1>   0.1200 
  4 C      -12.9530     3.0090    -0.1510 C.ar  1 <1>  -0.1500 
  5 C      -12.0440     0.8340     0.3380 C.ar  1 <1>  -0.1500 
  6 C       -8.2740     3.0170     0.1360 C.3   1 <1>  -0.1600 
  7 C      -14.2230     2.4650    -0.1130 C.ar  1 <1>  -0.1440 
  8 C      -13.3230     0.3010     0.3730 C.ar  1 <1>  -0.1500 
  9 C       -6.9530     2.2980     0.4230 C.3   1 <1>   0.1100 
 10 C      -14.4060     1.1300     0.1450 C.ar  1 <1>  -0.1430 
 11 C      -15.5400     3.1680    -0.3280 C.3   1 <1>  -0.0170 
 12 N       -5.8080     3.1730     0.1240 N.3   1 <1>  -0.8100 
 13 C      -15.8690     0.7660     0.1370 C.3   1 <1>  -0.0170 
 14 C      -16.5440     2.0100    -0.4680 C.3   1 <1>  -0.1600 
 15 C       -5.6470     4.2730     1.1120 C.3   1 <1>   0.1100 
 16 C       -4.5520     2.3940     0.0150 C.3   1 <1>   0.1100 
 17 C       -4.3990     5.1480     0.8340 C.3   1 <1>   0.3430 
 18 C       -3.3400     3.2790    -0.3700 C.3   1 <1>   0.3430 
 19 N       -3.7240     4.7280    -0.4370 N.4   1 <1>  -0.9590 
 20 C       -2.6060     5.6250    -0.8470 C.3   1 <1>   0.2630 
 21 H       -9.3920     1.2770    -0.4870 H     1 <1>   0.0800 
 22 H       -9.5080     1.6310     1.2410 H     1 <1>   0.0800 
 23 H      -12.8070     4.0530    -0.3530 H     1 <1>   0.1500 
 24 H      -11.2150     0.1780     0.5150 H     1 <1>   0.1500 
 25 H       -8.4220     3.8160     0.8380 H     1 <1>   0.0800 
 26 H       -8.2520     3.4150    -0.8630 H     1 <1>   0.0800 
 27 H      -13.4740    -0.7450     0.5750 H     1 <1>   0.1500 
 28 H       -6.9030     1.4270    -0.2090 H     1 <1>   0.0800 
 29 H       -6.9190     1.9710     1.4500 H     1 <1>   0.0800 
 30 H      -15.5200     3.7830    -1.2110 H     1 <1>   0.0800 
 31 H      -15.7690     3.7690     0.5340 H     1 <1>   0.0800 
 32 H      -16.2030     0.6050     1.1470 H     1 <1>   0.0800 
 33 H      -16.0550    -0.1120    -0.4560 H     1 <1>   0.0800 
 34 H      -16.7210     1.8320    -1.5140 H     1 <1>   0.0800 
 35 H      -17.4800     2.2310     0.0140 H     1 <1>   0.0800 
 36 H       -5.5790     3.8680     2.1070 H     1 <1>   0.0800 
 37 H       -6.5130     4.9110     1.0840 H     1 <1>   0.0800 
 38 H       -4.6680     1.6280    -0.7340 H     1 <1>   0.0800 
 39 H       -4.3460     1.9000     0.9500 H     1 <1>   0.0800 
 40 H       -3.7130     5.0590     1.6610 H     1 <1>   0.0800 
 41 H       -4.7030     6.1790     0.7680 H     1 <1>   0.0800 
 42 H       -2.9660     2.9580    -1.3280 H     1 <1>   0.0800 
 43 H       -2.5540     3.1370     0.3530 H     1 <1>   0.0800 
 44 H       -4.4880     4.7450    -1.1340 H     1 <1>   0.4500 
 45 H       -1.8170     5.6000    -0.1140 H     1 <1>   0.0800 
 46 H       -2.9580     6.6390    -0.9430 H     1 <1>   0.0800 
 47 H       -2.2060     5.3110    -1.7980 H     1 <1>   0.0800 
@<TRIPOS>BOND
  1   1   2  1   
  2   1   3  1   
  3   2   4  ar  
  4   2   5  ar  
  5   3   6  1   
  6   3  21  1   
  7   3  22  1   
  8   4   7  ar  
  9   4  23  1   
 10   5   8  ar  
 11   5  24  1   
 12   6   9  1   
 13   6  25  1   
 14   6  26  1   
 15   7  10  ar  
 16   7  11  1   
 17   8  10  ar  
 18   8  27  1   
 19   9  12  1   
 20   9  28  1   
 21   9  29  1   
 22  10  13  1   
 23  11  14  1   
 24  11  30  1   
 25  11  31  1   
 26  12  15  1   
 27  12  16  1   
 28  13  14  1   
 29  13  32  1   
 30  13  33  1   
 31  14  34  1   
 32  14  35  1   
 33  15  17  1   
 34  15  36  1   
 35  15  37  1   
 36  16  18  1   
 37  16  38  1   
 38  16  39  1   
 39  17  19  1   
 40  17  40  1   
 41  17  41  1   
 42  18  19  1   
 43  18  42  1   
 44  18  43  1   
 45  19  20  1   
 46  19  44  1   
 47  20  45  1   
 48  20  46  1   
 49  20  47  1   
@<TRIPOS>SUBSTRUCTURE
  1 ****   3 GROUP 4 **** **** 0

# MOE 2024.06 (io_trps.svl 2023.06)
