@<TRIPOS>MOLECULE
NONAME
35 36 1 0 0 
SMALL
USER_CHARGES


@<TRIPOS>ATOM
  1 O        0.7690     0.3440     0.5540 O.2   1 <1>  -0.5700 
  2 C        1.7070    -0.3790     0.3120 C.2   1 <1>   0.4950 
  3 C        3.0570     0.0110     0.4720 C.2   1 <1>  -0.1360 
  4 C        1.4220    -1.7730    -0.2190 C.3   1 <1>  -0.0990 
  5 C        4.1340    -0.7790     0.2340 C.2   1 <1>  -0.0380 
  6 C        2.5280    -2.7840     0.1560 C.3   1 <1>   0.0000 
  7 N        5.4200    -0.3260     0.3780 N.pl3 1 <1>  -0.8690 
  8 C        3.9200    -2.2220    -0.2250 C.3   1 <1>  -0.0220 
  9 C        2.4760    -3.0750     1.6690 C.3   1 <1>  -0.2400 
 10 C        2.2830    -4.1050    -0.5910 C.3   1 <1>  -0.2400 
 11 C        6.6820    -1.0320     0.0700 C.3   1 <1>   0.3530 
 12 C        7.7750     0.0010    -0.1180 C.ar  1 <1>  -0.1430 
 13 C        7.8010     0.7790    -1.2660 C.ar  1 <1>   0.1600 
 14 C        8.7570     0.1880     0.8350 C.ar  1 <1>  -0.1500 
 15 N        8.7120     1.7000    -1.5370 N.ar  1 <1>  -0.6200 
 16 C        9.7130     1.1450     0.5690 C.ar  1 <1>  -0.1500 
 17 C        9.6460     1.8610    -0.6140 C.ar  1 <1>   0.1600 
 18 H        3.1930     1.0210     0.8040 H     1 <1>   0.1500 
 19 H        1.3390    -1.6990    -1.2880 H     1 <1>   0.0800 
 20 H        0.4730    -2.1040     0.1610 H     1 <1>   0.0800 
 21 H        5.5890     0.6350     0.7030 H     1 <1>   0.4000 
 22 H        4.6710    -2.8590     0.2070 H     1 <1>   0.0800 
 23 H        4.0440    -2.2480    -1.2930 H     1 <1>   0.0800 
 24 H        2.6620    -2.1850     2.2440 H     1 <1>   0.0800 
 25 H        3.2180    -3.8050     1.9390 H     1 <1>   0.0800 
 26 H        1.5100    -3.4580     1.9480 H     1 <1>   0.0800 
 27 H        2.3040    -3.9500    -1.6560 H     1 <1>   0.0800 
 28 H        1.3230    -4.5150    -0.3290 H     1 <1>   0.0800 
 29 H        3.0390    -4.8280    -0.3390 H     1 <1>   0.0800 
 30 H        6.5690    -1.6130    -0.8290 H     1 <1>   0.0800 
 31 H        6.9270    -1.6940     0.8830 H     1 <1>   0.0800 
 32 H        7.0260     0.6370    -2.0010 H     1 <1>   0.1500 
 33 H        8.7810    -0.3840     1.7470 H     1 <1>   0.1500 
 34 H       10.5040     1.3380     1.2700 H     1 <1>   0.1500 
 35 H       10.3990     2.6050    -0.8110 H     1 <1>   0.1500 
@<TRIPOS>BOND
  1   1   2  2   
  2   2   3  1   
  3   2   4  1   
  4   3   5  2   
  5   3  18  1   
  6   4   6  1   
  7   4  19  1   
  8   4  20  1   
  9   5   7  1   
 10   5   8  1   
 11   6   8  1   
 12   6   9  1   
 13   6  10  1   
 14   7  11  1   
 15   7  21  1   
 16   8  22  1   
 17   8  23  1   
 18   9  24  1   
 19   9  25  1   
 20   9  26  1   
 21  10  27  1   
 22  10  28  1   
 23  10  29  1   
 24  11  12  1   
 25  11  30  1   
 26  11  31  1   
 27  12  13  ar  
 28  12  14  ar  
 29  13  15  ar  
 30  13  32  1   
 31  14  16  ar  
 32  14  33  1   
 33  15  17  ar  
 34  16  17  ar  
 35  16  34  1   
 36  17  35  1   
@<TRIPOS>SUBSTRUCTURE
  1 ****   7 GROUP 4 **** **** 0

# MOE 2024.06 (io_trps.svl 2023.06)
