@<TRIPOS>MOLECULE
NONAME
36 36 1 0 0 
SMALL
USER_CHARGES


@<TRIPOS>ATOM
  1 O       -5.7300     3.0540     2.9180 O.3   1 <1>  -0.6800 
  2 C       -6.5710     2.1500     2.2950 C.3   1 <1>   0.3200 
  3 C       -5.8980     1.7560     1.0280 C.1   1 <1>  -0.2000 
  4 C       -5.2530     1.5350     0.0550 C.1   1 <1>  -0.2000 
  5 C       -4.2890     1.4080    -1.0640 C.3   1 <1>   0.5430 
  6 N       -3.0570     2.0930    -0.6140 N.4   1 <1>  -0.9590 
  7 C       -3.2380     3.5720    -0.5900 C.3   1 <1>   0.4230 
  8 C       -1.8520     1.5430    -1.2970 C.3   1 <1>   0.4860 
  9 C       -2.8860     4.2230    -1.9270 C.3   1 <1>  -0.2400 
 10 C       -2.4370     4.1740     0.5580 C.3   1 <1>  -0.2400 
 11 C       -0.6660     1.6060    -0.3560 C.ar  1 <1>  -0.1430 
 12 C       -0.6700     0.8870     0.8320 C.ar  1 <1>  -0.1500 
 13 C        0.4370     2.3830    -0.6790 C.ar  1 <1>  -0.1500 
 14 C        0.4110     0.9600     1.6930 C.ar  1 <1>  -0.1500 
 15 C        1.5160     2.4540     0.1830 C.ar  1 <1>  -0.1500 
 16 C        1.5030     1.7450     1.3700 C.ar  1 <1>  -0.1500 
 17 H       -6.1200     3.3490     3.7650 H     1 <1>   0.4000 
 18 H       -7.5150     2.6290     2.1010 H     1 <1>   0.0800 
 19 H       -6.7090     1.3000     2.9410 H     1 <1>   0.0800 
 20 H       -4.6790     1.8640    -1.9590 H     1 <1>   0.0800 
 21 H       -4.0980     0.3630    -1.2500 H     1 <1>   0.0800 
 22 H       -2.9610     1.8350     0.3750 H     1 <1>   0.4500 
 23 H       -4.2760     3.7850    -0.3830 H     1 <1>   0.0800 
 24 H       -1.6420     2.0830    -2.2040 H     1 <1>   0.0800 
 25 H       -2.0140     0.5090    -1.5540 H     1 <1>   0.0800 
 26 H       -1.8290     4.1870    -2.1190 H     1 <1>   0.0800 
 27 H       -3.1700     5.2600    -1.8950 H     1 <1>   0.0800 
 28 H       -3.4240     3.7630    -2.7350 H     1 <1>   0.0800 
 29 H       -1.3780     4.1020     0.3950 H     1 <1>   0.0800 
 30 H       -2.6920     3.6960     1.4880 H     1 <1>   0.0800 
 31 H       -2.6810     5.2170     0.6520 H     1 <1>   0.0800 
 32 H       -1.5020     0.2610     1.1060 H     1 <1>   0.1500 
 33 H        0.4730     2.9430    -1.5990 H     1 <1>   0.1500 
 34 H        0.4080     0.4050     2.6160 H     1 <1>   0.1500 
 35 H        2.3710     3.0600    -0.0670 H     1 <1>   0.1500 
 36 H        2.3430     1.8010     2.0410 H     1 <1>   0.1500 
@<TRIPOS>BOND
  1   1   2  1   
  2   1  17  1   
  3   2   3  1   
  4   2  18  1   
  5   2  19  1   
  6   3   4  3   
  7   4   5  1   
  8   5   6  1   
  9   5  20  1   
 10   5  21  1   
 11   6   7  1   
 12   6   8  1   
 13   6  22  1   
 14   7   9  1   
 15   7  10  1   
 16   7  23  1   
 17   8  11  1   
 18   8  24  1   
 19   8  25  1   
 20   9  26  1   
 21   9  27  1   
 22   9  28  1   
 23  10  29  1   
 24  10  30  1   
 25  10  31  1   
 26  11  12  ar  
 27  11  13  ar  
 28  12  14  ar  
 29  12  32  1   
 30  13  15  ar  
 31  13  33  1   
 32  14  16  ar  
 33  14  34  1   
 34  15  16  ar  
 35  15  35  1   
 36  16  36  1   
@<TRIPOS>SUBSTRUCTURE
  1 ****   6 GROUP 4 **** **** 0

# MOE 2024.06 (io_trps.svl 2023.06)
