@<TRIPOS>MOLECULE
NONAME
31 32 1 0 0 
SMALL
USER_CHARGES


@<TRIPOS>ATOM
  1 CL       0.5790    -0.2400    -1.5710 Cl    1 <1>  -0.1770 
  2 C        1.9810    -1.1160    -1.0380 C.ar  1 <1>   0.7970 
  3 N        1.7440    -2.2380    -0.4300 N.ar  1 <1>  -0.6200 
  4 N        3.1250    -0.5620    -1.3010 N.ar  1 <1>  -0.6200 
  5 C        2.8350    -2.8580    -0.0490 C.ar  1 <1>   0.7200 
  6 C        4.1250    -1.2760    -0.8710 C.ar  1 <1>   0.7200 
  7 N        4.0530    -2.4200    -0.2490 N.ar  1 <1>  -0.6200 
  8 N        2.6850    -4.0640     0.5990 N.pl3 1 <1>  -0.8380 
  9 N        5.3370    -0.7480    -1.1220 N.pl3 1 <1>  -0.8690 
 10 C        1.3460    -4.6880     0.8470 C.3   1 <1>   0.2090 
 11 C        3.8240    -5.0140     0.8040 C.3   1 <1>   0.2090 
 12 C        6.5560    -1.0120    -0.3460 C.3   1 <1>   0.3470 
 13 C        1.0220    -5.7150    -0.2440 C.3   1 <1>   0.0700 
 14 C        3.8320    -6.0850    -0.2940 C.3   1 <1>   0.0700 
 15 C        7.1390     0.3040     0.1450 C.2   1 <1>  -0.2880 
 16 S        2.2790    -7.0330    -0.2310 S.3   1 <1>  -0.4600 
 17 C        6.5720     1.5190     0.1350 C.2   1 <1>  -0.3000 
 18 H        5.3140     0.1820    -1.5340 H     1 <1>   0.4000 
 19 H        0.5730    -3.9410     0.8780 H     1 <1>   0.0800 
 20 H        1.3540    -5.1770     1.8050 H     1 <1>   0.0800 
 21 H        3.7240    -5.4880     1.7640 H     1 <1>   0.0800 
 22 H        4.7660    -4.4950     0.8010 H     1 <1>   0.0800 
 23 H        7.2670    -1.5070    -0.9840 H     1 <1>   0.0800 
 24 H        6.3480    -1.6530     0.4950 H     1 <1>   0.0800 
 25 H        1.0340    -5.2590    -1.2180 H     1 <1>   0.0800 
 26 H        0.0700    -6.1820    -0.0700 H     1 <1>   0.0800 
 27 H        4.6360    -6.7830    -0.1510 H     1 <1>   0.0800 
 28 H        3.9040    -5.6360    -1.2680 H     1 <1>   0.0800 
 29 H        8.1290     0.1580     0.5410 H     1 <1>   0.1500 
 30 H        7.0590     2.4050     0.5050 H     1 <1>   0.1500 
 31 H        5.5830     1.7380    -0.2290 H     1 <1>   0.1500 
@<TRIPOS>BOND
  1   1   2  1   
  2   2   3  ar  
  3   2   4  ar  
  4   3   5  ar  
  5   4   6  ar  
  6   5   7  ar  
  7   5   8  1   
  8   6   7  ar  
  9   6   9  1   
 10   8  10  1   
 11   8  11  1   
 12   9  12  1   
 13   9  18  1   
 14  10  13  1   
 15  10  19  1   
 16  10  20  1   
 17  11  14  1   
 18  11  21  1   
 19  11  22  1   
 20  12  15  1   
 21  12  23  1   
 22  12  24  1   
 23  13  16  1   
 24  13  25  1   
 25  13  26  1   
 26  14  16  1   
 27  14  27  1   
 28  14  28  1   
 29  15  17  2   
 30  15  29  1   
 31  17  30  1   
 32  17  31  1   
@<TRIPOS>SUBSTRUCTURE
  1 ****   7 GROUP 4 **** **** 0

# MOE 2024.06 (io_trps.svl 2023.06)
