@<TRIPOS>MOLECULE
NONAME
43 45 1 0 0 
SMALL
USER_CHARGES


@<TRIPOS>ATOM
  1 BR       0.3720    -1.3800     2.4390 Br    1 <1>  -0.1110 
  2 C       -1.1950    -1.5570     1.3290 C.ar  1 <1>   0.1110 
  3 C       -1.1770    -2.4720     0.2620 C.ar  1 <1>   0.0280 
  4 C       -2.2830    -0.7650     1.6540 C.ar  1 <1>  -0.1500 
  5 C       -2.3450    -2.5680    -0.5060 C.ar  1 <1>  -0.1500 
  6 C       -0.0040    -3.2530    -0.0320 C.2   1 <1>  -0.1780 
  7 C       -3.4060    -0.9030     0.8660 C.ar  1 <1>   0.0830 
  8 C       -3.4310    -1.7800    -0.1820 C.ar  1 <1>   0.0830 
  9 C        0.1060    -4.5730    -0.3500 C.2   1 <1>   0.0790 
 10 O       -4.5740    -0.2680     0.9630 O.3   1 <1>  -0.3630 
 11 O       -4.6210    -1.7280    -0.7910 O.3   1 <1>  -0.3630 
 12 C       -1.0230    -5.4470    -0.4410 C.1   1 <1>   0.4920 
 13 C        1.3690    -5.2160    -0.6010 C.2   1 <1>   0.6160 
 14 C       -5.4060    -0.7700    -0.0820 C.3   1 <1>   0.4000 
 15 N       -1.9580    -6.1000    -0.4870 N.1   1 <1>  -0.5570 
 16 O        1.4660    -6.1260    -1.4010 O.2   1 <1>  -0.5700 
 17 N        2.4940    -4.8020     0.0560 N.am  1 <1>  -0.7300 
 18 C        3.8630    -5.3090    -0.1740 C.3   1 <1>   0.2200 
 19 C        4.8240    -4.1320    -0.4430 C.3   1 <1>  -0.0800 
 20 C        4.2890    -6.1140     1.0590 C.3   1 <1>  -0.1600 
 21 C        6.2710    -4.6420    -0.5730 C.3   1 <1>  -0.1600 
 22 C        4.4390    -3.3480    -1.7090 C.3   1 <1>  -0.2400 
 23 C        5.7340    -6.6130     0.9240 C.3   1 <1>  -0.1600 
 24 C        6.6980    -5.4500     0.6600 C.3   1 <1>  -0.1600 
 25 H       -2.2640    -0.0760     2.4780 H     1 <1>   0.1500 
 26 H       -2.4160    -3.2340    -1.3460 H     1 <1>   0.1500 
 27 H        0.9000    -2.6720     0.0190 H     1 <1>   0.1500 
 28 H       -6.2680    -1.2520     0.3430 H     1 <1>   0.0800 
 29 H       -5.6820     0.0330    -0.7420 H     1 <1>   0.0800 
 30 H        2.4240    -4.1080     0.7990 H     1 <1>   0.3700 
 31 H        3.8690    -5.9630    -1.0310 H     1 <1>   0.0800 
 32 H        4.7880    -3.4620     0.3990 H     1 <1>   0.0800 
 33 H        4.2120    -5.4990     1.9380 H     1 <1>   0.0800 
 34 H        3.6340    -6.9600     1.1730 H     1 <1>   0.0800 
 35 H        6.3560    -5.2640    -1.4480 H     1 <1>   0.0800 
 36 H        6.9410    -3.8080    -0.6970 H     1 <1>   0.0800 
 37 H        4.4340    -3.9990    -2.5660 H     1 <1>   0.0800 
 38 H        5.1400    -2.5520    -1.8850 H     1 <1>   0.0800 
 39 H        3.4600    -2.9140    -1.6070 H     1 <1>   0.0800 
 40 H        6.0250    -7.1260     1.8250 H     1 <1>   0.0800 
 41 H        5.7940    -7.3170     0.1110 H     1 <1>   0.0800 
 42 H        7.6930    -5.8340     0.5110 H     1 <1>   0.0800 
 43 H        6.7220    -4.8030     1.5210 H     1 <1>   0.0800 
@<TRIPOS>BOND
  1   1   2  1   
  2   2   3  ar  
  3   2   4  ar  
  4   3   5  ar  
  5   3   6  1   
  6   4   7  ar  
  7   4  25  1   
  8   5   8  ar  
  9   5  26  1   
 10   6   9  2   
 11   6  27  1   
 12   7   8  ar  
 13   7  10  1   
 14   8  11  1   
 15   9  12  1   
 16   9  13  1   
 17  10  14  1   
 18  11  14  1   
 19  12  15  3   
 20  13  16  2   
 21  13  17  am  
 22  14  28  1   
 23  14  29  1   
 24  17  18  1   
 25  17  30  1   
 26  18  19  1   
 27  18  20  1   
 28  18  31  1   
 29  19  21  1   
 30  19  22  1   
 31  19  32  1   
 32  20  23  1   
 33  20  33  1   
 34  20  34  1   
 35  21  24  1   
 36  21  35  1   
 37  21  36  1   
 38  22  37  1   
 39  22  38  1   
 40  22  39  1   
 41  23  24  1   
 42  23  40  1   
 43  23  41  1   
 44  24  42  1   
 45  24  43  1   
@<TRIPOS>SUBSTRUCTURE
  1 ****   6 GROUP 4 **** **** 0

# MOE 2024.06 (io_trps.svl 2023.06)
