@<TRIPOS>MOLECULE
NONAME
36 38 1 0 0 
SMALL
USER_CHARGES


@<TRIPOS>ATOM
  1 S        0.3920    -0.1190    -0.2550 S.3   1 <1>  -0.3320 
  2 C        1.8030     0.9750    -0.1270 C.ar  1 <1>   0.7220 
  3 C       -1.0640     0.8440     0.3560 C.3   1 <1>   0.0700 
  4 N        1.5790     2.1900     0.3830 N.ar  1 <1>  -0.3100 
  5 N        2.9330     0.4670    -0.5510 N.ar  1 <1>  -0.6200 
  6 C       -1.5890     1.7060    -0.7920 C.3   1 <1>  -0.2400 
  7 N        2.5750     3.0280     0.4990 N.ar  1 <1>  -0.3100 
  8 C        3.9290     1.3210    -0.4140 C.ar  1 <1>   0.3930 
  9 C        3.7810     2.6110     0.1000 C.ar  1 <1>   0.3100 
 10 O        5.1140     0.8870    -0.8560 O.3   1 <1>  -0.3620 
 11 C        4.9020     3.5150     0.1880 C.ar  1 <1>   0.0000 
 12 C        6.1460     0.6040     0.0500 C.3   1 <1>   0.6490 
 13 C        6.1580     3.0500     0.6050 C.ar  1 <1>   0.1000 
 14 C        4.7690     4.8670    -0.1310 C.ar  1 <1>  -0.1500 
 15 N        6.3630     1.7250     0.9710 N.pl3 1 <1>  -0.8690 
 16 C        7.4140     0.3940    -0.7620 C.3   1 <1>  -0.2400 
 17 C        5.7890    -0.6360     0.8600 C.3   1 <1>  -0.2400 
 18 C        7.2250     3.9360     0.6920 C.ar  1 <1>  -0.1500 
 19 C        5.8380     5.7360    -0.0470 C.ar  1 <1>  -0.1500 
 20 C        7.0730     5.2690     0.3670 C.ar  1 <1>  -0.1500 
 21 H       -0.7510     1.4340     1.2000 H     1 <1>   0.0800 
 22 H       -1.8010     0.1260     0.6700 H     1 <1>   0.0800 
 23 H       -0.8390     2.4090    -1.1070 H     1 <1>   0.0800 
 24 H       -2.4570     2.2530    -0.4710 H     1 <1>   0.0800 
 25 H       -1.8610     1.0850    -1.6270 H     1 <1>   0.0800 
 26 H        3.8110     5.2400    -0.4500 H     1 <1>   0.1500 
 27 H        7.2230     1.5630     1.4960 H     1 <1>   0.4000 
 28 H        7.6430     1.2830    -1.3210 H     1 <1>   0.0800 
 29 H        7.2760    -0.4230    -1.4460 H     1 <1>   0.0800 
 30 H        8.2400     0.1610    -0.1160 H     1 <1>   0.0800 
 31 H        4.9280    -0.4470     1.4740 H     1 <1>   0.0800 
 32 H        6.6090    -0.9160     1.4930 H     1 <1>   0.0800 
 33 H        5.5740    -1.4550     0.1970 H     1 <1>   0.0800 
 34 H        8.1840     3.5780     1.0170 H     1 <1>   0.1500 
 35 H        5.7130     6.7750    -0.2990 H     1 <1>   0.1500 
 36 H        7.9080     5.9440     0.4360 H     1 <1>   0.1500 
@<TRIPOS>BOND
  1   1   2  1   
  2   1   3  1   
  3   2   4  ar  
  4   2   5  ar  
  5   3   6  1   
  6   3  21  1   
  7   3  22  1   
  8   4   7  ar  
  9   5   8  ar  
 10   6  23  1   
 11   6  24  1   
 12   6  25  1   
 13   7   9  ar  
 14   8   9  ar  
 15   8  10  1   
 16   9  11  1   
 17  10  12  1   
 18  11  13  ar  
 19  11  14  ar  
 20  12  15  1   
 21  12  16  1   
 22  12  17  1   
 23  13  15  1   
 24  13  18  ar  
 25  14  19  ar  
 26  14  26  1   
 27  15  27  1   
 28  16  28  1   
 29  16  29  1   
 30  16  30  1   
 31  17  31  1   
 32  17  32  1   
 33  17  33  1   
 34  18  20  ar  
 35  18  34  1   
 36  19  20  ar  
 37  19  35  1   
 38  20  36  1   
@<TRIPOS>SUBSTRUCTURE
  1 ****   9 GROUP 4 **** **** 0

# MOE 2024.06 (io_trps.svl 2023.06)
