@<TRIPOS>MOLECULE
NONAME
44 44 1 0 0 
SMALL
USER_CHARGES


@<TRIPOS>ATOM
  1 O       -0.6370     0.3760     1.2150 O.2   1 <1>  -0.5700 
  2 C       -0.0390     1.3230     0.7670 C.2   1 <1>   0.6590 
  3 O       -0.5270     2.0640    -0.2210 O.3   1 <1>  -0.4300 
  4 C        1.3240     1.7500     1.3270 C.3   1 <1>   0.1710 
  5 C       -1.7640     1.7620    -0.8220 C.3   1 <1>   0.1200 
  6 N        2.5260     1.3980     0.4890 N.3   1 <1>  -0.8100 
  7 C       -2.0310     2.8000    -1.9070 C.3   1 <1>  -0.2400 
  8 C        3.7890     2.0020     0.9730 C.3   1 <1>   0.1900 
  9 C        2.5800    -0.0770     0.3510 C.3   1 <1>   0.0300 
 10 C        3.6900     3.5370     0.8890 C.3   1 <1>  -0.1600 
 11 C        4.9720     1.5200     0.1120 C.3   1 <1>  -0.1600 
 12 C        5.0210     4.2410     1.1290 C.3   1 <1>   0.3430 
 13 C        6.2640     2.2810     0.3830 C.3   1 <1>   0.3430 
 14 N        6.0370     3.7360     0.1730 N.4   1 <1>  -0.9590 
 15 C        7.2920     4.5310     0.2680 C.3   1 <1>   0.3430 
 16 C        8.1770     4.2830    -0.9560 C.3   1 <1>  -0.1600 
 17 C        9.4160     5.1840    -0.9260 C.3   1 <1>  -0.2400 
 18 H        1.4320     1.3100     2.3030 H     1 <1>   0.0800 
 19 H        1.2540     2.8110     1.4520 H     1 <1>   0.0800 
 20 H       -2.5290     1.7890    -0.0630 H     1 <1>   0.0800 
 21 H       -1.7060     0.7710    -1.2400 H     1 <1>   0.0800 
 22 H       -2.0740     3.7840    -1.4770 H     1 <1>   0.0800 
 23 H       -2.9710     2.5930    -2.3840 H     1 <1>   0.0800 
 24 H       -1.2550     2.7650    -2.6510 H     1 <1>   0.0800 
 25 H        3.9560     1.7070     1.9970 H     1 <1>   0.0800 
 26 H        1.6250    -0.4700     0.0460 H     1 <1>   0.0800 
 27 H        2.8550    -0.5360     1.2860 H     1 <1>   0.0800 
 28 H        3.2820    -0.3660    -0.4100 H     1 <1>   0.0800 
 29 H        3.0130     3.9040     1.6370 H     1 <1>   0.0800 
 30 H        3.3090     3.8220    -0.0760 H     1 <1>   0.0800 
 31 H        4.7240     1.6130    -0.9310 H     1 <1>   0.0800 
 32 H        5.1730     0.4850     0.3180 H     1 <1>   0.0800 
 33 H        5.3490     4.0620     2.1410 H     1 <1>   0.0800 
 34 H        4.8880     5.3040     0.9990 H     1 <1>   0.0800 
 35 H        7.0300     1.9230    -0.2850 H     1 <1>   0.0800 
 36 H        6.5870     2.1020     1.3970 H     1 <1>   0.0800 
 37 H        5.6530     3.8560    -0.7740 H     1 <1>   0.4500 
 38 H        7.8300     4.2770     1.1680 H     1 <1>   0.0800 
 39 H        7.0510     5.5820     0.3070 H     1 <1>   0.0800 
 40 H        7.6240     4.4940    -1.8550 H     1 <1>   0.0800 
 41 H        8.5060     3.2600    -0.9830 H     1 <1>   0.0800 
 42 H        9.1360     6.2240    -0.9290 H     1 <1>   0.0800 
 43 H       10.0260     5.0000    -1.7940 H     1 <1>   0.0800 
 44 H       10.0120     4.9890    -0.0500 H     1 <1>   0.0800 
@<TRIPOS>BOND
  1   1   2  2   
  2   2   3  1   
  3   2   4  1   
  4   3   5  1   
  5   4   6  1   
  6   4  18  1   
  7   4  19  1   
  8   5   7  1   
  9   5  20  1   
 10   5  21  1   
 11   6   8  1   
 12   6   9  1   
 13   7  22  1   
 14   7  23  1   
 15   7  24  1   
 16   8  10  1   
 17   8  11  1   
 18   8  25  1   
 19   9  26  1   
 20   9  27  1   
 21   9  28  1   
 22  10  12  1   
 23  10  29  1   
 24  10  30  1   
 25  11  13  1   
 26  11  31  1   
 27  11  32  1   
 28  12  14  1   
 29  12  33  1   
 30  12  34  1   
 31  13  14  1   
 32  13  35  1   
 33  13  36  1   
 34  14  15  1   
 35  14  37  1   
 36  15  16  1   
 37  15  38  1   
 38  15  39  1   
 39  16  17  1   
 40  16  40  1   
 41  16  41  1   
 42  17  42  1   
 43  17  43  1   
 44  17  44  1   
@<TRIPOS>SUBSTRUCTURE
  1 ****   8 GROUP 4 **** **** 0

# MOE 2024.06 (io_trps.svl 2023.06)
