@<TRIPOS>MOLECULE
NONAME
37 38 1 0 0 
SMALL
USER_CHARGES


@<TRIPOS>ATOM
  1 CL      -2.3570    -1.8810     2.1450 Cl    1 <1>  -0.1770 
  2 C       -1.2020    -2.4650     0.9690 C.ar  1 <1>   0.1770 
  3 C       -1.4340    -2.3280    -0.4050 C.ar  1 <1>   0.0860 
  4 C       -0.0490    -3.0420     1.4670 C.ar  1 <1>  -0.1500 
  5 C       -2.6390    -1.7460    -0.9520 C.2   1 <1>   0.6340 
  6 C       -0.4290    -2.7820    -1.2660 C.ar  1 <1>  -0.1500 
  7 C        0.9100    -3.4890     0.5810 C.ar  1 <1>   0.1770 
  8 O       -2.6440    -1.0450    -1.9410 O.2   1 <1>  -0.5700 
  9 O       -3.8100    -2.0110    -0.3650 O.3   1 <1>  -0.4300 
 10 C        0.7330    -3.3600    -0.7830 C.ar  1 <1>  -0.1500 
 11 CL       2.3680    -4.2200     1.1920 Cl    1 <1>  -0.1770 
 12 C       -5.0130    -1.4400    -0.8290 C.3   1 <1>   0.1200 
 13 C       -6.1110    -1.7600     0.1900 C.3   1 <1>   0.3430 
 14 N       -7.4490    -1.2110    -0.2090 N.4   1 <1>  -0.9590 
 15 C       -7.4730     0.2850    -0.2070 C.3   1 <1>   0.3430 
 16 C       -8.5150    -1.7700     0.6740 C.3   1 <1>   0.3430 
 17 C       -8.8250     0.7800    -0.7250 C.3   1 <1>  -0.1600 
 18 C       -9.8890    -1.3210     0.1740 C.3   1 <1>  -0.1600 
 19 C       -9.9910     0.2080     0.0900 C.3   1 <1>  -0.1600 
 20 H        0.1050    -3.1390     2.5260 H     1 <1>   0.1500 
 21 H       -0.5640    -2.6780    -2.3310 H     1 <1>   0.1500 
 22 H        1.4980    -3.7090    -1.4550 H     1 <1>   0.1500 
 23 H       -5.2320    -1.8660    -1.7930 H     1 <1>   0.0800 
 24 H       -4.8610    -0.3780    -0.9170 H     1 <1>   0.0800 
 25 H       -5.8270    -1.3550     1.1480 H     1 <1>   0.0800 
 26 H       -6.1800    -2.8310     0.2820 H     1 <1>   0.0800 
 27 H       -7.6640    -1.5210    -1.1670 H     1 <1>   0.4500 
 28 H       -6.6900     0.6750    -0.8370 H     1 <1>   0.0800 
 29 H       -7.3170     0.6520     0.7950 H     1 <1>   0.0800 
 30 H       -8.3700    -1.4230     1.6850 H     1 <1>   0.0800 
 31 H       -8.4700    -2.8470     0.6760 H     1 <1>   0.0800 
 32 H       -8.9330     0.5090    -1.7610 H     1 <1>   0.0800 
 33 H       -8.8490     1.8550    -0.6720 H     1 <1>   0.0800 
 34 H      -10.6450    -1.6900     0.8450 H     1 <1>   0.0800 
 35 H      -10.0790    -1.7560    -0.7920 H     1 <1>   0.0800 
 36 H      -10.9280     0.4880    -0.3630 H     1 <1>   0.0800 
 37 H       -9.9720     0.6240     1.0840 H     1 <1>   0.0800 
@<TRIPOS>BOND
  1   1   2  1   
  2   2   3  ar  
  3   2   4  ar  
  4   3   5  1   
  5   3   6  ar  
  6   4   7  ar  
  7   4  20  1   
  8   5   8  2   
  9   5   9  1   
 10   6  10  ar  
 11   6  21  1   
 12   7  10  ar  
 13   7  11  1   
 14   9  12  1   
 15  10  22  1   
 16  12  13  1   
 17  12  23  1   
 18  12  24  1   
 19  13  14  1   
 20  13  25  1   
 21  13  26  1   
 22  14  15  1   
 23  14  16  1   
 24  14  27  1   
 25  15  17  1   
 26  15  28  1   
 27  15  29  1   
 28  16  18  1   
 29  16  30  1   
 30  16  31  1   
 31  17  19  1   
 32  17  32  1   
 33  17  33  1   
 34  18  19  1   
 35  18  34  1   
 36  18  35  1   
 37  19  36  1   
 38  19  37  1   
@<TRIPOS>SUBSTRUCTURE
  1 ****   9 GROUP 4 **** **** 0

# MOE 2024.06 (io_trps.svl 2023.06)
