@<TRIPOS>MOLECULE
NONAME
37 38 1 0 0 
SMALL
USER_CHARGES


@<TRIPOS>ATOM
  1 O       -0.0320     1.8200    -1.4550 O.2   1 <1>  -0.5700 
  2 C       -0.7270     2.0020    -0.4750 C.2   1 <1>   0.5440 
  3 N       -0.1420     2.4100     0.6940 N.am  1 <1>  -0.7300 
  4 C       -2.1610     1.7690    -0.5360 C.ar  1 <1>   0.0860 
  5 C        1.3020     2.6550     0.9590 C.3   1 <1>   0.2200 
  6 C       -3.0530     2.4240     0.3140 C.ar  1 <1>  -0.1500 
  7 C       -2.7020     0.8710    -1.4570 C.ar  1 <1>  -0.1500 
  8 C        1.9890     3.5340    -0.1140 C.3   1 <1>   0.2000 
  9 C        1.9930     1.3020     1.1340 C.3   1 <1>  -0.2400 
 10 C       -4.4160     2.1870     0.2650 C.ar  1 <1>   0.0820 
 11 C       -4.0620     0.6270    -1.5200 C.ar  1 <1>  -0.1500 
 12 O        3.2540     3.9240     0.3240 O.3   1 <1>  -0.5600 
 13 C        1.2870     4.8550    -0.4130 C.3   1 <1>  -0.1600 
 14 O       -5.1840     2.8760     1.1450 O.3   1 <1>  -0.3630 
 15 C       -4.9240     1.2800    -0.6590 C.ar  1 <1>  -0.1500 
 16 C        3.6870     5.0140    -0.4190 C.3   1 <1>   0.1200 
 17 C        2.4270     5.7800    -0.8120 C.3   1 <1>  -0.1600 
 18 C       -6.5870     2.7350     1.1630 C.3   1 <1>   0.0400 
 19 H       -0.7200     2.4150     1.5340 H     1 <1>   0.3700 
 20 H        1.3690     3.1940     1.8890 H     1 <1>   0.0800 
 21 H       -2.6920     3.1410     1.0260 H     1 <1>   0.1500 
 22 H       -2.0380     0.3580    -2.1330 H     1 <1>   0.1500 
 23 H        2.1300     2.9730    -1.0220 H     1 <1>   0.0800 
 24 H        1.9540     0.7440     0.2160 H     1 <1>   0.0800 
 25 H        1.5220     0.7380     1.9180 H     1 <1>   0.0800 
 26 H        3.0250     1.4530     1.3950 H     1 <1>   0.0800 
 27 H       -4.4480    -0.0730    -2.2410 H     1 <1>   0.1500 
 28 H        0.8020     5.2200     0.4740 H     1 <1>   0.0800 
 29 H        0.5570     4.7350    -1.1940 H     1 <1>   0.0800 
 30 H       -5.9760     1.0740    -0.7240 H     1 <1>   0.1500 
 31 H        4.2030     4.6400    -1.2880 H     1 <1>   0.0800 
 32 H        4.3560     5.6020     0.1850 H     1 <1>   0.0800 
 33 H        2.3690     6.7180    -0.2880 H     1 <1>   0.0800 
 34 H        2.4270     5.9690    -1.8720 H     1 <1>   0.0800 
 35 H       -6.9790     3.3800     1.9280 H     1 <1>   0.0800 
 36 H       -6.8330     1.7120     1.3880 H     1 <1>   0.0800 
 37 H       -6.9800     3.0250     0.2050 H     1 <1>   0.0800 
@<TRIPOS>BOND
  1   1   2  2   
  2   2   3  am  
  3   2   4  1   
  4   3   5  1   
  5   3  19  1   
  6   4   6  ar  
  7   4   7  ar  
  8   5   8  1   
  9   5   9  1   
 10   5  20  1   
 11   6  10  ar  
 12   6  21  1   
 13   7  11  ar  
 14   7  22  1   
 15   8  12  1   
 16   8  13  1   
 17   8  23  1   
 18   9  24  1   
 19   9  25  1   
 20   9  26  1   
 21  10  14  1   
 22  10  15  ar  
 23  11  15  ar  
 24  11  27  1   
 25  12  16  1   
 26  13  17  1   
 27  13  28  1   
 28  13  29  1   
 29  14  18  1   
 30  15  30  1   
 31  16  17  1   
 32  16  31  1   
 33  16  32  1   
 34  17  33  1   
 35  17  34  1   
 36  18  35  1   
 37  18  36  1   
 38  18  37  1   
@<TRIPOS>SUBSTRUCTURE
  1 ****   2 GROUP 4 **** **** 0

# MOE 2024.06 (io_trps.svl 2023.06)
