@<TRIPOS>MOLECULE
NONAME
47 49 1 0 0 
SMALL
USER_CHARGES


@<TRIPOS>ATOM
  1 O       -1.0330    -0.1310     2.2460 O.2   1 <1>  -0.5700 
  2 C       -1.7990     0.5580     1.5980 C.2   1 <1>   0.7060 
  3 O       -2.9720     0.0150     1.2720 O.3   1 <1>  -0.2320 
  4 C       -1.5180     1.8990     1.1730 C.2   1 <1>  -0.1240 
  5 C       -3.9120     0.6680     0.5590 C.ar  1 <1>   0.0820 
  6 C       -2.4280     2.5990     0.4410 C.2   1 <1>  -0.1670 
  7 C       -0.1610     2.4530     1.6050 C.3   1 <1>   0.2480 
  8 C       -3.6820     1.9770     0.1140 C.ar  1 <1>   0.0280 
  9 C       -5.0960     0.0100     0.2840 C.ar  1 <1>  -0.1500 
 10 C       -2.1820     4.0210    -0.0660 C.3   1 <1>  -0.1020 
 11 N        0.7760     2.5280     0.4720 N.3   1 <1>  -0.8100 
 12 C       -4.7090     2.5800    -0.6240 C.ar  1 <1>  -0.1500 
 13 C       -6.1080     0.6250    -0.4380 C.ar  1 <1>   0.1000 
 14 C        2.0100     3.2380     0.8590 C.3   1 <1>   0.1100 
 15 C        1.1270     1.1830    -0.0350 C.3   1 <1>   0.1100 
 16 C       -5.8960     1.9290    -0.9010 C.ar  1 <1>  -0.1430 
 17 N       -7.2970    -0.0380    -0.7050 N.pl3 1 <1>  -0.8690 
 18 C        3.0200     3.2670    -0.3010 C.3   1 <1>   0.1200 
 19 C        2.1760     1.2650    -1.1590 C.3   1 <1>   0.1200 
 20 C       -6.9700     2.6430    -1.7110 C.3   1 <1>  -0.0970 
 21 C       -7.9700    -0.8450     0.3280 C.3   1 <1>   0.2090 
 22 O        3.3080     1.9680    -0.7310 O.3   1 <1>  -0.5600 
 23 C       -9.4690    -0.6090     0.2110 C.3   1 <1>  -0.2400 
 24 H        0.2730     1.8640     2.3960 H     1 <1>   0.0800 
 25 H       -0.3100     3.4420     2.0020 H     1 <1>   0.0800 
 26 H       -5.2280    -0.9960     0.6300 H     1 <1>   0.1500 
 27 H       -2.2620     4.0420    -1.1380 H     1 <1>   0.0800 
 28 H       -1.2060     4.3890     0.1860 H     1 <1>   0.0800 
 29 H       -2.9090     4.6930     0.3540 H     1 <1>   0.0800 
 30 H       -4.5750     3.5790    -0.9890 H     1 <1>   0.1500 
 31 H        2.4670     2.7530     1.7050 H     1 <1>   0.0800 
 32 H        1.7690     4.2490     1.1380 H     1 <1>   0.0800 
 33 H        0.2480     0.7000    -0.4240 H     1 <1>   0.0800 
 34 H        1.5150     0.5740     0.7640 H     1 <1>   0.0800 
 35 H       -7.9620     0.4890    -1.2770 H     1 <1>   0.4000 
 36 H        3.9430     3.7190     0.0170 H     1 <1>   0.0800 
 37 H        2.6250     3.8260    -1.1320 H     1 <1>   0.0800 
 38 H        1.7650     1.7640    -2.0190 H     1 <1>   0.0800 
 39 H        2.4910     0.2780    -1.4470 H     1 <1>   0.0800 
 40 H       -6.6550     3.6330    -1.9880 H     1 <1>   0.0800 
 41 H       -7.8720     2.7240    -1.1330 H     1 <1>   0.0800 
 42 H       -7.1750     2.0900    -2.6100 H     1 <1>   0.0800 
 43 H       -7.6250    -0.5550     1.3070 H     1 <1>   0.0800 
 44 H       -7.7420    -1.8860     0.1700 H     1 <1>   0.0800 
 45 H       -9.6960     0.4290     0.3760 H     1 <1>   0.0800 
 46 H       -9.9830    -1.1920     0.9540 H     1 <1>   0.0800 
 47 H       -9.8200    -0.9100    -0.7600 H     1 <1>   0.0800 
@<TRIPOS>BOND
  1   1   2  2   
  2   2   3  1   
  3   2   4  1   
  4   3   5  1   
  5   4   6  2   
  6   4   7  1   
  7   5   8  ar  
  8   5   9  ar  
  9   6   8  1   
 10   6  10  1   
 11   7  11  1   
 12   7  24  1   
 13   7  25  1   
 14   8  12  ar  
 15   9  13  ar  
 16   9  26  1   
 17  10  27  1   
 18  10  28  1   
 19  10  29  1   
 20  11  14  1   
 21  11  15  1   
 22  12  16  ar  
 23  12  30  1   
 24  13  16  ar  
 25  13  17  1   
 26  14  18  1   
 27  14  31  1   
 28  14  32  1   
 29  15  19  1   
 30  15  33  1   
 31  15  34  1   
 32  16  20  1   
 33  17  21  1   
 34  17  35  1   
 35  18  22  1   
 36  18  36  1   
 37  18  37  1   
 38  19  22  1   
 39  19  38  1   
 40  19  39  1   
 41  20  40  1   
 42  20  41  1   
 43  20  42  1   
 44  21  23  1   
 45  21  43  1   
 46  21  44  1   
 47  23  45  1   
 48  23  46  1   
 49  23  47  1   
@<TRIPOS>SUBSTRUCTURE
  1 ****   8 GROUP 4 **** **** 0

# MOE 2024.06 (io_trps.svl 2023.06)
