@<TRIPOS>MOLECULE
NONAME
30 31 1 0 0 
SMALL
USER_CHARGES


@<TRIPOS>ATOM
  1 O      -11.6890     1.9300    -0.1090 O.3   1 <1>  -0.3630 
  2 C      -12.8770     1.2790    -0.0280 C.ar  1 <1>   0.0820 
  3 C      -10.5370     1.1430    -0.3600 C.3   1 <1>   0.2000 
  4 C      -12.9330    -0.1090     0.1180 C.ar  1 <1>   0.0820 
  5 C      -14.0480     2.0130    -0.0980 C.ar  1 <1>  -0.1500 
  6 C      -10.5950    -0.1530     0.4670 C.3   1 <1>   0.1200 
  7 C       -9.3070     1.9940    -0.0230 C.3   1 <1>   0.1100 
  8 O      -11.8010    -0.8520     0.2110 O.3   1 <1>  -0.3630 
  9 C      -14.1580    -0.7490     0.1740 C.ar  1 <1>  -0.1500 
 10 C      -15.2730     1.3690    -0.0350 C.ar  1 <1>  -0.1500 
 11 N       -8.0560     1.2610    -0.2810 N.3   1 <1>  -0.9000 
 12 C      -15.3280    -0.0100     0.0980 C.ar  1 <1>  -0.1500 
 13 C       -6.8860     2.0230     0.1580 C.3   1 <1>   0.1100 
 14 C       -5.6280     1.1690     0.0040 C.3   1 <1>   0.0400 
 15 C       -4.4320     1.9320     0.4490 C.1   1 <1>   0.3570 
 16 N       -3.5260     2.5290     0.7870 N.1   1 <1>  -0.5570 
 17 H      -10.5350     0.9040    -1.4080 H     1 <1>   0.0800 
 18 H      -13.9960     3.0820    -0.2030 H     1 <1>   0.1500 
 19 H      -10.5550     0.0710     1.5180 H     1 <1>   0.0800 
 20 H       -9.7770    -0.8020     0.2160 H     1 <1>   0.0800 
 21 H       -9.3530     2.2640     1.0190 H     1 <1>   0.0800 
 22 H       -9.3270     2.8930    -0.6160 H     1 <1>   0.0800 
 23 H      -14.1900    -1.8180     0.2800 H     1 <1>   0.1500 
 24 H      -16.1830     1.9400    -0.0910 H     1 <1>   0.1500 
 25 H       -7.9830     1.0910    -1.2950 H     1 <1>   0.3600 
 26 H      -16.2810    -0.5080     0.1440 H     1 <1>   0.1500 
 27 H       -7.0030     2.2960     1.1950 H     1 <1>   0.0800 
 28 H       -6.7960     2.9250    -0.4250 H     1 <1>   0.0800 
 29 H       -5.4940     0.8900    -1.0240 H     1 <1>   0.0800 
 30 H       -5.7150     0.2830     0.6050 H     1 <1>   0.0800 
@<TRIPOS>BOND
  1   1   2  1   
  2   1   3  1   
  3   2   4  ar  
  4   2   5  ar  
  5   3   6  1   
  6   3   7  1   
  7   3  17  1   
  8   4   8  1   
  9   4   9  ar  
 10   5  10  ar  
 11   5  18  1   
 12   6   8  1   
 13   6  19  1   
 14   6  20  1   
 15   7  11  1   
 16   7  21  1   
 17   7  22  1   
 18   9  12  ar  
 19   9  23  1   
 20  10  12  ar  
 21  10  24  1   
 22  11  13  1   
 23  11  25  1   
 24  12  26  1   
 25  13  14  1   
 26  13  27  1   
 27  13  28  1   
 28  14  15  1   
 29  14  29  1   
 30  14  30  1   
 31  15  16  3   
@<TRIPOS>SUBSTRUCTURE
  1 ****   3 GROUP 4 **** **** 0

# MOE 2024.06 (io_trps.svl 2023.06)
