@<TRIPOS>MOLECULE
NONAME
56 58 1 0 0 
SMALL
USER_CHARGES


@<TRIPOS>ATOM
  1 S        1.1050    -0.4730    -1.2550 S.o2  1 <1>   1.4470 
  2 O        0.7350     0.7930    -1.8500 O.2   1 <1>  -0.6500 
  3 O        1.6500    -1.5040    -2.1140 O.2   1 <1>  -0.6500 
  4 N       -0.3000    -1.1170    -0.5640 N.am  1 <1>  -0.8490 
  5 C        2.1940    -0.2230     0.1870 C.ar  1 <1>  -0.0090 
  6 C       -1.3950    -1.2210    -1.5110 C.3   1 <1>   0.1960 
  7 C       -0.1430    -2.4490    -0.0040 C.3   1 <1>   0.1960 
  8 C        1.9910     0.7770     1.1430 C.ar  1 <1>  -0.1440 
  9 C        3.2650    -1.0880     0.3750 C.ar  1 <1>  -0.1500 
 10 C       -2.3930    -2.1580    -0.8410 C.3   1 <1>  -0.1600 
 11 C       -1.5710    -2.9480     0.1780 C.3   1 <1>  -0.1600 
 12 C        2.8480     0.8890     2.2280 C.ar  1 <1>  -0.1500 
 13 C        0.8350     1.7650     1.0380 C.3   1 <1>  -0.0970 
 14 C        4.1350    -0.9960     1.4560 C.ar  1 <1>   0.0860 
 15 C        3.9030     0.0130     2.3830 C.ar  1 <1>  -0.1500 
 16 C        5.2300    -1.9320     1.6080 C.2   1 <1>   0.5440 
 17 O        4.9710    -3.1110     1.7550 O.2   1 <1>  -0.5700 
 18 N        6.5500    -1.5250     1.5820 N.am  1 <1>  -0.6600 
 19 C        7.6650    -2.4780     1.8410 C.3   1 <1>   0.1400 
 20 C        6.9890    -0.1760     1.1300 C.3   1 <1>   0.1400 
 21 C        8.5010    -2.6420     0.5700 C.3   1 <1>  -0.1600 
 22 C        7.8240    -0.3160    -0.1450 C.3   1 <1>  -0.1600 
 23 C        9.0100    -1.2850     0.0460 C.3   1 <1>  -0.0190 
 24 C        9.8410    -1.4640    -1.2240 C.2   1 <1>   0.6590 
 25 O        9.4570    -1.1080    -2.3100 O.2   1 <1>  -0.5700 
 26 O       11.0260    -2.0370    -1.0530 O.3   1 <1>  -0.4300 
 27 C       11.8930    -2.2680    -2.1390 C.3   1 <1>   0.1200 
 28 C       13.1520    -2.9430    -1.6030 C.3   1 <1>  -0.2400 
 29 H       -1.0430    -1.6590    -2.4320 H     1 <1>   0.0800 
 30 H       -1.8200    -0.2520    -1.7160 H     1 <1>   0.0800 
 31 H        0.3950    -2.4200     0.9290 H     1 <1>   0.0800 
 32 H        0.3740    -3.0920    -0.6990 H     1 <1>   0.0800 
 33 H        3.4400    -1.8760    -0.3390 H     1 <1>   0.1500 
 34 H       -2.8580    -2.7990    -1.5690 H     1 <1>   0.0800 
 35 H       -3.1530    -1.5820    -0.3420 H     1 <1>   0.0800 
 36 H       -1.9030    -2.7260     1.1770 H     1 <1>   0.0800 
 37 H       -1.6300    -4.0090     0.0150 H     1 <1>   0.0800 
 38 H        2.6940     1.6590     2.9640 H     1 <1>   0.1500 
 39 H        0.9890     2.4280     0.2050 H     1 <1>   0.0800 
 40 H        0.7490     2.3600     1.9290 H     1 <1>   0.0800 
 41 H       -0.0960     1.2440     0.8990 H     1 <1>   0.0800 
 42 H        4.5570     0.1020     3.2330 H     1 <1>   0.1500 
 43 H        7.2860    -3.4380     2.1510 H     1 <1>   0.0800 
 44 H        8.2770    -2.0930     2.6390 H     1 <1>   0.0800 
 45 H        7.5770     0.2800     1.9080 H     1 <1>   0.0800 
 46 H        6.1460     0.4620     0.9300 H     1 <1>   0.0800 
 47 H        7.8960    -3.1200    -0.1820 H     1 <1>   0.0800 
 48 H        9.3340    -3.2890     0.7800 H     1 <1>   0.0800 
 49 H        8.1920     0.6520    -0.4370 H     1 <1>   0.0800 
 50 H        7.1870    -0.6720    -0.9370 H     1 <1>   0.0800 
 51 H        9.6660    -0.8640     0.7870 H     1 <1>   0.0800 
 52 H       12.1250    -1.3220    -2.5970 H     1 <1>   0.0800 
 53 H       11.3880    -2.9000    -2.8500 H     1 <1>   0.0800 
 54 H       13.6390    -2.3050    -0.8880 H     1 <1>   0.0800 
 55 H       13.8320    -3.1330    -2.4120 H     1 <1>   0.0800 
 56 H       12.9010    -3.8800    -1.1380 H     1 <1>   0.0800 
@<TRIPOS>BOND
  1   1   2  2   
  2   1   3  2   
  3   1   4  am  
  4   1   5  1   
  5   4   6  1   
  6   4   7  1   
  7   5   8  ar  
  8   5   9  ar  
  9   6  10  1   
 10   6  29  1   
 11   6  30  1   
 12   7  11  1   
 13   7  31  1   
 14   7  32  1   
 15   8  12  ar  
 16   8  13  1   
 17   9  14  ar  
 18   9  33  1   
 19  10  11  1   
 20  10  34  1   
 21  10  35  1   
 22  11  36  1   
 23  11  37  1   
 24  12  15  ar  
 25  12  38  1   
 26  13  39  1   
 27  13  40  1   
 28  13  41  1   
 29  14  15  ar  
 30  14  16  1   
 31  15  42  1   
 32  16  17  2   
 33  16  18  am  
 34  18  19  1   
 35  18  20  1   
 36  19  21  1   
 37  19  43  1   
 38  19  44  1   
 39  20  22  1   
 40  20  45  1   
 41  20  46  1   
 42  21  23  1   
 43  21  47  1   
 44  21  48  1   
 45  22  23  1   
 46  22  49  1   
 47  22  50  1   
 48  23  24  1   
 49  23  51  1   
 50  24  25  2   
 51  24  26  1   
 52  26  27  1   
 53  27  28  1   
 54  27  52  1   
 55  27  53  1   
 56  28  54  1   
 57  28  55  1   
 58  28  56  1   
@<TRIPOS>SUBSTRUCTURE
  1 ****   9 GROUP 4 **** **** 0

# MOE 2024.06 (io_trps.svl 2023.06)
