@<TRIPOS>MOLECULE
NONAME
41 43 1 0 0 
SMALL
USER_CHARGES


@<TRIPOS>ATOM
  1 S       -0.6870     0.1450    -0.2320 S.3   1 <1>  -0.0800 
  2 C       -1.9040    -1.0190     0.1750 C.2   1 <1>   0.4420 
  3 C        0.4890    -1.1050    -0.0010 C.2   1 <1>   0.1980 
  4 N       -1.4040    -2.1710     0.4350 N.2   1 <1>  -0.3380 
  5 N       -3.2080    -0.5740     0.1660 N.am  1 <1>  -0.4940 
  6 N       -0.0400    -2.2130     0.3330 N.2   1 <1>  -0.3380 
  7 C        1.9560    -0.7450    -0.2170 C.3   1 <1>   0.1000 
  8 C       -4.3670    -1.2400     0.4530 C.2   1 <1>   0.5690 
  9 C        2.8190    -1.9960    -0.4710 C.3   1 <1>  -0.1600 
 10 C        2.5020     0.0490     0.9830 C.3   1 <1>  -0.1600 
 11 O       -4.4020    -2.3960     0.7890 O.2   1 <1>  -0.5700 
 12 C       -5.6880    -0.4940     0.3430 C.3   1 <1>   0.1310 
 13 C        4.2990    -1.6350    -0.6620 C.3   1 <1>  -0.1600 
 14 C        3.9830     0.4100     0.8000 C.3   1 <1>  -0.1600 
 15 S       -5.4380     1.3230     0.0190 S.3   1 <1>  -0.2860 
 16 C        4.8320    -0.8410     0.5380 C.3   1 <1>  -0.1600 
 17 C       -7.1240     1.9240    -0.1000 C.2   1 <1>   0.2430 
 18 N       -8.1440     1.1410     0.0130 N.2   1 <1>  -0.5650 
 19 N       -7.4050     3.2280    -0.3160 N.pl3 1 <1>   0.0480 
 20 C       -9.1800     1.9920    -0.1390 C.2   1 <1>   0.0770 
 21 C       -8.7520     3.2600    -0.3390 C.2   1 <1>  -0.3020 
 22 C       -6.4740     4.3580    -0.4850 C.3   1 <1>   0.0160 
 23 H       -3.3320     0.4050    -0.0840 H     1 <1>   0.3700 
 24 H        2.0130    -0.1230    -1.0930 H     1 <1>   0.0800 
 25 H        2.4570    -2.5100    -1.3440 H     1 <1>   0.0800 
 26 H        2.7250    -2.6680     0.3660 H     1 <1>   0.0800 
 27 H        2.3880    -0.5430     1.8760 H     1 <1>   0.0800 
 28 H        1.9310     0.9520     1.1130 H     1 <1>   0.0800 
 29 H       -6.2440    -0.5800     1.2580 H     1 <1>   0.0800 
 30 H       -6.2720    -0.8850    -0.4700 H     1 <1>   0.0800 
 31 H        4.4140    -1.0500    -1.5580 H     1 <1>   0.0800 
 32 H        4.8760    -2.5370    -0.7810 H     1 <1>   0.0800 
 33 H        4.3440     0.9100     1.6830 H     1 <1>   0.0800 
 34 H        4.0870     1.0900    -0.0280 H     1 <1>   0.0800 
 35 H        5.8530    -0.5530     0.3550 H     1 <1>   0.0800 
 36 H        4.8200    -1.4690     1.4130 H     1 <1>   0.0800 
 37 H      -10.1980     1.6410    -0.0950 H     1 <1>   0.1500 
 38 H       -9.3220     4.1590    -0.4930 H     1 <1>   0.1500 
 39 H       -5.8580     4.1840    -1.3490 H     1 <1>   0.0800 
 40 H       -5.8550     4.4410     0.3890 H     1 <1>   0.0800 
 41 H       -7.0310     5.2670    -0.6190 H     1 <1>   0.0800 
@<TRIPOS>BOND
  1   1   2  1   
  2   1   3  1   
  3   2   4  2   
  4   2   5  1   
  5   3   6  2   
  6   3   7  1   
  7   4   6  1   
  8   5   8  am  
  9   5  23  1   
 10   7   9  1   
 11   7  10  1   
 12   7  24  1   
 13   8  11  2   
 14   8  12  1   
 15   9  13  1   
 16   9  25  1   
 17   9  26  1   
 18  10  14  1   
 19  10  27  1   
 20  10  28  1   
 21  12  15  1   
 22  12  29  1   
 23  12  30  1   
 24  13  16  1   
 25  13  31  1   
 26  13  32  1   
 27  14  16  1   
 28  14  33  1   
 29  14  34  1   
 30  15  17  1   
 31  16  35  1   
 32  16  36  1   
 33  17  18  2   
 34  17  19  1   
 35  18  20  1   
 36  19  21  1   
 37  19  22  1   
 38  20  21  2   
 39  20  37  1   
 40  21  38  1   
 41  22  39  1   
 42  22  40  1   
 43  22  41  1   
@<TRIPOS>SUBSTRUCTURE
  1 ****   5 GROUP 4 **** **** 0

# MOE 2024.06 (io_trps.svl 2023.06)
