@<TRIPOS>MOLECULE
NONAME
33 33 1 0 0 
SMALL
USER_CHARGES


@<TRIPOS>ATOM
  1 CL       0.0710     0.4750    -1.7880 Cl    1 <1>  -0.1770 
  2 C        0.9490     1.7070    -0.9180 C.ar  1 <1>   0.1770 
  3 C        0.3150     2.8920    -0.6000 C.ar  1 <1>  -0.1500 
  4 C        2.2620     1.4790    -0.5640 C.ar  1 <1>  -0.1500 
  5 C        0.9890     3.8890     0.1000 C.ar  1 <1>  -0.0090 
  6 C        2.9520     2.4630     0.1200 C.ar  1 <1>  -0.1500 
  7 S        0.1880     5.4600     0.5280 S.o2  1 <1>   1.4470 
  8 C        2.3210     3.6650     0.4460 C.ar  1 <1>   0.0830 
  9 O        0.5620     6.4650    -0.4410 O.2   1 <1>  -0.6500 
 10 O        0.2860     5.7290     1.9440 O.2   1 <1>  -0.6500 
 11 N       -1.4490     5.1070     0.3640 N.am  1 <1>  -0.9140 
 12 O        2.9670     4.6610     1.1000 O.3   1 <1>  -0.3620 
 13 C       -2.3870     6.1350    -0.0020 C.3   1 <1>   0.3560 
 14 C        4.3100     4.5550     1.5160 C.3   1 <1>   0.0400 
 15 C       -3.7570     5.5400     0.3180 C.3   1 <1>  -0.2400 
 16 C       -2.3230     6.4090    -1.5050 C.3   1 <1>  -0.2400 
 17 C       -2.2070     7.4110     0.8250 C.3   1 <1>  -0.2400 
 18 H       -0.7070     3.0270    -0.9060 H     1 <1>   0.1500 
 19 H        2.7330     0.5470    -0.8230 H     1 <1>   0.1500 
 20 H        3.9760     2.2770     0.3860 H     1 <1>   0.1500 
 21 H       -1.6950     4.8620     1.3190 H     1 <1>   0.4200 
 22 H        4.5770     5.4710     2.0130 H     1 <1>   0.0800 
 23 H        4.9350     4.4150     0.6520 H     1 <1>   0.0800 
 24 H        4.4010     3.7300     2.2000 H     1 <1>   0.0800 
 25 H       -3.9110     4.6300    -0.2350 H     1 <1>   0.0800 
 26 H       -4.5360     6.2300     0.0460 H     1 <1>   0.0800 
 27 H       -3.8510     5.3330     1.3690 H     1 <1>   0.0800 
 28 H       -2.3800     5.4890    -2.0570 H     1 <1>   0.0800 
 29 H       -1.4220     6.9240    -1.7770 H     1 <1>   0.0800 
 30 H       -3.1460     7.0340    -1.8000 H     1 <1>   0.0800 
 31 H       -2.1960     7.1900     1.8770 H     1 <1>   0.0800 
 32 H       -3.0190     8.0890     0.6320 H     1 <1>   0.0800 
 33 H       -1.2990     7.9240     0.5640 H     1 <1>   0.0800 
@<TRIPOS>BOND
  1   1   2  1   
  2   2   3  ar  
  3   2   4  ar  
  4   3   5  ar  
  5   3  18  1   
  6   4   6  ar  
  7   4  19  1   
  8   5   7  1   
  9   5   8  ar  
 10   6   8  ar  
 11   6  20  1   
 12   7   9  2   
 13   7  10  2   
 14   7  11  am  
 15   8  12  1   
 16  11  13  1   
 17  11  21  1   
 18  12  14  1   
 19  13  15  1   
 20  13  16  1   
 21  13  17  1   
 22  14  22  1   
 23  14  23  1   
 24  14  24  1   
 25  15  25  1   
 26  15  26  1   
 27  15  27  1   
 28  16  28  1   
 29  16  29  1   
 30  16  30  1   
 31  17  31  1   
 32  17  32  1   
 33  17  33  1   
@<TRIPOS>SUBSTRUCTURE
  1 ****   5 GROUP 4 **** **** 0

# MOE 2024.06 (io_trps.svl 2023.06)
