@<TRIPOS>MOLECULE
NONAME
40 41 1 0 0 
SMALL
USER_CHARGES


@<TRIPOS>ATOM
  1 S        0.2620     0.1550    -0.3480 S.o2  1 <1>   1.4470 
  2 O        0.3600     1.3980     0.3840 O.2   1 <1>  -0.6500 
  3 O        0.4960     0.1630    -1.7740 O.2   1 <1>  -0.6500 
  4 N        1.4450    -0.8770     0.2440 N.am  1 <1>  -0.9140 
  5 C       -1.3160    -0.6700     0.0460 C.ar  1 <1>  -0.0090 
  6 C        2.7550    -0.2640     0.3360 C.3   1 <1>   0.2760 
  7 C       -2.5080    -0.3560    -0.6110 C.ar  1 <1>  -0.1430 
  8 C       -1.3700    -1.6310     1.0520 C.ar  1 <1>  -0.1500 
  9 C        3.8210    -1.2800    -0.1450 C.3   1 <1>   0.2000 
 10 C        2.9880     0.1990     1.7770 C.3   1 <1>  -0.2400 
 11 C       -3.6880    -1.0060    -0.2790 C.ar  1 <1>  -0.1500 
 12 C       -2.5550     0.7060    -1.7040 C.3   1 <1>  -0.0970 
 13 C       -2.5480    -2.2760     1.3820 C.ar  1 <1>  -0.1500 
 14 O        3.3970    -1.8800    -1.3320 O.3   1 <1>  -0.5600 
 15 C        4.0860    -2.4690     0.7760 C.3   1 <1>  -0.1600 
 16 C       -3.7160    -1.9690     0.7130 C.ar  1 <1>  -0.1430 
 17 C        4.0970    -3.0610    -1.5540 C.3   1 <1>   0.1200 
 18 C        4.5560    -3.5510    -0.1830 C.3   1 <1>  -0.1600 
 19 C       -5.0160    -2.6700     1.0650 C.3   1 <1>  -0.0970 
 20 H        1.5830    -1.5200    -0.5440 H     1 <1>   0.4200 
 21 H        2.8140     0.5900    -0.3210 H     1 <1>   0.0800 
 22 H       -0.4770    -1.8850     1.5960 H     1 <1>   0.1500 
 23 H        4.7460    -0.7690    -0.3500 H     1 <1>   0.0800 
 24 H        2.8560    -0.6130     2.4680 H     1 <1>   0.0800 
 25 H        2.3000     0.9840     2.0320 H     1 <1>   0.0800 
 26 H        3.9850     0.5860     1.8810 H     1 <1>   0.0800 
 27 H       -4.5990    -0.7600    -0.7960 H     1 <1>   0.1500 
 28 H       -2.0410     0.3560    -2.5820 H     1 <1>   0.0800 
 29 H       -2.0900     1.6160    -1.3670 H     1 <1>   0.0800 
 30 H       -3.5690     0.9360    -1.9780 H     1 <1>   0.0800 
 31 H       -2.5490    -3.0160     2.1640 H     1 <1>   0.1500 
 32 H        3.1700    -2.7750     1.2530 H     1 <1>   0.0800 
 33 H        4.8170    -2.2390     1.5290 H     1 <1>   0.0800 
 34 H        4.9350    -2.8410    -2.1940 H     1 <1>   0.0800 
 35 H        3.4380    -3.7620    -2.0380 H     1 <1>   0.0800 
 36 H        4.1220    -4.5070     0.0540 H     1 <1>   0.0800 
 37 H        5.6280    -3.6410    -0.1720 H     1 <1>   0.0800 
 38 H       -5.5690    -2.0760     1.7700 H     1 <1>   0.0800 
 39 H       -4.8200    -3.6330     1.5000 H     1 <1>   0.0800 
 40 H       -5.6150    -2.8110     0.1840 H     1 <1>   0.0800 
@<TRIPOS>BOND
  1   1   2  2   
  2   1   3  2   
  3   1   4  am  
  4   1   5  1   
  5   4   6  1   
  6   4  20  1   
  7   5   7  ar  
  8   5   8  ar  
  9   6   9  1   
 10   6  10  1   
 11   6  21  1   
 12   7  11  ar  
 13   7  12  1   
 14   8  13  ar  
 15   8  22  1   
 16   9  14  1   
 17   9  15  1   
 18   9  23  1   
 19  10  24  1   
 20  10  25  1   
 21  10  26  1   
 22  11  16  ar  
 23  11  27  1   
 24  12  28  1   
 25  12  29  1   
 26  12  30  1   
 27  13  16  ar  
 28  13  31  1   
 29  14  17  1   
 30  15  18  1   
 31  15  32  1   
 32  15  33  1   
 33  16  19  1   
 34  17  18  1   
 35  17  34  1   
 36  17  35  1   
 37  18  36  1   
 38  18  37  1   
 39  19  38  1   
 40  19  39  1   
 41  19  40  1   
@<TRIPOS>SUBSTRUCTURE
  1 ****   4 GROUP 4 **** **** 0

# MOE 2024.06 (io_trps.svl 2023.06)
