@<TRIPOS>MOLECULE
NONAME
53 55 1 0 0 
SMALL
USER_CHARGES


@<TRIPOS>ATOM
  1 S        0.0530    -1.8980     2.0280 S.o2  1 <1>   1.4470 
  2 O        0.6300    -3.0650     2.6620 O.2   1 <1>  -0.6500 
  3 O       -0.0030    -0.6470     2.7510 O.2   1 <1>  -0.6500 
  4 N        0.9340    -1.6090     0.6110 N.am  1 <1>  -0.8490 
  5 C       -1.6000    -2.2820     1.3850 C.ar  1 <1>  -0.0090 
  6 C        2.2160    -0.9460     0.9170 C.3   1 <1>   0.1960 
  7 C        1.2160    -2.8550    -0.1310 C.3   1 <1>   0.1960 
  8 C       -2.3160    -1.3360     0.6680 C.ar  1 <1>  -0.1500 
  9 C       -2.1830    -3.5260     1.5760 C.ar  1 <1>  -0.1500 
 10 C        3.0450    -0.6160    -0.3420 C.3   1 <1>   0.2090 
 11 C        1.9700    -2.6070    -1.4520 C.3   1 <1>   0.2090 
 12 C       -3.5780    -1.5850     0.1300 C.ar  1 <1>   0.0860 
 13 C       -3.4350    -3.8080     1.0610 C.ar  1 <1>  -0.1500 
 14 N        3.1940    -1.7670    -1.2850 N.pl3 1 <1>  -0.8380 
 15 C       -4.1330    -2.8540     0.3410 C.ar  1 <1>  -0.1440 
 16 C       -4.2460    -0.5360    -0.6210 C.2   1 <1>   0.5440 
 17 C        4.4410    -2.4080    -1.3520 C.ar  1 <1>   0.1000 
 18 C       -5.5070    -3.2160    -0.2120 C.3   1 <1>  -0.0960 
 19 O       -5.3910    -0.2110    -0.3760 O.2   1 <1>  -0.5700 
 20 N       -3.5760     0.1110    -1.6250 N.am  1 <1>  -0.7300 
 21 C        4.9720    -3.2220    -0.3360 C.ar  1 <1>   0.0820 
 22 C        5.1850    -2.2160    -2.5070 C.ar  1 <1>  -0.1500 
 23 C       -4.1200     1.2140    -2.4570 C.3   1 <1>   0.0600 
 24 O        4.2330    -3.4090     0.7990 O.3   1 <1>  -0.3620 
 25 C        6.2210    -3.8120    -0.5070 C.ar  1 <1>  -0.1500 
 26 C        6.4250    -2.8060    -2.6710 C.ar  1 <1>  -0.1500 
 27 C        4.6640    -4.2540     1.8420 C.3   1 <1>   0.0400 
 28 C        6.9440    -3.6050    -1.6700 C.ar  1 <1>  -0.1500 
 29 H        2.8010    -1.5680     1.5720 H     1 <1>   0.0800 
 30 H        2.0270    -0.0240     1.4380 H     1 <1>   0.0800 
 31 H        0.2910    -3.3530    -0.3620 H     1 <1>   0.0800 
 32 H        1.7990    -3.5240     0.4770 H     1 <1>   0.0800 
 33 H       -1.8760    -0.3620     0.5270 H     1 <1>   0.1500 
 34 H       -1.6560    -4.2820     2.1340 H     1 <1>   0.1500 
 35 H        4.0210    -0.2770    -0.0390 H     1 <1>   0.0800 
 36 H        2.5680     0.1930    -0.8650 H     1 <1>   0.0800 
 37 H        1.3100    -2.1140    -2.1430 H     1 <1>   0.0800 
 38 H        2.2470    -3.5540    -1.8820 H     1 <1>   0.0800 
 39 H       -3.8630    -4.7820     1.2290 H     1 <1>   0.1500 
 40 H       -5.5710    -2.9590    -1.2540 H     1 <1>   0.0800 
 41 H       -6.2680    -2.6720     0.3210 H     1 <1>   0.0800 
 42 H       -5.7060    -4.2670    -0.1110 H     1 <1>   0.0800 
 43 H       -2.6280    -0.1930    -1.8530 H     1 <1>   0.3700 
 44 H        4.7770    -1.5930    -3.2810 H     1 <1>   0.1500 
 45 H       -5.1180     1.4680    -2.1420 H     1 <1>   0.0800 
 46 H       -4.1510     0.9100    -3.4890 H     1 <1>   0.0800 
 47 H       -3.4960     2.0850    -2.3610 H     1 <1>   0.0800 
 48 H        6.6540    -4.4370     0.2500 H     1 <1>   0.1500 
 49 H        6.9830    -2.6410    -3.5760 H     1 <1>   0.1500 
 50 H        3.9030    -4.2560     2.6030 H     1 <1>   0.0800 
 51 H        5.5830    -3.8700     2.2450 H     1 <1>   0.0800 
 52 H        4.7950    -5.2490     1.4540 H     1 <1>   0.0800 
 53 H        7.9090    -4.0650    -1.7950 H     1 <1>   0.1500 
@<TRIPOS>BOND
  1   1   2  2   
  2   1   3  2   
  3   1   4  am  
  4   1   5  1   
  5   4   6  1   
  6   4   7  1   
  7   5   8  ar  
  8   5   9  ar  
  9   6  10  1   
 10   6  29  1   
 11   6  30  1   
 12   7  11  1   
 13   7  31  1   
 14   7  32  1   
 15   8  12  ar  
 16   8  33  1   
 17   9  13  ar  
 18   9  34  1   
 19  10  14  1   
 20  10  35  1   
 21  10  36  1   
 22  11  14  1   
 23  11  37  1   
 24  11  38  1   
 25  12  15  ar  
 26  12  16  1   
 27  13  15  ar  
 28  13  39  1   
 29  14  17  1   
 30  15  18  1   
 31  16  19  2   
 32  16  20  am  
 33  17  21  ar  
 34  17  22  ar  
 35  18  40  1   
 36  18  41  1   
 37  18  42  1   
 38  20  23  1   
 39  20  43  1   
 40  21  24  1   
 41  21  25  ar  
 42  22  26  ar  
 43  22  44  1   
 44  23  45  1   
 45  23  46  1   
 46  23  47  1   
 47  24  27  1   
 48  25  28  ar  
 49  25  48  1   
 50  26  28  ar  
 51  26  49  1   
 52  27  50  1   
 53  27  51  1   
 54  27  52  1   
 55  28  53  1   
@<TRIPOS>SUBSTRUCTURE
  1 ****   4 GROUP 4 **** **** 0

# MOE 2024.06 (io_trps.svl 2023.06)
