@<TRIPOS>MOLECULE
NONAME
47 49 1 0 0 
SMALL
USER_CHARGES


@<TRIPOS>ATOM
  1 CL      -1.2480    -1.8100    -2.2370 Cl    1 <1>  -0.1770 
  2 C       -0.8280    -1.0880    -0.6970 C.ar  1 <1>   0.1770 
  3 C        0.4930    -1.0120    -0.2520 C.ar  1 <1>   0.0830 
  4 C       -1.8630    -0.5720     0.0630 C.ar  1 <1>  -0.1500 
  5 O        1.5590    -1.5030    -0.9320 O.3   1 <1>  -0.3630 
  6 C        0.7560    -0.3870     0.9580 C.ar  1 <1>  -0.1500 
  7 C       -1.5870     0.0380     1.2750 C.ar  1 <1>  -0.1500 
  8 C        1.5340    -2.8490    -1.3950 C.3   1 <1>   0.1810 
  9 C       -0.2780     0.1320     1.7190 C.ar  1 <1>  -0.1500 
 10 C        2.9040    -3.4980    -1.2540 C.2   1 <1>   0.5690 
 11 O        3.1570    -4.4580    -1.9410 O.2   1 <1>  -0.5700 
 12 N        3.7800    -2.9610    -0.3500 N.am  1 <1>  -0.5470 
 13 C        5.0840    -3.2920     0.0470 C.ar  1 <1>   0.1170 
 14 C        5.8630    -2.3290     0.7100 C.ar  1 <1>   0.0860 
 15 C        5.6230    -4.5560    -0.1860 C.ar  1 <1>  -0.1500 
 16 C        5.3520    -0.9960     0.9550 C.2   1 <1>   0.5440 
 17 C        7.1470    -2.6790     1.1300 C.ar  1 <1>  -0.1500 
 18 C        6.9010    -4.8770     0.2280 C.ar  1 <1>  -0.1500 
 19 O        4.2750    -0.8610     1.5110 O.2   1 <1>  -0.5700 
 20 N        6.0360     0.1340     0.5560 N.am  1 <1>  -0.6600 
 21 C        7.6670    -3.9350     0.8920 C.ar  1 <1>  -0.1500 
 22 C        5.6710     1.4890     1.0540 C.3   1 <1>   0.1400 
 23 C        7.0520     0.1390    -0.5330 C.3   1 <1>   0.1400 
 24 C        6.9300     2.2100     1.5490 C.3   1 <1>  -0.1600 
 25 C        8.3260     0.8380    -0.0460 C.3   1 <1>  -0.1600 
 26 C        8.0250     2.2510     0.4740 C.3   1 <1>  -0.1600 
 27 H       -2.8740    -0.6430    -0.2960 H     1 <1>   0.1500 
 28 H        1.7720    -0.3090     1.3050 H     1 <1>   0.1500 
 29 H       -2.3880     0.4420     1.8710 H     1 <1>   0.1500 
 30 H        1.2460    -2.8430    -2.4300 H     1 <1>   0.0800 
 31 H        0.8180    -3.4070    -0.8200 H     1 <1>   0.0800 
 32 H       -0.0600     0.6100     2.6590 H     1 <1>   0.1500 
 33 H        3.4210    -2.1070     0.1050 H     1 <1>   0.3700 
 34 H        5.0400    -5.3040    -0.6900 H     1 <1>   0.1500 
 35 H        7.7390    -1.9480     1.6530 H     1 <1>   0.1500 
 36 H        7.2980    -5.8590     0.0370 H     1 <1>   0.1500 
 37 H        8.6610    -4.1860     1.2210 H     1 <1>   0.1500 
 38 H        4.9600     1.4180     1.8590 H     1 <1>   0.0800 
 39 H        5.2160     2.0470     0.2530 H     1 <1>   0.0800 
 40 H        6.6490     0.6720    -1.3780 H     1 <1>   0.0800 
 41 H        7.2820    -0.8610    -0.8570 H     1 <1>   0.0800 
 42 H        7.2970     1.6990     2.4220 H     1 <1>   0.0800 
 43 H        6.6720     3.2120     1.8420 H     1 <1>   0.0800 
 44 H        9.0320     0.8940    -0.8550 H     1 <1>   0.0800 
 45 H        8.7710     0.2500     0.7370 H     1 <1>   0.0800 
 46 H        8.9210     2.6880     0.8830 H     1 <1>   0.0800 
 47 H        7.6970     2.8700    -0.3440 H     1 <1>   0.0800 
@<TRIPOS>BOND
  1   1   2  1   
  2   2   3  ar  
  3   2   4  ar  
  4   3   5  1   
  5   3   6  ar  
  6   4   7  ar  
  7   4  27  1   
  8   5   8  1   
  9   6   9  ar  
 10   6  28  1   
 11   7   9  ar  
 12   7  29  1   
 13   8  10  1   
 14   8  30  1   
 15   8  31  1   
 16   9  32  1   
 17  10  11  2   
 18  10  12  am  
 19  12  13  1   
 20  12  33  1   
 21  13  14  ar  
 22  13  15  ar  
 23  14  16  1   
 24  14  17  ar  
 25  15  18  ar  
 26  15  34  1   
 27  16  19  2   
 28  16  20  am  
 29  17  21  ar  
 30  17  35  1   
 31  18  21  ar  
 32  18  36  1   
 33  20  22  1   
 34  20  23  1   
 35  21  37  1   
 36  22  24  1   
 37  22  38  1   
 38  22  39  1   
 39  23  25  1   
 40  23  40  1   
 41  23  41  1   
 42  24  26  1   
 43  24  42  1   
 44  24  43  1   
 45  25  26  1   
 46  25  44  1   
 47  25  45  1   
 48  26  46  1   
 49  26  47  1   
@<TRIPOS>SUBSTRUCTURE
  1 ****  19 GROUP 4 **** **** 0

# MOE 2024.06 (io_trps.svl 2023.06)
