@<TRIPOS>MOLECULE
NONAME
35 35 1 0 0 
SMALL
USER_CHARGES


@<TRIPOS>ATOM
  1 CL       0.2840    -1.0240     0.1660 Cl    1 <1>  -0.1770 
  2 C        2.0050    -1.3350     0.1830 C.ar  1 <1>   0.1770 
  3 C        2.5410    -2.3540    -0.5920 C.ar  1 <1>  -0.1440 
  4 C        2.8050    -0.5400     0.9850 C.ar  1 <1>  -0.1500 
  5 C        3.9110    -2.5650    -0.5470 C.ar  1 <1>  -0.1500 
  6 C        1.6560    -3.2240    -1.4710 C.3   1 <1>  -0.0960 
  7 C        4.1710    -0.7590     1.0220 C.ar  1 <1>  -0.1500 
  8 C        4.7290    -1.7780     0.2510 C.ar  1 <1>   0.0830 
  9 O        6.0550    -2.0620     0.2260 O.3   1 <1>  -0.3630 
 10 C        6.9830    -1.3180     1.0080 C.3   1 <1>   0.1810 
 11 C        8.4100    -1.8170     0.8190 C.2   1 <1>   0.5690 
 12 O        9.2880    -1.2600     1.4340 O.2   1 <1>  -0.5700 
 13 N        8.6380    -2.8600    -0.0280 N.am  1 <1>  -0.7300 
 14 C        9.8950    -3.5210    -0.3820 C.3   1 <1>   0.3000 
 15 C       10.8370    -2.5150    -1.0430 C.3   1 <1>  -0.2400 
 16 C       10.5230    -4.1350     0.8690 C.3   1 <1>  -0.2400 
 17 C        9.5410    -4.6250    -1.3760 C.3   1 <1>  -0.2400 
 18 H        2.3560     0.2410     1.5720 H     1 <1>   0.1500 
 19 H        4.3600    -3.3450    -1.1340 H     1 <1>   0.1500 
 20 H        1.1420    -2.6140    -2.1930 H     1 <1>   0.0800 
 21 H        0.9260    -3.7350    -0.8670 H     1 <1>   0.0800 
 22 H        2.2370    -3.9590    -1.9980 H     1 <1>   0.0800 
 23 H        4.7730    -0.1310     1.6500 H     1 <1>   0.1500 
 24 H        6.7120    -1.4160     2.0430 H     1 <1>   0.0800 
 25 H        6.9300    -0.2870     0.7090 H     1 <1>   0.0800 
 26 H        7.8170    -3.2500    -0.4930 H     1 <1>   0.3700 
 27 H       11.1170    -1.7450    -0.3460 H     1 <1>   0.0800 
 28 H       10.3650    -2.0600    -1.8940 H     1 <1>   0.0800 
 29 H       11.7340    -3.0070    -1.3710 H     1 <1>   0.0800 
 30 H        9.8330    -4.8070     1.3460 H     1 <1>   0.0800 
 31 H       10.8030    -3.3680     1.5670 H     1 <1>   0.0800 
 32 H       11.4100    -4.6830     0.6070 H     1 <1>   0.0800 
 33 H        9.0860    -4.2090    -2.2570 H     1 <1>   0.0800 
 34 H        8.8680    -5.3340    -0.9290 H     1 <1>   0.0800 
 35 H       10.4300    -5.1500    -1.6750 H     1 <1>   0.0800 
@<TRIPOS>BOND
  1   1   2  1   
  2   2   3  ar  
  3   2   4  ar  
  4   3   5  ar  
  5   3   6  1   
  6   4   7  ar  
  7   4  18  1   
  8   5   8  ar  
  9   5  19  1   
 10   6  20  1   
 11   6  21  1   
 12   6  22  1   
 13   7   8  ar  
 14   7  23  1   
 15   8   9  1   
 16   9  10  1   
 17  10  11  1   
 18  10  24  1   
 19  10  25  1   
 20  11  12  2   
 21  11  13  am  
 22  13  14  1   
 23  13  26  1   
 24  14  15  1   
 25  14  16  1   
 26  14  17  1   
 27  15  27  1   
 28  15  28  1   
 29  15  29  1   
 30  16  30  1   
 31  16  31  1   
 32  16  32  1   
 33  17  33  1   
 34  17  34  1   
 35  17  35  1   
@<TRIPOS>SUBSTRUCTURE
  1 ****   9 GROUP 4 **** **** 0

# MOE 2024.06 (io_trps.svl 2023.06)
