@<TRIPOS>MOLECULE
NONAME
48 49 1 0 0 
SMALL
USER_CHARGES


@<TRIPOS>ATOM
  1 S       -0.3770    -1.7130    -0.5050 S.o2  1 <1>   1.4470 
  2 O       -1.0390    -2.1850     0.6890 O.2   1 <1>  -0.6500 
  3 O        0.0970    -2.6830    -1.4640 O.2   1 <1>  -0.6500 
  4 N       -1.5770    -0.8570    -1.3840 N.am  1 <1>  -0.7570 
  5 C        0.8550    -0.3770    -0.2150 C.ar  1 <1>  -0.0090 
  6 C       -2.1700     0.2910    -0.8870 C.ar  1 <1>   0.1990 
  7 C        0.9540     0.2950     1.0150 C.ar  1 <1>  -0.1430 
  8 C        1.7080     0.0530    -1.2460 C.ar  1 <1>  -0.1430 
  9 C       -1.8560     1.5260    -1.4320 C.ar  1 <1>  -0.1500 
 10 C       -3.0560     0.2180     0.1780 C.ar  1 <1>  -0.1500 
 11 C        1.8590     1.3290     1.1930 C.ar  1 <1>  -0.1500 
 12 C        0.0930    -0.0450     2.2280 C.3   1 <1>  -0.0970 
 13 C        2.6070     1.0890    -1.0440 C.ar  1 <1>  -0.1500 
 14 C        1.7190    -0.5720    -2.6380 C.3   1 <1>  -0.0970 
 15 C       -2.3970     2.6810    -0.9010 C.ar  1 <1>   0.0830 
 16 C       -3.6170     1.3700     0.7190 C.ar  1 <1>   0.0830 
 17 C        2.6880     1.7350     0.1700 C.ar  1 <1>  -0.1430 
 18 O       -2.0330     3.8580    -1.4660 O.3   1 <1>  -0.3620 
 19 C       -3.2870     2.6110     0.1710 C.ar  1 <1>   0.0830 
 20 O       -4.4830     1.3360     1.7730 O.3   1 <1>  -0.3620 
 21 C        3.6770     2.8680     0.3780 C.3   1 <1>  -0.0970 
 22 C       -1.1990     4.6840    -0.6840 C.3   1 <1>   0.0400 
 23 O       -3.8250     3.7510     0.6900 O.3   1 <1>  -0.3630 
 24 C       -4.7160     0.1430     2.4890 C.3   1 <1>   0.0400 
 25 C       -5.0670     4.1130     0.1370 C.3   1 <1>   0.0400 
 26 H       -1.3440    -0.8790    -2.3690 H     1 <1>   0.4200 
 27 H       -1.1750     1.6000    -2.2580 H     1 <1>   0.1500 
 28 H       -3.2850    -0.7560     0.5660 H     1 <1>   0.1500 
 29 H        1.9250     1.8320     2.1410 H     1 <1>   0.1500 
 30 H        0.2860    -1.0520     2.5530 H     1 <1>   0.0800 
 31 H       -0.9500     0.0580     1.9920 H     1 <1>   0.0800 
 32 H        0.3000     0.6090     3.0560 H     1 <1>   0.0800 
 33 H        3.2600     1.4030    -1.8400 H     1 <1>   0.1500 
 34 H        0.7300    -0.6060    -3.0550 H     1 <1>   0.0800 
 35 H        2.1180    -1.5700    -2.5910 H     1 <1>   0.0800 
 36 H        2.3340    -0.0080    -3.3160 H     1 <1>   0.0800 
 37 H        3.3190     3.5490     1.1280 H     1 <1>   0.0800 
 38 H        3.8190     3.4160    -0.5370 H     1 <1>   0.0800 
 39 H        4.6240     2.4700     0.6940 H     1 <1>   0.0800 
 40 H       -0.9000     5.5250    -1.2840 H     1 <1>   0.0800 
 41 H       -0.3340     4.1200    -0.3810 H     1 <1>   0.0800 
 42 H       -1.7440     5.0260     0.1770 H     1 <1>   0.0800 
 43 H       -5.3630     0.3720     3.3170 H     1 <1>   0.0800 
 44 H       -3.7780    -0.2360     2.8530 H     1 <1>   0.0800 
 45 H       -5.1940    -0.5680     1.8390 H     1 <1>   0.0800 
 46 H       -5.3950     5.0200     0.6100 H     1 <1>   0.0800 
 47 H       -5.7730     3.3230     0.3230 H     1 <1>   0.0800 
 48 H       -4.9440     4.2690    -0.9200 H     1 <1>   0.0800 
@<TRIPOS>BOND
  1   1   2  2   
  2   1   3  2   
  3   1   4  am  
  4   1   5  1   
  5   4   6  1   
  6   4  26  1   
  7   5   7  ar  
  8   5   8  ar  
  9   6   9  ar  
 10   6  10  ar  
 11   7  11  ar  
 12   7  12  1   
 13   8  13  ar  
 14   8  14  1   
 15   9  15  ar  
 16   9  27  1   
 17  10  16  ar  
 18  10  28  1   
 19  11  17  ar  
 20  11  29  1   
 21  12  30  1   
 22  12  31  1   
 23  12  32  1   
 24  13  17  ar  
 25  13  33  1   
 26  14  34  1   
 27  14  35  1   
 28  14  36  1   
 29  15  18  1   
 30  15  19  ar  
 31  16  19  ar  
 32  16  20  1   
 33  17  21  1   
 34  18  22  1   
 35  19  23  1   
 36  20  24  1   
 37  21  37  1   
 38  21  38  1   
 39  21  39  1   
 40  22  40  1   
 41  22  41  1   
 42  22  42  1   
 43  23  25  1   
 44  24  43  1   
 45  24  44  1   
 46  24  45  1   
 47  25  46  1   
 48  25  47  1   
 49  25  48  1   
@<TRIPOS>SUBSTRUCTURE
  1 ****   6 GROUP 4 **** **** 0

# MOE 2024.06 (io_trps.svl 2023.06)
