@<TRIPOS>MOLECULE
NONAME
38 40 1 0 0 
SMALL
USER_CHARGES


@<TRIPOS>ATOM
  1 O        0.0990    -0.7980    -0.7780 O.co2 1 <1>  -0.9000 
  2 C        0.0980    -1.3160     0.3390 C.2   1 <1>   0.9060 
  3 O        1.1210    -1.3860     1.0290 O.co2 1 <1>  -0.9000 
  4 C       -1.1540    -1.9730     0.9020 C.3   1 <1>  -0.1860 
  5 C       -1.2980    -3.6340     0.6070 C.3   1 <1>  -0.0190 
  6 C       -2.5350    -1.2500     0.3870 C.3   1 <1>  -0.0800 
  7 C       -0.0910    -4.4250     0.0610 C.2   1 <1>   0.5690 
  8 C       -2.6840    -3.8420    -0.2560 C.3   1 <1>  -0.0800 
  9 C       -2.6190    -2.5500     0.0890 C.3   1 <1>  -0.1600 
 10 C       -3.9300    -1.4890    -0.4310 C.3   1 <1>  -0.1600 
 11 O       -0.3100    -5.4220    -0.5900 O.2   1 <1>  -0.5700 
 12 N        1.1810    -4.0510     0.3900 N.am  1 <1>  -0.5470 
 13 C       -4.0770    -3.1280    -0.7220 C.3   1 <1>  -0.1600 
 14 C        2.4010    -4.5430    -0.0910 C.ar  1 <1>   0.1170 
 15 C        2.8390    -5.8610     0.0790 C.ar  1 <1>  -0.1440 
 16 C        3.2230    -3.6410    -0.7530 C.ar  1 <1>  -0.1500 
 17 C        4.0670    -6.2460    -0.4360 C.ar  1 <1>  -0.1500 
 18 C        2.0080    -6.8940     0.8280 C.3   1 <1>  -0.0970 
 19 C        4.4480    -4.0300    -1.2600 C.ar  1 <1>  -0.1500 
 20 C        4.8710    -5.3380    -1.1050 C.ar  1 <1>  -0.1500 
 21 H       -1.0730    -1.8380     1.9670 H     1 <1>   0.0800 
 22 H       -1.4610    -4.0940     1.5700 H     1 <1>   0.0800 
 23 H       -2.9120    -0.8510     1.3180 H     1 <1>   0.0800 
 24 H       -2.3110    -4.1780    -1.2160 H     1 <1>   0.0800 
 25 H       -3.1430    -2.7590     1.1190 H     1 <1>   0.0800 
 26 H       -2.0800    -2.3280    -0.9340 H     1 <1>   0.0800 
 27 H       -3.8960    -0.9490    -1.3650 H     1 <1>   0.0800 
 28 H       -4.7770    -1.1240     0.1270 H     1 <1>   0.0800 
 29 H        1.2610    -3.0870     0.7650 H     1 <1>   0.3700 
 30 H       -4.9060    -3.5340    -0.1630 H     1 <1>   0.0800 
 31 H       -4.2690    -3.3080    -1.7670 H     1 <1>   0.0800 
 32 H        2.8850    -2.6230    -0.8670 H     1 <1>   0.1500 
 33 H        4.4060    -7.2590    -0.3180 H     1 <1>   0.1500 
 34 H        1.4730    -6.4300     1.6370 H     1 <1>   0.0800 
 35 H        2.6340    -7.6650     1.2370 H     1 <1>   0.0800 
 36 H        1.2990    -7.3420     0.1560 H     1 <1>   0.0800 
 37 H        5.0640    -3.3140    -1.7730 H     1 <1>   0.1500 
 38 H        5.8210    -5.6470    -1.5000 H     1 <1>   0.1500 
@<TRIPOS>BOND
  1   1   2  ar  
  2   2   3  ar  
  3   2   4  1   
  4   4   5  1   
  5   4   6  1   
  6   4  21  1   
  7   5   7  1   
  8   5   8  1   
  9   5  22  1   
 10   6   9  1   
 11   6  10  1   
 12   6  23  1   
 13   7  11  2   
 14   7  12  am  
 15   8   9  1   
 16   8  13  1   
 17   8  24  1   
 18   9  25  1   
 19   9  26  1   
 20  10  13  1   
 21  10  27  1   
 22  10  28  1   
 23  12  14  1   
 24  12  29  1   
 25  13  30  1   
 26  13  31  1   
 27  14  15  ar  
 28  14  16  ar  
 29  15  17  ar  
 30  15  18  1   
 31  16  19  ar  
 32  16  32  1   
 33  17  20  ar  
 34  17  33  1   
 35  18  34  1   
 36  18  35  1   
 37  18  36  1   
 38  19  20  ar  
 39  19  37  1   
 40  20  38  1   
@<TRIPOS>SUBSTRUCTURE
  1 ****   7 GROUP 4 **** **** 0

# MOE 2024.06 (io_trps.svl 2023.06)
