@<TRIPOS>MOLECULE
NONAME
32 33 1 0 0 
SMALL
USER_CHARGES


@<TRIPOS>ATOM
  1 BR      -1.9250    -1.8190    -1.1100 Br    1 <1>  -0.0570 
  2 C       -2.9000    -0.6530     0.0980 C.2   1 <1>   0.0570 
  3 C       -2.7620    -0.6420     1.4760 C.2   1 <1>   0.1080 
  4 C       -3.8100     0.2810    -0.2310 C.2   1 <1>  -0.3320 
  5 N       -3.5400     0.2550     2.0010 N.2   1 <1>  -0.7070 
  6 C       -1.8460    -1.5220     2.2950 C.3   1 <1>  -0.0590 
  7 N       -4.2020     0.8190     0.9570 N.pl3 1 <1>   0.3140 
  8 C       -4.3110     0.6800    -1.6120 C.3   1 <1>  -0.0600 
  9 C       -5.1380     1.9370     1.1940 C.3   1 <1>   0.2770 
 10 C       -6.5070     1.6680     0.5980 C.2   1 <1>   0.3350 
 11 N       -6.9750     2.2940    -0.4150 N.2   1 <1>  -0.4100 
 12 N       -7.3400     0.7580     1.1100 N.2   1 <1>  -0.5650 
 13 O       -8.1320     1.7760    -0.5820 O.3   1 <1>  -0.0190 
 14 C       -8.3640     0.8590     0.3190 C.2   1 <1>   0.3930 
 15 C       -9.6260     0.1440     0.3110 C.2   1 <1>   0.8050 
 16 O       -9.9440    -0.7000     1.1280 O.2   1 <1>  -0.5700 
 17 O      -10.5000     0.4370    -0.6630 O.3   1 <1>  -0.4300 
 18 C      -11.7530    -0.2040    -0.7580 C.3   1 <1>   0.1200 
 19 C      -12.4820     0.3640    -1.9720 C.3   1 <1>  -0.2400 
 20 H       -0.8610    -1.0950     2.3160 H     1 <1>   0.0800 
 21 H       -1.7990    -2.5070     1.8690 H     1 <1>   0.0800 
 22 H       -2.2170    -1.5950     3.3000 H     1 <1>   0.0800 
 23 H       -3.7280     0.1960    -2.3750 H     1 <1>   0.0800 
 24 H       -4.2330     1.7430    -1.7500 H     1 <1>   0.0800 
 25 H       -5.3370     0.3830    -1.7360 H     1 <1>   0.0800 
 26 H       -4.7190     2.8250     0.7630 H     1 <1>   0.0800 
 27 H       -5.2370     2.0800     2.2540 H     1 <1>   0.0800 
 28 H      -12.3060    -0.0150     0.1470 H     1 <1>   0.0800 
 29 H      -11.5900    -1.2640    -0.8670 H     1 <1>   0.0800 
 30 H      -12.6310     1.4220    -1.8550 H     1 <1>   0.0800 
 31 H      -13.4430    -0.1080    -2.0700 H     1 <1>   0.0800 
 32 H      -11.9160     0.1760    -2.8670 H     1 <1>   0.0800 
@<TRIPOS>BOND
  1   1   2  1   
  2   2   3  1   
  3   2   4  2   
  4   3   5  2   
  5   3   6  1   
  6   4   7  1   
  7   4   8  1   
  8   5   7  1   
  9   6  20  1   
 10   6  21  1   
 11   6  22  1   
 12   7   9  1   
 13   8  23  1   
 14   8  24  1   
 15   8  25  1   
 16   9  10  1   
 17   9  26  1   
 18   9  27  1   
 19  10  11  2   
 20  10  12  1   
 21  11  13  1   
 22  12  14  2   
 23  13  14  1   
 24  14  15  1   
 25  15  16  2   
 26  15  17  1   
 27  17  18  1   
 28  18  19  1   
 29  18  28  1   
 30  18  29  1   
 31  19  30  1   
 32  19  31  1   
 33  19  32  1   
@<TRIPOS>SUBSTRUCTURE
  1 ****  12 GROUP 4 **** **** 0

# MOE 2024.06 (io_trps.svl 2023.06)
