@<TRIPOS>MOLECULE
NONAME
30 30 1 0 0 
SMALL
USER_CHARGES


@<TRIPOS>ATOM
  1 CL       1.5970     1.0520     2.3200 Cl    1 <1>  -0.1770 
  2 C        2.4830     0.6260     0.8690 C.ar  1 <1>   0.1770 
  3 C        2.3760     1.4300    -0.2700 C.ar  1 <1>   0.1990 
  4 C        3.2830    -0.5020     0.9020 C.ar  1 <1>  -0.1500 
  5 N        1.5650     2.5690    -0.3030 N.am  1 <1>  -0.6930 
  6 C        3.1110     1.0650    -1.3920 C.ar  1 <1>  -0.1500 
  7 C        4.0080    -0.8510    -0.2270 C.ar  1 <1>  -0.1500 
  8 S        0.0490     2.5150    -1.1360 S.o2  1 <1>   1.3330 
  9 C        2.1580     3.9250    -0.0620 C.3   1 <1>   0.3370 
 10 C        3.9120    -0.0600    -1.3590 C.ar  1 <1>   0.1770 
 11 O       -0.3090     3.8680    -1.4850 O.2   1 <1>  -0.6500 
 12 O        0.1460     1.4900    -2.1450 O.2   1 <1>  -0.6500 
 13 C       -1.0510     1.9540     0.1440 C.3   1 <1>  -0.1350 
 14 C        3.6880     3.9160     0.1790 C.2   1 <1>   0.5690 
 15 C        1.4260     4.5860     1.1170 C.3   1 <1>  -0.2400 
 16 CL       4.8280    -0.5000    -2.7770 Cl    1 <1>  -0.1770 
 17 O        4.4280     4.3410    -0.6710 O.2   1 <1>  -0.5700 
 18 N        4.2180     3.4410     1.3320 N.am  1 <1>  -0.8000 
 19 H        3.3400    -1.0980     1.7960 H     1 <1>   0.1500 
 20 H        3.0550     1.6560    -2.2890 H     1 <1>   0.1500 
 21 H        4.6400    -1.7220    -0.2350 H     1 <1>   0.1500 
 22 H        1.9990     4.5270    -0.9410 H     1 <1>   0.0800 
 23 H       -0.7550     0.9820     0.4880 H     1 <1>   0.0800 
 24 H       -2.0520     1.8920    -0.2350 H     1 <1>   0.0800 
 25 H       -1.0380     2.6340     0.9730 H     1 <1>   0.0800 
 26 H        1.4960     3.9790     2.0010 H     1 <1>   0.0800 
 27 H        0.3920     4.7540     0.8800 H     1 <1>   0.0800 
 28 H        1.8720     5.5420     1.3230 H     1 <1>   0.0800 
 29 H        5.2310     3.4490     1.4560 H     1 <1>   0.3700 
 30 H        3.6630     3.0380     2.0870 H     1 <1>   0.3700 
@<TRIPOS>BOND
  1   1   2  1   
  2   2   3  ar  
  3   2   4  ar  
  4   3   5  1   
  5   3   6  ar  
  6   4   7  ar  
  7   4  19  1   
  8   5   8  am  
  9   5   9  1   
 10   6  10  ar  
 11   6  20  1   
 12   7  10  ar  
 13   7  21  1   
 14   8  11  2   
 15   8  12  2   
 16   8  13  1   
 17   9  14  1   
 18   9  15  1   
 19   9  22  1   
 20  10  16  1   
 21  13  23  1   
 22  13  24  1   
 23  13  25  1   
 24  14  17  2   
 25  14  18  am  
 26  15  26  1   
 27  15  27  1   
 28  15  28  1   
 29  18  29  1   
 30  18  30  1   
@<TRIPOS>SUBSTRUCTURE
  1 ****   3 GROUP 4 **** **** 0

# MOE 2024.06 (io_trps.svl 2023.06)
