@<TRIPOS>MOLECULE
NONAME
52 54 1 0 0 
SMALL
USER_CHARGES


@<TRIPOS>ATOM
  1 O       -1.9450     1.8290    -1.5000 O.3   1 <1>  -0.3630 
  2 C       -2.4110     1.5720    -0.2550 C.ar  1 <1>   0.0830 
  3 C       -1.3750     0.7590    -2.2240 C.3   1 <1>   0.1200 
  4 C       -1.7230     2.0050     0.8780 C.ar  1 <1>   0.0820 
  5 C       -3.6140     0.9010    -0.1160 C.ar  1 <1>  -0.1500 
  6 C        0.0470     0.5010    -1.7270 C.3   1 <1>  -0.2400 
  7 O       -0.5540     2.6700     0.7680 O.3   1 <1>  -0.5320 
  8 C       -2.2380     1.7500     2.1380 C.ar  1 <1>  -0.1500 
  9 C       -4.1420     0.6600     1.1450 C.ar  1 <1>  -0.1430 
 10 C       -3.4440     1.0790     2.2700 C.ar  1 <1>  -0.1500 
 11 C       -5.4820    -0.0360     1.2880 C.3   1 <1>   0.4860 
 12 N       -6.5360     0.8690     0.7600 N.4   1 <1>  -0.9590 
 13 C       -6.6090     2.1650     1.5330 C.3   1 <1>   0.3430 
 14 C       -7.8870     0.2040     0.7050 C.3   1 <1>   0.3430 
 15 C       -7.6870     3.1170     0.9790 C.3   1 <1>   0.2090 
 16 C       -8.9760     1.1380     0.1400 C.3   1 <1>   0.2090 
 17 N       -9.0120     2.4330     0.8820 N.pl3 1 <1>  -0.8380 
 18 C      -10.0710     3.2770     0.5150 C.ar  1 <1>   0.1000 
 19 C      -10.1880     3.8870    -0.7480 C.ar  1 <1>   0.0830 
 20 C      -11.0520     3.5140     1.4660 C.ar  1 <1>  -0.1500 
 21 O       -9.2120     3.6470    -1.6810 O.3   1 <1>  -0.3630 
 22 C      -11.2810     4.7070    -1.0150 C.ar  1 <1>  -0.1500 
 23 C      -12.1330     4.3320     1.1930 C.ar  1 <1>  -0.1500 
 24 C       -9.2310     4.2890    -2.9390 C.3   1 <1>   0.0400 
 25 C      -12.2470     4.9280    -0.0480 C.ar  1 <1>  -0.1500 
 26 H       -1.3560     1.0490    -3.2600 H     1 <1>   0.0800 
 27 H       -1.9920    -0.1140    -2.1120 H     1 <1>   0.0800 
 28 H       -4.1220     0.5840    -1.0090 H     1 <1>   0.1500 
 29 H        0.6310     1.4020    -1.8010 H     1 <1>   0.0800 
 30 H        0.5110    -0.2600    -2.3270 H     1 <1>   0.0800 
 31 H        0.0350     0.1680    -0.7050 H     1 <1>   0.0800 
 32 H       -0.1640     2.9260     1.6210 H     1 <1>   0.4500 
 33 H       -1.7060     2.0710     3.0150 H     1 <1>   0.1500 
 34 H       -3.8250     0.8920     3.2610 H     1 <1>   0.1500 
 35 H       -5.6720    -0.2650     2.3240 H     1 <1>   0.0800 
 36 H       -5.4670    -0.9570     0.7290 H     1 <1>   0.0800 
 37 H       -6.2680     1.1270    -0.1970 H     1 <1>   0.4500 
 38 H       -5.6560     2.6670     1.5020 H     1 <1>   0.0800 
 39 H       -6.8420     1.9600     2.5650 H     1 <1>   0.0800 
 40 H       -8.1860    -0.0920     1.6970 H     1 <1>   0.0800 
 41 H       -7.8380    -0.6820     0.0940 H     1 <1>   0.0800 
 42 H       -7.3860     3.4760     0.0110 H     1 <1>   0.0800 
 43 H       -7.7800     3.9700     1.6300 H     1 <1>   0.0800 
 44 H       -9.9370     0.6600     0.2240 H     1 <1>   0.0800 
 45 H       -8.7900     1.3180    -0.9040 H     1 <1>   0.0800 
 46 H      -10.9640     3.0510     2.4310 H     1 <1>   0.1500 
 47 H      -11.4070     5.1880    -1.9660 H     1 <1>   0.1500 
 48 H      -12.8840     4.5030     1.9450 H     1 <1>   0.1500 
 49 H       -8.3590     3.9820    -3.4860 H     1 <1>   0.0800 
 50 H       -9.2110     5.3540    -2.7890 H     1 <1>   0.0800 
 51 H      -10.1180     3.9910    -3.4700 H     1 <1>   0.0800 
 52 H      -13.0890     5.5650    -0.2630 H     1 <1>   0.1500 
@<TRIPOS>BOND
  1   1   2  1   
  2   1   3  1   
  3   2   4  ar  
  4   2   5  ar  
  5   3   6  1   
  6   3  26  1   
  7   3  27  1   
  8   4   7  1   
  9   4   8  ar  
 10   5   9  ar  
 11   5  28  1   
 12   6  29  1   
 13   6  30  1   
 14   6  31  1   
 15   7  32  1   
 16   8  10  ar  
 17   8  33  1   
 18   9  10  ar  
 19   9  11  1   
 20  10  34  1   
 21  11  12  1   
 22  11  35  1   
 23  11  36  1   
 24  12  13  1   
 25  12  14  1   
 26  12  37  1   
 27  13  15  1   
 28  13  38  1   
 29  13  39  1   
 30  14  16  1   
 31  14  40  1   
 32  14  41  1   
 33  15  17  1   
 34  15  42  1   
 35  15  43  1   
 36  16  17  1   
 37  16  44  1   
 38  16  45  1   
 39  17  18  1   
 40  18  19  ar  
 41  18  20  ar  
 42  19  21  1   
 43  19  22  ar  
 44  20  23  ar  
 45  20  46  1   
 46  21  24  1   
 47  22  25  ar  
 48  22  47  1   
 49  23  25  ar  
 50  23  48  1   
 51  24  49  1   
 52  24  50  1   
 53  24  51  1   
 54  25  52  1   
@<TRIPOS>SUBSTRUCTURE
  1 ****  13 GROUP 4 **** **** 0

# MOE 2024.06 (io_trps.svl 2023.06)
