@<TRIPOS>MOLECULE
NONAME
32 33 1 0 0 
SMALL
USER_CHARGES


@<TRIPOS>ATOM
  1 S       -0.0070    -0.5830    -0.7080 S.3   1 <1>  -0.2860 
  2 C       -1.7810    -0.3790    -0.5520 C.2   1 <1>   0.2420 
  3 C        0.4650    -1.8650     0.5530 C.3   1 <1>   0.1310 
  4 N       -2.4380     0.4430    -1.2860 N.2   1 <1>  -0.5650 
  5 N       -2.5150    -1.0790     0.3450 N.pl3 1 <1>   0.0330 
  6 C        1.9590    -2.1520     0.5450 C.2   1 <1>   0.5690 
  7 C       -3.7210     0.2880    -0.8520 C.ar  1 <1>   0.2270 
  8 C       -3.7890    -0.6530     0.1600 C.ar  1 <1>  -0.1520 
  9 O        2.3740    -2.9720     1.3270 O.2   1 <1>  -0.5700 
 10 N        2.7810    -1.4990    -0.3210 N.am  1 <1>  -0.7300 
 11 C       -4.8830     0.9210    -1.2810 C.ar  1 <1>  -0.1500 
 12 C       -5.0040    -0.9800     0.7620 C.ar  1 <1>  -0.1500 
 13 C        4.2490    -1.6860    -0.4320 C.3   1 <1>   0.0600 
 14 C       -6.0940     0.6090    -0.6960 C.ar  1 <1>  -0.1430 
 15 C       -6.1540    -0.3490     0.3340 C.ar  1 <1>  -0.1430 
 16 C       -7.3510     1.3170    -1.1830 C.3   1 <1>  -0.0970 
 17 C       -7.4810    -0.7050     0.9910 C.3   1 <1>  -0.0970 
 18 H       -0.0770    -2.7610     0.3190 H     1 <1>   0.0800 
 19 H        0.1750    -1.4900     1.5160 H     1 <1>   0.0800 
 20 H       -2.1930    -1.7750     1.0160 H     1 <1>   0.2700 
 21 H        2.3610    -0.8140    -0.9600 H     1 <1>   0.3700 
 22 H       -4.7970     1.6460    -2.0680 H     1 <1>   0.1500 
 23 H       -5.0280    -1.7140     1.5470 H     1 <1>   0.1500 
 24 H        4.5880    -2.4220     0.2780 H     1 <1>   0.0800 
 25 H        4.7500    -0.7550    -0.2320 H     1 <1>   0.0800 
 26 H        4.5000    -2.0190    -1.4240 H     1 <1>   0.0800 
 27 H       -7.1190     2.0120    -1.9690 H     1 <1>   0.0800 
 28 H       -7.8050     1.8620    -0.3750 H     1 <1>   0.0800 
 29 H       -8.0540     0.5990    -1.5640 H     1 <1>   0.0800 
 30 H       -7.3470    -1.4500     1.7530 H     1 <1>   0.0800 
 31 H       -8.1630    -1.0940     0.2560 H     1 <1>   0.0800 
 32 H       -7.9130     0.1680     1.4450 H     1 <1>   0.0800 
@<TRIPOS>BOND
  1   1   2  1   
  2   1   3  1   
  3   2   4  2   
  4   2   5  1   
  5   3   6  1   
  6   3  18  1   
  7   3  19  1   
  8   4   7  1   
  9   5   8  1   
 10   5  20  1   
 11   6   9  2   
 12   6  10  am  
 13   7   8  ar  
 14   7  11  ar  
 15   8  12  ar  
 16  10  13  1   
 17  10  21  1   
 18  11  14  ar  
 19  11  22  1   
 20  12  15  ar  
 21  12  23  1   
 22  13  24  1   
 23  13  25  1   
 24  13  26  1   
 25  14  15  ar  
 26  14  16  1   
 27  15  17  1   
 28  16  27  1   
 29  16  28  1   
 30  16  29  1   
 31  17  30  1   
 32  17  31  1   
 33  17  32  1   
@<TRIPOS>SUBSTRUCTURE
  1 ****   5 GROUP 4 **** **** 0

# MOE 2024.06 (io_trps.svl 2023.06)
