@<TRIPOS>MOLECULE
NONAME
48 50 1 0 0 
SMALL
USER_CHARGES


@<TRIPOS>ATOM
  1 F        0.5890    -0.6300    -0.2770 F     1 <1>  -0.1900 
  2 C        1.6870    -1.3090    -0.0650 C.ar  1 <1>   0.1900 
  3 C        2.8900    -0.7850    -0.4990 C.ar  1 <1>  -0.1500 
  4 C        1.6040    -2.5250     0.5850 C.ar  1 <1>  -0.1500 
  5 C        4.0480    -1.5100    -0.2730 C.ar  1 <1>  -0.1500 
  6 C        2.7700    -3.2370     0.8040 C.ar  1 <1>  -0.1500 
  7 C        4.0010    -2.7420     0.3790 C.ar  1 <1>   0.1000 
  8 N        5.1530    -3.4930     0.6080 N.pl3 1 <1>  -0.8380 
  9 C        5.3250    -4.7800    -0.1320 C.3   1 <1>   0.2090 
 10 C        6.3980    -2.8490     1.1300 C.3   1 <1>   0.2090 
 11 C        6.4450    -4.6780    -1.1890 C.3   1 <1>   0.3430 
 12 C        7.5080    -2.7980     0.0580 C.3   1 <1>   0.3430 
 13 N        7.7230    -4.1280    -0.6180 N.4   1 <1>  -0.9590 
 14 C        8.8230    -4.0840    -1.6110 C.3   1 <1>   0.4860 
 15 C       10.1100    -3.7760    -0.8750 C.ar  1 <1>  -0.1430 
 16 C       10.5910    -4.6480     0.0970 C.ar  1 <1>   0.0830 
 17 C       10.8100    -2.6170    -1.1690 C.ar  1 <1>  -0.1500 
 18 O        9.8570    -5.7670     0.3560 O.3   1 <1>  -0.3630 
 19 C       11.7760    -4.3470     0.7640 C.ar  1 <1>  -0.1500 
 20 C       11.9850    -2.3140    -0.5030 C.ar  1 <1>   0.0830 
 21 C       10.3980    -6.8200     1.1300 C.3   1 <1>   0.0400 
 22 C       12.4690    -3.1860     0.4670 C.ar  1 <1>  -0.1500 
 23 O       12.5950    -1.1550    -0.8540 O.3   1 <1>  -0.3620 
 24 C       13.8500    -0.7980    -0.3160 C.3   1 <1>   0.0400 
 25 H        2.9090     0.1660    -0.9990 H     1 <1>   0.1500 
 26 H        0.6500    -2.8980     0.9110 H     1 <1>   0.1500 
 27 H        4.9860    -1.1140    -0.6090 H     1 <1>   0.1500 
 28 H        2.7340    -4.1810     1.3170 H     1 <1>   0.1500 
 29 H        4.4020    -5.0440    -0.6200 H     1 <1>   0.0800 
 30 H        5.5580    -5.5610     0.5710 H     1 <1>   0.0800 
 31 H        6.7480    -3.4070     1.9810 H     1 <1>   0.0800 
 32 H        6.1780    -1.8520     1.4700 H     1 <1>   0.0800 
 33 H        6.0980    -4.0340    -1.9800 H     1 <1>   0.0800 
 34 H        6.6200    -5.6550    -1.6080 H     1 <1>   0.0800 
 35 H        8.4240    -2.4690     0.5220 H     1 <1>   0.0800 
 36 H        7.2310    -2.0630    -0.6780 H     1 <1>   0.0800 
 37 H        8.0710    -4.7830     0.1040 H     1 <1>   0.4500 
 38 H        8.6280    -3.3320    -2.3580 H     1 <1>   0.0800 
 39 H        8.9210    -5.0410    -2.0980 H     1 <1>   0.0800 
 40 H       10.4660    -1.9270    -1.9190 H     1 <1>   0.1500 
 41 H       12.1760    -4.9960     1.5200 H     1 <1>   0.1500 
 42 H       10.5390    -6.4800     2.1410 H     1 <1>   0.0800 
 43 H       11.3330    -7.1320     0.6980 H     1 <1>   0.0800 
 44 H        9.7030    -7.6420     1.1190 H     1 <1>   0.0800 
 45 H       13.3790    -2.9770     0.9980 H     1 <1>   0.1500 
 46 H       14.1540     0.1310    -0.7640 H     1 <1>   0.0800 
 47 H       14.5650    -1.5670    -0.5520 H     1 <1>   0.0800 
 48 H       13.7540    -0.6730     0.7480 H     1 <1>   0.0800 
@<TRIPOS>BOND
  1   1   2  1   
  2   2   3  ar  
  3   2   4  ar  
  4   3   5  ar  
  5   3  25  1   
  6   4   6  ar  
  7   4  26  1   
  8   5   7  ar  
  9   5  27  1   
 10   6   7  ar  
 11   6  28  1   
 12   7   8  1   
 13   8   9  1   
 14   8  10  1   
 15   9  11  1   
 16   9  29  1   
 17   9  30  1   
 18  10  12  1   
 19  10  31  1   
 20  10  32  1   
 21  11  13  1   
 22  11  33  1   
 23  11  34  1   
 24  12  13  1   
 25  12  35  1   
 26  12  36  1   
 27  13  14  1   
 28  13  37  1   
 29  14  15  1   
 30  14  38  1   
 31  14  39  1   
 32  15  16  ar  
 33  15  17  ar  
 34  16  18  1   
 35  16  19  ar  
 36  17  20  ar  
 37  17  40  1   
 38  18  21  1   
 39  19  22  ar  
 40  19  41  1   
 41  20  22  ar  
 42  20  23  1   
 43  21  42  1   
 44  21  43  1   
 45  21  44  1   
 46  22  45  1   
 47  23  24  1   
 48  24  46  1   
 49  24  47  1   
 50  24  48  1   
@<TRIPOS>SUBSTRUCTURE
  1 ****  12 GROUP 4 **** **** 0

# MOE 2024.06 (io_trps.svl 2023.06)
