@<TRIPOS>MOLECULE
NONAME
44 47 1 0 0 
SMALL
USER_CHARGES


@<TRIPOS>ATOM
  1 S       -0.5030     0.4590     1.3880 S.3   1 <1>  -0.3320 
  2 C       -1.9560    -0.5630     1.0300 C.ar  1 <1>   0.1020 
  3 C       -1.0920     2.0660     2.0850 C.3   1 <1>  -0.0100 
  4 C       -1.8010    -1.9140     0.6790 C.ar  1 <1>   0.0860 
  5 C       -3.2130     0.0190     1.1200 C.ar  1 <1>  -0.1500 
  6 C       -0.5290    -2.6040     0.5400 C.2   1 <1>   0.5440 
  7 C       -2.9730    -2.6400     0.4480 C.ar  1 <1>  -0.1500 
  8 C       -4.3480    -0.7310     0.8760 C.ar  1 <1>  -0.1500 
  9 O       -0.4270    -3.7570     0.9120 O.2   1 <1>  -0.5700 
 10 N        0.5440    -1.9930    -0.0480 N.am  1 <1>  -0.7300 
 11 C       -4.2260    -2.0660     0.5420 C.ar  1 <1>  -0.1500 
 12 C        1.9200    -2.4820    -0.2270 C.3   1 <1>   0.3000 
 13 C        2.5730    -2.7960     1.1320 C.3   1 <1>  -0.1600 
 14 C        2.7190    -1.3570    -0.9120 C.3   1 <1>  -0.1600 
 15 C        1.9540    -3.7320    -1.1270 C.3   1 <1>  -0.1600 
 16 C        4.0320    -3.2490     0.9240 C.3   1 <1>  -0.0800 
 17 C        4.1810    -1.7930    -1.1320 C.3   1 <1>  -0.0800 
 18 C        3.4110    -4.1870    -1.3420 C.3   1 <1>  -0.0800 
 19 C        4.8190    -2.1210     0.2310 C.3   1 <1>  -0.1600 
 20 C        4.0480    -4.5020     0.0260 C.3   1 <1>  -0.1600 
 21 C        4.2030    -3.0520    -2.0190 C.3   1 <1>  -0.1600 
 22 H       -0.2240     2.6230     2.3910 H     1 <1>   0.0800 
 23 H       -1.7230     1.8530     2.9290 H     1 <1>   0.0800 
 24 H       -1.6260     2.5910     1.3140 H     1 <1>   0.0800 
 25 H       -3.3350     1.0520     1.3760 H     1 <1>   0.1500 
 26 H       -2.8900    -3.6830     0.1890 H     1 <1>   0.1500 
 27 H       -5.3240    -0.2800     0.9470 H     1 <1>   0.1500 
 28 H        0.4700    -0.9800    -0.1570 H     1 <1>   0.3700 
 29 H       -5.1060    -2.6580     0.3560 H     1 <1>   0.1500 
 30 H        2.5470    -1.9230     1.7600 H     1 <1>   0.0800 
 31 H        2.0300    -3.5810     1.6270 H     1 <1>   0.0800 
 32 H        2.7010    -0.4730    -0.2990 H     1 <1>   0.0800 
 33 H        2.2720    -1.1200    -1.8610 H     1 <1>   0.0800 
 34 H        1.4960    -3.5110    -2.0750 H     1 <1>   0.0800 
 35 H        1.4030    -4.5320    -0.6670 H     1 <1>   0.0800 
 36 H        4.4800    -3.4770     1.8760 H     1 <1>   0.0800 
 37 H        4.7300    -1.0000    -1.6110 H     1 <1>   0.0800 
 38 H        3.4280    -5.0660    -1.9630 H     1 <1>   0.0800 
 39 H        5.8420    -2.4240     0.0910 H     1 <1>   0.0800 
 40 H        4.8220    -1.2430     0.8540 H     1 <1>   0.0800 
 41 H        3.5020    -5.2970     0.5050 H     1 <1>   0.0800 
 42 H        5.0600    -4.8380    -0.1120 H     1 <1>   0.0800 
 43 H        3.7710    -2.8300    -2.9790 H     1 <1>   0.0800 
 44 H        5.2190    -3.3650    -2.1820 H     1 <1>   0.0800 
@<TRIPOS>BOND
  1   1   2  1   
  2   1   3  1   
  3   2   4  ar  
  4   2   5  ar  
  5   3  22  1   
  6   3  23  1   
  7   3  24  1   
  8   4   6  1   
  9   4   7  ar  
 10   5   8  ar  
 11   5  25  1   
 12   6   9  2   
 13   6  10  am  
 14   7  11  ar  
 15   7  26  1   
 16   8  11  ar  
 17   8  27  1   
 18  10  12  1   
 19  10  28  1   
 20  11  29  1   
 21  12  13  1   
 22  12  14  1   
 23  12  15  1   
 24  13  16  1   
 25  13  30  1   
 26  13  31  1   
 27  14  17  1   
 28  14  32  1   
 29  14  33  1   
 30  15  18  1   
 31  15  34  1   
 32  15  35  1   
 33  16  19  1   
 34  16  20  1   
 35  16  36  1   
 36  17  19  1   
 37  17  21  1   
 38  17  37  1   
 39  18  20  1   
 40  18  21  1   
 41  18  38  1   
 42  19  39  1   
 43  19  40  1   
 44  20  41  1   
 45  20  42  1   
 46  21  43  1   
 47  21  44  1   
@<TRIPOS>SUBSTRUCTURE
  1 ****  10 GROUP 4 **** **** 0

# MOE 2024.06 (io_trps.svl 2023.06)
