@<TRIPOS>MOLECULE
NONAME
46 47 1 0 0 
SMALL
USER_CHARGES


@<TRIPOS>ATOM
  1 S       -0.3740     0.4980    -0.3830 S.o2  1 <1>   1.4470 
  2 O        0.1400     0.9890     0.8730 O.2   1 <1>  -0.6500 
  3 O       -0.8120     1.4130    -1.4110 O.2   1 <1>  -0.6500 
  4 N        0.9510    -0.2640    -1.1670 N.am  1 <1>  -0.7570 
  5 C       -1.5810    -0.8420    -0.1790 C.ar  1 <1>  -0.0090 
  6 C        2.2310    -0.3220    -0.6220 C.ar  1 <1>   0.1990 
  7 C       -2.6240    -0.7090     0.7330 C.ar  1 <1>   0.0830 
  8 C       -1.5210    -2.0090    -0.9360 C.ar  1 <1>  -0.1500 
  9 C        3.1920     0.6020    -1.0560 C.ar  1 <1>  -0.1440 
 10 C        2.5670    -1.2940     0.3310 C.ar  1 <1>  -0.1440 
 11 O       -2.6980     0.4510     1.4310 O.3   1 <1>  -0.3630 
 12 C       -3.5520    -1.7340     0.9000 C.ar  1 <1>  -0.1500 
 13 C       -2.4390    -3.0330    -0.7750 C.ar  1 <1>  -0.1430 
 14 C        4.4760     0.5360    -0.5340 C.ar  1 <1>  -0.1500 
 15 C        2.8010     1.6750    -2.0850 C.3   1 <1>  -0.0170 
 16 C        3.8590    -1.3250     0.8370 C.ar  1 <1>  -0.1500 
 17 C        1.5080    -2.3010     0.8000 C.3   1 <1>  -0.0170 
 18 C       -3.6250     0.6500     2.4750 C.3   1 <1>   0.0400 
 19 C       -3.4560    -2.8900     0.1510 C.ar  1 <1>  -0.1500 
 20 C       -2.3340    -4.2970    -1.6110 C.3   1 <1>  -0.0970 
 21 C        4.8070    -0.4190     0.4060 C.ar  1 <1>  -0.1500 
 22 C        3.8980     2.6740    -2.4730 C.3   1 <1>  -0.2400 
 23 C        2.0120    -3.4670     1.6590 C.3   1 <1>  -0.2400 
 24 H        0.9290     0.0790    -2.1190 H     1 <1>   0.4200 
 25 H       -0.7430    -2.1280    -1.6690 H     1 <1>   0.1500 
 26 H       -4.3590    -1.6490     1.6030 H     1 <1>   0.1500 
 27 H        5.2430     1.2240    -0.8370 H     1 <1>   0.1500 
 28 H        1.9720     2.2380    -1.6890 H     1 <1>   0.0800 
 29 H        2.4660     1.1870    -2.9830 H     1 <1>   0.0800 
 30 H        4.1570    -2.0470     1.5730 H     1 <1>   0.1500 
 31 H        1.0370    -2.7240    -0.0680 H     1 <1>   0.0800 
 32 H        0.7570    -1.7710     1.3590 H     1 <1>   0.0800 
 33 H       -3.4390     1.6200     2.9020 H     1 <1>   0.0800 
 34 H       -3.4800    -0.1100     3.2220 H     1 <1>   0.0800 
 35 H       -4.6210     0.6140     2.0720 H     1 <1>   0.0800 
 36 H       -4.1790    -3.6760     0.2870 H     1 <1>   0.1500 
 37 H       -1.3050    -4.5150    -1.8360 H     1 <1>   0.0800 
 38 H       -2.8720    -4.1690    -2.5330 H     1 <1>   0.0800 
 39 H       -2.7480    -5.1350    -1.0810 H     1 <1>   0.0800 
 40 H        5.8050    -0.4560     0.8060 H     1 <1>   0.1500 
 41 H        4.2340     3.2160    -1.6070 H     1 <1>   0.0800 
 42 H        3.5100     3.3810    -3.1840 H     1 <1>   0.0800 
 43 H        4.7310     2.1640    -2.9220 H     1 <1>   0.0800 
 44 H        2.7790    -4.0130     1.1390 H     1 <1>   0.0800 
 45 H        1.1990    -4.1390     1.8720 H     1 <1>   0.0800 
 46 H        2.4010    -3.1050     2.5940 H     1 <1>   0.0800 
@<TRIPOS>BOND
  1   1   2  2   
  2   1   3  2   
  3   1   4  am  
  4   1   5  1   
  5   4   6  1   
  6   4  24  1   
  7   5   7  ar  
  8   5   8  ar  
  9   6   9  ar  
 10   6  10  ar  
 11   7  11  1   
 12   7  12  ar  
 13   8  13  ar  
 14   8  25  1   
 15   9  14  ar  
 16   9  15  1   
 17  10  16  ar  
 18  10  17  1   
 19  11  18  1   
 20  12  19  ar  
 21  12  26  1   
 22  13  19  ar  
 23  13  20  1   
 24  14  21  ar  
 25  14  27  1   
 26  15  22  1   
 27  15  28  1   
 28  15  29  1   
 29  16  21  ar  
 30  16  30  1   
 31  17  23  1   
 32  17  31  1   
 33  17  32  1   
 34  18  33  1   
 35  18  34  1   
 36  18  35  1   
 37  19  36  1   
 38  20  37  1   
 39  20  38  1   
 40  20  39  1   
 41  21  40  1   
 42  22  41  1   
 43  22  42  1   
 44  22  43  1   
 45  23  44  1   
 46  23  45  1   
 47  23  46  1   
@<TRIPOS>SUBSTRUCTURE
  1 ****   4 GROUP 4 **** **** 0

# MOE 2024.06 (io_trps.svl 2023.06)
