@<TRIPOS>MOLECULE
NONAME
36 38 1 0 0 
SMALL
USER_CHARGES


@<TRIPOS>ATOM
  1 O       -0.6870     0.0200     0.3440 O.2   1 <1>  -0.5700 
  2 C       -1.6370    -0.7340     0.2640 C.2   1 <1>   0.7060 
  3 O       -2.8550    -0.1960     0.3080 O.3   1 <1>  -0.2330 
  4 C       -1.5230    -2.1600     0.1350 C.2   1 <1>  -0.1240 
  5 C       -3.9970    -0.9170     0.2200 C.ar  1 <1>   0.0820 
  6 C       -2.6320    -2.9400     0.0720 C.2   1 <1>  -0.1670 
  7 C       -0.1060    -2.7310     0.0830 C.3   1 <1>  -0.0220 
  8 C       -3.9280    -2.3140     0.0890 C.ar  1 <1>   0.0280 
  9 C       -5.2130    -0.2370     0.2540 C.ar  1 <1>  -0.1440 
 10 C       -2.5450    -4.4650    -0.0240 C.3   1 <1>  -0.0220 
 11 C       -0.0720    -4.1770    -0.4220 C.3   1 <1>  -0.1600 
 12 C       -5.1380    -3.0040    -0.0250 C.ar  1 <1>  -0.1500 
 13 C       -6.3950    -0.9580     0.1330 C.ar  1 <1>   0.0820 
 14 C       -5.2150     1.2840     0.4100 C.3   1 <1>  -0.0960 
 15 C       -1.1440    -5.0090     0.2830 C.3   1 <1>  -0.1600 
 16 C       -6.3460    -2.3430     0.0010 C.ar  1 <1>  -0.1500 
 17 O       -7.5800    -0.2930     0.1650 O.3   1 <1>  -0.2320 
 18 C       -8.7020    -0.5760    -0.4940 C.2   1 <1>   0.6590 
 19 O       -8.8120    -1.4680    -1.2940 O.2   1 <1>  -0.5700 
 20 C       -9.8710     0.3220    -0.1760 C.3   1 <1>  -0.1790 
 21 H        0.3180    -2.6830     1.0710 H     1 <1>   0.0800 
 22 H        0.5090    -2.1270    -0.5640 H     1 <1>   0.0800 
 23 H       -2.8310    -4.7620    -1.0180 H     1 <1>   0.0800 
 24 H       -3.2290    -4.9170     0.6720 H     1 <1>   0.0800 
 25 H        0.9020    -4.5990    -0.2440 H     1 <1>   0.0800 
 26 H       -0.2510    -4.1890    -1.4840 H     1 <1>   0.0800 
 27 H       -5.1480    -4.0720    -0.1400 H     1 <1>   0.1500 
 28 H       -4.5370     1.5770     1.1930 H     1 <1>   0.0800 
 29 H       -6.1860     1.6670     0.6620 H     1 <1>   0.0800 
 30 H       -4.8930     1.7410    -0.5080 H     1 <1>   0.0800 
 31 H       -1.0790    -6.0360    -0.0320 H     1 <1>   0.0800 
 32 H       -0.9750    -4.9760     1.3460 H     1 <1>   0.0800 
 33 H       -7.2550    -2.9120    -0.0810 H     1 <1>   0.1500 
 34 H       -9.6200     1.3380    -0.4150 H     1 <1>   0.0800 
 35 H      -10.1090     0.2480     0.8680 H     1 <1>   0.0800 
 36 H      -10.7260     0.0240    -0.7550 H     1 <1>   0.0800 
@<TRIPOS>BOND
  1   1   2  2   
  2   2   3  1   
  3   2   4  1   
  4   3   5  1   
  5   4   6  2   
  6   4   7  1   
  7   5   8  ar  
  8   5   9  ar  
  9   6   8  1   
 10   6  10  1   
 11   7  11  1   
 12   7  21  1   
 13   7  22  1   
 14   8  12  ar  
 15   9  13  ar  
 16   9  14  1   
 17  10  15  1   
 18  10  23  1   
 19  10  24  1   
 20  11  15  1   
 21  11  25  1   
 22  11  26  1   
 23  12  16  ar  
 24  12  27  1   
 25  13  16  ar  
 26  13  17  1   
 27  14  28  1   
 28  14  29  1   
 29  14  30  1   
 30  15  31  1   
 31  15  32  1   
 32  16  33  1   
 33  17  18  1   
 34  18  19  2   
 35  18  20  1   
 36  20  34  1   
 37  20  35  1   
 38  20  36  1   
@<TRIPOS>SUBSTRUCTURE
  1 ****   8 GROUP 4 **** **** 0

# MOE 2024.06 (io_trps.svl 2023.06)
