@<TRIPOS>MOLECULE
NONAME
42 43 1 0 0 
SMALL
USER_CHARGES


@<TRIPOS>ATOM
  1 CL      -0.7210     1.1380    -2.2940 Cl    1 <1>  -0.1770 
  2 C        0.3770     2.0060    -1.2470 C.ar  1 <1>   0.1770 
  3 C        0.1720     3.3470    -0.9720 C.ar  1 <1>  -0.1440 
  4 C        1.4470     1.3240    -0.7060 C.ar  1 <1>  -0.1500 
  5 C        1.0720     3.9890    -0.1380 C.ar  1 <1>  -0.1500 
  6 C       -1.0130     4.1000    -1.5600 C.3   1 <1>  -0.0960 
  7 C        2.3430     1.9770     0.1280 C.ar  1 <1>  -0.1430 
  8 C        2.1680     3.3340     0.4220 C.ar  1 <1>  -0.0090 
  9 C        3.4960     1.1660     0.7090 C.3   1 <1>  -0.0960 
 10 S        3.3140     4.2860     1.4740 S.o2  1 <1>   1.4470 
 11 O        3.6920     3.5470     2.6570 O.2   1 <1>  -0.6500 
 12 O        2.8720     5.6560     1.6090 O.2   1 <1>  -0.6500 
 13 N        4.7280     4.3980     0.5380 N.am  1 <1>  -0.8490 
 14 C        4.5530     5.2610    -0.6510 C.3   1 <1>   0.1960 
 15 C        5.8500     4.8970     1.3660 C.3   1 <1>   0.1960 
 16 C        5.8300     5.3270    -1.5280 C.3   1 <1>   0.3430 
 17 C        7.1480     5.1440     0.5580 C.3   1 <1>   0.3430 
 18 N        7.0180     4.6770    -0.8690 N.4   1 <1>  -0.9590 
 19 C        8.2580     4.8180    -1.6740 C.3   1 <1>   0.3430 
 20 C        9.3090     3.8330    -1.1760 C.3   1 <1>  -0.2400 
 21 H        1.5630     0.2810    -0.9410 H     1 <1>   0.1500 
 22 H        0.9160     5.0310     0.0890 H     1 <1>   0.1500 
 23 H       -1.9320     3.6370    -1.2490 H     1 <1>   0.0800 
 24 H       -0.9650     4.0810    -2.6350 H     1 <1>   0.0800 
 25 H       -1.0230     5.1250    -1.2360 H     1 <1>   0.0800 
 26 H        3.5260     0.1770     0.2870 H     1 <1>   0.0800 
 27 H        3.3760     1.0670     1.7740 H     1 <1>   0.0800 
 28 H        4.4390     1.6400     0.5070 H     1 <1>   0.0800 
 29 H        4.2930     6.2620    -0.3450 H     1 <1>   0.0800 
 30 H        3.7400     4.8920    -1.2550 H     1 <1>   0.0800 
 31 H        6.0640     4.1790     2.1420 H     1 <1>   0.0800 
 32 H        5.5660     5.8140     1.8580 H     1 <1>   0.0800 
 33 H        6.0470     6.3610    -1.7430 H     1 <1>   0.0800 
 34 H        5.6290     4.8390    -2.4670 H     1 <1>   0.0800 
 35 H        7.9590     4.6290     1.0450 H     1 <1>   0.0800 
 36 H        7.3750     6.1970     0.5770 H     1 <1>   0.0800 
 37 H        6.7720     3.6780    -0.8010 H     1 <1>   0.4500 
 38 H        8.6340     5.8270    -1.6090 H     1 <1>   0.0800 
 39 H        8.0440     4.6040    -2.7090 H     1 <1>   0.0800 
 40 H        9.6310     4.0690    -0.1790 H     1 <1>   0.0800 
 41 H       10.1710     3.8880    -1.8170 H     1 <1>   0.0800 
 42 H        8.9360     2.8250    -1.2110 H     1 <1>   0.0800 
@<TRIPOS>BOND
  1   1   2  1   
  2   2   3  ar  
  3   2   4  ar  
  4   3   5  ar  
  5   3   6  1   
  6   4   7  ar  
  7   4  21  1   
  8   5   8  ar  
  9   5  22  1   
 10   6  23  1   
 11   6  24  1   
 12   6  25  1   
 13   7   8  ar  
 14   7   9  1   
 15   8  10  1   
 16   9  26  1   
 17   9  27  1   
 18   9  28  1   
 19  10  11  2   
 20  10  12  2   
 21  10  13  am  
 22  13  14  1   
 23  13  15  1   
 24  14  16  1   
 25  14  29  1   
 26  14  30  1   
 27  15  17  1   
 28  15  31  1   
 29  15  32  1   
 30  16  18  1   
 31  16  33  1   
 32  16  34  1   
 33  17  18  1   
 34  17  35  1   
 35  17  36  1   
 36  18  19  1   
 37  18  37  1   
 38  19  20  1   
 39  19  38  1   
 40  19  39  1   
 41  20  40  1   
 42  20  41  1   
 43  20  42  1   
@<TRIPOS>SUBSTRUCTURE
  1 ****  13 GROUP 4 **** **** 0

# MOE 2024.06 (io_trps.svl 2023.06)
