@<TRIPOS>MOLECULE
NONAME
59 61 1 0 0 
SMALL
USER_CHARGES


@<TRIPOS>ATOM
  1 S        0.0660    -0.3110    -0.4640 S.o2  1 <1>   1.4470 
  2 O        0.3290     0.0750     0.9030 O.2   1 <1>  -0.6500 
  3 O        1.1340    -0.8850    -1.2570 O.2   1 <1>  -0.6500 
  4 N       -0.4220     1.1190    -1.3080 N.am  1 <1>  -0.6930 
  5 C       -1.4110    -1.3560    -0.5750 C.ar  1 <1>  -0.0090 
  6 C       -1.4490     1.9030    -0.8020 C.ar  1 <1>   0.1990 
  7 C        0.6100     1.7910    -2.1590 C.3   1 <1>   0.2570 
  8 C       -2.4530    -1.2160     0.3350 C.ar  1 <1>  -0.1500 
  9 C       -1.5560    -2.3000    -1.5860 C.ar  1 <1>  -0.1500 
 10 C       -2.7420     1.7450    -1.2800 C.ar  1 <1>  -0.1500 
 11 C       -1.2150     2.8480     0.1870 C.ar  1 <1>  -0.1500 
 12 C        1.8380     2.2990    -1.3950 C.2   1 <1>   0.5690 
 13 C       -3.5970    -1.9910     0.2450 C.ar  1 <1>  -0.1500 
 14 C       -2.6950    -3.0800    -1.6840 C.ar  1 <1>  -0.1500 
 15 C       -3.7790     2.5110    -0.7800 C.ar  1 <1>  -0.1500 
 16 C       -2.2500     3.6160     0.6870 C.ar  1 <1>  -0.1500 
 17 O        1.9340     3.4820    -1.1650 O.2   1 <1>  -0.5700 
 18 N        2.7900     1.4130    -1.0010 N.am  1 <1>  -0.7300 
 19 C       -3.7180    -2.9250    -0.7670 C.ar  1 <1>  -0.1500 
 20 C       -3.5450     3.4560     0.2100 C.ar  1 <1>  -0.1430 
 21 C        3.9200     1.7130    -0.1150 C.3   1 <1>   0.2200 
 22 C       -4.7000     4.2960     0.7520 C.3   1 <1>   0.0630 
 23 C        5.1960     1.1240    -0.7230 C.3   1 <1>  -0.1600 
 24 C        3.6300     1.1100     1.2630 C.3   1 <1>  -0.1600 
 25 C       -4.4670     5.7860     0.4810 C.3   1 <1>  -0.2400 
 26 C       -4.9080     4.0410     2.2480 C.3   1 <1>  -0.2400 
 27 C        6.3950     1.3030     0.2210 C.3   1 <1>  -0.1600 
 28 C        4.8240     1.2880     2.2110 C.3   1 <1>  -0.1600 
 29 C        6.1060     0.7020     1.6030 C.3   1 <1>  -0.1600 
 30 H        0.1580     2.6310    -2.6550 H     1 <1>   0.0800 
 31 H        0.9390     1.1060    -2.9190 H     1 <1>   0.0800 
 32 H       -2.3690    -0.4860     1.1240 H     1 <1>   0.1500 
 33 H       -0.7650    -2.4290    -2.3070 H     1 <1>   0.1500 
 34 H       -2.9340     1.0150    -2.0450 H     1 <1>   0.1500 
 35 H       -0.2170     2.9790     0.5680 H     1 <1>   0.1500 
 36 H       -4.3900    -1.8640     0.9610 H     1 <1>   0.1500 
 37 H       -2.7860    -3.8070    -2.4730 H     1 <1>   0.1500 
 38 H       -4.7730     2.3680    -1.1660 H     1 <1>   0.1500 
 39 H       -2.0400     4.3420     1.4530 H     1 <1>   0.1500 
 40 H        2.6160     0.4080    -1.1410 H     1 <1>   0.3700 
 41 H       -4.6060    -3.5310    -0.8390 H     1 <1>   0.1500 
 42 H        4.0330     2.7810    -0.0180 H     1 <1>   0.0800 
 43 H       -5.6050     4.0090     0.2420 H     1 <1>   0.0800 
 44 H        5.4030     1.6140    -1.6580 H     1 <1>   0.0800 
 45 H        5.0530     0.0740    -0.9100 H     1 <1>   0.0800 
 46 H        3.4160     0.0600     1.1600 H     1 <1>   0.0800 
 47 H        2.7630     1.5890     1.6850 H     1 <1>   0.0800 
 48 H       -3.6010     6.1410     1.0090 H     1 <1>   0.0800 
 49 H       -5.3200     6.3600     0.7950 H     1 <1>   0.0800 
 50 H       -4.3150     5.9460    -0.5710 H     1 <1>   0.0800 
 51 H       -4.0490     4.3550     2.8130 H     1 <1>   0.0800 
 52 H       -5.0650     2.9910     2.4210 H     1 <1>   0.0800 
 53 H       -5.7680     4.5800     2.6020 H     1 <1>   0.0800 
 54 H        6.6090     2.3530     0.3270 H     1 <1>   0.0800 
 55 H        7.2630     0.8310    -0.2050 H     1 <1>   0.0800 
 56 H        4.6140     0.8040     3.1490 H     1 <1>   0.0800 
 57 H        4.9690     2.3370     2.4060 H     1 <1>   0.0800 
 58 H        6.9370     0.8940     2.2610 H     1 <1>   0.0800 
 59 H        5.9990    -0.3660     1.5120 H     1 <1>   0.0800 
@<TRIPOS>BOND
  1   1   2  2   
  2   1   3  2   
  3   1   4  am  
  4   1   5  1   
  5   4   6  1   
  6   4   7  1   
  7   5   8  ar  
  8   5   9  ar  
  9   6  10  ar  
 10   6  11  ar  
 11   7  12  1   
 12   7  30  1   
 13   7  31  1   
 14   8  13  ar  
 15   8  32  1   
 16   9  14  ar  
 17   9  33  1   
 18  10  15  ar  
 19  10  34  1   
 20  11  16  ar  
 21  11  35  1   
 22  12  17  2   
 23  12  18  am  
 24  13  19  ar  
 25  13  36  1   
 26  14  19  ar  
 27  14  37  1   
 28  15  20  ar  
 29  15  38  1   
 30  16  20  ar  
 31  16  39  1   
 32  18  21  1   
 33  18  40  1   
 34  19  41  1   
 35  20  22  1   
 36  21  23  1   
 37  21  24  1   
 38  21  42  1   
 39  22  25  1   
 40  22  26  1   
 41  22  43  1   
 42  23  27  1   
 43  23  44  1   
 44  23  45  1   
 45  24  28  1   
 46  24  46  1   
 47  24  47  1   
 48  25  48  1   
 49  25  49  1   
 50  25  50  1   
 51  26  51  1   
 52  26  52  1   
 53  26  53  1   
 54  27  29  1   
 55  27  54  1   
 56  27  55  1   
 57  28  29  1   
 58  28  56  1   
 59  28  57  1   
 60  29  58  1   
 61  29  59  1   
@<TRIPOS>SUBSTRUCTURE
  1 ****   4 GROUP 4 **** **** 0

# MOE 2024.06 (io_trps.svl 2023.06)
