@<TRIPOS>MOLECULE
NONAME
38 39 1 0 0 
SMALL
USER_CHARGES


@<TRIPOS>ATOM
  1 CL      -0.3300     0.0720     0.6830 Cl    1 <1>  -0.1770 
  2 C       -1.7800     0.7760     0.0010 C.ar  1 <1>   0.1770 
  3 C       -3.0330     0.2210     0.2300 C.ar  1 <1>  -0.1440 
  4 C       -1.6140     1.9080    -0.7760 C.ar  1 <1>  -0.1500 
  5 C       -4.1500     0.8310    -0.3480 C.ar  1 <1>   0.1000 
  6 C       -3.2150    -1.0310     1.0930 C.3   1 <1>  -0.0960 
  7 C       -2.7200     2.5080    -1.3470 C.ar  1 <1>  -0.1500 
  8 N       -5.4260     0.2840    -0.1370 N.pl3 1 <1>  -0.6000 
  9 C       -3.9750     1.9690    -1.1330 C.ar  1 <1>  -0.1500 
 10 C       -6.6710     0.7700    -0.4050 C.2   1 <1>  -0.0500 
 11 C       -7.8630     0.1300    -0.1410 C.2   1 <1>   0.0290 
 12 C       -9.0960     0.7680    -0.4960 C.2   1 <1>   0.4950 
 13 C       -7.9200    -1.1650     0.4810 C.2   1 <1>   0.4950 
 14 O       -9.1500     1.8640    -1.0020 O.2   1 <1>  -0.5700 
 15 C      -10.4370     0.1000    -0.2420 C.3   1 <1>  -0.0990 
 16 O       -6.9460    -1.7860     0.8450 O.2   1 <1>  -0.5700 
 17 C       -9.2520    -1.8490     0.7460 C.3   1 <1>  -0.0990 
 18 C      -10.3540    -1.4320    -0.2370 C.3   1 <1>   0.0000 
 19 C      -11.6990    -2.0180     0.2190 C.3   1 <1>  -0.2400 
 20 C      -10.0490    -1.9630    -1.6500 C.3   1 <1>  -0.2400 
 21 H       -0.6290     2.3100    -0.9300 H     1 <1>   0.1500 
 22 H       -3.5880    -1.8390     0.4900 H     1 <1>   0.0800 
 23 H       -3.9200    -0.8340     1.8820 H     1 <1>   0.0800 
 24 H       -2.3000    -1.3540     1.5510 H     1 <1>   0.0800 
 25 H       -2.6060     3.3890    -1.9550 H     1 <1>   0.1500 
 26 H       -5.4120    -0.6430     0.3220 H     1 <1>   0.4000 
 27 H       -4.8230     2.4420    -1.5890 H     1 <1>   0.1500 
 28 H       -6.7090     1.7460    -0.8620 H     1 <1>   0.1500 
 29 H      -10.8030     0.4550     0.7050 H     1 <1>   0.0800 
 30 H      -11.1340     0.4230    -0.9960 H     1 <1>   0.0800 
 31 H       -9.1110    -2.9150     0.6970 H     1 <1>   0.0800 
 32 H       -9.5450    -1.6110     1.7530 H     1 <1>   0.0800 
 33 H      -11.9560    -1.6740     1.2060 H     1 <1>   0.0800 
 34 H      -11.6570    -3.0930     0.2390 H     1 <1>   0.0800 
 35 H      -12.4880    -1.7260    -0.4540 H     1 <1>   0.0800 
 36 H      -10.8260    -1.6720    -2.3370 H     1 <1>   0.0800 
 37 H       -9.9980    -3.0380    -1.6450 H     1 <1>   0.0800 
 38 H       -9.1160    -1.5900    -2.0310 H     1 <1>   0.0800 
@<TRIPOS>BOND
  1   1   2  1   
  2   2   3  ar  
  3   2   4  ar  
  4   3   5  ar  
  5   3   6  1   
  6   4   7  ar  
  7   4  21  1   
  8   5   8  1   
  9   5   9  ar  
 10   6  22  1   
 11   6  23  1   
 12   6  24  1   
 13   7   9  ar  
 14   7  25  1   
 15   8  10  1   
 16   8  26  1   
 17   9  27  1   
 18  10  11  2   
 19  10  28  1   
 20  11  12  1   
 21  11  13  1   
 22  12  14  2   
 23  12  15  1   
 24  13  16  2   
 25  13  17  1   
 26  15  18  1   
 27  15  29  1   
 28  15  30  1   
 29  17  18  1   
 30  17  31  1   
 31  17  32  1   
 32  18  19  1   
 33  18  20  1   
 34  19  33  1   
 35  19  34  1   
 36  19  35  1   
 37  20  36  1   
 38  20  37  1   
 39  20  38  1   
@<TRIPOS>SUBSTRUCTURE
  1 ****  10 GROUP 4 **** **** 0

# MOE 2024.06 (io_trps.svl 2023.06)
