@<TRIPOS>MOLECULE
NONAME
39 40 1 0 0 
SMALL
USER_CHARGES


@<TRIPOS>ATOM
  1 O       -1.7060     0.5800    -1.2270 O.2   1 <1>  -0.5700 
  2 C       -2.1250    -0.2960    -0.4950 C.2   1 <1>   0.8060 
  3 O       -3.3640    -0.1330    -0.0190 O.3   1 <1>  -0.4300 
  4 C       -1.3670    -1.4580    -0.1510 C.2   1 <1>  -0.0860 
  5 C       -4.2990    -1.1870    -0.0550 C.3   1 <1>   0.1200 
  6 C       -0.4060    -2.1090    -0.8760 C.2   1 <1>  -0.0680 
  7 C       -1.4330    -2.1870     1.0420 C.2   1 <1>   0.1390 
  8 C       -5.6800    -0.5940     0.2030 C.3   1 <1>  -0.2400 
  9 N        0.0140    -3.1570    -0.1220 N.pl3 1 <1>   0.3140 
 10 N        0.0490    -1.7580    -2.1430 N.pl3 1 <1>  -0.8840 
 11 N       -0.6340    -3.2000     1.0700 N.2   1 <1>  -0.7070 
 12 C        1.0080    -4.1860    -0.4890 C.3   1 <1>   0.0960 
 13 C        2.3830    -3.9250     0.1550 C.3   1 <1>  -0.0800 
 14 C        3.0070    -2.5960    -0.3180 C.3   1 <1>  -0.1600 
 15 C        3.3320    -5.0980    -0.1500 C.3   1 <1>  -0.1600 
 16 C        4.3960    -2.3760     0.2960 C.3   1 <1>  -0.1600 
 17 C        4.7200    -4.8760     0.4660 C.3   1 <1>  -0.1600 
 18 C        5.3310    -3.5520    -0.0070 C.3   1 <1>  -0.1600 
 19 H       -4.0530    -1.9090     0.7040 H     1 <1>   0.0800 
 20 H       -4.2600    -1.6500    -1.0280 H     1 <1>   0.0800 
 21 H       -2.0800    -1.9310     1.8640 H     1 <1>   0.1500 
 22 H       -5.7080    -0.1250     1.1710 H     1 <1>   0.0800 
 23 H       -6.4210    -1.3720     0.1780 H     1 <1>   0.0800 
 24 H       -5.9180     0.1310    -0.5540 H     1 <1>   0.0800 
 25 H        1.0060    -1.9960    -2.4260 H     1 <1>   0.4000 
 26 H       -0.2300    -0.8250    -2.4880 H     1 <1>   0.4000 
 27 H        1.0950    -4.2140    -1.5590 H     1 <1>   0.0800 
 28 H        0.6290    -5.1350    -0.1570 H     1 <1>   0.0800 
 29 H        2.2440    -3.8790     1.2230 H     1 <1>   0.0800 
 30 H        2.3740    -1.7710    -0.0360 H     1 <1>   0.0800 
 31 H        3.0940    -2.5970    -1.3900 H     1 <1>   0.0800 
 32 H        3.4370    -5.2130    -1.2150 H     1 <1>   0.0800 
 33 H        2.9180    -6.0110     0.2430 H     1 <1>   0.0800 
 34 H        4.2990    -2.2640     1.3620 H     1 <1>   0.0800 
 35 H        4.8220    -1.4670    -0.0930 H     1 <1>   0.0800 
 36 H        5.3700    -5.6900     0.1940 H     1 <1>   0.0800 
 37 H        4.6370    -4.8660     1.5400 H     1 <1>   0.0800 
 38 H        6.2770    -3.3960     0.4830 H     1 <1>   0.0800 
 39 H        5.5130    -3.6010    -1.0670 H     1 <1>   0.0800 
@<TRIPOS>BOND
  1   1   2  2   
  2   2   3  1   
  3   2   4  1   
  4   3   5  1   
  5   4   6  2   
  6   4   7  1   
  7   5   8  1   
  8   5  19  1   
  9   5  20  1   
 10   6   9  1   
 11   6  10  1   
 12   7  11  2   
 13   7  21  1   
 14   8  22  1   
 15   8  23  1   
 16   8  24  1   
 17   9  11  1   
 18   9  12  1   
 19  10  25  1   
 20  10  26  1   
 21  12  13  1   
 22  12  27  1   
 23  12  28  1   
 24  13  14  1   
 25  13  15  1   
 26  13  29  1   
 27  14  16  1   
 28  14  30  1   
 29  14  31  1   
 30  15  17  1   
 31  15  32  1   
 32  15  33  1   
 33  16  18  1   
 34  16  34  1   
 35  16  35  1   
 36  17  18  1   
 37  17  36  1   
 38  17  37  1   
 39  18  38  1   
 40  18  39  1   
@<TRIPOS>SUBSTRUCTURE
  1 ****   9 GROUP 4 **** **** 0

# MOE 2024.06 (io_trps.svl 2023.06)
