@<TRIPOS>MOLECULE
NONAME
51 53 1 0 0 
SMALL
USER_CHARGES


@<TRIPOS>ATOM
  1 F       -0.1590    -3.1340    -2.4270 F     1 <1>  -0.1900 
  2 C       -1.0760    -2.5160    -1.7190 C.ar  1 <1>   0.1900 
  3 C       -0.9580    -2.4750    -0.3240 C.ar  1 <1>   0.1000 
  4 C       -2.1240    -1.9310    -2.4010 C.ar  1 <1>  -0.1500 
  5 N        0.0900    -3.0570     0.4030 N.pl3 1 <1>  -0.8380 
  6 C       -1.9590    -1.8080     0.3700 C.ar  1 <1>  -0.1500 
  7 C       -3.1060    -1.2730    -1.6780 C.ar  1 <1>  -0.1500 
  8 C        1.4250    -2.4110     0.2110 C.3   1 <1>   0.2090 
  9 C        0.1320    -4.5500     0.3700 C.3   1 <1>   0.2090 
 10 C       -3.0200    -1.2140    -0.2960 C.ar  1 <1>  -0.1500 
 11 C        2.4630    -2.9740     1.2030 C.3   1 <1>   0.3430 
 12 C        1.1770    -5.0990     1.3630 C.3   1 <1>   0.3430 
 13 N        2.5380    -4.4830     1.1640 N.4   1 <1>  -0.9590 
 14 C        3.5400    -5.0120     2.1270 C.3   1 <1>   0.4860 
 15 C        4.9030    -4.4770     1.7350 C.ar  1 <1>  -0.1430 
 16 C        5.4800    -4.8620     0.5360 C.ar  1 <1>  -0.1500 
 17 C        5.5810    -3.5920     2.5560 C.ar  1 <1>  -0.1500 
 18 C        6.7070    -4.3650     0.1300 C.ar  1 <1>   0.0830 
 19 C        6.8130    -3.0910     2.1720 C.ar  1 <1>  -0.1500 
 20 O        7.1040    -4.8390    -1.0860 O.3   1 <1>  -0.3630 
 21 C        7.3950    -3.4620     0.9610 C.ar  1 <1>   0.0830 
 22 C        8.3600    -4.5620    -1.6600 C.3   1 <1>   0.1200 
 23 O        8.6040    -2.9570     0.5820 O.3   1 <1>  -0.3630 
 24 C        8.4600    -5.3350    -2.9710 C.3   1 <1>  -0.2400 
 25 C        9.4220    -2.2030     1.4510 C.3   1 <1>   0.0400 
 26 H       -2.1730    -1.9880    -3.4740 H     1 <1>   0.1500 
 27 H       -1.9020    -1.7550     1.4420 H     1 <1>   0.1500 
 28 H       -3.9330    -0.8090    -2.1880 H     1 <1>   0.1500 
 29 H        1.3280    -1.3490     0.3630 H     1 <1>   0.0800 
 30 H        1.7670    -2.5690    -0.7980 H     1 <1>   0.0800 
 31 H        0.3660    -4.8870    -0.6250 H     1 <1>   0.0800 
 32 H       -0.8410    -4.9340     0.6270 H     1 <1>   0.0800 
 33 H       -3.7840    -0.7020     0.2640 H     1 <1>   0.1500 
 34 H        2.1880    -2.6520     2.1930 H     1 <1>   0.0800 
 35 H        3.4280    -2.5520     0.9730 H     1 <1>   0.0800 
 36 H        1.2360    -6.1690     1.2510 H     1 <1>   0.0800 
 37 H        0.8280    -4.8890     2.3610 H     1 <1>   0.0800 
 38 H        2.8700    -4.7300     0.2230 H     1 <1>   0.4500 
 39 H        3.5580    -6.0890     2.0940 H     1 <1>   0.0800 
 40 H        3.2940    -4.7020     3.1300 H     1 <1>   0.0800 
 41 H        4.9920    -5.5630    -0.1170 H     1 <1>   0.1500 
 42 H        5.1670    -3.2800     3.5000 H     1 <1>   0.1500 
 43 H        7.3050    -2.4060     2.8360 H     1 <1>   0.1500 
 44 H        9.1270    -4.8750    -0.9730 H     1 <1>   0.0800 
 45 H        8.4280    -3.5020    -1.8380 H     1 <1>   0.0800 
 46 H        8.3810    -6.3910    -2.7840 H     1 <1>   0.0800 
 47 H        9.4090    -5.1400    -3.4350 H     1 <1>   0.0800 
 48 H        7.6800    -5.0270    -3.6430 H     1 <1>   0.0800 
 49 H       10.3480    -1.9990     0.9450 H     1 <1>   0.0800 
 50 H        9.6120    -2.7770     2.3410 H     1 <1>   0.0800 
 51 H        8.9260    -1.2770     1.6850 H     1 <1>   0.0800 
@<TRIPOS>BOND
  1   1   2  1   
  2   2   3  ar  
  3   2   4  ar  
  4   3   5  1   
  5   3   6  ar  
  6   4   7  ar  
  7   4  26  1   
  8   5   8  1   
  9   5   9  1   
 10   6  10  ar  
 11   6  27  1   
 12   7  10  ar  
 13   7  28  1   
 14   8  11  1   
 15   8  29  1   
 16   8  30  1   
 17   9  12  1   
 18   9  31  1   
 19   9  32  1   
 20  10  33  1   
 21  11  13  1   
 22  11  34  1   
 23  11  35  1   
 24  12  13  1   
 25  12  36  1   
 26  12  37  1   
 27  13  14  1   
 28  13  38  1   
 29  14  15  1   
 30  14  39  1   
 31  14  40  1   
 32  15  16  ar  
 33  15  17  ar  
 34  16  18  ar  
 35  16  41  1   
 36  17  19  ar  
 37  17  42  1   
 38  18  20  1   
 39  18  21  ar  
 40  19  21  ar  
 41  19  43  1   
 42  20  22  1   
 43  21  23  1   
 44  22  24  1   
 45  22  44  1   
 46  22  45  1   
 47  23  25  1   
 48  24  46  1   
 49  24  47  1   
 50  24  48  1   
 51  25  49  1   
 52  25  50  1   
 53  25  51  1   
@<TRIPOS>SUBSTRUCTURE
  1 ****  11 GROUP 4 **** **** 0

# MOE 2024.06 (io_trps.svl 2023.06)
