@<TRIPOS>MOLECULE
NONAME
39 41 1 0 0 
SMALL
USER_CHARGES


@<TRIPOS>ATOM
  1 S        0.1500    -0.3470     0.9410 S.3   1 <1>  -0.3710 
  2 C       -1.3470    -1.0970     0.3190 C.2   1 <1>   0.6510 
  3 C       -0.3640     1.3580     1.4230 C.3   1 <1>   0.2700 
  4 N       -2.3720    -0.3300     0.3460 N.2   1 <1>  -0.6290 
  5 N       -1.3200    -2.4090    -0.1400 N.am  1 <1>  -0.4200 
  6 C        0.8340     2.0640     1.9600 C.1   1 <1>  -0.2000 
  7 C       -3.5750    -0.8090    -0.1100 C.ar  1 <1>   0.1790 
  8 C       -2.5160    -2.9300    -0.6100 C.2   1 <1>   0.5440 
  9 C       -0.1030    -3.3030    -0.1670 C.3   1 <1>   0.2200 
 10 C        1.7900     2.6290     2.3880 C.1   1 <1>  -0.1770 
 11 C       -3.6960    -2.1100    -0.6010 C.ar  1 <1>   0.0860 
 12 C       -4.6890     0.0240    -0.0810 C.ar  1 <1>  -0.1500 
 13 O       -2.5800    -4.0740    -1.0310 O.2   1 <1>  -0.5700 
 14 C        0.4310    -3.6490     1.2350 C.3   1 <1>  -0.1600 
 15 C        0.9950    -2.8110    -1.1280 C.3   1 <1>  -0.1600 
 16 C       -4.9470    -2.5430    -1.0530 C.ar  1 <1>  -0.1500 
 17 C       -5.9160    -0.4180    -0.5300 C.ar  1 <1>  -0.1500 
 18 C        1.5890    -4.6540     1.1380 C.3   1 <1>  -0.1600 
 19 C        2.1460    -3.8260    -1.1970 C.3   1 <1>  -0.1600 
 20 C       -6.0460    -1.7090    -1.0190 C.ar  1 <1>  -0.1500 
 21 C        2.6940    -4.1410     0.2020 C.3   1 <1>  -0.1600 
 22 H       -1.1340     1.2680     2.1690 H     1 <1>   0.0800 
 23 H       -0.7460     1.8440     0.5430 H     1 <1>   0.0800 
 24 H       -0.3930    -4.2550    -0.5740 H     1 <1>   0.0800 
 25 H        2.6570     3.1350     2.7750 H     1 <1>   0.1770 
 26 H       -4.5780     1.0230     0.2990 H     1 <1>   0.1500 
 27 H       -0.3610    -4.0790     1.8210 H     1 <1>   0.0800 
 28 H        0.7950    -2.7790     1.7440 H     1 <1>   0.0800 
 29 H        1.4040    -1.8720    -0.8110 H     1 <1>   0.0800 
 30 H        0.5770    -2.6850    -2.1110 H     1 <1>   0.0800 
 31 H       -5.0470    -3.5470    -1.4320 H     1 <1>   0.1500 
 32 H       -6.7730     0.2340    -0.5040 H     1 <1>   0.1500 
 33 H        1.2170    -5.5940     0.7680 H     1 <1>   0.0800 
 34 H        1.9990    -4.8260     2.1190 H     1 <1>   0.0800 
 35 H        2.9360    -3.4320    -1.8130 H     1 <1>   0.0800 
 36 H        1.7950    -4.7350    -1.6550 H     1 <1>   0.0800 
 37 H       -7.0030    -2.0560    -1.3700 H     1 <1>   0.1500 
 38 H        3.4710    -4.8830     0.1240 H     1 <1>   0.0800 
 39 H        3.1310    -3.2510     0.6220 H     1 <1>   0.0800 
@<TRIPOS>BOND
  1   1   2  1   
  2   1   3  1   
  3   2   4  2   
  4   2   5  1   
  5   3   6  1   
  6   3  22  1   
  7   3  23  1   
  8   4   7  1   
  9   5   8  am  
 10   5   9  1   
 11   6  10  3   
 12   7  11  ar  
 13   7  12  ar  
 14   8  11  1   
 15   8  13  2   
 16   9  14  1   
 17   9  15  1   
 18   9  24  1   
 19  10  25  1   
 20  11  16  ar  
 21  12  17  ar  
 22  12  26  1   
 23  14  18  1   
 24  14  27  1   
 25  14  28  1   
 26  15  19  1   
 27  15  29  1   
 28  15  30  1   
 29  16  20  ar  
 30  16  31  1   
 31  17  20  ar  
 32  17  32  1   
 33  18  21  1   
 34  18  33  1   
 35  18  34  1   
 36  19  21  1   
 37  19  35  1   
 38  19  36  1   
 39  20  37  1   
 40  21  38  1   
 41  21  39  1   
@<TRIPOS>SUBSTRUCTURE
  1 ****   2 GROUP 4 **** **** 0

# MOE 2024.06 (io_trps.svl 2023.06)
