@<TRIPOS>MOLECULE
NONAME
53 55 1 0 0 
SMALL
USER_CHARGES


@<TRIPOS>ATOM
  1 O        0.0300     0.3160     1.2530 O.2   1 <1>  -0.5700 
  2 C        0.0800     1.0740     0.3050 C.2   1 <1>   0.6900 
  3 N       -1.0330     1.5850    -0.2910 N.am  1 <1>  -0.5470 
  4 N        1.2880     1.4390    -0.1930 N.am  1 <1>  -0.7300 
  5 C       -2.3950     1.3130    -0.0910 C.ar  1 <1>   0.1170 
  6 C        2.5580     0.9970     0.3960 C.3   1 <1>   0.2200 
  7 C       -3.3480     2.2880    -0.3970 C.ar  1 <1>  -0.1440 
  8 C       -2.8340     0.0810     0.3850 C.ar  1 <1>  -0.1500 
  9 C        3.6460     2.0320     0.1280 C.3   1 <1>  -0.1600 
 10 C        2.9430    -0.3600    -0.1890 C.3   1 <1>  -0.1600 
 11 C       -4.6960     2.0160    -0.2220 C.ar  1 <1>  -0.1500 
 12 C       -2.9400     3.6610    -0.9190 C.3   1 <1>  -0.0970 
 13 C       -4.1800    -0.1800     0.5580 C.ar  1 <1>  -0.1500 
 14 C        4.9810     1.5480     0.6900 C.3   1 <1>   0.3430 
 15 C        4.2780    -0.8210     0.3840 C.3   1 <1>   0.3430 
 16 C       -5.1210     0.7880     0.2560 C.ar  1 <1>  -0.1440 
 17 N        5.3240     0.2090     0.1170 N.4   1 <1>  -0.9590 
 18 C       -6.6000     0.5060     0.4430 C.3   1 <1>  -0.0970 
 19 C        6.6640    -0.2500     0.5770 C.3   1 <1>   0.4860 
 20 C        7.7080     0.7110     0.0460 C.ar  1 <1>  -0.1440 
 21 C        8.3190     1.6200     0.9000 C.ar  1 <1>  -0.1500 
 22 C        8.0550     0.6960    -1.2980 C.ar  1 <1>  -0.1500 
 23 C        9.2570     2.5120     0.4110 C.ar  1 <1>  -0.1500 
 24 C        8.9930     1.5900    -1.7840 C.ar  1 <1>  -0.1500 
 25 C        9.5920     2.4990    -0.9310 C.ar  1 <1>  -0.1500 
 26 H       -0.8600     2.3880    -0.8830 H     1 <1>   0.3700 
 27 H        1.3240     1.8910    -1.1040 H     1 <1>   0.3700 
 28 H        2.4260     0.8960     1.4630 H     1 <1>   0.0800 
 29 H       -2.1210    -0.6860     0.6210 H     1 <1>   0.1500 
 30 H        3.3830     2.9580     0.6080 H     1 <1>   0.0800 
 31 H        3.7470     2.2140    -0.9270 H     1 <1>   0.0800 
 32 H        3.0040    -0.3090    -1.2620 H     1 <1>   0.0800 
 33 H        2.1890    -1.0830     0.0710 H     1 <1>   0.0800 
 34 H       -5.4300     2.7660    -0.4580 H     1 <1>   0.1500 
 35 H       -2.2500     4.1240    -0.2360 H     1 <1>   0.0800 
 36 H       -3.7950     4.3050    -1.0170 H     1 <1>   0.0800 
 37 H       -2.4780     3.5660    -1.8850 H     1 <1>   0.0800 
 38 H       -4.4890    -1.1410     0.9290 H     1 <1>   0.1500 
 39 H        4.9140     1.4790     1.7640 H     1 <1>   0.0800 
 40 H        5.7500     2.2650     0.4450 H     1 <1>   0.0800 
 41 H        4.5560    -1.7600    -0.0660 H     1 <1>   0.0800 
 42 H        4.1760    -0.9720     1.4480 H     1 <1>   0.0800 
 43 H        5.4070     0.3360    -0.9000 H     1 <1>   0.4500 
 44 H       -7.1180     1.4020     0.7350 H     1 <1>   0.0800 
 45 H       -6.7480    -0.2350     1.2070 H     1 <1>   0.0800 
 46 H       -7.0200     0.1450    -0.4780 H     1 <1>   0.0800 
 47 H        6.8700    -1.2380     0.1980 H     1 <1>   0.0800 
 48 H        6.7020    -0.2810     1.6540 H     1 <1>   0.0800 
 49 H        8.0810     1.6460     1.9500 H     1 <1>   0.1500 
 50 H        7.6120    -0.0070    -1.9820 H     1 <1>   0.1500 
 51 H        9.7320     3.2170     1.0720 H     1 <1>   0.1500 
 52 H        9.2630     1.5800    -2.8270 H     1 <1>   0.1500 
 53 H       10.3230     3.1930    -1.3110 H     1 <1>   0.1500 
@<TRIPOS>BOND
  1   1   2  2   
  2   2   3  am  
  3   2   4  am  
  4   3   5  1   
  5   3  26  1   
  6   4   6  1   
  7   4  27  1   
  8   5   7  ar  
  9   5   8  ar  
 10   6   9  1   
 11   6  10  1   
 12   6  28  1   
 13   7  11  ar  
 14   7  12  1   
 15   8  13  ar  
 16   8  29  1   
 17   9  14  1   
 18   9  30  1   
 19   9  31  1   
 20  10  15  1   
 21  10  32  1   
 22  10  33  1   
 23  11  16  ar  
 24  11  34  1   
 25  12  35  1   
 26  12  36  1   
 27  12  37  1   
 28  13  16  ar  
 29  13  38  1   
 30  14  17  1   
 31  14  39  1   
 32  14  40  1   
 33  15  17  1   
 34  15  41  1   
 35  15  42  1   
 36  16  18  1   
 37  17  19  1   
 38  17  43  1   
 39  18  44  1   
 40  18  45  1   
 41  18  46  1   
 42  19  20  1   
 43  19  47  1   
 44  19  48  1   
 45  20  21  ar  
 46  20  22  ar  
 47  21  23  ar  
 48  21  49  1   
 49  22  24  ar  
 50  22  50  1   
 51  23  25  ar  
 52  23  51  1   
 53  24  25  ar  
 54  24  52  1   
 55  25  53  1   
@<TRIPOS>SUBSTRUCTURE
  1 ****   6 GROUP 4 **** **** 0

# MOE 2024.06 (io_trps.svl 2023.06)
