@<TRIPOS>MOLECULE
NONAME
46 46 1 0 0 
SMALL
USER_CHARGES


@<TRIPOS>ATOM
  1 S       -1.2900    -2.8360    -4.1450 S.3   1 <1>  -0.3320 
  2 C       -1.3410    -3.4860    -2.4830 C.ar  1 <1>   0.7220 
  3 C        0.0890    -1.6050    -4.1360 C.3   1 <1>  -0.0100 
  4 N       -2.2650    -4.3720    -2.2710 N.ar  1 <1>  -0.6200 
  5 N       -0.4710    -3.0070    -1.6500 N.ar  1 <1>  -0.6200 
  6 C       -2.2670    -4.8020    -1.0340 C.ar  1 <1>   0.8190 
  7 C       -0.5820    -3.5160    -0.4470 C.ar  1 <1>   0.7200 
  8 N       -1.4380    -4.4390    -0.0970 N.ar  1 <1>  -0.6200 
  9 N       -3.2450    -5.6860    -0.6770 N.pl3 1 <1>  -0.6810 
 10 N        0.2520    -3.0300     0.5300 N.pl3 1 <1>  -0.8380 
 11 C       -3.6860    -6.6680    -1.5720 C.1   1 <1>   0.6830 
 12 C       -4.1460    -5.3940     0.4820 C.3   1 <1>   0.3370 
 13 C        1.5070    -2.2890     0.2260 C.3   1 <1>   0.1290 
 14 C       -0.1110    -3.1140     1.9760 C.3   1 <1>   0.1290 
 15 N       -4.1000    -7.4720    -2.2620 N.1   1 <1>  -0.5570 
 16 C       -4.2480    -3.8860     0.8630 C.2   1 <1>   0.5690 
 17 C       -3.7090    -6.2980     1.6450 C.3   1 <1>  -0.2400 
 18 O       -3.8610    -3.5410     1.9600 O.2   1 <1>  -0.5700 
 19 N       -4.7670    -2.9590    -0.0190 N.am  1 <1>  -0.6600 
 20 C       -5.4200    -3.2800    -1.3180 C.3   1 <1>   0.1400 
 21 C       -4.6720    -1.5050     0.2810 C.3   1 <1>   0.1400 
 22 C       -6.9230    -3.4330    -1.1030 C.3   1 <1>  -0.2400 
 23 C       -3.3650    -0.9600    -0.2890 C.3   1 <1>  -0.2400 
 24 H        0.1560    -1.1790    -5.1200 H     1 <1>   0.0800 
 25 H        0.9940    -2.1250    -3.8780 H     1 <1>   0.0800 
 26 H       -0.1440    -0.8530    -3.4040 H     1 <1>   0.0800 
 27 H       -5.1450    -5.6910     0.2150 H     1 <1>   0.0800 
 28 H        1.8650    -2.5360    -0.7590 H     1 <1>   0.0800 
 29 H        2.2690    -2.5530     0.9390 H     1 <1>   0.0800 
 30 H        1.3230    -1.2310     0.2780 H     1 <1>   0.0800 
 31 H       -1.1790    -3.1920     2.0970 H     1 <1>   0.0800 
 32 H        0.2200    -2.2320     2.4950 H     1 <1>   0.0800 
 33 H        0.3520    -3.9810     2.4140 H     1 <1>   0.0800 
 34 H       -2.7120    -6.0400     1.9570 H     1 <1>   0.0800 
 35 H       -3.7370    -7.3320     1.3550 H     1 <1>   0.0800 
 36 H       -4.3690    -6.1590     2.4820 H     1 <1>   0.0800 
 37 H       -5.0240    -4.1840    -1.7410 H     1 <1>   0.0800 
 38 H       -5.2290    -2.4900    -2.0250 H     1 <1>   0.0800 
 39 H       -4.6980    -1.3450     1.3460 H     1 <1>   0.0800 
 40 H       -5.5100    -0.9850    -0.1500 H     1 <1>   0.0800 
 41 H       -7.1260    -4.2300    -0.4100 H     1 <1>   0.0800 
 42 H       -7.3980    -3.6670    -2.0390 H     1 <1>   0.0800 
 43 H       -7.3440    -2.5190    -0.7270 H     1 <1>   0.0800 
 44 H       -2.5290    -1.4410     0.1880 H     1 <1>   0.0800 
 45 H       -3.2990     0.0960    -0.0970 H     1 <1>   0.0800 
 46 H       -3.3130    -1.1200    -1.3500 H     1 <1>   0.0800 
@<TRIPOS>BOND
  1   1   2  1   
  2   1   3  1   
  3   2   4  ar  
  4   2   5  ar  
  5   3  24  1   
  6   3  25  1   
  7   3  26  1   
  8   4   6  ar  
  9   5   7  ar  
 10   6   8  ar  
 11   6   9  1   
 12   7   8  ar  
 13   7  10  1   
 14   9  11  1   
 15   9  12  1   
 16  10  13  1   
 17  10  14  1   
 18  11  15  3   
 19  12  16  1   
 20  12  17  1   
 21  12  27  1   
 22  13  28  1   
 23  13  29  1   
 24  13  30  1   
 25  14  31  1   
 26  14  32  1   
 27  14  33  1   
 28  16  18  2   
 29  16  19  am  
 30  17  34  1   
 31  17  35  1   
 32  17  36  1   
 33  19  20  1   
 34  19  21  1   
 35  20  22  1   
 36  20  37  1   
 37  20  38  1   
 38  21  23  1   
 39  21  39  1   
 40  21  40  1   
 41  22  41  1   
 42  22  42  1   
 43  22  43  1   
 44  23  44  1   
 45  23  45  1   
 46  23  46  1   
@<TRIPOS>SUBSTRUCTURE
  1 ****   6 GROUP 4 **** **** 0

# MOE 2024.06 (io_trps.svl 2023.06)
