@<TRIPOS>MOLECULE
NONAME
47 48 1 0 0 
SMALL
USER_CHARGES


@<TRIPOS>ATOM
  1 O       -0.8870    -0.5810     0.6810 O.2   1 <1>  -0.5700 
  2 C       -0.5050    -1.6070     0.1770 C.2   1 <1>   0.6590 
  3 O        0.7600    -1.9980     0.2570 O.3   1 <1>  -0.4300 
  4 C       -1.4330    -2.5410    -0.5990 C.3   1 <1>  -0.0190 
  5 C        1.7220    -1.2370     0.9480 C.3   1 <1>   0.1200 
  6 C       -2.7990    -1.8990    -0.9200 C.3   1 <1>  -0.1600 
  7 C       -1.6380    -3.8710     0.1550 C.3   1 <1>  -0.1600 
  8 C        3.0570    -1.9690     0.8600 C.3   1 <1>  -0.2400 
  9 C       -3.7200    -2.8690    -1.6640 C.3   1 <1>   0.1400 
 10 C       -2.5800    -4.8130    -0.5990 C.3   1 <1>   0.1400 
 11 N       -3.8680    -4.1150    -0.8630 N.am  1 <1>  -0.6600 
 12 C       -5.0500    -4.6000    -0.3560 C.2   1 <1>   0.5690 
 13 O       -5.0950    -5.6430     0.2530 O.2   1 <1>  -0.5700 
 14 C       -6.3460    -3.8170    -0.5550 C.3   1 <1>  -0.0990 
 15 C       -7.5790    -4.4260     0.1410 C.3   1 <1>  -0.1600 
 16 C       -8.8620    -3.6220    -0.1210 C.3   1 <1>  -0.0800 
 17 C       -8.8420    -2.2030     0.4480 C.3   1 <1>  -0.1600 
 18 C      -10.0870    -4.2490     0.5380 C.3   1 <1>  -0.1600 
 19 C      -10.3120    -1.8130     0.6190 C.3   1 <1>  -0.1600 
 20 C      -11.1140    -3.1200     0.6050 C.3   1 <1>  -0.1600 
 21 H       -0.9420    -2.7590    -1.5310 H     1 <1>   0.0800 
 22 H        1.4030    -1.1330     1.9720 H     1 <1>   0.0800 
 23 H        1.7810    -0.2640     0.4890 H     1 <1>   0.0800 
 24 H       -2.6510    -1.0180    -1.5200 H     1 <1>   0.0800 
 25 H       -3.2820    -1.5930    -0.0080 H     1 <1>   0.0800 
 26 H       -2.0520    -3.6770     1.1300 H     1 <1>   0.0800 
 27 H       -0.6910    -4.3610     0.2940 H     1 <1>   0.0800 
 28 H        2.9770    -2.9410     1.3120 H     1 <1>   0.0800 
 29 H        3.8110    -1.4090     1.3820 H     1 <1>   0.0800 
 30 H        3.3570    -2.0710    -0.1680 H     1 <1>   0.0800 
 31 H       -3.2920    -3.1180    -2.6200 H     1 <1>   0.0800 
 32 H       -4.6680    -2.3970    -1.8430 H     1 <1>   0.0800 
 33 H       -2.7380    -5.7040    -0.0150 H     1 <1>   0.0800 
 34 H       -2.1400    -5.1060    -1.5370 H     1 <1>   0.0800 
 35 H       -6.5400    -3.7550    -1.6090 H     1 <1>   0.0800 
 36 H       -6.1890    -2.8250    -0.1760 H     1 <1>   0.0800 
 37 H       -7.3940    -4.4840     1.2010 H     1 <1>   0.0800 
 38 H       -7.7190    -5.4320    -0.2180 H     1 <1>   0.0800 
 39 H       -9.0430    -3.5660    -1.1820 H     1 <1>   0.0800 
 40 H       -8.3220    -1.5170    -0.1970 H     1 <1>   0.0800 
 41 H       -8.3660    -2.2080     1.4140 H     1 <1>   0.0800 
 42 H       -9.8420    -4.5620     1.5390 H     1 <1>   0.0800 
 43 H      -10.4540    -5.0960    -0.0150 H     1 <1>   0.0800 
 44 H      -10.6270    -1.1870    -0.1980 H     1 <1>   0.0800 
 45 H      -10.4560    -1.2790     1.5420 H     1 <1>   0.0800 
 46 H      -11.7380    -3.2130     1.4770 H     1 <1>   0.0800 
 47 H      -11.7370    -3.1470    -0.2730 H     1 <1>   0.0800 
@<TRIPOS>BOND
  1   1   2  2   
  2   2   3  1   
  3   2   4  1   
  4   3   5  1   
  5   4   6  1   
  6   4   7  1   
  7   4  21  1   
  8   5   8  1   
  9   5  22  1   
 10   5  23  1   
 11   6   9  1   
 12   6  24  1   
 13   6  25  1   
 14   7  10  1   
 15   7  26  1   
 16   7  27  1   
 17   8  28  1   
 18   8  29  1   
 19   8  30  1   
 20   9  11  1   
 21   9  31  1   
 22   9  32  1   
 23  10  11  1   
 24  10  33  1   
 25  10  34  1   
 26  11  12  am  
 27  12  13  2   
 28  12  14  1   
 29  14  15  1   
 30  14  35  1   
 31  14  36  1   
 32  15  16  1   
 33  15  37  1   
 34  15  38  1   
 35  16  17  1   
 36  16  18  1   
 37  16  39  1   
 38  17  19  1   
 39  17  40  1   
 40  17  41  1   
 41  18  20  1   
 42  18  42  1   
 43  18  43  1   
 44  19  20  1   
 45  19  44  1   
 46  19  45  1   
 47  20  46  1   
 48  20  47  1   
@<TRIPOS>SUBSTRUCTURE
  1 ****  11 GROUP 4 **** **** 0

# MOE 2024.06 (io_trps.svl 2023.06)
