@<TRIPOS>MOLECULE
NONAME
34 34 1 0 0 
SMALL
USER_CHARGES


@<TRIPOS>ATOM
  1 S        0.2630     0.2250     0.3680 S.o2  1 <1>   1.4470 
  2 O        0.7050     0.6570     1.6740 O.2   1 <1>  -0.6500 
  3 O        0.3100     1.1330    -0.7540 O.2   1 <1>  -0.6500 
  4 N        1.2810    -1.0230    -0.1010 N.am  1 <1>  -0.9140 
  5 C       -1.3600    -0.5770     0.4790 C.ar  1 <1>  -0.0090 
  6 C        2.6780    -0.7240     0.1460 C.3   1 <1>   0.1960 
  7 C       -1.5890    -1.5980     1.3940 C.ar  1 <1>  -0.1500 
  8 C       -2.4130    -0.1980    -0.3470 C.ar  1 <1>  -0.1500 
  9 C        3.5280    -1.8540    -0.4270 C.3   1 <1>  -0.1600 
 10 C       -2.8230    -2.2200     1.4810 C.ar  1 <1>  -0.1500 
 11 C       -3.6510    -0.8140    -0.2690 C.ar  1 <1>  -0.1500 
 12 C        5.0090    -1.6020    -0.1490 C.3   1 <1>   0.1200 
 13 C       -3.8620    -1.8350     0.6520 C.ar  1 <1>   0.0830 
 14 O        5.7380    -2.6170    -0.7360 O.3   1 <1>  -0.6800 
 15 O       -5.0370    -2.4920     0.7980 O.3   1 <1>  -0.3630 
 16 C       -6.1630    -2.1720     0.0150 C.3   1 <1>   0.1200 
 17 C       -7.3080    -3.0890     0.4350 C.3   1 <1>  -0.2400 
 18 H        1.1590    -1.0580    -1.1110 H     1 <1>   0.4200 
 19 H        2.8470    -0.6430     1.2080 H     1 <1>   0.0800 
 20 H        2.9430     0.2130    -0.3180 H     1 <1>   0.0800 
 21 H       -0.7900    -1.9090     2.0470 H     1 <1>   0.1500 
 22 H       -2.2630     0.5920    -1.0640 H     1 <1>   0.1500 
 23 H        3.3760    -1.9100    -1.4910 H     1 <1>   0.0800 
 24 H        3.2310    -2.7820     0.0300 H     1 <1>   0.0800 
 25 H       -2.9880    -3.0080     2.1930 H     1 <1>   0.1500 
 26 H       -4.4330    -0.4870    -0.9280 H     1 <1>   0.1500 
 27 H        5.2190    -1.5990     0.9070 H     1 <1>   0.0800 
 28 H        5.3330    -0.6710    -0.5830 H     1 <1>   0.0800 
 29 H        5.4950    -3.4840    -0.3570 H     1 <1>   0.4000 
 30 H       -5.9130    -2.3270    -1.0210 H     1 <1>   0.0800 
 31 H       -6.4180    -1.1410     0.1890 H     1 <1>   0.0800 
 32 H       -8.1850    -2.8690    -0.1460 H     1 <1>   0.0800 
 33 H       -7.5390    -2.9380     1.4750 H     1 <1>   0.0800 
 34 H       -7.0370    -4.1170     0.2730 H     1 <1>   0.0800 
@<TRIPOS>BOND
  1   1   2  2   
  2   1   3  2   
  3   1   4  am  
  4   1   5  1   
  5   4   6  1   
  6   4  18  1   
  7   5   7  ar  
  8   5   8  ar  
  9   6   9  1   
 10   6  19  1   
 11   6  20  1   
 12   7  10  ar  
 13   7  21  1   
 14   8  11  ar  
 15   8  22  1   
 16   9  12  1   
 17   9  23  1   
 18   9  24  1   
 19  10  13  ar  
 20  10  25  1   
 21  11  13  ar  
 22  11  26  1   
 23  12  14  1   
 24  12  27  1   
 25  12  28  1   
 26  13  15  1   
 27  14  29  1   
 28  15  16  1   
 29  16  17  1   
 30  16  30  1   
 31  16  31  1   
 32  17  32  1   
 33  17  33  1   
 34  17  34  1   
@<TRIPOS>SUBSTRUCTURE
  1 ****   5 GROUP 4 **** **** 0

# MOE 2024.06 (io_trps.svl 2023.06)
