@<TRIPOS>MOLECULE
Structure2488
29 30 1 0 0 
SMALL
USER_CHARGES


@<TRIPOS>ATOM
  1 O        0.0590     0.6610    -0.3540 O.3   1 <1>  -0.3630 
  2 C       -1.2060     1.1510    -0.3030 C.ar  1 <1>   0.0830 
  3 C        1.1260     1.3750    -0.9430 C.3   1 <1>   0.2000 
  4 C       -2.1400     0.3830     0.3750 C.ar  1 <1>  -0.1500 
  5 C       -1.6000     2.3550    -0.8810 C.ar  1 <1>  -0.1500 
  6 C        2.3060     0.4140    -1.0180 C.3   1 <1>   0.3430 
  7 C        1.6240     2.4170     0.0530 C.3   1 <1>  -0.1600 
  8 C       -3.4550     0.8020     0.4890 C.ar  1 <1>  -0.1440 
  9 C       -2.9130     2.7750    -0.7700 C.ar  1 <1>  -0.1500 
 10 N        2.8220     0.3450     0.3810 N.4   1 <1>  -0.9060 
 11 C        2.4620     1.6270     1.0560 C.3   1 <1>   0.3430 
 12 C       -3.8360     2.0030    -0.0870 C.ar  1 <1>  -0.1500 
 13 C       -4.4780    -0.0390     1.2300 C.3   1 <1>  -0.0970 
 14 H        0.8330     1.7520    -1.9080 H     1 <1>   0.0800 
 15 H       -1.8330    -0.5490     0.8130 H     1 <1>   0.1500 
 16 H       -0.9150     2.9810    -1.4190 H     1 <1>   0.1500 
 17 H        3.0600     0.8290    -1.6660 H     1 <1>   0.0800 
 18 H        2.0010    -0.5510    -1.3900 H     1 <1>   0.0800 
 19 H        0.8240     2.9540     0.5340 H     1 <1>   0.0800 
 20 H        2.2550     3.1290    -0.4490 H     1 <1>   0.0800 
 21 H       -3.2240     3.7050    -1.2150 H     1 <1>   0.1500 
 22 H        3.8280     0.1420     0.4230 H     1 <1>   0.4500 
 23 H        2.3190    -0.4140     0.8610 H     1 <1>   0.4500 
 24 H        1.8760     1.4220     1.9390 H     1 <1>   0.0800 
 25 H        3.3420     2.1840     1.3380 H     1 <1>   0.0800 
 26 H       -4.8560     2.3390    -0.0080 H     1 <1>   0.1500 
 27 H       -3.9970    -0.7960     1.8220 H     1 <1>   0.0800 
 28 H       -5.1350    -0.5170     0.5260 H     1 <1>   0.0800 
 29 H       -5.0630     0.5820     1.8840 H     1 <1>   0.0800 
@<TRIPOS>BOND
  1   1   2  1   
  2   1   3  1   
  3   2   4  ar  
  4   2   5  ar  
  5   3   6  1   
  6   3   7  1   
  7   3  14  1   
  8   4   8  ar  
  9   4  15  1   
 10   5   9  ar  
 11   5  16  1   
 12   6  10  1   
 13   6  17  1   
 14   6  18  1   
 15   7  11  1   
 16   7  19  1   
 17   7  20  1   
 18   8  12  ar  
 19   8  13  1   
 20   9  12  ar  
 21   9  21  1   
 22  10  11  1   
 23  10  22  1   
 24  10  23  1   
 25  11  24  1   
 26  11  25  1   
 27  12  26  1   
 28  13  27  1   
 29  13  28  1   
 30  13  29  1   
@<TRIPOS>SUBSTRUCTURE
  1 ****   2 GROUP 4 **** **** 0

# MOE 2024.06 (io_trps.svl 2023.06)
