@<TRIPOS>MOLECULE
NONAME
25 25 1 0 0 
SMALL
USER_CHARGES


@<TRIPOS>ATOM
  1 O       -0.2880     0.2170    -0.8180 O.3   1 <1>  -0.6800 
  2 C       -1.5300     0.8490    -0.7150 C.3   1 <1>   0.2000 
  3 C       -1.2870     2.3520    -0.3850 C.3   1 <1>   0.4230 
  4 C       -2.3590     0.0560     0.3070 C.3   1 <1>  -0.1600 
  5 N       -0.0410     2.4800     0.4010 N.4   1 <1>  -0.8530 
  6 C       -2.4010     3.0930     0.3660 C.3   1 <1>  -0.1600 
  7 C       -3.8700     0.2200     0.0780 C.3   1 <1>  -0.1600 
  8 C       -3.8180     2.8020    -0.1530 C.3   1 <1>  -0.1600 
  9 C       -4.4500     1.5720     0.5130 C.3   1 <1>  -0.1600 
 10 H       -0.4030    -0.7080    -1.1320 H     1 <1>   0.4000 
 11 H       -2.0030     0.7790    -1.6800 H     1 <1>   0.0800 
 12 H       -1.1470     2.8450    -1.3330 H     1 <1>   0.0800 
 13 H       -2.1440    -0.9930     0.1910 H     1 <1>   0.0800 
 14 H       -2.1040     0.3300     1.3150 H     1 <1>   0.0800 
 15 H       -0.2110     2.2900     1.3900 H     1 <1>   0.4500 
 16 H        0.4240     3.3820     0.2750 H     1 <1>   0.4500 
 17 H        0.5620     1.7160     0.0480 H     1 <1>   0.4500 
 18 H       -2.3660     2.8700     1.4180 H     1 <1>   0.0800 
 19 H       -2.2220     4.1490     0.2550 H     1 <1>   0.0800 
 20 H       -4.1040     0.0470    -0.9590 H     1 <1>   0.0800 
 21 H       -4.3790    -0.5470     0.6390 H     1 <1>   0.0800 
 22 H       -4.4390     3.6480     0.0930 H     1 <1>   0.0800 
 23 H       -3.8340     2.7060    -1.2260 H     1 <1>   0.0800 
 24 H       -5.5020     1.5670     0.2740 H     1 <1>   0.0800 
 25 H       -4.3830     1.6630     1.5840 H     1 <1>   0.0800 
@<TRIPOS>BOND
  1   1   2  1   
  2   1  10  1   
  3   2   3  1   
  4   2   4  1   
  5   2  11  1   
  6   3   5  1   
  7   3   6  1   
  8   3  12  1   
  9   4   7  1   
 10   4  13  1   
 11   4  14  1   
 12   5  15  1   
 13   5  16  1   
 14   5  17  1   
 15   6   8  1   
 16   6  18  1   
 17   6  19  1   
 18   7   9  1   
 19   7  20  1   
 20   7  21  1   
 21   8   9  1   
 22   8  22  1   
 23   8  23  1   
 24   9  24  1   
 25   9  25  1   
@<TRIPOS>SUBSTRUCTURE
  1 ****   2 GROUP 4 **** **** 0

# MOE 2024.06 (io_trps.svl 2023.06)
