@<TRIPOS>MOLECULE
NONAME
39 39 1 0 0 
SMALL
USER_CHARGES


@<TRIPOS>ATOM
  1 P       -0.5520     0.4300     0.4090 P.3   1 <1>   1.2420 
  2 O        0.2820    -0.1380     1.4660 O.2   1 <1>  -0.7000 
  3 O       -1.3340    -0.7020    -0.4210 O.3   1 <1>  -0.5510 
  4 O       -1.7470     1.3480     0.9790 O.3   1 <1>  -0.5510 
  5 C        0.2830     1.4280    -0.8410 C.3   1 <1>   0.1400 
  6 C       -1.8720    -1.7780     0.2610 C.3   1 <1>   0.1200 
  7 C       -2.8820     1.6330     0.2380 C.3   1 <1>   0.1200 
  8 N        1.1320     2.5930    -0.3740 N.am  1 <1>  -0.6600 
  9 C       -2.6190    -2.6420    -0.7480 C.3   1 <1>  -0.2400 
 10 C       -3.7280     2.6070     1.0490 C.3   1 <1>  -0.2400 
 11 C        2.4980     2.5160    -0.4310 C.2   1 <1>   0.5690 
 12 C        0.4010     3.7240     0.2580 C.3   1 <1>   0.1400 
 13 O        3.0610     1.5890    -0.9630 O.2   1 <1>  -0.5700 
 14 C        3.3640     3.6080     0.1730 C.3   1 <1>  -0.0990 
 15 C        0.6410     5.0290    -0.5080 C.3   1 <1>  -0.1600 
 16 C        3.2220     4.9590    -0.5450 C.3   1 <1>  -0.1600 
 17 C        1.9580     5.7320    -0.1460 C.3   1 <1>  -0.1600 
 18 H       -0.4360     1.8220    -1.5330 H     1 <1>   0.0800 
 19 H        0.9040     0.7750    -1.4230 H     1 <1>   0.0800 
 20 H       -2.5390    -1.4100     1.0240 H     1 <1>   0.0800 
 21 H       -1.0670    -2.3290     0.7210 H     1 <1>   0.0800 
 22 H       -3.4220     0.7180     0.0620 H     1 <1>   0.0800 
 23 H       -2.5910     2.0720    -0.7010 H     1 <1>   0.0800 
 24 H       -3.4110    -2.0790    -1.2070 H     1 <1>   0.0800 
 25 H       -3.0470    -3.4930    -0.2490 H     1 <1>   0.0800 
 26 H       -1.9420    -2.9950    -1.5050 H     1 <1>   0.0800 
 27 H       -4.0050     2.1610     1.9880 H     1 <1>   0.0800 
 28 H       -4.6240     2.8480     0.5070 H     1 <1>   0.0800 
 29 H       -3.1810     3.5140     1.2310 H     1 <1>   0.0800 
 30 H        0.7030     3.8250     1.2870 H     1 <1>   0.0800 
 31 H       -0.6540     3.5180     0.2480 H     1 <1>   0.0800 
 32 H        4.3880     3.2880     0.0960 H     1 <1>   0.0800 
 33 H        3.1410     3.7050     1.2190 H     1 <1>   0.0800 
 34 H       -0.1610     5.7020    -0.2620 H     1 <1>   0.0800 
 35 H        0.5890     4.8460    -1.5680 H     1 <1>   0.0800 
 36 H        3.2370     4.8020    -1.6110 H     1 <1>   0.0800 
 37 H        4.0770     5.5650    -0.2980 H     1 <1>   0.0800 
 38 H        1.9800     5.9290     0.9120 H     1 <1>   0.0800 
 39 H        1.9780     6.6860    -0.6450 H     1 <1>   0.0800 
@<TRIPOS>BOND
  1   1   2  2   
  2   1   3  1   
  3   1   4  1   
  4   1   5  1   
  5   3   6  1   
  6   4   7  1   
  7   5   8  1   
  8   5  18  1   
  9   5  19  1   
 10   6   9  1   
 11   6  20  1   
 12   6  21  1   
 13   7  10  1   
 14   7  22  1   
 15   7  23  1   
 16   8  11  am  
 17   8  12  1   
 18   9  24  1   
 19   9  25  1   
 20   9  26  1   
 21  10  27  1   
 22  10  28  1   
 23  10  29  1   
 24  11  13  2   
 25  11  14  1   
 26  12  15  1   
 27  12  30  1   
 28  12  31  1   
 29  14  16  1   
 30  14  32  1   
 31  14  33  1   
 32  15  17  1   
 33  15  34  1   
 34  15  35  1   
 35  16  17  1   
 36  16  36  1   
 37  16  37  1   
 38  17  38  1   
 39  17  39  1   
@<TRIPOS>SUBSTRUCTURE
  1 ****   5 GROUP 4 **** **** 0

# MOE 2024.06 (io_trps.svl 2023.06)
