@<TRIPOS>MOLECULE
NONAME
44 47 1 0 0 
SMALL
USER_CHARGES


@<TRIPOS>ATOM
  1 N        0.1650    -0.0550    -0.0260 N.pl3 1 <1>  -0.8380 
  2 C       -1.1080    -0.6110     0.0320 C.ar  1 <1>   0.1000 
  3 C        0.4520     1.0150     0.9830 C.3   1 <1>   0.2090 
  4 C        1.3010    -1.0050    -0.2460 C.3   1 <1>   0.2090 
  5 C       -1.4550    -1.5440     1.0040 C.ar  1 <1>  -0.1500 
  6 C       -2.0650    -0.2280    -0.8980 C.ar  1 <1>  -0.1500 
  7 C        1.8870     1.5790     0.8340 C.3   1 <1>   0.3430 
  8 C        2.5870    -0.2590    -0.6800 C.3   1 <1>   0.3430 
  9 C       -2.7280    -2.0820     1.0420 C.ar  1 <1>  -0.1500 
 10 C       -3.3400    -0.7630    -0.8630 C.ar  1 <1>  -0.1500 
 11 N        2.4710     1.2360    -0.5140 N.4   1 <1>  -0.9590 
 12 C       -3.6730    -1.6910     0.1080 C.ar  1 <1>  -0.1500 
 13 C        3.7160     1.9580    -0.9100 C.3   1 <1>   0.4230 
 14 C        4.9990     1.6850     0.0730 C.3   1 <1>  -0.0800 
 15 C        3.4820     3.6100    -0.9890 C.3   1 <1>  -0.1600 
 16 C        4.8850     3.0080    -0.1020 C.3   1 <1>  -0.1600 
 17 C        6.2800     2.4000     0.7970 C.3   1 <1>  -0.1600 
 18 C        4.7450     4.3300    -0.2360 C.3   1 <1>  -0.0800 
 19 C        6.0590     4.0560     0.7020 C.3   1 <1>  -0.1600 
 20 H        0.3130     0.6310     1.9790 H     1 <1>   0.0800 
 21 H       -0.2560     1.8140     0.8450 H     1 <1>   0.0800 
 22 H        1.0280    -1.7240    -1.0010 H     1 <1>   0.0800 
 23 H        1.4940    -1.5490     0.6620 H     1 <1>   0.0800 
 24 H       -0.7300    -1.8490     1.7340 H     1 <1>   0.1500 
 25 H       -1.8040     0.4910    -1.6510 H     1 <1>   0.1500 
 26 H        2.5050     1.1650     1.6120 H     1 <1>   0.0800 
 27 H        1.8580     2.6460     0.9770 H     1 <1>   0.0800 
 28 H        2.7810    -0.4890    -1.7150 H     1 <1>   0.0800 
 29 H        3.4170    -0.6330    -0.1040 H     1 <1>   0.0800 
 30 H       -2.9890    -2.8030     1.7970 H     1 <1>   0.1500 
 31 H       -4.0730    -0.4590    -1.5900 H     1 <1>   0.1500 
 32 H        1.7200     1.4930    -1.1740 H     1 <1>   0.4500 
 33 H       -4.6650    -2.1090     0.1360 H     1 <1>   0.1500 
 34 H        3.9970     1.6300    -1.9000 H     1 <1>   0.0800 
 35 H        4.5530     1.1830     0.9180 H     1 <1>   0.0800 
 36 H        2.5580     3.9130    -0.5250 H     1 <1>   0.0800 
 37 H        3.4410     3.9210    -2.0220 H     1 <1>   0.0800 
 38 H        5.5430     2.9740    -1.0790 H     1 <1>   0.0800 
 39 H        4.2370     3.0610     0.8810 H     1 <1>   0.0800 
 40 H        7.1970     2.1210     0.2970 H     1 <1>   0.0800 
 41 H        6.3720     2.0920     1.8270 H     1 <1>   0.0800 
 42 H        5.1960     4.8710    -1.0590 H     1 <1>   0.0800 
 43 H        6.9370     4.5290     0.2900 H     1 <1>   0.0800 
 44 H        5.9060     4.4700     1.6880 H     1 <1>   0.0800 
@<TRIPOS>BOND
  1   1   2  1   
  2   1   3  1   
  3   1   4  1   
  4   2   5  ar  
  5   2   6  ar  
  6   3   7  1   
  7   3  20  1   
  8   3  21  1   
  9   4   8  1   
 10   4  22  1   
 11   4  23  1   
 12   5   9  ar  
 13   5  24  1   
 14   6  10  ar  
 15   6  25  1   
 16   7  11  1   
 17   7  26  1   
 18   7  27  1   
 19   8  11  1   
 20   8  28  1   
 21   8  29  1   
 22   9  12  ar  
 23   9  30  1   
 24  10  12  ar  
 25  10  31  1   
 26  11  13  1   
 27  11  32  1   
 28  12  33  1   
 29  13  14  1   
 30  13  15  1   
 31  13  34  1   
 32  14  16  1   
 33  14  17  1   
 34  14  35  1   
 35  15  18  1   
 36  15  36  1   
 37  15  37  1   
 38  16  18  1   
 39  16  38  1   
 40  16  39  1   
 41  17  19  1   
 42  17  40  1   
 43  17  41  1   
 44  18  19  1   
 45  18  42  1   
 46  19  43  1   
 47  19  44  1   
@<TRIPOS>SUBSTRUCTURE
  1 ****   7 GROUP 4 **** **** 0

# MOE 2024.06 (io_trps.svl 2023.06)
