@<TRIPOS>MOLECULE
NONAME
27 28 1 0 0 
SMALL
USER_CHARGES


@<TRIPOS>ATOM
  1 O       -0.1160     0.5600    -0.9510 O.3   1 <1>  -0.3630 
  2 C       -1.3390     0.8590    -0.5000 C.ar  1 <1>   0.0830 
  3 C        0.8130     1.2910    -0.1510 C.3   1 <1>   0.5600 
  4 C       -1.2520     1.7430     0.5340 C.ar  1 <1>   0.0830 
  5 C       -2.5570     0.3920    -0.9510 C.ar  1 <1>  -0.1500 
  6 O        0.0300     2.0380     0.7780 O.3   1 <1>  -0.3630 
  7 C        1.7090     0.3180     0.6320 C.3   1 <1>  -0.1600 
  8 C        1.5670     2.2710    -1.0450 C.3   1 <1>  -0.2400 
  9 C       -2.3790     2.2140     1.1790 C.ar  1 <1>  -0.1500 
 10 C       -3.7040     0.8520    -0.3150 C.ar  1 <1>  -0.1500 
 11 C        2.5060    -0.6690    -0.2420 C.3   1 <1>  -0.1600 
 12 C       -3.6150     1.7560     0.7410 C.ar  1 <1>  -0.1500 
 13 C        3.3300    -1.6250     0.6240 C.3   1 <1>  -0.2400 
 14 H       -2.6030    -0.3050    -1.7680 H     1 <1>   0.1500 
 15 H        1.0820    -0.2390     1.3060 H     1 <1>   0.0800 
 16 H        2.3960     0.8950     1.2250 H     1 <1>   0.0800 
 17 H        0.8750     2.9570    -1.4980 H     1 <1>   0.0800 
 18 H        2.0900     1.7420    -1.8190 H     1 <1>   0.0800 
 19 H        2.2800     2.8230    -0.4620 H     1 <1>   0.0800 
 20 H       -2.2880     2.9110     1.9920 H     1 <1>   0.1500 
 21 H       -4.6690     0.5070    -0.6430 H     1 <1>   0.1500 
 22 H        3.1700    -0.1320    -0.8970 H     1 <1>   0.0800 
 23 H        1.8280    -1.2430    -0.8510 H     1 <1>   0.0800 
 24 H       -4.5130     2.1040     1.2230 H     1 <1>   0.1500 
 25 H        4.0320    -1.0780     1.2290 H     1 <1>   0.0800 
 26 H        3.8790    -2.3070    -0.0020 H     1 <1>   0.0800 
 27 H        2.6870    -2.1980     1.2690 H     1 <1>   0.0800 
@<TRIPOS>BOND
  1   1   2  1   
  2   1   3  1   
  3   2   4  ar  
  4   2   5  ar  
  5   3   6  1   
  6   3   7  1   
  7   3   8  1   
  8   4   6  1   
  9   4   9  ar  
 10   5  10  ar  
 11   5  14  1   
 12   7  11  1   
 13   7  15  1   
 14   7  16  1   
 15   8  17  1   
 16   8  18  1   
 17   8  19  1   
 18   9  12  ar  
 19   9  20  1   
 20  10  12  ar  
 21  10  21  1   
 22  11  13  1   
 23  11  22  1   
 24  11  23  1   
 25  12  24  1   
 26  13  25  1   
 27  13  26  1   
 28  13  27  1   
@<TRIPOS>SUBSTRUCTURE
  1 ****   1 GROUP 4 **** **** 0

# MOE 2024.06 (io_trps.svl 2023.06)
