@<TRIPOS>MOLECULE
NONAME
46 47 1 0 0 
SMALL
USER_CHARGES


@<TRIPOS>ATOM
  1 O       -1.4150    -0.2560     0.8930 O.3   1 <1>  -0.5600 
  2 C       -2.0650     0.6230     0.0160 C.3   1 <1>   0.1200 
  3 C       -1.2640    -1.5590     0.3930 C.3   1 <1>   0.1200 
  4 C       -3.4880     0.1200    -0.3200 C.3   1 <1>   0.3430 
  5 C       -2.6270    -2.1680    -0.0120 C.3   1 <1>   0.3430 
  6 N       -3.7580    -1.2270     0.2960 N.4   1 <1>  -0.9590 
  7 C       -5.0900    -1.8130    -0.0620 C.3   1 <1>   0.3430 
  8 C       -6.2650    -1.0070     0.5050 C.3   1 <1>   0.1200 
  9 O       -7.4320    -1.6540     0.1250 O.3   1 <1>  -0.5600 
 10 C       -8.6020    -1.0510     0.5960 C.3   1 <1>   0.1200 
 11 C       -9.8030    -1.8590     0.1140 C.3   1 <1>   0.1200 
 12 O      -10.9700    -1.2320     0.5970 O.3   1 <1>  -0.3630 
 13 C      -12.2010    -1.7360     0.3280 C.ar  1 <1>   0.0820 
 14 C      -13.2840    -1.0530     0.8550 C.ar  1 <1>  -0.1500 
 15 C      -12.4220    -2.8810    -0.4330 C.ar  1 <1>  -0.1500 
 16 C      -14.5740    -1.5000     0.6300 C.ar  1 <1>  -0.1500 
 17 C      -13.7140    -3.3250    -0.6570 C.ar  1 <1>  -0.1500 
 18 C      -14.7970    -2.6380    -0.1290 C.ar  1 <1>  -0.1440 
 19 C      -16.2130    -3.1310    -0.3770 C.3   1 <1>  -0.0170 
 20 C      -16.6390    -4.1140     0.7140 C.3   1 <1>  -0.2400 
 21 H       -1.4710     0.7200    -0.8770 H     1 <1>   0.0800 
 22 H       -2.1130     1.5870     0.4920 H     1 <1>   0.0800 
 23 H       -0.8070    -2.1540     1.1660 H     1 <1>   0.0800 
 24 H       -0.5930    -1.5310    -0.4480 H     1 <1>   0.0800 
 25 H       -3.5940     0.0650    -1.3910 H     1 <1>   0.0800 
 26 H       -4.2040     0.8400     0.0390 H     1 <1>   0.0800 
 27 H       -2.7650    -3.0990     0.5130 H     1 <1>   0.0800 
 28 H       -2.6100    -2.3900    -1.0660 H     1 <1>   0.0800 
 29 H       -3.6980    -1.0790     1.3160 H     1 <1>   0.4500 
 30 H       -5.1560    -2.8140     0.3310 H     1 <1>   0.0800 
 31 H       -5.1880    -1.8630    -1.1330 H     1 <1>   0.0800 
 32 H       -6.2870    -0.0100     0.1000 H     1 <1>   0.0800 
 33 H       -6.2250    -0.9800     1.5810 H     1 <1>   0.0800 
 34 H       -8.6570    -0.0480     0.2090 H     1 <1>   0.0800 
 35 H       -8.5790    -1.0390     1.6730 H     1 <1>   0.0800 
 36 H       -9.7680    -2.8590     0.5080 H     1 <1>   0.0800 
 37 H       -9.8440    -1.8680    -0.9610 H     1 <1>   0.0800 
 38 H      -13.1120    -0.1710     1.4440 H     1 <1>   0.1500 
 39 H      -11.6090    -3.4370    -0.8580 H     1 <1>   0.1500 
 40 H      -15.4030    -0.9590     1.0490 H     1 <1>   0.1500 
 41 H      -13.8750    -4.2110    -1.2450 H     1 <1>   0.1500 
 42 H      -16.2670    -3.6120    -1.3380 H     1 <1>   0.0800 
 43 H      -16.8900    -2.2940    -0.3940 H     1 <1>   0.0800 
 44 H      -15.9770    -4.9620     0.7280 H     1 <1>   0.0800 
 45 H      -17.6410    -4.4590     0.5340 H     1 <1>   0.0800 
 46 H      -16.6040    -3.6360     1.6770 H     1 <1>   0.0800 
@<TRIPOS>BOND
  1   1   2  1   
  2   1   3  1   
  3   2   4  1   
  4   2  21  1   
  5   2  22  1   
  6   3   5  1   
  7   3  23  1   
  8   3  24  1   
  9   4   6  1   
 10   4  25  1   
 11   4  26  1   
 12   5   6  1   
 13   5  27  1   
 14   5  28  1   
 15   6   7  1   
 16   6  29  1   
 17   7   8  1   
 18   7  30  1   
 19   7  31  1   
 20   8   9  1   
 21   8  32  1   
 22   8  33  1   
 23   9  10  1   
 24  10  11  1   
 25  10  34  1   
 26  10  35  1   
 27  11  12  1   
 28  11  36  1   
 29  11  37  1   
 30  12  13  1   
 31  13  14  ar  
 32  13  15  ar  
 33  14  16  ar  
 34  14  38  1   
 35  15  17  ar  
 36  15  39  1   
 37  16  18  ar  
 38  16  40  1   
 39  17  18  ar  
 40  17  41  1   
 41  18  19  1   
 42  19  20  1   
 43  19  42  1   
 44  19  43  1   
 45  20  44  1   
 46  20  45  1   
 47  20  46  1   
@<TRIPOS>SUBSTRUCTURE
  1 ****  10 GROUP 4 **** **** 0

# MOE 2024.06 (io_trps.svl 2023.06)
