@<TRIPOS>MOLECULE
NONAME
42 43 1 0 0 
SMALL
USER_CHARGES


@<TRIPOS>ATOM
  1 CL       1.9010    -1.1850     3.0000 Cl    1 <1>  -0.1770 
  2 C        2.2690    -1.0900     1.2910 C.ar  1 <1>   0.1770 
  3 C        1.4730    -1.7500     0.3620 C.ar  1 <1>   0.0830 
  4 C        3.3670    -0.3480     0.9040 C.ar  1 <1>  -0.1500 
  5 O        0.4070    -2.4640     0.8100 O.3   1 <1>  -0.3630 
  6 C        1.8110    -1.6460    -0.9840 C.ar  1 <1>  -0.1500 
  7 C        3.7150    -0.2450    -0.4370 C.ar  1 <1>  -0.0090 
  8 C       -0.4770    -3.1170    -0.0740 C.3   1 <1>   0.0400 
  9 C        2.9160    -0.9020    -1.3680 C.ar  1 <1>  -0.1500 
 10 S        5.1620     0.7220    -0.9480 S.o2  1 <1>   1.4470 
 11 O        5.5760     0.3280    -2.2770 O.2   1 <1>  -0.6500 
 12 O        4.9230     2.1180    -0.6580 O.2   1 <1>  -0.6500 
 13 N        6.3670     0.1920     0.1190 N.am  1 <1>  -0.8490 
 14 C        7.5090     1.1260     0.1420 C.3   1 <1>   0.1960 
 15 C        6.8350    -1.1720    -0.1970 C.3   1 <1>   0.1960 
 16 C        8.5800     0.7020     1.1620 C.3   1 <1>   0.1400 
 17 C        7.8700    -1.6710     0.8260 C.3   1 <1>   0.1400 
 18 N        9.0050    -0.7090     0.9300 N.am  1 <1>  -0.6600 
 19 C       10.3120    -1.0470     0.7130 C.2   1 <1>   0.7800 
 20 O       11.2140    -0.2320     0.7460 O.2   1 <1>  -0.5700 
 21 O       10.5850    -2.3250     0.4450 O.3   1 <1>  -0.4300 
 22 C       11.9070    -2.7450     0.1990 C.3   1 <1>   0.1200 
 23 C       11.8790    -4.2410    -0.0950 C.3   1 <1>  -0.2400 
 24 H        3.9550     0.1530     1.6530 H     1 <1>   0.1500 
 25 H        1.2300    -2.1330    -1.7450 H     1 <1>   0.1500 
 26 H       -1.2440    -3.5900     0.5130 H     1 <1>   0.0800 
 27 H        0.0670    -3.8590    -0.6300 H     1 <1>   0.0800 
 28 H       -0.9190    -2.3870    -0.7300 H     1 <1>   0.0800 
 29 H        3.1650    -0.8300    -2.4150 H     1 <1>   0.1500 
 30 H        7.1660     2.1130     0.4050 H     1 <1>   0.0800 
 31 H        7.9560     1.1840    -0.8380 H     1 <1>   0.0800 
 32 H        7.2810    -1.1930    -1.1780 H     1 <1>   0.0800 
 33 H        5.9990    -1.8500    -0.1990 H     1 <1>   0.0800 
 34 H        8.1760     0.7890     2.1560 H     1 <1>   0.0800 
 35 H        9.4220     1.3680     1.0890 H     1 <1>   0.0800 
 36 H        8.2170    -2.6440     0.5300 H     1 <1>   0.0800 
 37 H        7.4000    -1.7660     1.7890 H     1 <1>   0.0800 
 38 H       12.5010    -2.5320     1.0710 H     1 <1>   0.0800 
 39 H       12.2890    -2.1920    -0.6440 H     1 <1>   0.0800 
 40 H       11.4890    -4.7780     0.7510 H     1 <1>   0.0800 
 41 H       12.8770    -4.5900    -0.2910 H     1 <1>   0.0800 
 42 H       11.2710    -4.4390    -0.9600 H     1 <1>   0.0800 
@<TRIPOS>BOND
  1   1   2  1   
  2   2   3  ar  
  3   2   4  ar  
  4   3   5  1   
  5   3   6  ar  
  6   4   7  ar  
  7   4  24  1   
  8   5   8  1   
  9   6   9  ar  
 10   6  25  1   
 11   7   9  ar  
 12   7  10  1   
 13   8  26  1   
 14   8  27  1   
 15   8  28  1   
 16   9  29  1   
 17  10  11  2   
 18  10  12  2   
 19  10  13  am  
 20  13  14  1   
 21  13  15  1   
 22  14  16  1   
 23  14  30  1   
 24  14  31  1   
 25  15  17  1   
 26  15  32  1   
 27  15  33  1   
 28  16  18  1   
 29  16  34  1   
 30  16  35  1   
 31  17  18  1   
 32  17  36  1   
 33  17  37  1   
 34  18  19  am  
 35  19  20  2   
 36  19  21  1   
 37  21  22  1   
 38  22  23  1   
 39  22  38  1   
 40  22  39  1   
 41  23  40  1   
 42  23  41  1   
 43  23  42  1   
@<TRIPOS>SUBSTRUCTURE
  1 ****  15 GROUP 4 **** **** 0

# MOE 2024.06 (io_trps.svl 2023.06)
