@<TRIPOS>MOLECULE
NONAME
35 36 1 0 0 
SMALL
USER_CHARGES


@<TRIPOS>ATOM
  1 S       -0.1350     0.3880     0.0700 S.3   1 <1>  -0.0800 
  2 C        0.3250    -1.3090     0.0340 C.2   1 <1>   0.1040 
  3 C        1.5410     0.9080     0.1030 C.2   1 <1>  -0.1400 
  4 N       -0.6300    -2.3110    -0.0020 N.am  1 <1>  -0.4940 
  5 C        1.6870    -1.4350     0.0470 C.2   1 <1>  -0.0860 
  6 C        2.3560    -0.1590     0.0860 C.2   1 <1>  -0.1500 
  7 C        1.7980     2.4000     0.1430 C.3   1 <1>  -0.0600 
  8 C       -2.0030    -2.3340    -0.0190 C.2   1 <1>   0.7150 
  9 C        2.3870    -2.6880     0.0240 C.2   1 <1>   0.8060 
 10 O       -2.6430    -1.3020    -0.0010 O.2   1 <1>  -0.5700 
 11 C       -2.6450    -3.6170    -0.0580 C.2   1 <1>  -0.2370 
 12 O        1.8170    -3.7660    -0.0090 O.2   1 <1>  -0.5700 
 13 O        3.7240    -2.6660     0.0400 O.3   1 <1>  -0.4300 
 14 N       -3.9920    -3.8250    -0.0790 N.pl3 1 <1>   0.3140 
 15 C       -2.0960    -4.8670    -0.0830 C.2   1 <1>  -0.1500 
 16 C        4.4840    -3.8540     0.0200 C.3   1 <1>   0.1200 
 17 N       -4.3030    -5.1300    -0.1150 N.2   1 <1>  -0.7070 
 18 C       -5.0700    -2.8210    -0.0670 C.3   1 <1>   0.0160 
 19 C       -3.1610    -5.7450    -0.1170 C.2   1 <1>   0.1390 
 20 C        5.9600    -3.4710     0.0460 C.3   1 <1>  -0.2400 
 21 H       -0.2310    -3.2520    -0.0210 H     1 <1>   0.3700 
 22 H        3.4320    -0.1040     0.1000 H     1 <1>   0.1500 
 23 H        1.3510     2.8250     1.0230 H     1 <1>   0.0800 
 24 H        1.3720     2.8680    -0.7260 H     1 <1>   0.0800 
 25 H        2.8550     2.5950     0.1600 H     1 <1>   0.0800 
 26 H       -1.0600    -5.1560    -0.0780 H     1 <1>   0.1500 
 27 H        4.2430    -4.3990    -0.8770 H     1 <1>   0.0800 
 28 H        4.2230    -4.4420     0.8840 H     1 <1>   0.0800 
 29 H       -4.9740    -2.1880    -0.9290 H     1 <1>   0.0800 
 30 H       -4.9940    -2.2310     0.8270 H     1 <1>   0.0800 
 31 H       -6.0220    -3.3190    -0.0910 H     1 <1>   0.0800 
 32 H       -3.0730    -6.8190    -0.1420 H     1 <1>   0.1500 
 33 H        6.2050    -2.8760    -0.8150 H     1 <1>   0.0800 
 34 H        6.5660    -4.3590     0.0320 H     1 <1>   0.0800 
 35 H        6.1850    -2.9190     0.9420 H     1 <1>   0.0800 
@<TRIPOS>BOND
  1   1   2  1   
  2   1   3  1   
  3   2   4  1   
  4   2   5  2   
  5   3   6  2   
  6   3   7  1   
  7   4   8  am  
  8   4  21  1   
  9   5   6  1   
 10   5   9  1   
 11   6  22  1   
 12   7  23  1   
 13   7  24  1   
 14   7  25  1   
 15   8  10  2   
 16   8  11  1   
 17   9  12  2   
 18   9  13  1   
 19  11  14  1   
 20  11  15  2   
 21  13  16  1   
 22  14  17  1   
 23  14  18  1   
 24  15  19  1   
 25  15  26  1   
 26  16  20  1   
 27  16  27  1   
 28  16  28  1   
 29  17  19  2   
 30  18  29  1   
 31  18  30  1   
 32  18  31  1   
 33  19  32  1   
 34  20  33  1   
 35  20  34  1   
 36  20  35  1   
@<TRIPOS>SUBSTRUCTURE
  1 ****   4 GROUP 4 **** **** 0

# MOE 2024.06 (io_trps.svl 2023.06)
