@<TRIPOS>MOLECULE
NONAME
36 37 1 0 0 
SMALL
USER_CHARGES


@<TRIPOS>ATOM
  1 F        1.6820    -0.8620     1.2400 F     1 <1>  -0.1900 
  2 C        1.1490    -1.9110     0.6690 C.ar  1 <1>   0.1900 
  3 C        1.5560    -2.2720    -0.6080 C.ar  1 <1>  -0.1440 
  4 C        0.1990    -2.6210     1.3780 C.ar  1 <1>  -0.1500 
  5 C        0.9800    -3.4010    -1.1730 C.ar  1 <1>  -0.1500 
  6 C        2.6020    -1.4720    -1.3810 C.3   1 <1>   0.0450 
  7 C       -0.3680    -3.7410     0.7940 C.ar  1 <1>  -0.1500 
  8 C        0.0260    -4.1280    -0.4770 C.ar  1 <1>  -0.1500 
  9 C        4.0200    -1.8850    -1.0290 C.2   1 <1>   0.5690 
 10 O        4.7410    -2.2890    -1.9090 O.2   1 <1>  -0.5700 
 11 N        4.4270    -1.7700     0.2640 N.am  1 <1>  -0.7300 
 12 C        5.7310    -2.1760     0.8490 C.3   1 <1>   0.2200 
 13 C        6.9510    -1.7010     0.0250 C.3   1 <1>   0.2000 
 14 C        5.7110    -3.6940     1.0390 C.3   1 <1>  -0.2400 
 15 O        8.1270    -1.9140     0.7430 O.3   1 <1>  -0.5600 
 16 C        6.9800    -0.2060    -0.2810 C.3   1 <1>  -0.1600 
 17 C        9.1450    -1.1330     0.2120 C.3   1 <1>   0.1200 
 18 C        8.4660     0.1150    -0.3470 C.3   1 <1>  -0.1600 
 19 H       -0.0890    -2.3040     2.3640 H     1 <1>   0.1500 
 20 H        1.2740    -3.7230    -2.1590 H     1 <1>   0.1500 
 21 H        2.4900    -0.4230    -1.1810 H     1 <1>   0.0800 
 22 H        2.4560    -1.6120    -2.4360 H     1 <1>   0.0800 
 23 H       -1.1100    -4.3110     1.3260 H     1 <1>   0.1500 
 24 H       -0.4130    -5.0010    -0.9290 H     1 <1>   0.1500 
 25 H        3.7260    -1.4910     0.9550 H     1 <1>   0.3700 
 26 H        5.8070    -1.7120     1.8180 H     1 <1>   0.0800 
 27 H        7.0310    -2.2700    -0.8860 H     1 <1>   0.0800 
 28 H        5.6480    -4.1870     0.0850 H     1 <1>   0.0800 
 29 H        4.8760    -3.9850     1.6490 H     1 <1>   0.0800 
 30 H        6.6170    -4.0100     1.5250 H     1 <1>   0.0800 
 31 H        6.5150     0.3400     0.5200 H     1 <1>   0.0800 
 32 H        6.4690     0.0090    -1.2020 H     1 <1>   0.0800 
 33 H        9.6250    -1.6980    -0.5690 H     1 <1>   0.0800 
 34 H        9.8500    -0.9050     0.9920 H     1 <1>   0.0800 
 35 H        8.7050     0.9780     0.2480 H     1 <1>   0.0800 
 36 H        8.7880     0.2850    -1.3600 H     1 <1>   0.0800 
@<TRIPOS>BOND
  1   1   2  1   
  2   2   3  ar  
  3   2   4  ar  
  4   3   5  ar  
  5   3   6  1   
  6   4   7  ar  
  7   4  19  1   
  8   5   8  ar  
  9   5  20  1   
 10   6   9  1   
 11   6  21  1   
 12   6  22  1   
 13   7   8  ar  
 14   7  23  1   
 15   8  24  1   
 16   9  10  2   
 17   9  11  am  
 18  11  12  1   
 19  11  25  1   
 20  12  13  1   
 21  12  14  1   
 22  12  26  1   
 23  13  15  1   
 24  13  16  1   
 25  13  27  1   
 26  14  28  1   
 27  14  29  1   
 28  14  30  1   
 29  15  17  1   
 30  16  18  1   
 31  16  31  1   
 32  16  32  1   
 33  17  18  1   
 34  17  33  1   
 35  17  34  1   
 36  18  35  1   
 37  18  36  1   
@<TRIPOS>SUBSTRUCTURE
  1 ****  11 GROUP 4 **** **** 0

# MOE 2024.06 (io_trps.svl 2023.06)
