@<TRIPOS>MOLECULE
NONAME
49 51 1 0 0 
SMALL
USER_CHARGES


@<TRIPOS>ATOM
  1 N        0.5800     1.3770    -0.1400 N.pl3 1 <1>  -0.8380 
  2 C       -0.7370     0.9900     0.1030 C.ar  1 <1>   0.1000 
  3 C        1.6380     0.8450     0.7690 C.3   1 <1>   0.2090 
  4 C        0.9690     1.6420    -1.5540 C.3   1 <1>   0.2090 
  5 C       -1.6600     1.8940     0.6280 C.ar  1 <1>  -0.1440 
  6 C       -1.1510    -0.3080    -0.1800 C.ar  1 <1>  -0.1500 
  7 C        2.4280    -0.3070     0.1150 C.3   1 <1>   0.3430 
  8 C        1.7680     0.4670    -2.1560 C.3   1 <1>   0.3430 
  9 C       -2.9640     1.4890     0.8570 C.ar  1 <1>  -0.1500 
 10 C       -1.2510     3.3240     0.9560 C.3   1 <1>  -0.0970 
 11 C       -2.4540    -0.7120     0.0500 C.ar  1 <1>  -0.1440 
 12 N        2.9120     0.0310    -1.2760 N.4   1 <1>  -0.9590 
 13 C       -3.3610     0.1950     0.5700 C.ar  1 <1>  -0.1500 
 14 C       -2.9070    -2.1280    -0.2590 C.3   1 <1>  -0.0970 
 15 C        3.6880    -1.0850    -1.8780 C.3   1 <1>   0.4860 
 16 C        4.9060    -1.3380    -1.0140 C.ar  1 <1>  -0.1440 
 17 C        4.9430    -2.4400    -0.1700 C.ar  1 <1>  -0.1500 
 18 C        5.9860    -0.4680    -1.0510 C.ar  1 <1>  -0.1500 
 19 C        6.0400    -2.6640     0.6450 C.ar  1 <1>  -0.1440 
 20 C        7.0840    -0.6920    -0.2400 C.ar  1 <1>  -0.1500 
 21 C        7.1090    -1.7850     0.6060 C.ar  1 <1>  -0.1500 
 22 C        6.0850    -3.8690     1.5680 C.3   1 <1>  -0.0970 
 23 H        1.1820     0.4930     1.6800 H     1 <1>   0.0800 
 24 H        2.3090     1.6430     1.0310 H     1 <1>   0.0800 
 25 H        1.5570     2.5420    -1.5930 H     1 <1>   0.0800 
 26 H        0.0820     1.8080    -2.1420 H     1 <1>   0.0800 
 27 H       -0.4490    -1.0070    -0.5830 H     1 <1>   0.1500 
 28 H        1.7860    -1.1710     0.0730 H     1 <1>   0.0800 
 29 H        3.2660    -0.5520     0.7470 H     1 <1>   0.0800 
 30 H        2.1380     0.7590    -3.1250 H     1 <1>   0.0800 
 31 H        1.0890    -0.3570    -2.2970 H     1 <1>   0.0800 
 32 H       -3.6840     2.1790     1.2610 H     1 <1>   0.1500 
 33 H       -0.4470     3.3180     1.6690 H     1 <1>   0.0800 
 34 H       -2.0730     3.8790     1.3700 H     1 <1>   0.0800 
 35 H       -0.9180     3.8200     0.0630 H     1 <1>   0.0800 
 36 H        3.5600     0.8210    -1.1700 H     1 <1>   0.4500 
 37 H       -4.3790    -0.1010     0.7540 H     1 <1>   0.1500 
 38 H       -2.0730    -2.7540    -0.5220 H     1 <1>   0.0800 
 39 H       -3.6030    -2.1170    -1.0790 H     1 <1>   0.0800 
 40 H       -3.3930    -2.5530     0.6010 H     1 <1>   0.0800 
 41 H        4.0070    -0.8250    -2.8740 H     1 <1>   0.0800 
 42 H        3.0840    -1.9760    -1.9320 H     1 <1>   0.0800 
 43 H        4.1220    -3.1350    -0.1390 H     1 <1>   0.1500 
 44 H        5.9940     0.3860    -1.7060 H     1 <1>   0.1500 
 45 H        7.9250    -0.0200    -0.2670 H     1 <1>   0.1500 
 46 H        7.9700    -1.9520     1.2310 H     1 <1>   0.1500 
 47 H        5.0930    -4.2000     1.8180 H     1 <1>   0.0800 
 48 H        6.5990    -3.6230     2.4810 H     1 <1>   0.0800 
 49 H        6.6080    -4.6770     1.0870 H     1 <1>   0.0800 
@<TRIPOS>BOND
  1   1   2  1   
  2   1   3  1   
  3   1   4  1   
  4   2   5  ar  
  5   2   6  ar  
  6   3   7  1   
  7   3  23  1   
  8   3  24  1   
  9   4   8  1   
 10   4  25  1   
 11   4  26  1   
 12   5   9  ar  
 13   5  10  1   
 14   6  11  ar  
 15   6  27  1   
 16   7  12  1   
 17   7  28  1   
 18   7  29  1   
 19   8  12  1   
 20   8  30  1   
 21   8  31  1   
 22   9  13  ar  
 23   9  32  1   
 24  10  33  1   
 25  10  34  1   
 26  10  35  1   
 27  11  13  ar  
 28  11  14  1   
 29  12  15  1   
 30  12  36  1   
 31  13  37  1   
 32  14  38  1   
 33  14  39  1   
 34  14  40  1   
 35  15  16  1   
 36  15  41  1   
 37  15  42  1   
 38  16  17  ar  
 39  16  18  ar  
 40  17  19  ar  
 41  17  43  1   
 42  18  20  ar  
 43  18  44  1   
 44  19  21  ar  
 45  19  22  1   
 46  20  21  ar  
 47  20  45  1   
 48  21  46  1   
 49  22  47  1   
 50  22  48  1   
 51  22  49  1   
@<TRIPOS>SUBSTRUCTURE
  1 ****   7 GROUP 4 **** **** 0

# MOE 2024.06 (io_trps.svl 2023.06)
