@<TRIPOS>MOLECULE
NONAME
30 30 1 0 0 
SMALL
USER_CHARGES


@<TRIPOS>ATOM
  1 S       -0.1530     0.2830     0.1680 S.o2  1 <1>   1.4470 
  2 O       -0.2920     0.7740    -1.1840 O.2   1 <1>  -0.6500 
  3 O       -0.2670     1.1850     1.2900 O.2   1 <1>  -0.6500 
  4 N       -1.3830    -0.8250     0.4240 N.am  1 <1>  -0.9140 
  5 C        1.3480    -0.7280     0.3080 C.ar  1 <1>  -0.0090 
  6 C       -2.6560    -0.3840    -0.1120 C.3   1 <1>   0.1960 
  7 C        1.5490    -1.8240    -0.5220 C.ar  1 <1>  -0.1500 
  8 C        2.3360    -0.4420     1.2410 C.ar  1 <1>  -0.1500 
  9 C       -3.7340    -1.3850     0.2990 C.3   1 <1>  -0.1600 
 10 C        2.6890    -2.6020    -0.4250 C.ar  1 <1>  -0.1500 
 11 C        3.4770    -1.2180     1.3380 C.ar  1 <1>  -0.1500 
 12 C       -5.1080    -0.9840    -0.2500 C.3   1 <1>  -0.2400 
 13 C        3.6890    -2.3160     0.5060 C.ar  1 <1>   0.0860 
 14 C        4.8980    -3.1150     0.6160 C.2   1 <1>   0.5440 
 15 O        5.5560    -3.1370     1.6330 O.2   1 <1>  -0.5700 
 16 N        5.3650    -3.8640    -0.4090 N.am  1 <1>  -0.8000 
 17 H       -1.4810    -0.8350     1.4370 H     1 <1>   0.4200 
 18 H       -2.5990    -0.3320    -1.1880 H     1 <1>   0.0800 
 19 H       -2.8980     0.5970     0.2670 H     1 <1>   0.0800 
 20 H        0.7950    -2.0700    -1.2520 H     1 <1>   0.1500 
 21 H        2.2120     0.4010     1.9030 H     1 <1>   0.1500 
 22 H       -3.7890    -1.4380     1.3720 H     1 <1>   0.0800 
 23 H       -3.4750    -2.3590    -0.0810 H     1 <1>   0.0800 
 24 H        2.7980    -3.4480    -1.0790 H     1 <1>   0.1500 
 25 H        4.2260    -0.9740     2.0740 H     1 <1>   0.1500 
 26 H       -5.3990    -0.0190     0.1270 H     1 <1>   0.0800 
 27 H       -5.8480    -1.7050     0.0490 H     1 <1>   0.0800 
 28 H       -5.0870    -0.9440    -1.3260 H     1 <1>   0.0800 
 29 H        6.2370    -4.3760    -0.2750 H     1 <1>   0.3700 
 30 H        4.9950    -3.8300    -1.3580 H     1 <1>   0.3700 
@<TRIPOS>BOND
  1   1   2  2   
  2   1   3  2   
  3   1   4  am  
  4   1   5  1   
  5   4   6  1   
  6   4  17  1   
  7   5   7  ar  
  8   5   8  ar  
  9   6   9  1   
 10   6  18  1   
 11   6  19  1   
 12   7  10  ar  
 13   7  20  1   
 14   8  11  ar  
 15   8  21  1   
 16   9  12  1   
 17   9  22  1   
 18   9  23  1   
 19  10  13  ar  
 20  10  24  1   
 21  11  13  ar  
 22  11  25  1   
 23  12  26  1   
 24  12  27  1   
 25  12  28  1   
 26  13  14  1   
 27  14  15  2   
 28  14  16  am  
 29  16  29  1   
 30  16  30  1   
@<TRIPOS>SUBSTRUCTURE
  1 ****   5 GROUP 4 **** **** 0

# MOE 2024.06 (io_trps.svl 2023.06)
