@<TRIPOS>MOLECULE
NONAME
33 34 1 0 0 
SMALL
USER_CHARGES


@<TRIPOS>ATOM
  1 O       -5.3250     1.9230    -0.6830 O.3   1 <1>  -0.2800 
  2 C       -4.3170     2.6590    -0.2130 C.ar  1 <1>   0.1400 
  3 C       -6.4300     2.6600    -0.5960 C.2   1 <1>  -0.0400 
  4 C       -4.7770     3.9000     0.1880 C.ar  1 <1>   0.0000 
  5 C       -2.9790     2.3020    -0.1080 C.ar  1 <1>  -0.1500 
  6 C       -6.1620     3.8740    -0.0750 C.2   1 <1>  -0.1500 
  7 C       -7.7430     2.0580    -1.0610 C.3   1 <1>   0.5230 
  8 C       -3.8790     4.8280     0.7160 C.ar  1 <1>  -0.1500 
  9 C       -2.0960     3.2250     0.4160 C.ar  1 <1>  -0.1500 
 10 N       -8.0410     0.8500    -0.2350 N.4   1 <1>  -0.9590 
 11 C       -2.5470     4.4830     0.8260 C.ar  1 <1>  -0.1500 
 12 C       -7.3490    -0.3440    -0.7910 C.3   1 <1>   0.3430 
 13 C       -9.4980     0.6250    -0.0480 C.3   1 <1>   0.3430 
 14 C       -7.1760    -1.3860     0.3070 C.3   1 <1>  -0.2400 
 15 C      -10.0500     1.6480     0.9380 C.3   1 <1>  -0.2400 
 16 H       -2.6530     1.3300    -0.4310 H     1 <1>   0.1500 
 17 H       -6.8190     4.7020     0.1270 H     1 <1>   0.1500 
 18 H       -7.6800     1.7960    -2.1050 H     1 <1>   0.0800 
 19 H       -8.5190     2.7940    -0.9410 H     1 <1>   0.0800 
 20 H       -4.2300     5.7950     1.0290 H     1 <1>   0.1500 
 21 H       -1.0510     2.9820     0.5110 H     1 <1>   0.1500 
 22 H       -7.6130     1.0360     0.6820 H     1 <1>   0.4500 
 23 H       -1.8400     5.1870     1.2310 H     1 <1>   0.1500 
 24 H       -6.3730    -0.0680    -1.1570 H     1 <1>   0.0800 
 25 H       -7.9120    -0.7560    -1.6140 H     1 <1>   0.0800 
 26 H       -9.6680    -0.3620     0.3510 H     1 <1>   0.0800 
 27 H      -10.0130     0.6970    -0.9930 H     1 <1>   0.0800 
 28 H       -6.6080    -0.9830     1.1270 H     1 <1>   0.0800 
 29 H       -6.6300    -2.2240    -0.0890 H     1 <1>   0.0800 
 30 H       -8.1220    -1.7510     0.6640 H     1 <1>   0.0800 
 31 H       -9.5370     1.5850     1.8810 H     1 <1>   0.0800 
 32 H      -11.0900     1.4370     1.1150 H     1 <1>   0.0800 
 33 H       -9.9840     2.6500     0.5550 H     1 <1>   0.0800 
@<TRIPOS>BOND
  1   1   2  1   
  2   1   3  1   
  3   2   4  ar  
  4   2   5  ar  
  5   3   6  2   
  6   3   7  1   
  7   4   6  1   
  8   4   8  ar  
  9   5   9  ar  
 10   5  16  1   
 11   6  17  1   
 12   7  10  1   
 13   7  18  1   
 14   7  19  1   
 15   8  11  ar  
 16   8  20  1   
 17   9  11  ar  
 18   9  21  1   
 19  10  12  1   
 20  10  13  1   
 21  10  22  1   
 22  11  23  1   
 23  12  14  1   
 24  12  24  1   
 25  12  25  1   
 26  13  15  1   
 27  13  26  1   
 28  13  27  1   
 29  14  28  1   
 30  14  29  1   
 31  14  30  1   
 32  15  31  1   
 33  15  32  1   
 34  15  33  1   
@<TRIPOS>SUBSTRUCTURE
  1 ****   3 GROUP 4 **** **** 0

# MOE 2024.06 (io_trps.svl 2023.06)
