@<TRIPOS>MOLECULE
NONAME
44 45 1 0 0 
SMALL
USER_CHARGES


@<TRIPOS>ATOM
  1 O       -0.6750    -0.4410     1.1560 O.3   1 <1>  -0.3630 
  2 C       -1.8180    -0.7960     0.5080 C.ar  1 <1>   0.0820 
  3 C        0.2080     0.5390     0.6570 C.3   1 <1>   0.0400 
  4 C       -2.5700    -1.8540     1.0200 C.ar  1 <1>  -0.1440 
  5 C       -2.2400    -0.1400    -0.6410 C.ar  1 <1>  -0.1500 
  6 C       -3.7330    -2.2650     0.3650 C.ar  1 <1>  -0.1430 
  7 C       -2.0930    -2.5560     2.2970 C.3   1 <1>  -0.0960 
  8 C       -3.4010    -0.5300    -1.2740 C.ar  1 <1>  -0.1500 
  9 C       -4.1560    -1.5810    -0.7770 C.ar  1 <1>  -0.1440 
 10 C       -4.5130    -3.4670     0.9070 C.3   1 <1>  -0.0970 
 11 C       -5.4370    -1.9240    -1.5120 C.3   1 <1>   0.4860 
 12 N       -6.5830    -1.4660    -0.6830 N.4   1 <1>  -0.9590 
 13 C       -7.8760    -2.0300    -1.1470 C.3   1 <1>   0.4860 
 14 C       -6.6250     0.0250    -0.5450 C.3   1 <1>   0.2630 
 15 C       -8.9180    -1.7870    -0.0740 C.ar  1 <1>  -0.1430 
 16 C       -8.9120    -2.5420     1.0910 C.ar  1 <1>  -0.1500 
 17 C       -9.8830    -0.8050    -0.2470 C.ar  1 <1>  -0.1500 
 18 C       -9.8550    -2.3080     2.0760 C.ar  1 <1>  -0.1500 
 19 C      -10.8250    -0.5730     0.7400 C.ar  1 <1>  -0.1500 
 20 C      -10.8100    -1.3230     1.9020 C.ar  1 <1>  -0.1500 
 21 H        1.0490     0.5990     1.3230 H     1 <1>   0.0800 
 22 H       -0.3010     1.4860     0.6260 H     1 <1>   0.0800 
 23 H        0.5400     0.2440    -0.3230 H     1 <1>   0.0800 
 24 H       -1.6780     0.6750    -1.0560 H     1 <1>   0.1500 
 25 H       -1.4560    -1.9230     2.8870 H     1 <1>   0.0800 
 26 H       -1.5400    -3.4410     2.0380 H     1 <1>   0.0800 
 27 H       -2.9190    -2.8280     2.9270 H     1 <1>   0.0800 
 28 H       -3.7030     0.0000    -2.1610 H     1 <1>   0.1500 
 29 H       -3.8320    -4.2570     1.1710 H     1 <1>   0.0800 
 30 H       -5.1950    -3.8850     0.1930 H     1 <1>   0.0800 
 31 H       -5.0590    -3.1840     1.7890 H     1 <1>   0.0800 
 32 H       -5.4840    -2.9890    -1.6690 H     1 <1>   0.0800 
 33 H       -5.4540    -1.4380    -2.4740 H     1 <1>   0.0800 
 34 H       -6.4120    -1.8330     0.2620 H     1 <1>   0.4500 
 35 H       -7.7830    -3.0910    -1.3120 H     1 <1>   0.0800 
 36 H       -8.1800    -1.5640    -2.0710 H     1 <1>   0.0800 
 37 H       -6.7880     0.4900    -1.5030 H     1 <1>   0.0800 
 38 H       -7.4210     0.3160     0.1220 H     1 <1>   0.0800 
 39 H       -5.6940     0.3880    -0.1370 H     1 <1>   0.0800 
 40 H       -8.1850    -3.3200     1.2490 H     1 <1>   0.1500 
 41 H       -9.9200    -0.2120    -1.1450 H     1 <1>   0.1500 
 42 H       -9.8530    -2.8930     2.9810 H     1 <1>   0.1500 
 43 H      -11.5750     0.1890     0.6060 H     1 <1>   0.1500 
 44 H      -11.5440    -1.1420     2.6690 H     1 <1>   0.1500 
@<TRIPOS>BOND
  1   1   2  1   
  2   1   3  1   
  3   2   4  ar  
  4   2   5  ar  
  5   3  21  1   
  6   3  22  1   
  7   3  23  1   
  8   4   6  ar  
  9   4   7  1   
 10   5   8  ar  
 11   5  24  1   
 12   6   9  ar  
 13   6  10  1   
 14   7  25  1   
 15   7  26  1   
 16   7  27  1   
 17   8   9  ar  
 18   8  28  1   
 19   9  11  1   
 20  10  29  1   
 21  10  30  1   
 22  10  31  1   
 23  11  12  1   
 24  11  32  1   
 25  11  33  1   
 26  12  13  1   
 27  12  14  1   
 28  12  34  1   
 29  13  15  1   
 30  13  35  1   
 31  13  36  1   
 32  14  37  1   
 33  14  38  1   
 34  14  39  1   
 35  15  16  ar  
 36  15  17  ar  
 37  16  18  ar  
 38  16  40  1   
 39  17  19  ar  
 40  17  41  1   
 41  18  20  ar  
 42  18  42  1   
 43  19  20  ar  
 44  19  43  1   
 45  20  44  1   
@<TRIPOS>SUBSTRUCTURE
  1 ****  12 GROUP 4 **** **** 0

# MOE 2024.06 (io_trps.svl 2023.06)
