@<TRIPOS>MOLECULE
NONAME
40 41 1 0 0 
SMALL
USER_CHARGES


@<TRIPOS>ATOM
  1 N        0.1930     0.2970     0.0620 N.4   1 <1>  -0.9590 
  2 C        1.3120     1.1980     0.5370 C.3   1 <1>   0.4230 
  3 C       -1.1560     0.9820     0.1610 C.3   1 <1>   0.3430 
  4 C        0.2230    -1.0080     0.8160 C.3   1 <1>   0.2630 
  5 C        1.3670     2.5370    -0.2330 C.3   1 <1>  -0.0170 
  6 C        2.7050     0.5480     0.3770 C.3   1 <1>  -0.0170 
  7 C       -2.3320     0.2040    -0.5010 C.3   1 <1>   0.3430 
  8 C        2.8390     2.7880    -0.4110 C.ar  1 <1>  -0.1440 
  9 C        3.5810     1.6850    -0.0730 C.ar  1 <1>  -0.1430 
 10 N       -3.6530     0.9410    -0.5070 N.4   1 <1>  -0.9590 
 11 C        3.4530     3.9450    -0.8520 C.ar  1 <1>  -0.1500 
 12 C        4.9600     1.7030    -0.1660 C.ar  1 <1>  -0.1500 
 13 C       -4.2230     1.1770     0.8650 C.3   1 <1>   0.2630 
 14 C       -4.6640     0.1880    -1.3250 C.3   1 <1>   0.2630 
 15 C        4.8350     3.9750    -0.9490 C.ar  1 <1>  -0.1500 
 16 C        5.5850     2.8590    -0.6070 C.ar  1 <1>  -0.1500 
 17 H        0.4200     0.1020    -0.9280 H     1 <1>   0.4500 
 18 H        1.1820     1.4280     1.5820 H     1 <1>   0.0800 
 19 H       -1.0910     1.9460    -0.3160 H     1 <1>   0.0800 
 20 H       -1.3870     1.1430     1.2010 H     1 <1>   0.0800 
 21 H        0.0570    -0.8400     1.8690 H     1 <1>   0.0800 
 22 H        1.1810    -1.4910     0.7000 H     1 <1>   0.0800 
 23 H       -0.5330    -1.6820     0.4490 H     1 <1>   0.0800 
 24 H        0.9240     3.3340     0.3360 H     1 <1>   0.0800 
 25 H        0.9200     2.4680    -1.2080 H     1 <1>   0.0800 
 26 H        2.7190    -0.2120    -0.3840 H     1 <1>   0.0800 
 27 H        3.0610     0.1520     1.3120 H     1 <1>   0.0800 
 28 H       -2.4630    -0.7350     0.0110 H     1 <1>   0.0800 
 29 H       -2.0590    -0.0100    -1.5220 H     1 <1>   0.0800 
 30 H       -3.5440     1.8620    -0.9680 H     1 <1>   0.4500 
 31 H        2.8770     4.8150    -1.1190 H     1 <1>   0.1500 
 32 H        5.5470     0.8400     0.0980 H     1 <1>   0.1500 
 33 H       -4.3880     0.2390     1.3720 H     1 <1>   0.0800 
 34 H       -5.1700     1.6900     0.7910 H     1 <1>   0.0800 
 35 H       -3.5600     1.7820     1.4590 H     1 <1>   0.0800 
 36 H       -4.8540    -0.7820    -0.8950 H     1 <1>   0.0800 
 37 H       -4.3110     0.0540    -2.3360 H     1 <1>   0.0800 
 38 H       -5.5960     0.7310    -1.3630 H     1 <1>   0.0800 
 39 H        5.3300     4.8670    -1.2900 H     1 <1>   0.1500 
 40 H        6.6580     2.8920    -0.6860 H     1 <1>   0.1500 
@<TRIPOS>BOND
  1   1   2  1   
  2   1   3  1   
  3   1   4  1   
  4   1  17  1   
  5   2   5  1   
  6   2   6  1   
  7   2  18  1   
  8   3   7  1   
  9   3  19  1   
 10   3  20  1   
 11   4  21  1   
 12   4  22  1   
 13   4  23  1   
 14   5   8  1   
 15   5  24  1   
 16   5  25  1   
 17   6   9  1   
 18   6  26  1   
 19   6  27  1   
 20   7  10  1   
 21   7  28  1   
 22   7  29  1   
 23   8   9  ar  
 24   8  11  ar  
 25   9  12  ar  
 26  10  13  1   
 27  10  14  1   
 28  10  30  1   
 29  11  15  ar  
 30  11  31  1   
 31  12  16  ar  
 32  12  32  1   
 33  13  33  1   
 34  13  34  1   
 35  13  35  1   
 36  14  36  1   
 37  14  37  1   
 38  14  38  1   
 39  15  16  ar  
 40  15  39  1   
 41  16  40  1   
@<TRIPOS>SUBSTRUCTURE
  1 ****   2 GROUP 4 **** **** 0

# MOE 2024.06 (io_trps.svl 2023.06)
