@<TRIPOS>MOLECULE
NONAME
43 45 1 0 0 
SMALL
USER_CHARGES


@<TRIPOS>ATOM
  1 O       -0.0280    -2.1590    -1.8970 O.2   1 <1>  -0.5700 
  2 C       -0.0310    -2.2470    -0.6970 C.2   1 <1>   0.6590 
  3 O       -1.0590    -1.8730     0.0480 O.3   1 <1>  -0.4300 
  4 C        1.1750    -2.8010     0.0560 C.3   1 <1>  -0.0190 
  5 C       -2.2300    -1.3410    -0.5300 C.3   1 <1>   0.1200 
  6 C        2.3770    -1.8460    -0.0620 C.3   1 <1>  -0.1600 
  7 C        1.5550    -4.2040    -0.4560 C.3   1 <1>  -0.1600 
  8 C       -3.2060    -1.0140     0.5950 C.3   1 <1>  -0.2400 
  9 C        3.6340    -2.4210     0.5870 C.3   1 <1>   0.3430 
 10 C        2.8280    -4.7310     0.2030 C.3   1 <1>   0.3430 
 11 N        3.9350    -3.7570    -0.0060 N.4   1 <1>  -0.9590 
 12 C        5.2350    -4.2970     0.4800 C.3   1 <1>   0.4860 
 13 C        6.3450    -3.3760     0.0110 C.ar  1 <1>  -0.1440 
 14 C        6.9290    -2.4870     0.9090 C.ar  1 <1>  -0.1500 
 15 C        6.7750    -3.4130    -1.3170 C.ar  1 <1>  -0.1500 
 16 C        7.9180    -1.6460     0.4410 C.ar  1 <1>   0.0820 
 17 C        7.7770    -2.5600    -1.7650 C.ar  1 <1>  -0.1500 
 18 O        8.5980    -0.7170     1.1180 O.3   1 <1>  -0.3630 
 19 C        8.3310    -1.6800    -0.8570 C.ar  1 <1>   0.0820 
 20 C        9.5180    -0.1310     0.1950 C.3   1 <1>   0.4000 
 21 O        9.2920    -0.7740    -1.0580 O.3   1 <1>  -0.3620 
 22 H        0.9020    -2.8810     1.0950 H     1 <1>   0.0800 
 23 H       -2.6440    -2.0750    -1.2010 H     1 <1>   0.0800 
 24 H       -1.9670    -0.4550    -1.0830 H     1 <1>   0.0800 
 25 H        2.1350    -0.9090     0.4110 H     1 <1>   0.0800 
 26 H        2.5800    -1.6350    -1.0980 H     1 <1>   0.0800 
 27 H        1.6950    -4.1820    -1.5240 H     1 <1>   0.0800 
 28 H        0.7470    -4.8870    -0.2560 H     1 <1>   0.0800 
 29 H       -3.4540    -1.9050     1.1440 H     1 <1>   0.0800 
 30 H       -4.1110    -0.6060     0.1810 H     1 <1>   0.0800 
 31 H       -2.7770    -0.2870     1.2610 H     1 <1>   0.0800 
 32 H        3.4840    -2.5150     1.6510 H     1 <1>   0.0800 
 33 H        4.4580    -1.7440     0.4190 H     1 <1>   0.0800 
 34 H        3.0850    -5.6850    -0.2290 H     1 <1>   0.0800 
 35 H        2.6570    -4.8710     1.2590 H     1 <1>   0.0800 
 36 H        4.0460    -3.6070    -1.0170 H     1 <1>   0.4500 
 37 H        5.4020    -5.2830     0.0790 H     1 <1>   0.0800 
 38 H        5.2370    -4.3590     1.5560 H     1 <1>   0.0800 
 39 H        6.6440    -2.4290     1.9450 H     1 <1>   0.1500 
 40 H        6.3430    -4.1050    -2.0200 H     1 <1>   0.1500 
 41 H        8.1240    -2.5720    -2.7830 H     1 <1>   0.1500 
 42 H       10.5250    -0.3190     0.5210 H     1 <1>   0.0800 
 43 H        9.3180     0.9220     0.1030 H     1 <1>   0.0800 
@<TRIPOS>BOND
  1   1   2  2   
  2   2   3  1   
  3   2   4  1   
  4   3   5  1   
  5   4   6  1   
  6   4   7  1   
  7   4  22  1   
  8   5   8  1   
  9   5  23  1   
 10   5  24  1   
 11   6   9  1   
 12   6  25  1   
 13   6  26  1   
 14   7  10  1   
 15   7  27  1   
 16   7  28  1   
 17   8  29  1   
 18   8  30  1   
 19   8  31  1   
 20   9  11  1   
 21   9  32  1   
 22   9  33  1   
 23  10  11  1   
 24  10  34  1   
 25  10  35  1   
 26  11  12  1   
 27  11  36  1   
 28  12  13  1   
 29  12  37  1   
 30  12  38  1   
 31  13  14  ar  
 32  13  15  ar  
 33  14  16  ar  
 34  14  39  1   
 35  15  17  ar  
 36  15  40  1   
 37  16  18  1   
 38  16  19  ar  
 39  17  19  ar  
 40  17  41  1   
 41  18  20  1   
 42  19  21  1   
 43  20  21  1   
 44  20  42  1   
 45  20  43  1   
@<TRIPOS>SUBSTRUCTURE
  1 ****   9 GROUP 4 **** **** 0

# MOE 2024.06 (io_trps.svl 2023.06)
