@<TRIPOS>MOLECULE
NONAME
39 40 1 0 0 
SMALL
USER_CHARGES


@<TRIPOS>ATOM
  1 O       -0.4420    -2.0830    -0.8770 O.2   1 <1>  -0.5700 
  2 C       -0.2040    -3.0690    -0.2260 C.2   1 <1>   0.5690 
  3 N        1.0450    -3.4400     0.1840 N.am  1 <1>  -0.5470 
  4 C       -1.3680    -3.9600     0.1500 C.3   1 <1>  -0.0990 
  5 C        2.2940    -2.8220     0.0050 C.ar  1 <1>   0.1170 
  6 C       -2.6780    -3.2000    -0.0710 C.3   1 <1>   0.3430 
  7 C        3.4380    -3.5880     0.1830 C.ar  1 <1>  -0.1500 
  8 C        2.4460    -1.4780    -0.3260 C.ar  1 <1>  -0.1500 
  9 N       -3.8700    -4.0270     0.2830 N.4   1 <1>  -0.9590 
 10 C        4.7010    -3.0440     0.0330 C.ar  1 <1>   0.0830 
 11 C        3.7040    -0.9230    -0.4800 C.ar  1 <1>  -0.1500 
 12 C       -4.1220    -5.1610    -0.6430 C.3   1 <1>   0.3430 
 13 C       -5.1180    -3.2240     0.2710 C.3   1 <1>   0.3430 
 14 O        5.7500    -3.8820     0.2290 O.3   1 <1>  -0.3620 
 15 C        4.8350    -1.7000    -0.3020 C.ar  1 <1>  -0.1500 
 16 C       -5.5890    -5.5090    -0.4280 C.3   1 <1>  -0.1600 
 17 C       -6.2320    -4.2560     0.1720 C.3   1 <1>  -0.1600 
 18 C        7.0800    -3.4340     0.0840 C.3   1 <1>   0.0400 
 19 H        1.1110    -4.3360     0.6630 H     1 <1>   0.3700 
 20 H       -1.2750    -4.2370     1.1840 H     1 <1>   0.0800 
 21 H       -1.3290    -4.8350    -0.4700 H     1 <1>   0.0800 
 22 H       -2.7390    -2.8900    -1.1030 H     1 <1>   0.0800 
 23 H       -2.6620    -2.3070     0.5340 H     1 <1>   0.0800 
 24 H        3.3630    -4.6270     0.4390 H     1 <1>   0.1500 
 25 H        1.5870    -0.8500    -0.4640 H     1 <1>   0.1500 
 26 H       -3.7670    -4.4070     1.2330 H     1 <1>   0.4500 
 27 H        3.8010     0.1170    -0.7390 H     1 <1>   0.1500 
 28 H       -3.4790    -6.0010    -0.4360 H     1 <1>   0.0800 
 29 H       -3.9760    -4.8390    -1.6620 H     1 <1>   0.0800 
 30 H       -5.1360    -2.5910    -0.6030 H     1 <1>   0.0800 
 31 H       -5.2130    -2.6150     1.1560 H     1 <1>   0.0800 
 32 H        5.7990    -1.2460    -0.4270 H     1 <1>   0.1500 
 33 H       -5.6740    -6.3380     0.2530 H     1 <1>   0.0800 
 34 H       -6.0490    -5.7860    -1.3620 H     1 <1>   0.0800 
 35 H       -7.0350    -3.8840    -0.4430 H     1 <1>   0.0800 
 36 H       -6.6240    -4.4660     1.1520 H     1 <1>   0.0800 
 37 H        7.7350    -4.2640     0.2780 H     1 <1>   0.0800 
 38 H        7.2640    -2.6490     0.7950 H     1 <1>   0.0800 
 39 H        7.2220    -3.0850    -0.9240 H     1 <1>   0.0800 
@<TRIPOS>BOND
  1   1   2  2   
  2   2   3  am  
  3   2   4  1   
  4   3   5  1   
  5   3  19  1   
  6   4   6  1   
  7   4  20  1   
  8   4  21  1   
  9   5   7  ar  
 10   5   8  ar  
 11   6   9  1   
 12   6  22  1   
 13   6  23  1   
 14   7  10  ar  
 15   7  24  1   
 16   8  11  ar  
 17   8  25  1   
 18   9  12  1   
 19   9  13  1   
 20   9  26  1   
 21  10  14  1   
 22  10  15  ar  
 23  11  15  ar  
 24  11  27  1   
 25  12  16  1   
 26  12  28  1   
 27  12  29  1   
 28  13  17  1   
 29  13  30  1   
 30  13  31  1   
 31  14  18  1   
 32  15  32  1   
 33  16  17  1   
 34  16  33  1   
 35  16  34  1   
 36  17  35  1   
 37  17  36  1   
 38  18  37  1   
 39  18  38  1   
 40  18  39  1   
@<TRIPOS>SUBSTRUCTURE
  1 ****   2 GROUP 4 **** **** 0

# MOE 2024.06 (io_trps.svl 2023.06)
