@<TRIPOS>MOLECULE
NONAME
45 46 1 0 0 
SMALL
USER_CHARGES


@<TRIPOS>ATOM
  1 S       -0.1220    -0.0130    -1.3060 S.3   1 <1>  -0.0800 
  2 C       -0.1410    -1.5920    -0.5350 C.2   1 <1>   0.1040 
  3 C       -1.8460     0.2000    -1.0600 C.2   1 <1>  -0.1400 
  4 N        1.0200    -2.3400    -0.4070 N.am  1 <1>  -0.4940 
  5 C       -1.4070    -1.9090    -0.1250 C.2   1 <1>  -0.0860 
  6 C       -2.3590    -0.8730    -0.4360 C.2   1 <1>  -0.1500 
  7 C       -2.4580     1.4900    -1.5630 C.3   1 <1>  -0.0600 
  8 C        2.3220    -2.1210    -0.7780 C.2   1 <1>   0.5690 
  9 C       -1.7640    -3.1290     0.5390 C.2   1 <1>   0.8060 
 10 O        2.7050    -1.1200    -1.3300 O.2   1 <1>  -0.5700 
 11 C        3.3280    -3.2260    -0.4500 C.3   1 <1>  -0.0190 
 12 O       -0.9540    -4.0030     0.8020 O.2   1 <1>  -0.5700 
 13 O       -3.0440    -3.3110     0.8820 O.3   1 <1>  -0.4300 
 14 C        3.9920    -2.9780     0.9170 C.3   1 <1>  -0.1600 
 15 C        4.4080    -3.3830    -1.5390 C.3   1 <1>  -0.1600 
 16 C       -3.4760    -4.4840     1.5360 C.3   1 <1>   0.1200 
 17 C        5.0130    -4.0670     1.2580 C.3   1 <1>   0.1400 
 18 C        5.4180    -4.4740    -1.1760 C.3   1 <1>   0.1400 
 19 C       -4.9770    -4.3630     1.7780 C.3   1 <1>  -0.2400 
 20 N        6.0110    -4.1800     0.1580 N.am  1 <1>  -0.6600 
 21 C        7.3490    -3.9990     0.4030 C.2   1 <1>   0.5690 
 22 O        7.7830    -3.8050     1.5130 O.2   1 <1>  -0.5700 
 23 C        8.3530    -4.0390    -0.7260 C.3   1 <1>  -0.1790 
 24 H        0.8630    -3.2350     0.0670 H     1 <1>   0.3700 
 25 H       -3.3980    -0.9840    -0.1710 H     1 <1>   0.1500 
 26 H       -2.3080     1.5770    -2.6240 H     1 <1>   0.0800 
 27 H       -1.9940     2.3290    -1.0760 H     1 <1>   0.0800 
 28 H       -3.5130     1.5070    -1.3580 H     1 <1>   0.0800 
 29 H        2.7890    -4.1550    -0.3950 H     1 <1>   0.0800 
 30 H        3.2430    -2.9430     1.6880 H     1 <1>   0.0800 
 31 H        4.4940    -2.0250     0.9070 H     1 <1>   0.0800 
 32 H        4.9370    -2.4540    -1.6670 H     1 <1>   0.0800 
 33 H        3.9430    -3.6240    -2.4780 H     1 <1>   0.0800 
 34 H       -2.9420    -4.5750     2.4670 H     1 <1>   0.0800 
 35 H       -3.2550    -5.3290     0.9060 H     1 <1>   0.0800 
 36 H        4.5180    -5.0150     1.3800 H     1 <1>   0.0800 
 37 H        5.4960    -3.8240     2.1890 H     1 <1>   0.0800 
 38 H        6.1730    -4.5290    -1.9390 H     1 <1>   0.0800 
 39 H        4.9240    -5.4300    -1.1330 H     1 <1>   0.0800 
 40 H       -5.1860    -3.5100     2.3990 H     1 <1>   0.0800 
 41 H       -5.3370    -5.2450     2.2760 H     1 <1>   0.0800 
 42 H       -5.4980    -4.2630     0.8420 H     1 <1>   0.0800 
 43 H        8.3510    -5.0100    -1.1820 H     1 <1>   0.0800 
 44 H        9.3370    -3.8400    -0.3420 H     1 <1>   0.0800 
 45 H        8.1110    -3.2880    -1.4540 H     1 <1>   0.0800 
@<TRIPOS>BOND
  1   1   2  1   
  2   1   3  1   
  3   2   4  1   
  4   2   5  2   
  5   3   6  2   
  6   3   7  1   
  7   4   8  am  
  8   4  24  1   
  9   5   6  1   
 10   5   9  1   
 11   6  25  1   
 12   7  26  1   
 13   7  27  1   
 14   7  28  1   
 15   8  10  2   
 16   8  11  1   
 17   9  12  2   
 18   9  13  1   
 19  11  14  1   
 20  11  15  1   
 21  11  29  1   
 22  13  16  1   
 23  14  17  1   
 24  14  30  1   
 25  14  31  1   
 26  15  18  1   
 27  15  32  1   
 28  15  33  1   
 29  16  19  1   
 30  16  34  1   
 31  16  35  1   
 32  17  20  1   
 33  17  36  1   
 34  17  37  1   
 35  18  20  1   
 36  18  38  1   
 37  18  39  1   
 38  19  40  1   
 39  19  41  1   
 40  19  42  1   
 41  20  21  am  
 42  21  22  2   
 43  21  23  1   
 44  23  43  1   
 45  23  44  1   
 46  23  45  1   
@<TRIPOS>SUBSTRUCTURE
  1 ****   4 GROUP 4 **** **** 0

# MOE 2024.06 (io_trps.svl 2023.06)
