@<TRIPOS>MOLECULE
NONAME
45 48 1 0 0 
SMALL
USER_CHARGES


@<TRIPOS>ATOM
  1 S        2.0840    -0.0720    -2.4850 S.3   1 <1>  -0.2420 
  2 C        2.6750    -0.2730    -0.8330 C.2   1 <1>   0.6510 
  3 C        1.2150     1.4130    -2.0550 C.2   1 <1>  -0.0490 
  4 N        3.4310    -1.2530    -0.4650 N.2   1 <1>  -0.6210 
  5 N        2.2090     0.7570    -0.0600 N.am  1 <1>  -0.2290 
  6 C        1.3990     1.6820    -0.7560 C.2   1 <1>  -0.0410 
  7 C        3.8090    -1.2580     0.8490 C.2   1 <1>   0.0330 
  8 C        2.5780     0.7740     1.2610 C.2   1 <1>   0.6160 
  9 C        3.4060    -0.2850     1.7080 C.2   1 <1>  -0.1360 
 10 C        4.7010    -2.4160     1.3010 C.3   1 <1>   0.2480 
 11 O        2.2100     1.6720     2.0030 O.2   1 <1>  -0.5700 
 12 N        5.9840    -2.4580     0.5630 N.3   1 <1>  -0.8100 
 13 C        6.7490    -3.6870     0.8280 C.3   1 <1>   0.1100 
 14 C        6.8040    -1.2420     0.7260 C.3   1 <1>   0.1100 
 15 C        7.9860    -3.7690    -0.0900 C.3   1 <1>   0.3430 
 16 C        8.0420    -1.2940    -0.1900 C.3   1 <1>   0.3430 
 17 N        8.8520    -2.5460     0.0270 N.4   1 <1>  -0.9590 
 18 C       10.0200    -2.6050    -0.8900 C.3   1 <1>   0.4860 
 19 C       10.9320    -1.4360    -0.5760 C.ar  1 <1>  -0.1430 
 20 C       10.9770    -0.3380    -1.4240 C.ar  1 <1>  -0.1500 
 21 C       11.7240    -1.4510     0.5640 C.ar  1 <1>  -0.1500 
 22 C       11.7940     0.7390    -1.1270 C.ar  1 <1>  -0.1500 
 23 C       12.5400    -0.3730     0.8590 C.ar  1 <1>  -0.1500 
 24 C       12.5730     0.7220     0.0150 C.ar  1 <1>  -0.1500 
 25 H        0.6660     1.9070    -2.8390 H     1 <1>   0.1500 
 26 H        0.9960     2.5180    -0.2060 H     1 <1>   0.1500 
 27 H        3.6840    -0.2660     2.7450 H     1 <1>   0.1500 
 28 H        4.1630    -3.3320     1.1220 H     1 <1>   0.0800 
 29 H        4.8930    -2.3440     2.3580 H     1 <1>   0.0800 
 30 H        6.1230    -4.5420     0.6360 H     1 <1>   0.0800 
 31 H        7.0530    -3.7200     1.8610 H     1 <1>   0.0800 
 32 H        7.1090    -1.1320     1.7520 H     1 <1>   0.0800 
 33 H        6.2250    -0.3760     0.4540 H     1 <1>   0.0800 
 34 H        7.6400    -3.8710    -1.1060 H     1 <1>   0.0800 
 35 H        8.5540    -4.6500     0.1590 H     1 <1>   0.0800 
 36 H        8.6520    -0.4240    -0.0080 H     1 <1>   0.0800 
 37 H        7.7030    -1.2530    -1.2130 H     1 <1>   0.0800 
 38 H        9.2200    -2.4920     0.9830 H     1 <1>   0.4500 
 39 H        9.6930    -2.5530    -1.9160 H     1 <1>   0.0800 
 40 H       10.5610    -3.5260    -0.7470 H     1 <1>   0.0800 
 41 H       10.3840    -0.3050    -2.3230 H     1 <1>   0.1500 
 42 H       11.7220    -2.2950     1.2330 H     1 <1>   0.1500 
 43 H       11.8280     1.5910    -1.7850 H     1 <1>   0.1500 
 44 H       13.1550    -0.3830     1.7440 H     1 <1>   0.1500 
 45 H       13.2090     1.5610     0.2450 H     1 <1>   0.1500 
@<TRIPOS>BOND
  1   1   2  1   
  2   1   3  1   
  3   2   4  2   
  4   2   5  1   
  5   3   6  2   
  6   3  25  1   
  7   4   7  1   
  8   5   6  1   
  9   5   8  am  
 10   6  26  1   
 11   7   9  2   
 12   7  10  1   
 13   8   9  1   
 14   8  11  2   
 15   9  27  1   
 16  10  12  1   
 17  10  28  1   
 18  10  29  1   
 19  12  13  1   
 20  12  14  1   
 21  13  15  1   
 22  13  30  1   
 23  13  31  1   
 24  14  16  1   
 25  14  32  1   
 26  14  33  1   
 27  15  17  1   
 28  15  34  1   
 29  15  35  1   
 30  16  17  1   
 31  16  36  1   
 32  16  37  1   
 33  17  18  1   
 34  17  38  1   
 35  18  19  1   
 36  18  39  1   
 37  18  40  1   
 38  19  20  ar  
 39  19  21  ar  
 40  20  22  ar  
 41  20  41  1   
 42  21  23  ar  
 43  21  42  1   
 44  22  24  ar  
 45  22  43  1   
 46  23  24  ar  
 47  23  44  1   
 48  24  45  1   
@<TRIPOS>SUBSTRUCTURE
  1 ****  14 GROUP 4 **** **** 0

# MOE 2024.06 (io_trps.svl 2023.06)
