@<TRIPOS>MOLECULE
NONAME
32 32 1 0 0 
SMALL
USER_CHARGES


@<TRIPOS>ATOM
  1 CL       2.4100     1.0620     3.2030 Cl    1 <1>  -0.1770 
  2 C        2.7190     1.1510     1.4850 C.ar  1 <1>   0.1770 
  3 C        1.8320     1.8220     0.6530 C.ar  1 <1>  -0.1440 
  4 C        3.8540     0.5410     0.9920 C.ar  1 <1>  -0.1500 
  5 C        2.1120     1.8720    -0.7050 C.ar  1 <1>  -0.1500 
  6 C        0.5850     2.4930     1.2080 C.3   1 <1>  -0.0960 
  7 C        4.1290     0.5860    -0.3680 C.ar  1 <1>   0.1990 
  8 C        3.2480     1.2600    -1.2050 C.ar  1 <1>  -0.1500 
  9 N        5.2550    -0.0210    -0.9080 N.am  1 <1>  -0.6930 
 10 S        5.4670    -1.7370    -0.8340 S.o2  1 <1>   1.3330 
 11 C        6.5300     0.7630    -0.8590 C.3   1 <1>   0.2570 
 12 O        5.4650    -2.1140     0.5570 O.2   1 <1>  -0.6500 
 13 O        6.5870    -2.0400    -1.6900 O.2   1 <1>  -0.6500 
 14 C        3.9880    -2.3360    -1.6230 C.3   1 <1>  -0.1350 
 15 C        7.2800     0.6550     0.4700 C.2   1 <1>   0.6590 
 16 O        7.1000     1.4440     1.3640 O.2   1 <1>  -0.5700 
 17 O        8.1400    -0.3500     0.5820 O.3   1 <1>  -0.4300 
 18 C        8.8150    -0.6240     1.7910 C.3   1 <1>   0.0400 
 19 H        4.5210     0.0360     1.6670 H     1 <1>   0.1500 
 20 H        1.4470     2.3870    -1.3770 H     1 <1>   0.1500 
 21 H       -0.0390     1.7640     1.6940 H     1 <1>   0.0800 
 22 H        0.0160     2.9620     0.4250 H     1 <1>   0.0800 
 23 H        0.8620     3.2450     1.9260 H     1 <1>   0.0800 
 24 H        3.4600     1.3040    -2.2590 H     1 <1>   0.1500 
 25 H        6.3070     1.8000    -1.0280 H     1 <1>   0.0800 
 26 H        7.1810     0.4350    -1.6480 H     1 <1>   0.0800 
 27 H        3.9160    -1.9460    -2.6190 H     1 <1>   0.0800 
 28 H        3.1220    -2.0340    -1.0670 H     1 <1>   0.0800 
 29 H        4.0080    -3.4070    -1.6720 H     1 <1>   0.0800 
 30 H        9.4510    -1.4770     1.6390 H     1 <1>   0.0800 
 31 H        8.0840    -0.8390     2.5520 H     1 <1>   0.0800 
 32 H        9.4000     0.2360     2.0680 H     1 <1>   0.0800 
@<TRIPOS>BOND
  1   1   2  1   
  2   2   3  ar  
  3   2   4  ar  
  4   3   5  ar  
  5   3   6  1   
  6   4   7  ar  
  7   4  19  1   
  8   5   8  ar  
  9   5  20  1   
 10   6  21  1   
 11   6  22  1   
 12   6  23  1   
 13   7   8  ar  
 14   7   9  1   
 15   8  24  1   
 16   9  10  am  
 17   9  11  1   
 18  10  12  2   
 19  10  13  2   
 20  10  14  1   
 21  11  15  1   
 22  11  25  1   
 23  11  26  1   
 24  14  27  1   
 25  14  28  1   
 26  14  29  1   
 27  15  16  2   
 28  15  17  1   
 29  17  18  1   
 30  18  30  1   
 31  18  31  1   
 32  18  32  1   
@<TRIPOS>SUBSTRUCTURE
  1 ****   7 GROUP 4 **** **** 0

# MOE 2024.06 (io_trps.svl 2023.06)
