@<TRIPOS>MOLECULE
NONAME
33 35 1 0 0 
SMALL
USER_CHARGES


@<TRIPOS>ATOM
  1 I        6.8200     1.0920    -4.2600 I     1 <1>  -0.0270 
  2 C        5.7070     0.7040    -2.4700 C.2   1 <1>   0.0270 
  3 C        6.2740     0.4880    -1.1960 C.ar  1 <1>   0.0000 
  4 C        4.3610     0.6340    -2.4100 C.2   1 <1>  -0.3020 
  5 C        7.5320     0.4260    -0.5830 C.ar  1 <1>   0.4100 
  6 C        5.1800     0.2850    -0.3760 C.ar  1 <1>   0.1050 
  7 N        4.0160     0.3730    -1.1040 N.pl3 1 <1>   0.0480 
  8 N        7.6600     0.1940     0.6950 N.ar  1 <1>  -0.6200 
  9 N        8.6960     0.6040    -1.2540 N.pl3 1 <1>  -0.9000 
 10 N        5.2890     0.0330     0.9370 N.ar  1 <1>  -0.5670 
 11 C        2.6660     0.1950    -0.5190 C.3   1 <1>   0.4560 
 12 C        6.5250     0.0110     1.3790 C.ar  1 <1>   0.4700 
 13 O        1.6710     0.3500    -1.4920 O.3   1 <1>  -0.5600 
 14 C        2.4720    -1.2140     0.0640 C.3   1 <1>   0.2000 
 15 C        0.5310    -0.3090    -1.0380 C.3   1 <1>   0.2000 
 16 O        2.6050    -1.2020     1.4630 O.3   1 <1>  -0.6800 
 17 C        1.0580    -1.5890    -0.3860 C.3   1 <1>   0.2000 
 18 C       -0.4410    -0.5720    -2.1920 C.3   1 <1>   0.1200 
 19 O        0.2510    -1.9590     0.6820 O.3   1 <1>  -0.6800 
 20 O       -1.5740    -1.2120    -1.7040 O.3   1 <1>  -0.6800 
 21 H        3.6290     0.7520    -3.1910 H     1 <1>   0.1500 
 22 H        9.5510     0.6790    -0.7020 H     1 <1>   0.4000 
 23 H        8.7160     1.0140    -2.1890 H     1 <1>   0.4000 
 24 H        2.5000     0.9400     0.2390 H     1 <1>   0.0800 
 25 H        6.6580    -0.1800     2.4310 H     1 <1>   0.1500 
 26 H        3.1920    -1.9010    -0.3460 H     1 <1>   0.0800 
 27 H        0.0680     0.3290    -0.3040 H     1 <1>   0.0800 
 28 H        3.5260    -0.9310     1.6950 H     1 <1>   0.4000 
 29 H        1.0830    -2.3970    -1.0970 H     1 <1>   0.0800 
 30 H        0.0100    -1.2100    -2.9320 H     1 <1>   0.0800 
 31 H       -0.7540     0.3510    -2.6480 H     1 <1>   0.0800 
 32 H        0.8040    -1.8580     1.4950 H     1 <1>   0.4000 
 33 H       -1.3470    -1.7800    -0.9330 H     1 <1>   0.4000 
@<TRIPOS>BOND
  1   1   2  1   
  2   2   3  1   
  3   2   4  2   
  4   3   5  ar  
  5   3   6  ar  
  6   4   7  1   
  7   4  21  1   
  8   5   8  ar  
  9   5   9  1   
 10   6   7  1   
 11   6  10  ar  
 12   7  11  1   
 13   8  12  ar  
 14   9  22  1   
 15   9  23  1   
 16  10  12  ar  
 17  11  13  1   
 18  11  14  1   
 19  11  24  1   
 20  12  25  1   
 21  13  15  1   
 22  14  16  1   
 23  14  17  1   
 24  14  26  1   
 25  15  17  1   
 26  15  18  1   
 27  15  27  1   
 28  16  28  1   
 29  17  19  1   
 30  17  29  1   
 31  18  20  1   
 32  18  30  1   
 33  18  31  1   
 34  19  32  1   
 35  20  33  1   
@<TRIPOS>SUBSTRUCTURE
  1 ****   7 GROUP 4 **** **** 0

# MOE 2024.06 (io_trps.svl 2023.06)
