@<TRIPOS>MOLECULE
NONAME
29 30 1 0 0 
SMALL
USER_CHARGES


@<TRIPOS>ATOM
  1 O       -0.0240     0.9290     1.7650 O.2   1 <1>  -0.5700 
  2 C       -0.1830     1.7220     0.8530 C.2   1 <1>   0.4230 
  3 C       -1.3690     2.3750     0.3980 C.ar  1 <1>   0.0860 
  4 C        1.0950     2.0860     0.1350 C.3   1 <1>  -0.0990 
  5 C       -1.2300     3.5250    -0.4150 C.ar  1 <1>   0.0820 
  6 C       -2.7050     1.9610     0.6760 C.ar  1 <1>  -0.1710 
  7 C        1.1600     3.5960    -0.0890 C.3   1 <1>   0.2800 
  8 O       -0.0080     4.0120    -0.7600 O.3   1 <1>  -0.3630 
  9 C       -2.3140     4.2190    -0.9030 C.ar  1 <1>  -0.1500 
 10 O       -2.9780     0.9390     1.3380 O.3   1 <1>  -0.8290 
 11 C       -3.7920     2.6940     0.1770 C.ar  1 <1>  -0.1500 
 12 C        1.2550     4.3860     1.2230 C.3   1 <1>  -0.2400 
 13 C        2.3360     3.9560    -0.9990 C.3   1 <1>  -0.2400 
 14 C       -3.6110     3.8120    -0.6050 C.ar  1 <1>   0.0820 
 15 O       -4.6190     4.5620    -1.1210 O.3   1 <1>  -0.3620 
 16 C       -5.9580     4.2060    -0.8630 C.3   1 <1>   0.0400 
 17 H        1.1170     1.5660    -0.8040 H     1 <1>   0.0800 
 18 H        1.9410     1.7670     0.7150 H     1 <1>   0.0800 
 19 H       -2.1700     5.0860    -1.5170 H     1 <1>   0.1500 
 20 H       -4.7580     2.3180     0.4440 H     1 <1>   0.1500 
 21 H        0.4120     4.1800     1.8590 H     1 <1>   0.0800 
 22 H        1.2860     5.4410     1.0210 H     1 <1>   0.0800 
 23 H        2.1480     4.1120     1.7550 H     1 <1>   0.0800 
 24 H        2.2470     3.4440    -1.9410 H     1 <1>   0.0800 
 25 H        3.2630     3.6670    -0.5390 H     1 <1>   0.0800 
 26 H        2.3570     5.0150    -1.1780 H     1 <1>   0.0800 
 27 H       -6.5960     4.9170    -1.3550 H     1 <1>   0.0800 
 28 H       -6.1240     4.2310     0.2000 H     1 <1>   0.0800 
 29 H       -6.1350     3.2180    -1.2520 H     1 <1>   0.0800 
@<TRIPOS>BOND
  1   1   2  2   
  2   2   3  1   
  3   2   4  1   
  4   3   5  ar  
  5   3   6  ar  
  6   4   7  1   
  7   4  17  1   
  8   4  18  1   
  9   5   8  1   
 10   5   9  ar  
 11   6  10  1   
 12   6  11  ar  
 13   7   8  1   
 14   7  12  1   
 15   7  13  1   
 16   9  14  ar  
 17   9  19  1   
 18  11  14  ar  
 19  11  20  1   
 20  12  21  1   
 21  12  22  1   
 22  12  23  1   
 23  13  24  1   
 24  13  25  1   
 25  13  26  1   
 26  14  15  1   
 27  15  16  1   
 28  16  27  1   
 29  16  28  1   
 30  16  29  1   
@<TRIPOS>SUBSTRUCTURE
  1 ****   5 GROUP 4 **** **** 0

# MOE 2024.06 (io_trps.svl 2023.06)
