@<TRIPOS>MOLECULE
NONAME
35 35 1 0 0 
SMALL
USER_CHARGES


@<TRIPOS>ATOM
  1 O        1.0690    -0.2100     1.0870 O.2   1 <1>  -0.5200 
  2 N        1.1940    -0.7250    -0.0410 N.pl3 1 <1>   0.8360 
  3 O        1.3710     0.0110    -1.0320 O.2   1 <1>  -0.5200 
  4 C        1.2840    -2.1160    -0.1740 C.2   1 <1>   0.2190 
  5 C        2.4550    -2.7840     0.1060 C.2   1 <1>  -0.0380 
  6 C        0.0990    -2.7500    -0.6270 C.2   1 <1>   0.4950 
  7 N        3.6110    -2.1670     0.5160 N.pl3 1 <1>  -0.8690 
  8 C        2.5060    -4.3060    -0.0480 C.3   1 <1>  -0.0220 
  9 O       -0.9560    -2.1920    -0.8240 O.2   1 <1>  -0.5700 
 10 C        0.1360    -4.2420    -0.9030 C.3   1 <1>  -0.0990 
 11 C        4.9650    -2.7410     0.6960 C.3   1 <1>   0.2090 
 12 C        1.1190    -4.9800     0.0240 C.3   1 <1>   0.0000 
 13 C        5.9870    -1.7070     0.2350 C.3   1 <1>  -0.1600 
 14 C        0.5950    -4.9590     1.4730 C.3   1 <1>  -0.2400 
 15 C        1.2340    -6.4470    -0.4210 C.3   1 <1>  -0.2400 
 16 C        7.4050    -2.2630     0.3510 C.3   1 <1>   0.1200 
 17 O        8.2900    -1.2700    -0.0130 O.3   1 <1>  -0.6800 
 18 H        3.6010    -1.1570     0.7410 H     1 <1>   0.4000 
 19 H        3.1220    -4.7300     0.7250 H     1 <1>   0.0800 
 20 H        2.9720    -4.5280    -0.9930 H     1 <1>   0.0800 
 21 H        0.4210    -4.3800    -1.9300 H     1 <1>   0.0800 
 22 H       -0.8540    -4.6460    -0.7830 H     1 <1>   0.0800 
 23 H        5.0720    -3.6400     0.1130 H     1 <1>   0.0800 
 24 H        5.1170    -2.9770     1.7360 H     1 <1>   0.0800 
 25 H        5.9030    -0.8300     0.8530 H     1 <1>   0.0800 
 26 H        5.7860    -1.4480    -0.7890 H     1 <1>   0.0800 
 27 H        0.5180    -3.9580     1.8580 H     1 <1>   0.0800 
 28 H        1.2550    -5.5090     2.1210 H     1 <1>   0.0800 
 29 H       -0.3800    -5.4130     1.5300 H     1 <1>   0.0800 
 30 H        1.5910    -6.5140    -1.4340 H     1 <1>   0.0800 
 31 H        0.2760    -6.9350    -0.3700 H     1 <1>   0.0800 
 32 H        1.9180    -6.9830     0.2130 H     1 <1>   0.0800 
 33 H        7.5540    -3.1080    -0.3010 H     1 <1>   0.0800 
 34 H        7.6300    -2.5470     1.3660 H     1 <1>   0.0800 
 35 H        8.1270    -0.9740    -0.9300 H     1 <1>   0.4000 
@<TRIPOS>BOND
  1   1   2  2   
  2   2   3  2   
  3   2   4  1   
  4   4   5  2   
  5   4   6  1   
  6   5   7  1   
  7   5   8  1   
  8   6   9  2   
  9   6  10  1   
 10   7  11  1   
 11   7  18  1   
 12   8  12  1   
 13   8  19  1   
 14   8  20  1   
 15  10  12  1   
 16  10  21  1   
 17  10  22  1   
 18  11  13  1   
 19  11  23  1   
 20  11  24  1   
 21  12  14  1   
 22  12  15  1   
 23  13  16  1   
 24  13  25  1   
 25  13  26  1   
 26  14  27  1   
 27  14  28  1   
 28  14  29  1   
 29  15  30  1   
 30  15  31  1   
 31  15  32  1   
 32  16  17  1   
 33  16  33  1   
 34  16  34  1   
 35  17  35  1   
@<TRIPOS>SUBSTRUCTURE
  1 ****   5 GROUP 4 **** **** 0

# MOE 2024.06 (io_trps.svl 2023.06)
