@<TRIPOS>MOLECULE
NONAME
34 34 1 0 0 
SMALL
USER_CHARGES


@<TRIPOS>ATOM
  1 CL      -8.9190     9.0430     0.4840 Cl    1 <1>  -0.1770 
  2 C       -7.2160     8.6570     0.3620 C.ar  1 <1>   0.1770 
  3 C       -6.7880     7.3400     0.4580 C.ar  1 <1>  -0.1440 
  4 C       -6.3230     9.6950     0.1700 C.ar  1 <1>  -0.1500 
  5 C       -5.4300     7.0740     0.3560 C.ar  1 <1>  -0.1500 
  6 C       -7.7770     6.2040     0.6750 C.3   1 <1>  -0.0960 
  7 C       -4.9710     9.4180     0.0700 C.ar  1 <1>  -0.1500 
  8 C       -4.5180     8.1100     0.1600 C.ar  1 <1>   0.0820 
  9 O       -3.1790     7.9240     0.0460 O.3   1 <1>  -0.3630 
 10 C       -2.6290     6.6120     0.0000 C.3   1 <1>   0.1200 
 11 C       -1.0960     6.6650    -0.1110 C.3   1 <1>   0.2000 
 12 O       -0.7480     7.7300    -0.9400 O.3   1 <1>  -0.6800 
 13 C       -0.4910     5.3690    -0.6880 C.3   1 <1>   0.1960 
 14 N       -1.1850     4.1430    -0.2550 N.am  1 <1>  -0.8490 
 15 S       -0.7780     3.6800     1.3430 S.o2  1 <1>   1.5880 
 16 C       -0.9150     3.0530    -1.1890 C.3   1 <1>   0.1160 
 17 O       -1.1890     4.8370     2.1690 O.co2 1 <1>  -0.8170 
 18 O       -1.5700     2.4480     1.5530 O.co2 1 <1>  -0.8170 
 19 O        0.6890     3.4730     1.2450 O.co2 1 <1>  -0.8170 
 20 H       -6.6840    10.7050     0.1020 H     1 <1>   0.1500 
 21 H       -5.0920     6.0560     0.4360 H     1 <1>   0.1500 
 22 H       -8.3160     6.3580     1.5930 H     1 <1>   0.0800 
 23 H       -7.2710     5.2570     0.7320 H     1 <1>   0.0800 
 24 H       -8.4790     6.1680    -0.1380 H     1 <1>   0.0800 
 25 H       -4.2600    10.2100    -0.0770 H     1 <1>   0.1500 
 26 H       -3.0420     6.1010    -0.8510 H     1 <1>   0.0800 
 27 H       -2.9060     6.0850     0.8960 H     1 <1>   0.0800 
 28 H       -0.6760     6.8580     0.8610 H     1 <1>   0.0800 
 29 H       -1.3830     8.4510    -0.7460 H     1 <1>   0.4000 
 30 H        0.5520     5.3140    -0.4240 H     1 <1>   0.0800 
 31 H       -0.5610     5.4390    -1.7590 H     1 <1>   0.0800 
 32 H       -1.2140     3.3300    -2.1840 H     1 <1>   0.0800 
 33 H       -1.4720     2.1790    -0.8980 H     1 <1>   0.0800 
 34 H        0.1340     2.8090    -1.1820 H     1 <1>   0.0800 
@<TRIPOS>BOND
  1   1   2  1   
  2   2   3  ar  
  3   2   4  ar  
  4   3   5  ar  
  5   3   6  1   
  6   4   7  ar  
  7   4  20  1   
  8   5   8  ar  
  9   5  21  1   
 10   6  22  1   
 11   6  23  1   
 12   6  24  1   
 13   7   8  ar  
 14   7  25  1   
 15   8   9  1   
 16   9  10  1   
 17  10  11  1   
 18  10  26  1   
 19  10  27  1   
 20  11  12  1   
 21  11  13  1   
 22  11  28  1   
 23  12  29  1   
 24  13  14  1   
 25  13  30  1   
 26  13  31  1   
 27  14  15  am  
 28  14  16  1   
 29  15  17  ar  
 30  15  18  ar  
 31  15  19  ar  
 32  16  32  1   
 33  16  33  1   
 34  16  34  1   
@<TRIPOS>SUBSTRUCTURE
  1 ****  10 GROUP 4 **** **** 0

# MOE 2024.06 (io_trps.svl 2023.06)
