@<TRIPOS>MOLECULE
NONAME
50 52 1 0 0 
SMALL
USER_CHARGES


@<TRIPOS>ATOM
  1 O        0.6180     1.1680    -2.3690 O.2   1 <1>  -0.5700 
  2 C        0.4890     1.8990    -1.4180 C.2   1 <1>   0.5690 
  3 N       -0.6590     1.9790    -0.6710 N.am  1 <1>  -0.5470 
  4 C        1.6770     2.7790    -1.0040 C.3   1 <1>   0.1710 
  5 C       -1.8510     1.2370    -0.7190 C.ar  1 <1>   0.1170 
  6 N        2.7980     2.0390    -0.3530 N.3   1 <1>  -0.8100 
  7 C       -3.0170     1.7720    -0.1630 C.ar  1 <1>  -0.1430 
  8 C       -1.9040    -0.0360    -1.2820 C.ar  1 <1>  -0.1500 
  9 C        3.9710     2.8970    -0.0650 C.3   1 <1>   0.1100 
 10 C        2.3990     1.2450     0.8350 C.3   1 <1>   0.1100 
 11 C       -4.1910     1.0360    -0.1790 C.ar  1 <1>  -0.1500 
 12 C       -3.0370     3.1620     0.4630 C.3   1 <1>  -0.0970 
 13 C       -3.0790    -0.7630    -1.2950 C.ar  1 <1>  -0.1500 
 14 C        5.1540     2.0890     0.5260 C.3   1 <1>   0.3430 
 15 C        3.5700     0.3830     1.3720 C.3   1 <1>   0.3430 
 16 C       -4.2260    -0.2270    -0.7420 C.ar  1 <1>  -0.1500 
 17 N        4.8230     0.6240     0.5870 N.4   1 <1>  -0.9590 
 18 C        5.9630    -0.2480     0.9660 C.3   1 <1>   0.4860 
 19 C        7.1220     0.0170     0.0240 C.ar  1 <1>  -0.1430 
 20 C        8.2570     0.6700     0.4840 C.ar  1 <1>  -0.1500 
 21 C        7.0540    -0.3810    -1.3040 C.ar  1 <1>  -0.1500 
 22 C        9.3080     0.9310    -0.3770 C.ar  1 <1>  -0.1500 
 23 C        8.1060    -0.1180    -2.1640 C.ar  1 <1>  -0.1500 
 24 C        9.2320     0.5390    -1.7020 C.ar  1 <1>  -0.1500 
 25 H       -0.6920     2.7350     0.0060 H     1 <1>   0.3700 
 26 H        1.3300     3.5570    -0.3490 H     1 <1>   0.0800 
 27 H        2.0480     3.2470    -1.9000 H     1 <1>   0.0800 
 28 H       -1.0240    -0.4740    -1.7150 H     1 <1>   0.1500 
 29 H        3.6970     3.6810     0.6210 H     1 <1>   0.0800 
 30 H        4.3000     3.3660    -0.9790 H     1 <1>   0.0800 
 31 H        1.5890     0.5840     0.5780 H     1 <1>   0.0800 
 32 H        2.0500     1.9000     1.6150 H     1 <1>   0.0800 
 33 H       -5.0940     1.4390     0.2460 H     1 <1>   0.1500 
 34 H       -2.6810     3.8910    -0.2430 H     1 <1>   0.0800 
 35 H       -2.4200     3.1820     1.3430 H     1 <1>   0.0800 
 36 H       -4.0360     3.4390     0.7480 H     1 <1>   0.0800 
 37 H       -3.0990    -1.7430    -1.7380 H     1 <1>   0.1500 
 38 H        5.3830     2.4580     1.5120 H     1 <1>   0.0800 
 39 H        6.0230     2.2460    -0.0930 H     1 <1>   0.0800 
 40 H        3.2910    -0.6560     1.3060 H     1 <1>   0.0800 
 41 H        3.7330     0.6140     2.4120 H     1 <1>   0.0800 
 42 H       -5.1430    -0.7900    -0.7510 H     1 <1>   0.1500 
 43 H        4.5560     0.4120    -0.3870 H     1 <1>   0.4500 
 44 H        5.6760    -1.2850     0.8950 H     1 <1>   0.0800 
 45 H        6.2650    -0.0450     1.9800 H     1 <1>   0.0800 
 46 H        8.3420     0.9800     1.5120 H     1 <1>   0.1500 
 47 H        6.1900    -0.8980    -1.6870 H     1 <1>   0.1500 
 48 H       10.1900     1.4360    -0.0200 H     1 <1>   0.1500 
 49 H        8.0530    -0.4260    -3.1950 H     1 <1>   0.1500 
 50 H       10.0500     0.7410    -2.3720 H     1 <1>   0.1500 
@<TRIPOS>BOND
  1   1   2  2   
  2   2   3  am  
  3   2   4  1   
  4   3   5  1   
  5   3  25  1   
  6   4   6  1   
  7   4  26  1   
  8   4  27  1   
  9   5   7  ar  
 10   5   8  ar  
 11   6   9  1   
 12   6  10  1   
 13   7  11  ar  
 14   7  12  1   
 15   8  13  ar  
 16   8  28  1   
 17   9  14  1   
 18   9  29  1   
 19   9  30  1   
 20  10  15  1   
 21  10  31  1   
 22  10  32  1   
 23  11  16  ar  
 24  11  33  1   
 25  12  34  1   
 26  12  35  1   
 27  12  36  1   
 28  13  16  ar  
 29  13  37  1   
 30  14  17  1   
 31  14  38  1   
 32  14  39  1   
 33  15  17  1   
 34  15  40  1   
 35  15  41  1   
 36  16  42  1   
 37  17  18  1   
 38  17  43  1   
 39  18  19  1   
 40  18  44  1   
 41  18  45  1   
 42  19  20  ar  
 43  19  21  ar  
 44  20  22  ar  
 45  20  46  1   
 46  21  23  ar  
 47  21  47  1   
 48  22  24  ar  
 49  22  48  1   
 50  23  24  ar  
 51  23  49  1   
 52  24  50  1   
@<TRIPOS>SUBSTRUCTURE
  1 ****   6 GROUP 4 **** **** 0

# MOE 2024.06 (io_trps.svl 2023.06)
