@<TRIPOS>MOLECULE
NONAME
42 43 1 0 0 
SMALL
USER_CHARGES


@<TRIPOS>ATOM
  1 CL      -0.2510     0.2380     0.6010 Cl    1 <1>  -0.1400 
  2 C        1.4400     0.6860     0.5270 C.2   1 <1>   0.1400 
  3 C        1.8250     1.9380     0.1780 C.2   1 <1>  -0.0500 
  4 C        2.4020    -0.3070     0.8390 C.2   1 <1>  -0.1500 
  5 N        3.1740     2.2530     0.1320 N.pl3 1 <1>  -0.5500 
  6 C        3.7200     0.0250     0.7920 C.2   1 <1>  -0.1360 
  7 C        4.1760     1.3420     0.4490 C.2   1 <1>   0.4860 
  8 N        5.4260     1.6040     0.4440 N.2   1 <1>  -0.6380 
  9 S        5.9240     3.1910     0.2260 S.o2  1 <1>   1.4970 
 10 O        5.6310     3.8710     1.4720 O.2   1 <1>  -0.6500 
 11 O        5.2750     3.6720    -0.9810 O.2   1 <1>  -0.6500 
 12 C        7.7200     3.0710    -0.0190 C.ar  1 <1>  -0.0090 
 13 C        8.4530     4.2280    -0.2610 C.ar  1 <1>   0.0830 
 14 C        8.4060     1.8590     0.0290 C.ar  1 <1>  -0.1500 
 15 O        7.7680     5.3970    -0.3000 O.3   1 <1>  -0.3620 
 16 C        9.8300     4.1640    -0.4520 C.ar  1 <1>  -0.1500 
 17 C        9.7780     1.7820    -0.1600 C.ar  1 <1>  -0.1430 
 18 C        8.3970     6.6400    -0.5050 C.3   1 <1>   0.1200 
 19 C       10.4840     2.9490    -0.4010 C.ar  1 <1>  -0.1500 
 20 C       10.4820     0.4270    -0.0980 C.3   1 <1>   0.0630 
 21 C        7.3200     7.7190    -0.4660 C.3   1 <1>  -0.2400 
 22 C       11.5040     0.3940     1.0430 C.3   1 <1>  -0.2400 
 23 C       11.1510     0.0970    -1.4370 C.3   1 <1>  -0.2400 
 24 H        1.1160     2.7080    -0.0750 H     1 <1>   0.1500 
 25 H        2.0550    -1.2900     1.1010 H     1 <1>   0.1500 
 26 H        3.4860     3.1630    -0.2420 H     1 <1>   0.4000 
 27 H        4.4840    -0.6930     1.0200 H     1 <1>   0.1500 
 28 H        7.8610     0.9520     0.2170 H     1 <1>   0.1500 
 29 H       10.4110     5.0460    -0.6420 H     1 <1>   0.1500 
 30 H        8.8840     6.6220    -1.4650 H     1 <1>   0.0800 
 31 H        9.1170     6.7920     0.2810 H     1 <1>   0.0800 
 32 H       11.5490     2.9160    -0.5510 H     1 <1>   0.1500 
 33 H        9.7490    -0.3370     0.0980 H     1 <1>   0.0800 
 34 H        6.5960     7.5450    -1.2420 H     1 <1>   0.0800 
 35 H        7.7640     8.6850    -0.6190 H     1 <1>   0.0800 
 36 H        6.8270     7.7130     0.4900 H     1 <1>   0.0800 
 37 H       12.2920     1.1050     0.8740 H     1 <1>   0.0800 
 38 H       11.9370    -0.5860     1.1260 H     1 <1>   0.0800 
 39 H       11.0200     0.6340     1.9730 H     1 <1>   0.0800 
 40 H       11.9320     0.8010    -1.6610 H     1 <1>   0.0800 
 41 H       10.4220     0.1320    -2.2270 H     1 <1>   0.0800 
 42 H       11.5760    -0.8900    -1.4070 H     1 <1>   0.0800 
@<TRIPOS>BOND
  1   1   2  1   
  2   2   3  2   
  3   2   4  1   
  4   3   5  1   
  5   3  24  1   
  6   4   6  2   
  7   4  25  1   
  8   5   7  1   
  9   5  26  1   
 10   6   7  1   
 11   6  27  1   
 12   7   8  2   
 13   8   9  1   
 14   9  10  2   
 15   9  11  2   
 16   9  12  1   
 17  12  13  ar  
 18  12  14  ar  
 19  13  15  1   
 20  13  16  ar  
 21  14  17  ar  
 22  14  28  1   
 23  15  18  1   
 24  16  19  ar  
 25  16  29  1   
 26  17  19  ar  
 27  17  20  1   
 28  18  21  1   
 29  18  30  1   
 30  18  31  1   
 31  19  32  1   
 32  20  22  1   
 33  20  23  1   
 34  20  33  1   
 35  21  34  1   
 36  21  35  1   
 37  21  36  1   
 38  22  37  1   
 39  22  38  1   
 40  22  39  1   
 41  23  40  1   
 42  23  41  1   
 43  23  42  1   
@<TRIPOS>SUBSTRUCTURE
  1 ****   9 GROUP 4 **** **** 0

# MOE 2024.06 (io_trps.svl 2023.06)
