@<TRIPOS>MOLECULE
NONAME
39 41 1 0 0 
SMALL
USER_CHARGES


@<TRIPOS>ATOM
  1 O        0.2740    -0.1710    -0.2110 O.2   1 <1>  -0.5700 
  2 C       -0.0530     0.9410     0.1600 C.2   1 <1>   0.7150 
  3 N        0.8500     1.8040     0.7420 N.am  1 <1>  -0.6600 
  4 C       -1.3990     1.4020     0.0040 C.2   1 <1>  -0.2370 
  5 C        0.3820     3.0590     1.4260 C.3   1 <1>   0.1400 
  6 C        2.2790     1.4450     0.9170 C.3   1 <1>   0.1400 
  7 N       -2.4680     0.6700    -0.4380 N.pl3 1 <1>   0.0330 
  8 C       -1.8190     2.6640     0.2680 C.2   1 <1>  -0.1810 
  9 C       -0.8430     3.7170     0.7490 C.3   1 <1>   0.0210 
 10 C        3.1160     2.1480    -0.1540 C.3   1 <1>  -0.1600 
 11 C       -3.5740     1.4820    -0.4490 C.ar  1 <1>  -0.1520 
 12 C       -3.1950     2.7480    -0.0090 C.ar  1 <1>   0.0000 
 13 C        4.6040     1.8010    -0.0130 C.3   1 <1>  -0.1600 
 14 C       -4.8970     1.2190    -0.8130 C.ar  1 <1>  -0.1500 
 15 C       -4.1510     3.7680     0.0670 C.ar  1 <1>  -0.1500 
 16 C        5.4370     2.5040    -1.0880 C.3   1 <1>  -0.2400 
 17 C       -5.8230     2.2320    -0.7310 C.ar  1 <1>  -0.1500 
 18 C       -5.4550     3.5120    -0.2910 C.ar  1 <1>  -0.1440 
 19 C       -6.5150     4.5960    -0.2200 C.3   1 <1>  -0.0970 
 20 H        1.1850     3.7730     1.4660 H     1 <1>   0.0800 
 21 H        0.1160     2.8010     2.4360 H     1 <1>   0.0800 
 22 H        2.4040     0.3790     0.8290 H     1 <1>   0.0800 
 23 H        2.6070     1.7370     1.9000 H     1 <1>   0.0800 
 24 H       -2.4220    -0.3130    -0.7230 H     1 <1>   0.2700 
 25 H       -0.5150     4.2970    -0.0950 H     1 <1>   0.0800 
 26 H       -1.3260     4.3790     1.4440 H     1 <1>   0.0800 
 27 H        2.9890     3.2130    -0.0700 H     1 <1>   0.0800 
 28 H        2.7690     1.8360    -1.1240 H     1 <1>   0.0800 
 29 H        4.7360     0.7360    -0.1050 H     1 <1>   0.0800 
 30 H        4.9570     2.0990     0.9590 H     1 <1>   0.0800 
 31 H       -5.1760     0.2370    -1.1510 H     1 <1>   0.1500 
 32 H       -3.8410     4.7380     0.4060 H     1 <1>   0.1500 
 33 H        5.1140     2.2030    -2.0700 H     1 <1>   0.0800 
 34 H        6.4750     2.2450    -0.9770 H     1 <1>   0.0800 
 35 H        5.3390     3.5720    -1.0030 H     1 <1>   0.0800 
 36 H       -6.8460     2.0470    -1.0080 H     1 <1>   0.1500 
 37 H       -6.0950     5.5210     0.1320 H     1 <1>   0.0800 
 38 H       -7.2980     4.2970     0.4530 H     1 <1>   0.0800 
 39 H       -6.9360     4.7600    -1.1950 H     1 <1>   0.0800 
@<TRIPOS>BOND
  1   1   2  2   
  2   2   3  am  
  3   2   4  1   
  4   3   5  1   
  5   3   6  1   
  6   4   7  1   
  7   4   8  2   
  8   5   9  1   
  9   5  20  1   
 10   5  21  1   
 11   6  10  1   
 12   6  22  1   
 13   6  23  1   
 14   7  11  1   
 15   7  24  1   
 16   8   9  1   
 17   8  12  1   
 18   9  25  1   
 19   9  26  1   
 20  10  13  1   
 21  10  27  1   
 22  10  28  1   
 23  11  12  ar  
 24  11  14  ar  
 25  12  15  ar  
 26  13  16  1   
 27  13  29  1   
 28  13  30  1   
 29  14  17  ar  
 30  14  31  1   
 31  15  18  ar  
 32  15  32  1   
 33  16  33  1   
 34  16  34  1   
 35  16  35  1   
 36  17  18  ar  
 37  17  36  1   
 38  18  19  1   
 39  19  37  1   
 40  19  38  1   
 41  19  39  1   
@<TRIPOS>SUBSTRUCTURE
  1 ****   4 GROUP 4 **** **** 0

# MOE 2024.06 (io_trps.svl 2023.06)
