@<TRIPOS>MOLECULE
NONAME
32 32 1 0 0 
SMALL
USER_CHARGES


@<TRIPOS>ATOM
  1 O        1.1290     2.8530     2.2700 O.2   1 <1>  -0.5700 
  2 C        0.4070     2.5520     1.3490 C.2   1 <1>   0.5690 
  3 N        0.8430     1.7950     0.3080 N.am  1 <1>  -0.7300 
  4 C       -1.0360     3.0430     1.3680 C.3   1 <1>   0.1810 
  5 C        2.1900     1.2470     0.1390 C.3   1 <1>   0.2200 
  6 O       -1.7550     2.6060     0.2200 O.3   1 <1>  -0.3630 
  7 C        2.7770     1.8150    -1.1480 C.3   1 <1>  -0.2400 
  8 C        2.0820    -0.2720     0.0770 C.3   1 <1>  -0.2400 
  9 C       -3.0590     2.9360     0.0440 C.ar  1 <1>   0.0820 
 10 C       -3.6720     2.4630    -1.1050 C.ar  1 <1>  -0.1500 
 11 C       -3.7930     3.7080     0.9400 C.ar  1 <1>  -0.1500 
 12 C       -5.0010     2.7520    -1.3620 C.ar  1 <1>  -0.1500 
 13 C       -5.1220     3.9950     0.6790 C.ar  1 <1>  -0.1500 
 14 C       -5.7330     3.5190    -0.4700 C.ar  1 <1>  -0.1440 
 15 C       -7.1910     3.8370    -0.7530 C.3   1 <1>  -0.0970 
 16 H        0.1730     1.5810    -0.4350 H     1 <1>   0.3700 
 17 H       -1.0420     4.1170     1.3840 H     1 <1>   0.0800 
 18 H       -1.5270     2.6580     2.2420 H     1 <1>   0.0800 
 19 H        2.8080     1.5330     0.9760 H     1 <1>   0.0800 
 20 H        2.1760     1.5430    -1.9970 H     1 <1>   0.0800 
 21 H        3.7710     1.4340    -1.2950 H     1 <1>   0.0800 
 22 H        2.8340     2.8870    -1.0800 H     1 <1>   0.0800 
 23 H        1.4690    -0.5800    -0.7510 H     1 <1>   0.0800 
 24 H        1.6590    -0.6450     0.9930 H     1 <1>   0.0800 
 25 H        3.0600    -0.7030    -0.0400 H     1 <1>   0.0800 
 26 H       -3.1050     1.8670    -1.7970 H     1 <1>   0.1500 
 27 H       -3.3560     4.0940     1.8400 H     1 <1>   0.1500 
 28 H       -5.4610     2.3780    -2.2590 H     1 <1>   0.1500 
 29 H       -5.6820     4.5940     1.3760 H     1 <1>   0.1500 
 30 H       -7.6480     3.0410    -1.3120 H     1 <1>   0.0800 
 31 H       -7.2600     4.7460    -1.3230 H     1 <1>   0.0800 
 32 H       -7.7350     3.9610     0.1660 H     1 <1>   0.0800 
@<TRIPOS>BOND
  1   1   2  2   
  2   2   3  am  
  3   2   4  1   
  4   3   5  1   
  5   3  16  1   
  6   4   6  1   
  7   4  17  1   
  8   4  18  1   
  9   5   7  1   
 10   5   8  1   
 11   5  19  1   
 12   6   9  1   
 13   7  20  1   
 14   7  21  1   
 15   7  22  1   
 16   8  23  1   
 17   8  24  1   
 18   8  25  1   
 19   9  10  ar  
 20   9  11  ar  
 21  10  12  ar  
 22  10  26  1   
 23  11  13  ar  
 24  11  27  1   
 25  12  14  ar  
 26  12  28  1   
 27  13  14  ar  
 28  13  29  1   
 29  14  15  1   
 30  15  30  1   
 31  15  31  1   
 32  15  32  1   
@<TRIPOS>SUBSTRUCTURE
  1 ****   6 GROUP 4 **** **** 0

# MOE 2024.06 (io_trps.svl 2023.06)
