@<TRIPOS>MOLECULE
NONAME
32 33 1 0 0 
SMALL
USER_CHARGES


@<TRIPOS>ATOM
  1 F      -12.3650     1.5620    -0.0290 F     1 <1>  -0.3400 
  2 C      -11.5940     2.6150     0.2140 C.3   1 <1>   1.3000 
  3 F      -12.3830     3.6240     0.5520 F     1 <1>  -0.3400 
  4 F      -10.9710     2.9490    -0.9100 F     1 <1>  -0.3400 
  5 O      -10.6700     2.3580     1.2540 O.3   1 <1>  -0.3620 
  6 C       -9.7810     1.3580     1.0480 C.ar  1 <1>   0.0830 
  7 C       -8.5490     1.6350     0.4980 C.ar  1 <1>  -0.1500 
  8 C      -10.1290     0.0530     1.4220 C.ar  1 <1>  -0.1500 
  9 C       -7.6360     0.5910     0.3010 C.ar  1 <1>   0.0000 
 10 C       -9.2450    -0.9810     1.2240 C.ar  1 <1>  -0.1500 
 11 C       -7.9990    -0.7030     0.6560 C.ar  1 <1>  -0.1520 
 12 C       -6.3220     0.5060    -0.2180 C.2   1 <1>  -0.1810 
 13 N       -6.9600    -1.5420     0.3500 N.pl3 1 <1>   0.0330 
 14 C       -5.9420    -0.7960    -0.1770 C.2   1 <1>  -0.3320 
 15 C       -5.5370     1.7070    -0.6930 C.3   1 <1>   0.0210 
 16 C       -4.6480    -1.4690    -0.6060 C.3   1 <1>  -0.0600 
 17 C       -5.0150     2.4370     0.5430 C.3   1 <1>   0.3430 
 18 N       -4.1910     3.6210     0.1700 N.4   1 <1>  -0.8530 
 19 H       -8.2930     2.6370     0.2170 H     1 <1>   0.1500 
 20 H      -11.0940    -0.1300     1.8630 H     1 <1>   0.1500 
 21 H       -9.5010    -1.9900     1.4990 H     1 <1>   0.1500 
 22 H       -6.9650    -2.5580     0.4910 H     1 <1>   0.2700 
 23 H       -6.1850     2.3410    -1.2720 H     1 <1>   0.0800 
 24 H       -4.7220     1.3820    -1.3130 H     1 <1>   0.0800 
 25 H       -3.9400    -0.7560    -0.9860 H     1 <1>   0.0800 
 26 H       -4.8480    -2.1890    -1.3800 H     1 <1>   0.0800 
 27 H       -4.2010    -1.9790     0.2300 H     1 <1>   0.0800 
 28 H       -4.4250     1.7480     1.1270 H     1 <1>   0.0800 
 29 H       -5.8550     2.7440     1.1470 H     1 <1>   0.0800 
 30 H       -3.3650     3.3410    -0.3720 H     1 <1>   0.4500 
 31 H       -3.8630     4.1110     1.0120 H     1 <1>   0.4500 
 32 H       -4.7350     4.2880    -0.3900 H     1 <1>   0.4500 
@<TRIPOS>BOND
  1   1   2  1   
  2   2   3  1   
  3   2   4  1   
  4   2   5  1   
  5   5   6  1   
  6   6   7  ar  
  7   6   8  ar  
  8   7   9  ar  
  9   7  19  1   
 10   8  10  ar  
 11   8  20  1   
 12   9  11  ar  
 13   9  12  1   
 14  10  11  ar  
 15  10  21  1   
 16  11  13  1   
 17  12  14  2   
 18  12  15  1   
 19  13  14  1   
 20  13  22  1   
 21  14  16  1   
 22  15  17  1   
 23  15  23  1   
 24  15  24  1   
 25  16  25  1   
 26  16  26  1   
 27  16  27  1   
 28  17  18  1   
 29  17  28  1   
 30  17  29  1   
 31  18  30  1   
 32  18  31  1   
 33  18  32  1   
@<TRIPOS>SUBSTRUCTURE
  1 ****   7 GROUP 4 **** **** 0

# MOE 2024.06 (io_trps.svl 2023.06)
