@<TRIPOS>MOLECULE
NONAME
52 54 1 0 0 
SMALL
USER_CHARGES


@<TRIPOS>ATOM
  1 S        0.8780     0.9760    -1.3910 S.o2  1 <1>   1.4470 
  2 O       -0.1280     0.6100    -0.4260 O.2   1 <1>  -0.6500 
  3 O        0.8270     0.4660    -2.7390 O.2   1 <1>  -0.6500 
  4 N        0.5990     2.5930    -1.5980 N.am  1 <1>  -0.9780 
  5 C        2.5520     0.8970    -0.7020 C.ar  1 <1>  -0.0090 
  6 C        3.6690     1.0570    -1.5140 C.ar  1 <1>  -0.1500 
  7 C        2.7680     0.6960     0.6560 C.ar  1 <1>  -0.1500 
  8 C        4.9490     1.0190    -0.9900 C.ar  1 <1>  -0.1500 
  9 C        4.0460     0.6570     1.1840 C.ar  1 <1>  -0.1500 
 10 C        5.1610     0.8220     0.3680 C.ar  1 <1>   0.1170 
 11 N        6.4790     0.8200     0.8430 N.am  1 <1>  -0.5470 
 12 C        7.0230     0.5310     2.0650 C.2   1 <1>   0.5690 
 13 O        6.3950     0.1510     3.0210 O.2   1 <1>  -0.5700 
 14 C        8.5290     0.7550     2.2200 C.3   1 <1>   0.1710 
 15 N        8.9900     2.0960     1.7430 N.3   1 <1>  -0.8100 
 16 C        8.3780     3.1790     2.5610 C.3   1 <1>   0.1100 
 17 C       10.4700     2.1910     1.7990 C.3   1 <1>   0.1100 
 18 C        8.8700     4.5930     2.1630 C.3   1 <1>   0.3430 
 19 C       11.0020     3.5900     1.3980 C.3   1 <1>   0.3430 
 20 N        9.8810     4.5310     1.0600 N.4   1 <1>  -0.9590 
 21 C       10.3390     5.8630     0.5880 C.3   1 <1>   0.4860 
 22 C       11.2190     5.6710    -0.6310 C.ar  1 <1>  -0.1430 
 23 C       10.6590     5.3220    -1.8530 C.ar  1 <1>  -0.1500 
 24 C       12.5940     5.8340    -0.5320 C.ar  1 <1>  -0.1500 
 25 C       11.4680     5.1280    -2.9590 C.ar  1 <1>  -0.1500 
 26 C       13.4000     5.6390    -1.6390 C.ar  1 <1>  -0.1500 
 27 C       12.8380     5.2840    -2.8520 C.ar  1 <1>  -0.1500 
 28 H       -0.1360     2.7900    -0.9230 H     1 <1>   0.4200 
 29 H        0.1600     2.6370    -2.5140 H     1 <1>   0.4200 
 30 H        3.5300     1.2130    -2.5710 H     1 <1>   0.1500 
 31 H        1.9240     0.5670     1.3130 H     1 <1>   0.1500 
 32 H        5.7880     1.1430    -1.6510 H     1 <1>   0.1500 
 33 H        4.1620     0.4990     2.2400 H     1 <1>   0.1500 
 34 H        7.1760     1.1330     0.1690 H     1 <1>   0.3700 
 35 H        9.0310    -0.0160     1.6620 H     1 <1>   0.0800 
 36 H        8.7850     0.6260     3.2580 H     1 <1>   0.0800 
 37 H        8.5970     3.0170     3.6040 H     1 <1>   0.0800 
 38 H        7.3060     3.1520     2.4570 H     1 <1>   0.0800 
 39 H       10.8990     1.4580     1.1360 H     1 <1>   0.0800 
 40 H       10.8140     1.9620     2.7940 H     1 <1>   0.0800 
 41 H        9.2970     5.0710     3.0290 H     1 <1>   0.0800 
 42 H        8.0210     5.1790     1.8510 H     1 <1>   0.0800 
 43 H       11.6570     3.4800     0.5480 H     1 <1>   0.0800 
 44 H       11.5880     3.9910     2.2090 H     1 <1>   0.0800 
 45 H        9.4020     4.0610     0.2790 H     1 <1>   0.4500 
 46 H       10.8940     6.3640     1.3640 H     1 <1>   0.0800 
 47 H        9.4930     6.4750     0.3220 H     1 <1>   0.0800 
 48 H        9.5950     5.2020    -1.9640 H     1 <1>   0.1500 
 49 H       13.0550     6.1180     0.3990 H     1 <1>   0.1500 
 50 H       11.0350     4.8590    -3.9080 H     1 <1>   0.1500 
 51 H       14.4670     5.7670    -1.5630 H     1 <1>   0.1500 
 52 H       13.4670     5.1350    -3.7140 H     1 <1>   0.1500 
@<TRIPOS>BOND
  1   1   2  2   
  2   1   3  2   
  3   1   4  am  
  4   1   5  1   
  5   4  28  1   
  6   4  29  1   
  7   5   6  ar  
  8   5   7  ar  
  9   6   8  ar  
 10   6  30  1   
 11   7   9  ar  
 12   7  31  1   
 13   8  10  ar  
 14   8  32  1   
 15   9  10  ar  
 16   9  33  1   
 17  10  11  1   
 18  11  12  am  
 19  11  34  1   
 20  12  13  2   
 21  12  14  1   
 22  14  15  1   
 23  14  35  1   
 24  14  36  1   
 25  15  16  1   
 26  15  17  1   
 27  16  18  1   
 28  16  37  1   
 29  16  38  1   
 30  17  19  1   
 31  17  39  1   
 32  17  40  1   
 33  18  20  1   
 34  18  41  1   
 35  18  42  1   
 36  19  20  1   
 37  19  43  1   
 38  19  44  1   
 39  20  21  1   
 40  20  45  1   
 41  21  22  1   
 42  21  46  1   
 43  21  47  1   
 44  22  23  ar  
 45  22  24  ar  
 46  23  25  ar  
 47  23  48  1   
 48  24  26  ar  
 49  24  49  1   
 50  25  27  ar  
 51  25  50  1   
 52  26  27  ar  
 53  26  51  1   
 54  27  52  1   
@<TRIPOS>SUBSTRUCTURE
  1 ****  11 GROUP 4 **** **** 0

# MOE 2024.06 (io_trps.svl 2023.06)
