@<TRIPOS>MOLECULE
NONAME
27 27 1 0 0 
SMALL
USER_CHARGES


@<TRIPOS>ATOM
  1 BR       1.9680    -0.6910    -3.6330 Br    1 <1>  -0.1110 
  2 C        2.5580    -1.1410    -1.8570 C.ar  1 <1>   0.1110 
  3 C        3.8600    -0.8590    -1.4990 C.ar  1 <1>  -0.1500 
  4 C        1.6600    -1.7340    -0.9910 C.ar  1 <1>  -0.1500 
  5 C        4.3010    -1.1800    -0.2210 C.ar  1 <1>   0.1170 
  6 C        2.0940    -2.0530     0.2840 C.ar  1 <1>  -0.1500 
  7 N        5.6280    -0.8820     0.1200 N.am  1 <1>  -0.5470 
  8 C        3.3990    -1.7770     0.6610 C.ar  1 <1>  -0.1500 
  9 C        6.4150    -1.1870     1.1940 C.2   1 <1>   0.5690 
 10 O        6.0610    -1.8480     2.1410 O.2   1 <1>  -0.5700 
 11 C        7.8430    -0.6350     1.1590 C.3   1 <1>   0.1710 
 12 N        8.3210    -0.2840    -0.2160 N.3   1 <1>  -0.8100 
 13 C        8.6720    -1.4940    -0.9770 C.3   1 <1>   0.0300 
 14 C        9.4770     0.6170    -0.1480 C.3   1 <1>   0.0300 
 15 H        4.5210    -0.3970    -2.2080 H     1 <1>   0.1500 
 16 H        0.6520    -1.9390    -1.3060 H     1 <1>   0.1500 
 17 H        1.4200    -2.5160     0.9840 H     1 <1>   0.1500 
 18 H        6.1760    -0.3730    -0.5830 H     1 <1>   0.3700 
 19 H        3.7130    -2.0310     1.6560 H     1 <1>   0.1500 
 20 H        8.5060    -1.3520     1.6100 H     1 <1>   0.0800 
 21 H        7.8470     0.2470     1.7720 H     1 <1>   0.0800 
 22 H        7.8230    -2.1530    -1.0500 H     1 <1>   0.0800 
 23 H        9.4800    -2.0210    -0.5000 H     1 <1>   0.0800 
 24 H        8.9740    -1.2230    -1.9750 H     1 <1>   0.0800 
 25 H        9.2060     1.5240     0.3670 H     1 <1>   0.0800 
 26 H        9.7980     0.8770    -1.1420 H     1 <1>   0.0800 
 27 H       10.2940     0.1470     0.3740 H     1 <1>   0.0800 
@<TRIPOS>BOND
  1   1   2  1   
  2   2   3  ar  
  3   2   4  ar  
  4   3   5  ar  
  5   3  15  1   
  6   4   6  ar  
  7   4  16  1   
  8   5   7  1   
  9   5   8  ar  
 10   6   8  ar  
 11   6  17  1   
 12   7   9  am  
 13   7  18  1   
 14   8  19  1   
 15   9  10  2   
 16   9  11  1   
 17  11  12  1   
 18  11  20  1   
 19  11  21  1   
 20  12  13  1   
 21  12  14  1   
 22  13  22  1   
 23  13  23  1   
 24  13  24  1   
 25  14  25  1   
 26  14  26  1   
 27  14  27  1   
@<TRIPOS>SUBSTRUCTURE
  1 ****   7 GROUP 4 **** **** 0

# MOE 2024.06 (io_trps.svl 2023.06)
