@<TRIPOS>MOLECULE
NONAME
42 44 1 0 0 
SMALL
USER_CHARGES


@<TRIPOS>ATOM
  1 O        4.2650     1.1200    -2.4830 O.co2 1 <1>  -0.9000 
  2 C        4.2560     0.1010    -1.7900 C.2   1 <1>   0.9060 
  3 O        5.1760    -0.7260    -1.8390 O.co2 1 <1>  -0.9000 
  4 C        3.0910    -0.1100    -0.8380 C.3   1 <1>  -0.1860 
  5 C        3.2670     0.4560     0.6230 C.3   1 <1>  -0.0190 
  6 C        2.6180    -1.5850    -0.7880 C.3   1 <1>   0.0580 
  7 C        4.6520     0.9450     1.0640 C.2   1 <1>   0.5690 
  8 C        2.7420    -0.5800     1.6510 C.3   1 <1>   0.0580 
  9 C        3.5050    -2.3430     0.1930 C.2   1 <1>  -0.2880 
 10 C        1.2160    -1.5790    -0.1360 C.3   1 <1>  -0.1600 
 11 O        4.6990     1.8820     1.8310 O.2   1 <1>  -0.5700 
 12 N        5.7830     0.3310     0.6370 N.am  1 <1>  -0.7300 
 13 C        3.5560    -1.8470     1.4310 C.2   1 <1>  -0.2880 
 14 C        1.2820    -0.9380     1.2810 C.3   1 <1>  -0.1600 
 15 C        7.1450     0.8810     0.7380 C.3   1 <1>   0.1400 
 16 C        7.5190     1.5380    -0.5900 C.3   1 <1>  -0.0170 
 17 C        8.9350     2.0920    -0.5230 C.ar  1 <1>  -0.1440 
 18 C        9.1760     3.3210     0.0700 C.ar  1 <1>  -0.1500 
 19 C        9.9960     1.3710    -1.0490 C.ar  1 <1>  -0.1500 
 20 C       10.4640     3.8250     0.1400 C.ar  1 <1>  -0.1500 
 21 C       11.2850     1.8720    -0.9800 C.ar  1 <1>  -0.1500 
 22 C       11.5190     3.1000    -0.3850 C.ar  1 <1>  -0.1500 
 23 H        2.2940     0.4500    -1.2900 H     1 <1>   0.0800 
 24 H        2.6340     1.3220     0.6900 H     1 <1>   0.0800 
 25 H        2.6090    -2.0390    -1.7650 H     1 <1>   0.0800 
 26 H        2.8240    -0.2150     2.6610 H     1 <1>   0.0800 
 27 H        4.0250    -3.2030    -0.1910 H     1 <1>   0.1500 
 28 H        0.8680    -2.5930    -0.0550 H     1 <1>   0.0800 
 29 H        0.5230    -1.0390    -0.7560 H     1 <1>   0.0800 
 30 H        5.6640    -0.3390    -0.1530 H     1 <1>   0.3700 
 31 H        4.1210    -2.2260     2.2650 H     1 <1>   0.1500 
 32 H        0.6730    -0.0520     1.3130 H     1 <1>   0.0800 
 33 H        0.8960    -1.6330     2.0050 H     1 <1>   0.0800 
 34 H        7.8320     0.0830     0.9590 H     1 <1>   0.0800 
 35 H        7.1900     1.6050     1.5330 H     1 <1>   0.0800 
 36 H        6.8250     2.3320    -0.8040 H     1 <1>   0.0800 
 37 H        7.4400     0.8150    -1.3840 H     1 <1>   0.0800 
 38 H        8.3550     3.8870     0.4780 H     1 <1>   0.1500 
 39 H        9.8150     0.4170    -1.5140 H     1 <1>   0.1500 
 40 H       10.6410     4.7790     0.6020 H     1 <1>   0.1500 
 41 H       12.1020     1.3070    -1.3910 H     1 <1>   0.1500 
 42 H       12.5200     3.4900    -0.3320 H     1 <1>   0.1500 
@<TRIPOS>BOND
  1   1   2  ar  
  2   2   3  ar  
  3   2   4  1   
  4   4   5  1   
  5   4   6  1   
  6   4  23  1   
  7   5   7  1   
  8   5   8  1   
  9   5  24  1   
 10   6   9  1   
 11   6  10  1   
 12   6  25  1   
 13   7  11  2   
 14   7  12  am  
 15   8  13  1   
 16   8  14  1   
 17   8  26  1   
 18   9  13  2   
 19   9  27  1   
 20  10  14  1   
 21  10  28  1   
 22  10  29  1   
 23  12  15  1   
 24  12  30  1   
 25  13  31  1   
 26  14  32  1   
 27  14  33  1   
 28  15  16  1   
 29  15  34  1   
 30  15  35  1   
 31  16  17  1   
 32  16  36  1   
 33  16  37  1   
 34  17  18  ar  
 35  17  19  ar  
 36  18  20  ar  
 37  18  38  1   
 38  19  21  ar  
 39  19  39  1   
 40  20  22  ar  
 41  20  40  1   
 42  21  22  ar  
 43  21  41  1   
 44  22  42  1   
@<TRIPOS>SUBSTRUCTURE
  1 ****  12 GROUP 4 **** **** 0

# MOE 2024.06 (io_trps.svl 2023.06)
