@<TRIPOS>MOLECULE
NONAME
37 38 1 0 0 
SMALL
USER_CHARGES


@<TRIPOS>ATOM
  1 BR       0.7200    -0.2110    -1.2000 Br    1 <1>  -0.1110 
  2 C        0.2030     1.5880    -0.7240 C.ar  1 <1>   0.1110 
  3 C       -1.0170     1.8220    -0.1110 C.ar  1 <1>  -0.1440 
  4 C        1.0850     2.6080    -1.0180 C.ar  1 <1>  -0.1500 
  5 C       -1.3390     3.1310     0.2110 C.ar  1 <1>  -0.1500 
  6 C       -1.9860     0.6900     0.1980 C.3   1 <1>  -0.0960 
  7 C        0.7410     3.9050    -0.6830 C.ar  1 <1>  -0.1500 
  8 C       -0.4720     4.1950    -0.0560 C.ar  1 <1>   0.1990 
  9 N       -0.8130     5.5100     0.3060 N.am  1 <1>  -0.6930 
 10 S       -0.4000     6.9090    -0.6330 S.o2  1 <1>   1.3330 
 11 C       -1.5970     5.7620     1.5640 C.3   1 <1>   0.2570 
 12 O       -1.4020     7.9080    -0.3420 O.2   1 <1>  -0.6500 
 13 O       -0.1460     6.4990    -1.9900 O.2   1 <1>  -0.6500 
 14 C        1.1310     7.4320     0.1110 C.3   1 <1>  -0.1350 
 15 C       -3.1210     5.7460     1.3930 C.2   1 <1>   0.5690 
 16 O       -3.7600     4.9560     2.0490 O.2   1 <1>  -0.5700 
 17 N       -3.7110     6.6160     0.5310 N.am  1 <1>  -0.5790 
 18 C       -5.1430     6.7060     0.2260 C.3   1 <1>   0.0490 
 19 C       -5.5350     6.9820    -1.1870 C.3   1 <1>  -0.2000 
 20 C       -5.6960     8.0430    -0.1390 C.3   1 <1>  -0.2000 
 21 H        2.0200     2.3880    -1.5010 H     1 <1>   0.1500 
 22 H       -2.2890     3.3210     0.6710 H     1 <1>   0.1500 
 23 H       -1.5210    -0.0240     0.8540 H     1 <1>   0.0800 
 24 H       -2.2730     0.1930    -0.7110 H     1 <1>   0.0800 
 25 H       -2.8750     1.0620     0.6760 H     1 <1>   0.0800 
 26 H        1.4300     4.6890    -0.9240 H     1 <1>   0.1500 
 27 H       -1.3170     6.7130     1.9790 H     1 <1>   0.0800 
 28 H       -1.3370     5.0120     2.2900 H     1 <1>   0.0800 
 29 H        0.9850     7.6550     1.1490 H     1 <1>   0.0800 
 30 H        1.4900     8.3160    -0.3800 H     1 <1>   0.0800 
 31 H        1.8770     6.6680     0.0230 H     1 <1>   0.0800 
 32 H       -3.1090     7.2650     0.0020 H     1 <1>   0.3700 
 33 H       -5.7500     6.0320     0.8100 H     1 <1>   0.1000 
 34 H       -6.4210     6.5120    -1.5770 H     1 <1>   0.1000 
 35 H       -4.7610     7.0880    -1.9270 H     1 <1>   0.1000 
 36 H       -5.0350     8.8920    -0.1510 H     1 <1>   0.1000 
 37 H       -6.6910     8.2950     0.1820 H     1 <1>   0.1000 
@<TRIPOS>BOND
  1   1   2  1   
  2   2   3  ar  
  3   2   4  ar  
  4   3   5  ar  
  5   3   6  1   
  6   4   7  ar  
  7   4  21  1   
  8   5   8  ar  
  9   5  22  1   
 10   6  23  1   
 11   6  24  1   
 12   6  25  1   
 13   7   8  ar  
 14   7  26  1   
 15   8   9  1   
 16   9  10  am  
 17   9  11  1   
 18  10  12  2   
 19  10  13  2   
 20  10  14  1   
 21  11  15  1   
 22  11  27  1   
 23  11  28  1   
 24  14  29  1   
 25  14  30  1   
 26  14  31  1   
 27  15  16  2   
 28  15  17  am  
 29  17  18  1   
 30  17  32  1   
 31  18  19  1   
 32  18  20  1   
 33  18  33  1   
 34  19  20  1   
 35  19  34  1   
 36  19  35  1   
 37  20  36  1   
 38  20  37  1   
@<TRIPOS>SUBSTRUCTURE
  1 ****   9 GROUP 4 **** **** 0

# MOE 2024.06 (io_trps.svl 2023.06)
