@<TRIPOS>MOLECULE
NONAME
43 44 1 0 0 
SMALL
USER_CHARGES


@<TRIPOS>ATOM
  1 CL       0.7600    -0.9630    -1.5700 Cl    1 <1>  -0.1770 
  2 C       -0.5500    -1.7680    -0.7300 C.ar  1 <1>   0.1770 
  3 C       -0.2550    -2.6880     0.2720 C.ar  1 <1>   0.1170 
  4 C       -1.8440    -1.4660    -1.0840 C.ar  1 <1>  -0.1500 
  5 N        1.0740    -2.9790     0.6100 N.am  1 <1>  -0.5470 
  6 C       -1.3280    -3.2750     0.9280 C.ar  1 <1>  -0.1500 
  7 C       -2.9370    -2.0630    -0.4480 C.ar  1 <1>   0.0860 
  8 C        1.7150    -4.1470     0.8850 C.2   1 <1>   0.5690 
  9 C       -2.6470    -2.9860     0.5810 C.ar  1 <1>   0.0830 
 10 C       -4.2770    -1.6960    -0.8820 C.2   1 <1>   0.5440 
 11 O        2.8770    -4.1310     1.1890 O.2   1 <1>  -0.5700 
 12 C        1.0080    -5.4790     0.7900 C.3   1 <1>  -0.1790 
 13 O       -3.6790    -3.5900     1.2290 O.3   1 <1>  -0.3620 
 14 O       -4.4420    -1.1280    -1.9470 O.2   1 <1>  -0.5700 
 15 N       -5.3830    -1.9520    -0.1240 N.am  1 <1>  -0.7300 
 16 C       -3.5060    -4.5790     2.2240 C.3   1 <1>   0.0400 
 17 C       -6.7800    -1.6510    -0.4710 C.3   1 <1>   0.2200 
 18 C       -7.4130    -0.8610     0.6790 C.3   1 <1>  -0.1600 
 19 C       -7.5210    -2.9690    -0.7160 C.3   1 <1>  -0.1600 
 20 C       -8.9080    -0.6150     0.4280 C.3   1 <1>  -0.1600 
 21 C       -9.0160    -2.7270    -0.9690 C.3   1 <1>  -0.1600 
 22 C       -9.6530    -1.9340     0.1800 C.3   1 <1>  -0.1600 
 23 H       -2.0110    -0.7510    -1.8700 H     1 <1>   0.1500 
 24 H        1.7350    -2.2020     0.5280 H     1 <1>   0.3700 
 25 H       -1.1070    -3.9540     1.7260 H     1 <1>   0.1500 
 26 H        0.5170    -5.6960     1.7190 H     1 <1>   0.0800 
 27 H        1.7310    -6.2500     0.5960 H     1 <1>   0.0800 
 28 H        0.2940    -5.4720    -0.0110 H     1 <1>   0.0800 
 29 H       -5.2470    -2.5250     0.7130 H     1 <1>   0.3700 
 30 H       -4.4790    -4.9110     2.5390 H     1 <1>   0.0800 
 31 H       -2.9810    -4.1500     3.0590 H     1 <1>   0.0800 
 32 H       -2.9590    -5.4060     1.8060 H     1 <1>   0.0800 
 33 H       -6.8140    -1.0540    -1.3680 H     1 <1>   0.0800 
 34 H       -6.9080     0.0840     0.7780 H     1 <1>   0.0800 
 35 H       -7.2980    -1.4090     1.5980 H     1 <1>   0.0800 
 36 H       -7.4090    -3.6090     0.1420 H     1 <1>   0.0800 
 37 H       -7.0900    -3.4610    -1.5690 H     1 <1>   0.0800 
 38 H       -9.0230     0.0250    -0.4310 H     1 <1>   0.0800 
 39 H       -9.3380    -0.1100     1.2750 H     1 <1>   0.0800 
 40 H       -9.5210    -3.6720    -1.0810 H     1 <1>   0.0800 
 41 H       -9.1360    -2.1790    -1.8890 H     1 <1>   0.0800 
 42 H      -10.6840    -1.7270    -0.0530 H     1 <1>   0.0800 
 43 H       -9.6320    -2.5290     1.0780 H     1 <1>   0.0800 
@<TRIPOS>BOND
  1   1   2  1   
  2   2   3  ar  
  3   2   4  ar  
  4   3   5  1   
  5   3   6  ar  
  6   4   7  ar  
  7   4  23  1   
  8   5   8  am  
  9   5  24  1   
 10   6   9  ar  
 11   6  25  1   
 12   7   9  ar  
 13   7  10  1   
 14   8  11  2   
 15   8  12  1   
 16   9  13  1   
 17  10  14  2   
 18  10  15  am  
 19  12  26  1   
 20  12  27  1   
 21  12  28  1   
 22  13  16  1   
 23  15  17  1   
 24  15  29  1   
 25  16  30  1   
 26  16  31  1   
 27  16  32  1   
 28  17  18  1   
 29  17  19  1   
 30  17  33  1   
 31  18  20  1   
 32  18  34  1   
 33  18  35  1   
 34  19  21  1   
 35  19  36  1   
 36  19  37  1   
 37  20  22  1   
 38  20  38  1   
 39  20  39  1   
 40  21  22  1   
 41  21  40  1   
 42  21  41  1   
 43  22  42  1   
 44  22  43  1   
@<TRIPOS>SUBSTRUCTURE
  1 ****   7 GROUP 4 **** **** 0

# MOE 2024.06 (io_trps.svl 2023.06)
