@<TRIPOS>MOLECULE
NONAME
33 34 1 0 0 
SMALL
USER_CHARGES


@<TRIPOS>ATOM
  1 CL      -2.9350     2.2700    -2.7270 Cl    1 <1>  -0.1770 
  2 C       -1.7000     2.7370    -1.5770 C.ar  1 <1>   0.1770 
  3 C       -1.9360     2.6170    -0.2080 C.ar  1 <1>   0.0830 
  4 C       -0.5060     3.2320    -2.0660 C.ar  1 <1>  -0.1500 
  5 O       -3.1340     2.1210     0.1960 O.3   1 <1>  -0.3630 
  6 C       -0.9410     3.0060     0.6910 C.ar  1 <1>  -0.1500 
  7 C        0.4550     3.6090    -1.1490 C.ar  1 <1>   0.1900 
  8 C       -3.6560     2.4310     1.4820 C.3   1 <1>   0.1810 
  9 C        0.2620     3.5070     0.2170 C.ar  1 <1>  -0.1500 
 10 F        1.5910     4.0820    -1.5890 F     1 <1>  -0.1900 
 11 C       -5.1030     1.9650     1.6450 C.2   1 <1>   0.5690 
 12 O       -5.3490     1.3090     2.6320 O.2   1 <1>  -0.5700 
 13 N       -6.0880     2.3030     0.7450 N.am  1 <1>  -0.6600 
 14 C       -5.8350     3.1320    -0.4750 C.3   1 <1>   0.1400 
 15 C       -7.4750     1.7720     0.9230 C.3   1 <1>   0.1400 
 16 C       -7.1140     3.8450    -0.9240 C.3   1 <1>  -0.1600 
 17 C       -8.1510     1.5580    -0.4350 C.3   1 <1>  -0.1600 
 18 C       -8.2460     2.8570    -1.2540 C.3   1 <1>  -0.1600 
 19 H       -0.3310     3.3210    -3.1210 H     1 <1>   0.1500 
 20 H       -1.0810     2.9170     1.7520 H     1 <1>   0.1500 
 21 H       -3.6070     3.4940     1.6250 H     1 <1>   0.0800 
 22 H       -3.0480     1.9370     2.2170 H     1 <1>   0.0800 
 23 H        1.0420     3.8110     0.8920 H     1 <1>   0.1500 
 24 H       -5.4820     2.4900    -1.2640 H     1 <1>   0.0800 
 25 H       -5.0760     3.8670    -0.2720 H     1 <1>   0.0800 
 26 H       -8.0440     2.4730     1.5090 H     1 <1>   0.0800 
 27 H       -7.4440     0.8370     1.4560 H     1 <1>   0.0800 
 28 H       -6.9040     4.4530    -1.7870 H     1 <1>   0.0800 
 29 H       -7.4280     4.5030    -0.1330 H     1 <1>   0.0800 
 30 H       -9.1360     1.1500    -0.2880 H     1 <1>   0.0800 
 31 H       -7.5790     0.8270    -0.9800 H     1 <1>   0.0800 
 32 H       -8.2140     2.6050    -2.3000 H     1 <1>   0.0800 
 33 H       -9.1900     3.3380    -1.0640 H     1 <1>   0.0800 
@<TRIPOS>BOND
  1   1   2  1   
  2   2   3  ar  
  3   2   4  ar  
  4   3   5  1   
  5   3   6  ar  
  6   4   7  ar  
  7   4  19  1   
  8   5   8  1   
  9   6   9  ar  
 10   6  20  1   
 11   7   9  ar  
 12   7  10  1   
 13   8  11  1   
 14   8  21  1   
 15   8  22  1   
 16   9  23  1   
 17  11  12  2   
 18  11  13  am  
 19  13  14  1   
 20  13  15  1   
 21  14  16  1   
 22  14  24  1   
 23  14  25  1   
 24  15  17  1   
 25  15  26  1   
 26  15  27  1   
 27  16  18  1   
 28  16  28  1   
 29  16  29  1   
 30  17  18  1   
 31  17  30  1   
 32  17  31  1   
 33  18  32  1   
 34  18  33  1   
@<TRIPOS>SUBSTRUCTURE
  1 ****   5 GROUP 4 **** **** 0

# MOE 2024.06 (io_trps.svl 2023.06)
