@<TRIPOS>MOLECULE
NONAME
61 65 1 0 0 
SMALL
USER_CHARGES


@<TRIPOS>ATOM
  1 O      -11.7960    -0.4100    -0.2910 O.3   1 <1>  -0.2800 
  2 C      -10.5240    -0.0090    -0.1860 C.ar  1 <1>   0.1400 
  3 C      -12.5440     0.6810    -0.1910 C.2   1 <1>  -0.0400 
  4 C      -10.4560     1.3640    -0.0210 C.ar  1 <1>   0.0000 
  5 C       -9.3830    -0.7980    -0.2280 C.ar  1 <1>  -0.1500 
  6 C      -11.8010     1.7860    -0.0350 C.2   1 <1>  -0.1810 
  7 C      -14.0540     0.6250    -0.2570 C.3   1 <1>   0.0200 
  8 C       -9.2120     1.9780     0.1090 C.ar  1 <1>  -0.1500 
  9 C       -8.1520    -0.1860    -0.0980 C.ar  1 <1>  -0.1500 
 10 C      -12.3740     3.1820     0.0960 C.3   1 <1>   0.0210 
 11 C      -14.6400     1.9760     0.2040 C.3   1 <1>  -0.1600 
 12 C       -8.0650     1.2080     0.0730 C.ar  1 <1>   0.0820 
 13 C      -13.8510     3.1830    -0.3510 C.3   1 <1>  -0.1600 
 14 O       -6.8850     1.8690     0.2090 O.3   1 <1>  -0.3630 
 15 C       -5.6610     1.1690     0.2920 C.3   1 <1>   0.1200 
 16 C       -4.5350     2.1910     0.4920 C.3   1 <1>   0.2000 
 17 O       -4.6420     3.1840    -0.4850 O.3   1 <1>  -0.6800 
 18 C       -3.1300     1.5550     0.4080 C.3   1 <1>   0.3430 
 19 N       -2.1140     2.5840     0.0290 N.4   1 <1>  -0.9590 
 20 C       -0.9090     2.0000    -0.6640 C.3   1 <1>   0.3430 
 21 C       -1.7190     3.4740     1.1830 C.3   1 <1>   0.3430 
 22 C        0.1180     3.0770    -1.0760 C.3   1 <1>   0.2090 
 23 C       -0.6970     4.5540     0.7720 C.3   1 <1>   0.2090 
 24 N        0.4760     3.9380     0.0880 N.pl3 1 <1>  -0.8380 
 25 C        1.5850     4.7580    -0.0820 C.ar  1 <1>   0.1000 
 26 C        2.7580     4.4770     0.6050 C.ar  1 <1>  -0.1500 
 27 C        1.5520     5.8610    -0.9290 C.ar  1 <1>  -0.1500 
 28 C        3.8760     5.2770     0.4520 C.ar  1 <1>  -0.1500 
 29 C        2.6680     6.6640    -1.0840 C.ar  1 <1>  -0.1500 
 30 C        3.8320     6.3730    -0.3930 C.ar  1 <1>  -0.1500 
 31 H       -9.4830    -1.8600    -0.3590 H     1 <1>   0.1500 
 32 H      -14.4170    -0.1680     0.3720 H     1 <1>   0.0800 
 33 H      -14.3450     0.4190    -1.2720 H     1 <1>   0.0800 
 34 H       -9.1570     3.0420     0.2390 H     1 <1>   0.1500 
 35 H       -7.2760    -0.8030    -0.1330 H     1 <1>   0.1500 
 36 H      -11.8100     3.8690    -0.5080 H     1 <1>   0.0800 
 37 H      -12.3010     3.4900     1.1240 H     1 <1>   0.0800 
 38 H      -14.6100     2.0130     1.2800 H     1 <1>   0.0800 
 39 H      -15.6700     2.0390    -0.0980 H     1 <1>   0.0800 
 40 H      -13.8860     3.1510    -1.4270 H     1 <1>   0.0800 
 41 H      -14.3180     4.1000    -0.0360 H     1 <1>   0.0800 
 42 H       -5.5210     0.6210    -0.6240 H     1 <1>   0.0800 
 43 H       -5.7140     0.4890     1.1250 H     1 <1>   0.0800 
 44 H       -4.6610     2.6620     1.4520 H     1 <1>   0.0800 
 45 H       -5.5980     3.4060    -0.5950 H     1 <1>   0.4000 
 46 H       -3.1580     0.7900    -0.3510 H     1 <1>   0.0800 
 47 H       -2.8720     1.0850     1.3420 H     1 <1>   0.0800 
 48 H       -2.6250     3.1890    -0.6430 H     1 <1>   0.4500 
 49 H       -1.2170     1.4580    -1.5430 H     1 <1>   0.0800 
 50 H       -0.4150     1.3080    -0.0030 H     1 <1>   0.0800 
 51 H       -1.2760     2.8770     1.9620 H     1 <1>   0.0800 
 52 H       -2.5930     3.9570     1.5880 H     1 <1>   0.0800 
 53 H       -0.2860     3.6850    -1.8660 H     1 <1>   0.0800 
 54 H        1.0090     2.6000    -1.4480 H     1 <1>   0.0800 
 55 H       -0.3580     5.0790     1.6500 H     1 <1>   0.0800 
 56 H       -1.1660     5.2700     0.1190 H     1 <1>   0.0800 
 57 H        2.7880     3.6270     1.2600 H     1 <1>   0.1500 
 58 H        0.6540     6.0930    -1.4680 H     1 <1>   0.1500 
 59 H        4.7800     5.0490     0.9900 H     1 <1>   0.1500 
 60 H        2.6340     7.5160    -1.7410 H     1 <1>   0.1500 
 61 H        4.7010     6.9960    -0.5130 H     1 <1>   0.1500 
@<TRIPOS>BOND
  1   1   2  1   
  2   1   3  1   
  3   2   4  ar  
  4   2   5  ar  
  5   3   6  2   
  6   3   7  1   
  7   4   6  1   
  8   4   8  ar  
  9   5   9  ar  
 10   5  31  1   
 11   6  10  1   
 12   7  11  1   
 13   7  32  1   
 14   7  33  1   
 15   8  12  ar  
 16   8  34  1   
 17   9  12  ar  
 18   9  35  1   
 19  10  13  1   
 20  10  36  1   
 21  10  37  1   
 22  11  13  1   
 23  11  38  1   
 24  11  39  1   
 25  12  14  1   
 26  13  40  1   
 27  13  41  1   
 28  14  15  1   
 29  15  16  1   
 30  15  42  1   
 31  15  43  1   
 32  16  17  1   
 33  16  18  1   
 34  16  44  1   
 35  17  45  1   
 36  18  19  1   
 37  18  46  1   
 38  18  47  1   
 39  19  20  1   
 40  19  21  1   
 41  19  48  1   
 42  20  22  1   
 43  20  49  1   
 44  20  50  1   
 45  21  23  1   
 46  21  51  1   
 47  21  52  1   
 48  22  24  1   
 49  22  53  1   
 50  22  54  1   
 51  23  24  1   
 52  23  55  1   
 53  23  56  1   
 54  24  25  1   
 55  25  26  ar  
 56  25  27  ar  
 57  26  28  ar  
 58  26  57  1   
 59  27  29  ar  
 60  27  58  1   
 61  28  30  ar  
 62  28  59  1   
 63  29  30  ar  
 64  29  60  1   
 65  30  61  1   
@<TRIPOS>SUBSTRUCTURE
  1 ****  17 GROUP 4 **** **** 0

# MOE 2024.06 (io_trps.svl 2023.06)
