@<TRIPOS>MOLECULE
NONAME
47 49 1 0 0 
SMALL
USER_CHARGES


@<TRIPOS>ATOM
  1 O       -0.7430     1.1740     2.4170 O.2   1 <1>  -0.5700 
  2 C       -1.6740     0.9820     1.6660 C.2   1 <1>   0.5690 
  3 N       -2.3710     2.0080     1.0810 N.am  1 <1>  -0.4770 
  4 C       -2.0630    -0.4530     1.3170 C.3   1 <1>   0.1810 
  5 C       -3.3670     1.7200     0.1210 C.ar  1 <1>   0.1170 
  6 C       -2.0890     3.4190     1.5040 C.3   1 <1>   0.2010 
  7 O       -3.4080    -0.5660     0.8600 O.3   1 <1>  -0.3630 
  8 C       -3.8850     0.4210     0.0550 C.ar  1 <1>   0.0830 
  9 C       -3.8570     2.6690    -0.7730 C.ar  1 <1>  -0.1500 
 10 C       -0.9120     4.0150     0.7420 C.2   1 <1>   0.5690 
 11 C       -4.8930     0.1040    -0.8360 C.ar  1 <1>  -0.1500 
 12 C       -4.8590     2.3510    -1.6770 C.ar  1 <1>  -0.1440 
 13 O       -1.1030     4.9550     0.0060 O.2   1 <1>  -0.5700 
 14 N        0.3110     3.4530     0.9110 N.am  1 <1>  -0.7300 
 15 C       -5.3810     1.0680    -1.7000 C.ar  1 <1>  -0.1500 
 16 C       -5.3830     3.4040    -2.6370 C.3   1 <1>  -0.0970 
 17 C        1.5190     3.7640     0.1290 C.3   1 <1>   0.2200 
 18 C        1.9300     2.5360    -0.7110 C.3   1 <1>  -0.0800 
 19 C        2.6280     4.1790     1.1010 C.3   1 <1>  -0.1600 
 20 C        3.2530     2.8100    -1.4470 C.3   1 <1>  -0.1600 
 21 C        0.8450     2.1370    -1.7260 C.3   1 <1>  -0.2400 
 22 C        3.9460     4.4450     0.3610 C.3   1 <1>  -0.1600 
 23 C        4.3650     3.2290    -0.4750 C.3   1 <1>  -0.1600 
 24 H       -1.9570    -1.0800     2.1820 H     1 <1>   0.0800 
 25 H       -1.4200    -0.8140     0.5360 H     1 <1>   0.0800 
 26 H       -1.8580     3.4380     2.5530 H     1 <1>   0.0800 
 27 H       -2.9590     4.0300     1.3560 H     1 <1>   0.0800 
 28 H       -3.4560     3.6660    -0.7780 H     1 <1>   0.1500 
 29 H       -5.2880    -0.8960    -0.8560 H     1 <1>   0.1500 
 30 H        0.3790     2.6250     1.5170 H     1 <1>   0.3700 
 31 H       -6.1660     0.8140    -2.3920 H     1 <1>   0.1500 
 32 H       -4.6250     4.1400    -2.8410 H     1 <1>   0.0800 
 33 H       -6.2370     3.8960    -2.2070 H     1 <1>   0.0800 
 34 H       -5.6730     2.9520    -3.5680 H     1 <1>   0.0800 
 35 H        1.3120     4.5880    -0.5350 H     1 <1>   0.0800 
 36 H        2.0920     1.7080    -0.0410 H     1 <1>   0.0800 
 37 H        2.7820     3.3980     1.8240 H     1 <1>   0.0800 
 38 H        2.3260     5.0710     1.6210 H     1 <1>   0.0800 
 39 H        3.1050     3.5940    -2.1710 H     1 <1>   0.0800 
 40 H        3.5630     1.9270    -1.9780 H     1 <1>   0.0800 
 41 H        0.6250     2.9600    -2.3830 H     1 <1>   0.0800 
 42 H       -0.0630     1.8550    -1.2230 H     1 <1>   0.0800 
 43 H        1.1730     1.3010    -2.3180 H     1 <1>   0.0800 
 44 H        4.7190     4.6790     1.0730 H     1 <1>   0.0800 
 45 H        3.8250     5.2980    -0.2860 H     1 <1>   0.0800 
 46 H        5.2580     3.4630    -1.0280 H     1 <1>   0.0800 
 47 H        4.5920     2.4060     0.1820 H     1 <1>   0.0800 
@<TRIPOS>BOND
  1   1   2  2   
  2   2   3  am  
  3   2   4  1   
  4   3   5  1   
  5   3   6  1   
  6   4   7  1   
  7   4  24  1   
  8   4  25  1   
  9   5   8  ar  
 10   5   9  ar  
 11   6  10  1   
 12   6  26  1   
 13   6  27  1   
 14   7   8  1   
 15   8  11  ar  
 16   9  12  ar  
 17   9  28  1   
 18  10  13  2   
 19  10  14  am  
 20  11  15  ar  
 21  11  29  1   
 22  12  15  ar  
 23  12  16  1   
 24  14  17  1   
 25  14  30  1   
 26  15  31  1   
 27  16  32  1   
 28  16  33  1   
 29  16  34  1   
 30  17  18  1   
 31  17  19  1   
 32  17  35  1   
 33  18  20  1   
 34  18  21  1   
 35  18  36  1   
 36  19  22  1   
 37  19  37  1   
 38  19  38  1   
 39  20  23  1   
 40  20  39  1   
 41  20  40  1   
 42  21  41  1   
 43  21  42  1   
 44  21  43  1   
 45  22  23  1   
 46  22  44  1   
 47  22  45  1   
 48  23  46  1   
 49  23  47  1   
@<TRIPOS>SUBSTRUCTURE
  1 ****   3 GROUP 4 **** **** 0

# MOE 2024.06 (io_trps.svl 2023.06)
