@<TRIPOS>MOLECULE
NONAME
45 47 1 0 0 
SMALL
USER_CHARGES


@<TRIPOS>ATOM
  1 CL      -2.5210     0.3810     4.0050 Cl    1 <1>  -0.1770 
  2 C       -3.0890     0.9220     2.4470 C.ar  1 <1>   0.1770 
  3 C       -4.3540     0.5710     2.0290 C.ar  1 <1>  -0.1500 
  4 C       -2.2540     1.6980     1.6600 C.ar  1 <1>  -0.1500 
  5 C       -4.8240     0.9970     0.7840 C.ar  1 <1>   0.0860 
  6 C       -2.7010     2.1280     0.4260 C.ar  1 <1>  -0.1500 
  7 C       -6.1360     0.6790     0.2830 C.2   1 <1>   0.4690 
  8 C       -3.9750     1.7810    -0.0100 C.ar  1 <1>   0.0830 
  9 O       -6.9630     0.0760     0.9460 O.2   1 <1>  -0.5700 
 10 C       -6.4630     1.1430    -1.0280 C.2   1 <1>  -0.1240 
 11 O       -4.3820     2.2150    -1.2230 O.3   1 <1>  -0.1590 
 12 C       -5.5770     1.8900    -1.7230 C.2   1 <1>  -0.0730 
 13 C       -7.8170     0.7470    -1.5910 C.3   1 <1>   0.4810 
 14 N       -8.9050     1.1710    -0.6680 N.4   1 <1>  -0.9590 
 15 C      -10.2040     0.5140    -1.0130 C.3   1 <1>   0.3430 
 16 C       -9.0210     2.6520    -0.5430 C.3   1 <1>   0.3430 
 17 C      -11.2810     0.8310     0.0310 C.3   1 <1>  -0.0190 
 18 C      -10.0550     2.9940     0.5320 C.3   1 <1>  -0.1600 
 19 C      -12.5880     0.2050    -0.4200 C.2   1 <1>   0.6590 
 20 C      -11.4200     2.3530     0.2390 C.3   1 <1>  -0.1600 
 21 O      -12.7230    -0.2170    -1.5390 O.2   1 <1>  -0.5700 
 22 O      -13.5500     0.1560     0.4870 O.3   1 <1>  -0.4300 
 23 C      -14.8130    -0.3960     0.1930 C.3   1 <1>   0.1200 
 24 C      -15.6790    -0.2840     1.4440 C.3   1 <1>  -0.2400 
 25 H       -4.9760    -0.0330     2.6660 H     1 <1>   0.1500 
 26 H       -1.2710     1.9550     2.0170 H     1 <1>   0.1500 
 27 H       -2.0680     2.7310    -0.2030 H     1 <1>   0.1500 
 28 H       -5.7400     2.2770    -2.7160 H     1 <1>   0.1500 
 29 H       -7.8400    -0.3250    -1.7020 H     1 <1>   0.0800 
 30 H       -7.9610     1.1910    -2.5630 H     1 <1>   0.0800 
 31 H       -8.6000     0.8010     0.2570 H     1 <1>   0.4500 
 32 H      -10.0760    -0.5550    -1.0700 H     1 <1>   0.0800 
 33 H      -10.5410     0.8590    -1.9770 H     1 <1>   0.0800 
 34 H       -9.3280     3.0770    -1.4850 H     1 <1>   0.0800 
 35 H       -8.0690     3.0790    -0.2700 H     1 <1>   0.0800 
 36 H      -11.0050     0.3660     0.9600 H     1 <1>   0.0800 
 37 H      -10.1690     4.0630     0.5820 H     1 <1>   0.0800 
 38 H       -9.6930     2.6660     1.4920 H     1 <1>   0.0800 
 39 H      -12.0960     2.5480     1.0560 H     1 <1>   0.0800 
 40 H      -11.8420     2.8000    -0.6470 H     1 <1>   0.0800 
 41 H      -14.6800    -1.4260    -0.0930 H     1 <1>   0.0800 
 42 H      -15.2460     0.1530    -0.6260 H     1 <1>   0.0800 
 43 H      -15.2330    -0.8290     2.2560 H     1 <1>   0.0800 
 44 H      -16.6520    -0.6990     1.2490 H     1 <1>   0.0800 
 45 H      -15.7980     0.7470     1.7230 H     1 <1>   0.0800 
@<TRIPOS>BOND
  1   1   2  1   
  2   2   3  ar  
  3   2   4  ar  
  4   3   5  ar  
  5   3  25  1   
  6   4   6  ar  
  7   4  26  1   
  8   5   7  1   
  9   5   8  ar  
 10   6   8  ar  
 11   6  27  1   
 12   7   9  2   
 13   7  10  1   
 14   8  11  1   
 15  10  12  2   
 16  10  13  1   
 17  11  12  1   
 18  12  28  1   
 19  13  14  1   
 20  13  29  1   
 21  13  30  1   
 22  14  15  1   
 23  14  16  1   
 24  14  31  1   
 25  15  17  1   
 26  15  32  1   
 27  15  33  1   
 28  16  18  1   
 29  16  34  1   
 30  16  35  1   
 31  17  19  1   
 32  17  20  1   
 33  17  36  1   
 34  18  20  1   
 35  18  37  1   
 36  18  38  1   
 37  19  21  2   
 38  19  22  1   
 39  20  39  1   
 40  20  40  1   
 41  22  23  1   
 42  23  24  1   
 43  23  41  1   
 44  23  42  1   
 45  24  43  1   
 46  24  44  1   
 47  24  45  1   
@<TRIPOS>SUBSTRUCTURE
  1 ****  14 GROUP 4 **** **** 0

# MOE 2024.06 (io_trps.svl 2023.06)
