@<TRIPOS>MOLECULE
NONAME
31 31 1 0 0 
SMALL
USER_CHARGES


@<TRIPOS>ATOM
  1 CL       2.3720     0.1780     1.0260 Cl    1 <1>  -0.1770 
  2 C        1.4360     1.6470     0.8630 C.ar  1 <1>   0.1770 
  3 C        2.0210     2.7920     0.3260 C.ar  1 <1>   0.0860 
  4 C        0.1220     1.6260     1.2930 C.ar  1 <1>  -0.1500 
  5 C        3.3900     2.8020    -0.1320 C.2   1 <1>   0.5440 
  6 C        1.2300     3.9390     0.2540 C.ar  1 <1>  -0.1500 
  7 C       -0.6440     2.7740     1.2000 C.ar  1 <1>  -0.1500 
  8 O        4.2040     3.5490     0.3710 O.2   1 <1>  -0.5700 
  9 N        3.8030     1.9510    -1.1240 N.am  1 <1>  -0.7300 
 10 C       -0.0860     3.9310     0.6820 C.ar  1 <1>  -0.1500 
 11 C        5.1310     1.8670    -1.8200 C.3   1 <1>   0.1400 
 12 C        6.3800     2.2040    -0.9660 C.3   1 <1>   0.3430 
 13 N        6.2840     1.7300     0.4520 N.4   1 <1>  -0.9590 
 14 C        7.4280     2.2130     1.2750 C.3   1 <1>   0.2630 
 15 C        6.0580     0.2610     0.5980 C.3   1 <1>   0.2630 
 16 H       -0.2970     0.7220     1.7000 H     1 <1>   0.1500 
 17 H        1.6560     4.8470    -0.1400 H     1 <1>   0.1500 
 18 H       -1.6700     2.7710     1.5320 H     1 <1>   0.1500 
 19 H        3.0690     1.3850    -1.5640 H     1 <1>   0.3700 
 20 H       -0.6800     4.8280     0.6150 H     1 <1>   0.1500 
 21 H        5.1150     2.5220    -2.6750 H     1 <1>   0.0800 
 22 H        5.2480     0.8660    -2.1960 H     1 <1>   0.0800 
 23 H        6.4890     3.2770    -0.9600 H     1 <1>   0.0800 
 24 H        7.2560     1.7910    -1.4370 H     1 <1>   0.0800 
 25 H        5.4290     2.2260     0.7920 H     1 <1>   0.4500 
 26 H        8.3500     1.7740     0.9320 H     1 <1>   0.0800 
 27 H        7.2800     1.9480     2.3090 H     1 <1>   0.0800 
 28 H        7.5060     3.2870     1.2070 H     1 <1>   0.0800 
 29 H        6.8950    -0.2890     0.2010 H     1 <1>   0.0800 
 30 H        5.1640    -0.0330     0.0730 H     1 <1>   0.0800 
 31 H        5.9370     0.0060     1.6380 H     1 <1>   0.0800 
@<TRIPOS>BOND
  1   1   2  1   
  2   2   3  ar  
  3   2   4  ar  
  4   3   5  1   
  5   3   6  ar  
  6   4   7  ar  
  7   4  16  1   
  8   5   8  2   
  9   5   9  am  
 10   6  10  ar  
 11   6  17  1   
 12   7  10  ar  
 13   7  18  1   
 14   9  11  1   
 15   9  19  1   
 16  10  20  1   
 17  11  12  1   
 18  11  21  1   
 19  11  22  1   
 20  12  13  1   
 21  12  23  1   
 22  12  24  1   
 23  13  14  1   
 24  13  15  1   
 25  13  25  1   
 26  14  26  1   
 27  14  27  1   
 28  14  28  1   
 29  15  29  1   
 30  15  30  1   
 31  15  31  1   
@<TRIPOS>SUBSTRUCTURE
  1 ****   5 GROUP 4 **** **** 0

# MOE 2024.06 (io_trps.svl 2023.06)
