@<TRIPOS>MOLECULE
NONAME
35 37 1 0 0 
SMALL
USER_CHARGES


@<TRIPOS>ATOM
  1 BR      -1.6260     0.3030    -1.9280 Br    1 <1>  -0.1110 
  2 C       -1.3410     2.1530    -1.4820 C.ar  1 <1>   0.1110 
  3 C       -0.1020     2.7110    -1.7200 C.ar  1 <1>  -0.1500 
  4 C       -2.3830     2.8730    -0.9330 C.ar  1 <1>  -0.1500 
  5 C        0.1240     4.0470    -1.4000 C.ar  1 <1>   0.0280 
  6 C       -2.1710     4.2020    -0.6170 C.ar  1 <1>  -0.1500 
  7 C       -0.9280     4.7940    -0.8490 C.ar  1 <1>   0.0830 
  8 C        1.4220     4.6330    -1.6470 C.2   1 <1>   0.3130 
  9 O       -0.6750     6.1010    -0.5680 O.3   1 <1>  -0.3630 
 10 N        2.2290     5.0710    -0.5760 N.pl3 1 <1>  -0.6850 
 11 C        2.0340     4.8260    -2.8370 C.2   1 <1>  -0.0490 
 12 C       -1.6820     7.0310    -0.2170 C.3   1 <1>   0.1200 
 13 C        3.3780     5.5940    -0.9030 C.cat 1 <1>   0.8400 
 14 C        2.0450     5.1330     0.8930 C.3   1 <1>   0.3300 
 15 S        3.6260     5.5780    -2.6120 S.3   1 <1>  -0.2320 
 16 C       -1.8850     7.0120     1.3020 C.3   1 <1>  -0.1600 
 17 N        4.1050     6.0270     0.0890 N.pl3 1 <1>  -0.7940 
 18 C        3.3710     5.7990     1.3640 C.3   1 <1>   0.3290 
 19 C       -2.9820     7.9960     1.7240 C.3   1 <1>  -0.2400 
 20 H        0.6760     2.1040    -2.1490 H     1 <1>   0.1500 
 21 H       -3.3350     2.4020    -0.7620 H     1 <1>   0.1500 
 22 H       -2.9880     4.7540    -0.1910 H     1 <1>   0.1500 
 23 H        1.7210     4.6110    -3.8430 H     1 <1>   0.1500 
 24 H       -2.5850     6.8070    -0.7580 H     1 <1>   0.0800 
 25 H       -1.3380     8.0030    -0.5260 H     1 <1>   0.0800 
 26 H        1.9310     4.1460     1.3060 H     1 <1>   0.0800 
 27 H        1.1940     5.7400     1.1490 H     1 <1>   0.0800 
 28 H       -0.9650     7.2880     1.7860 H     1 <1>   0.0800 
 29 H       -2.1620     6.0240     1.6260 H     1 <1>   0.0800 
 30 H        5.0260     6.4690     0.0220 H     1 <1>   0.4500 
 31 H        3.9230     5.1420     2.0150 H     1 <1>   0.0800 
 32 H        3.1750     6.7320     1.8670 H     1 <1>   0.0800 
 33 H       -2.7220     9.0000     1.4340 H     1 <1>   0.0800 
 34 H       -3.1070     7.9730     2.7920 H     1 <1>   0.0800 
 35 H       -3.9200     7.7350     1.2660 H     1 <1>   0.0800 
@<TRIPOS>BOND
  1   1   2  1   
  2   2   3  ar  
  3   2   4  ar  
  4   3   5  ar  
  5   3  20  1   
  6   4   6  ar  
  7   4  21  1   
  8   5   7  ar  
  9   5   8  1   
 10   6   7  ar  
 11   6  22  1   
 12   7   9  1   
 13   8  10  1   
 14   8  11  2   
 15   9  12  1   
 16  10  13  ar  
 17  10  14  1   
 18  11  15  1   
 19  11  23  1   
 20  12  16  1   
 21  12  24  1   
 22  12  25  1   
 23  13  15  1   
 24  13  17  ar  
 25  14  18  1   
 26  14  26  1   
 27  14  27  1   
 28  16  19  1   
 29  16  28  1   
 30  16  29  1   
 31  17  18  1   
 32  17  30  1   
 33  18  31  1   
 34  18  32  1   
 35  19  33  1   
 36  19  34  1   
 37  19  35  1   
@<TRIPOS>SUBSTRUCTURE
  1 ****   5 GROUP 4 **** **** 0

# MOE 2024.06 (io_trps.svl 2023.06)
