@<TRIPOS>MOLECULE
NONAME
47 48 1 0 0 
SMALL
USER_CHARGES


@<TRIPOS>ATOM
  1 O        0.0750    -0.1110     1.3900 O.2   1 <1>  -0.5700 
  2 C        0.5700    -0.8360     0.5510 C.2   1 <1>   0.6900 
  3 N        1.8630    -0.7260     0.1440 N.am  1 <1>  -0.5470 
  4 N       -0.1890    -1.8030    -0.0230 N.am  1 <1>  -0.7300 
  5 C        2.9120     0.1540     0.4670 C.ar  1 <1>   0.1170 
  6 C       -1.5860    -2.0550     0.3490 C.3   1 <1>   0.2200 
  7 C        4.1850    -0.1370    -0.0370 C.ar  1 <1>   0.0820 
  8 C        2.7460     1.2920     1.2490 C.ar  1 <1>  -0.1500 
  9 C       -1.9220    -3.5290     0.1410 C.3   1 <1>  -0.1600 
 10 C       -2.4990    -1.1660    -0.4910 C.3   1 <1>  -0.1600 
 11 O        4.3080    -1.2620    -0.8080 O.3   1 <1>  -0.3630 
 12 C        5.2590     0.7010     0.2510 C.ar  1 <1>  -0.1500 
 13 C        3.8170     2.1220     1.5320 C.ar  1 <1>  -0.1500 
 14 C       -3.3930    -3.7820     0.4620 C.3   1 <1>   0.3430 
 15 C       -3.9590    -1.4470    -0.1560 C.3   1 <1>   0.3430 
 16 C        5.5590    -1.6550    -1.3310 C.3   1 <1>   0.0400 
 17 C        5.0730     1.8270     1.0350 C.ar  1 <1>  -0.1500 
 18 N       -4.2620    -2.8990    -0.3760 N.4   1 <1>  -0.9590 
 19 C       -5.6980    -3.2550    -0.2170 C.3   1 <1>   0.4230 
 20 C       -6.4940    -2.6480    -1.3680 C.3   1 <1>  -0.2400 
 21 C       -6.2560    -2.8050     1.1340 C.3   1 <1>  -0.2400 
 22 H        2.1900    -1.4710    -0.4660 H     1 <1>   0.3700 
 23 H        0.1930    -2.3190    -0.8130 H     1 <1>   0.3700 
 24 H       -1.7170    -1.8100     1.3930 H     1 <1>   0.0800 
 25 H        1.7810     1.5440     1.6450 H     1 <1>   0.1500 
 26 H       -1.3150    -4.1260     0.7990 H     1 <1>   0.0800 
 27 H       -1.7180    -3.8260    -0.8720 H     1 <1>   0.0800 
 28 H       -2.3280    -1.3250    -1.5400 H     1 <1>   0.0800 
 29 H       -2.2870    -0.1340    -0.2670 H     1 <1>   0.0800 
 30 H        6.2450     0.5010    -0.1210 H     1 <1>   0.1500 
 31 H        3.6690     2.9970     2.1410 H     1 <1>   0.1500 
 32 H       -3.5700    -3.5800     1.5060 H     1 <1>   0.0800 
 33 H       -3.6280    -4.8170     0.2740 H     1 <1>   0.0800 
 34 H       -4.5910    -0.8340    -0.7790 H     1 <1>   0.0800 
 35 H       -4.1450    -1.1860     0.8740 H     1 <1>   0.0800 
 36 H        5.4190    -2.5640    -1.8860 H     1 <1>   0.0800 
 37 H        6.2400    -1.8260    -0.5160 H     1 <1>   0.0800 
 38 H        5.9240    -0.8820    -1.9830 H     1 <1>   0.0800 
 39 H        5.9040     2.4740     1.2570 H     1 <1>   0.1500 
 40 H       -4.0300    -3.0990    -1.3570 H     1 <1>   0.4500 
 41 H       -5.7940    -4.3290    -0.2810 H     1 <1>   0.0800 
 42 H       -6.5090    -1.5750    -1.3220 H     1 <1>   0.0800 
 43 H       -7.5130    -2.9900    -1.3140 H     1 <1>   0.0800 
 44 H       -6.0950    -2.9630    -2.3160 H     1 <1>   0.0800 
 45 H       -6.2810    -1.7340     1.2210 H     1 <1>   0.0800 
 46 H       -5.6930    -3.2210     1.9490 H     1 <1>   0.0800 
 47 H       -7.2680    -3.1570     1.2310 H     1 <1>   0.0800 
@<TRIPOS>BOND
  1   1   2  2   
  2   2   3  am  
  3   2   4  am  
  4   3   5  1   
  5   3  22  1   
  6   4   6  1   
  7   4  23  1   
  8   5   7  ar  
  9   5   8  ar  
 10   6   9  1   
 11   6  10  1   
 12   6  24  1   
 13   7  11  1   
 14   7  12  ar  
 15   8  13  ar  
 16   8  25  1   
 17   9  14  1   
 18   9  26  1   
 19   9  27  1   
 20  10  15  1   
 21  10  28  1   
 22  10  29  1   
 23  11  16  1   
 24  12  17  ar  
 25  12  30  1   
 26  13  17  ar  
 27  13  31  1   
 28  14  18  1   
 29  14  32  1   
 30  14  33  1   
 31  15  18  1   
 32  15  34  1   
 33  15  35  1   
 34  16  36  1   
 35  16  37  1   
 36  16  38  1   
 37  17  39  1   
 38  18  19  1   
 39  18  40  1   
 40  19  20  1   
 41  19  21  1   
 42  19  41  1   
 43  20  42  1   
 44  20  43  1   
 45  20  44  1   
 46  21  45  1   
 47  21  46  1   
 48  21  47  1   
@<TRIPOS>SUBSTRUCTURE
  1 ****   4 GROUP 4 **** **** 0

# MOE 2024.06 (io_trps.svl 2023.06)
