@<TRIPOS>MOLECULE
NONAME
43 44 1 0 0 
SMALL
USER_CHARGES


@<TRIPOS>ATOM
  1 O       -0.6250    -0.4680     0.0260 O.3   1 <1>  -0.3630 
  2 C        0.6030    -1.0630     0.0050 C.ar  1 <1>   0.0830 
  3 C       -1.8140    -1.2180    -0.0020 C.3   1 <1>   0.1200 
  4 C        1.7320    -0.2390     0.0360 C.ar  1 <1>   0.0830 
  5 C        0.7660    -2.4440    -0.0430 C.ar  1 <1>  -0.1500 
  6 C       -2.9910    -0.2450     0.0310 C.3   1 <1>  -0.1600 
  7 O        1.5380     1.1120     0.0840 O.3   1 <1>  -0.3630 
  8 C        3.0010    -0.8130     0.0160 C.ar  1 <1>  -0.1500 
  9 C        2.0330    -3.0000    -0.0630 C.ar  1 <1>  -0.1500 
 10 C       -4.3190    -0.9990     0.0030 C.3   1 <1>   0.1200 
 11 C        2.6180     2.0160     0.1170 C.3   1 <1>   0.0400 
 12 C        3.1550    -2.1890    -0.0350 C.ar  1 <1>  -0.1430 
 13 O       -5.3630    -0.0550     0.0350 O.3   1 <1>  -0.3630 
 14 C        4.5440    -2.8020    -0.0540 C.3   1 <1>  -0.0970 
 15 C       -6.6640    -0.4410     0.0200 C.ar  1 <1>   0.0830 
 16 C       -7.6130     0.5680     0.0540 C.ar  1 <1>  -0.1500 
 17 C       -7.0780    -1.7700    -0.0270 C.ar  1 <1>  -0.1500 
 18 C       -8.9660     0.2700     0.0430 C.ar  1 <1>  -0.1430 
 19 C       -8.4290    -2.0700    -0.0400 C.ar  1 <1>  -0.1500 
 20 C       -9.3690    -1.0540    -0.0050 C.ar  1 <1>  -0.1500 
 21 C      -10.0020     1.3790     0.0800 C.3   1 <1>  -0.0970 
 22 H       -1.8270    -1.8620     0.8600 H     1 <1>   0.0800 
 23 H       -1.8250    -1.7990    -0.9080 H     1 <1>   0.0800 
 24 H       -0.0770    -3.1070    -0.0660 H     1 <1>   0.1500 
 25 H       -2.9340     0.4050    -0.8250 H     1 <1>   0.0800 
 26 H       -2.9360     0.3430     0.9300 H     1 <1>   0.0800 
 27 H        3.8820    -0.2020     0.0400 H     1 <1>   0.1500 
 28 H        2.1420    -4.0690    -0.0990 H     1 <1>   0.1500 
 29 H       -4.4140    -1.6360     0.8650 H     1 <1>   0.0800 
 30 H       -4.4120    -1.5740    -0.9020 H     1 <1>   0.0800 
 31 H        2.2150     3.0120     0.1530 H     1 <1>   0.0800 
 32 H        3.2050     1.8910    -0.7750 H     1 <1>   0.0800 
 33 H        3.2040     1.8270     0.9990 H     1 <1>   0.0800 
 34 H        5.2230    -2.1740    -0.6020 H     1 <1>   0.0800 
 35 H        4.5240    -3.7690    -0.5240 H     1 <1>   0.0800 
 36 H        4.9060    -2.9120     0.9520 H     1 <1>   0.0800 
 37 H       -7.2770     1.5880     0.0890 H     1 <1>   0.1500 
 38 H       -6.3720    -2.5760    -0.0550 H     1 <1>   0.1500 
 39 H       -8.7520    -3.0960    -0.0770 H     1 <1>   0.1500 
 40 H      -10.4170    -1.2990    -0.0160 H     1 <1>   0.1500 
 41 H       -9.5590     2.3030     0.4050 H     1 <1>   0.0800 
 42 H      -10.7940     1.1240     0.7600 H     1 <1>   0.0800 
 43 H      -10.4170     1.5210    -0.9020 H     1 <1>   0.0800 
@<TRIPOS>BOND
  1   1   2  1   
  2   1   3  1   
  3   2   4  ar  
  4   2   5  ar  
  5   3   6  1   
  6   3  22  1   
  7   3  23  1   
  8   4   7  1   
  9   4   8  ar  
 10   5   9  ar  
 11   5  24  1   
 12   6  10  1   
 13   6  25  1   
 14   6  26  1   
 15   7  11  1   
 16   8  12  ar  
 17   8  27  1   
 18   9  12  ar  
 19   9  28  1   
 20  10  13  1   
 21  10  29  1   
 22  10  30  1   
 23  11  31  1   
 24  11  32  1   
 25  11  33  1   
 26  12  14  1   
 27  13  15  1   
 28  14  34  1   
 29  14  35  1   
 30  14  36  1   
 31  15  16  ar  
 32  15  17  ar  
 33  16  18  ar  
 34  16  37  1   
 35  17  19  ar  
 36  17  38  1   
 37  18  20  ar  
 38  18  21  1   
 39  19  20  ar  
 40  19  39  1   
 41  20  40  1   
 42  21  41  1   
 43  21  42  1   
 44  21  43  1   
@<TRIPOS>SUBSTRUCTURE
  1 ****   6 GROUP 4 **** **** 0

# MOE 2024.06 (io_trps.svl 2023.06)
