@<TRIPOS>MOLECULE
NONAME
41 43 1 0 0 
SMALL
USER_CHARGES


@<TRIPOS>ATOM
  1 CL      -0.2060    -0.6370     0.0110 Cl    1 <1>  -0.1770 
  2 C       -1.9310    -0.3820    -0.1130 C.ar  1 <1>   0.1770 
  3 C       -2.7870    -1.1700     0.6340 C.ar  1 <1>  -0.1500 
  4 C       -2.4120     0.6030    -0.9550 C.ar  1 <1>  -0.1500 
  5 C       -4.1530    -0.9660     0.5330 C.ar  1 <1>  -0.1500 
  6 C       -3.7790     0.7990    -1.0490 C.ar  1 <1>  -0.1500 
  7 C       -4.6610     0.0200    -0.3090 C.ar  1 <1>   0.1000 
  8 N       -6.0270     0.2410    -0.4260 N.pl3 1 <1>  -0.8380 
  9 C       -6.8060    -0.8090    -1.1480 C.3   1 <1>   0.2090 
 10 C       -6.7280     0.7510     0.7940 C.3   1 <1>   0.2090 
 11 C       -8.2280    -0.3240    -1.4790 C.3   1 <1>   0.1400 
 12 C       -8.1550     1.2290     0.4700 C.3   1 <1>   0.1400 
 13 N       -8.9260     0.1750    -0.2560 N.am  1 <1>  -0.6600 
 14 C      -10.2620    -0.0200    -0.0200 C.2   1 <1>   0.6900 
 15 O      -10.8940     0.8130     0.6060 O.2   1 <1>  -0.5700 
 16 N      -10.8890    -1.1520    -0.4640 N.am  1 <1>  -0.6600 
 17 C      -12.3680    -1.1610    -0.6620 C.3   1 <1>   0.1400 
 18 C      -10.3440    -2.4970    -0.1230 C.3   1 <1>   0.1400 
 19 C      -13.0660    -1.8760     0.5050 C.3   1 <1>   0.1200 
 20 C      -11.1610    -3.1420     1.0100 C.3   1 <1>   0.1200 
 21 O      -12.5230    -3.1540     0.6930 O.3   1 <1>  -0.5600 
 22 H       -2.3870    -1.9290     1.2810 H     1 <1>   0.1500 
 23 H       -1.7270     1.2030    -1.5250 H     1 <1>   0.1500 
 24 H       -4.8320    -1.5690     1.1050 H     1 <1>   0.1500 
 25 H       -4.1810     1.5590    -1.6950 H     1 <1>   0.1500 
 26 H       -6.8650    -1.6940    -0.5400 H     1 <1>   0.0800 
 27 H       -6.2940    -1.0630    -2.0610 H     1 <1>   0.0800 
 28 H       -6.1660     1.5690     1.2100 H     1 <1>   0.0800 
 29 H       -6.7790    -0.0290     1.5330 H     1 <1>   0.0800 
 30 H       -8.7840    -1.1200    -1.9380 H     1 <1>   0.0800 
 31 H       -8.1600     0.4810    -2.1910 H     1 <1>   0.0800 
 32 H       -8.1020     2.1110    -0.1430 H     1 <1>   0.0800 
 33 H       -8.6560     1.4900     1.3860 H     1 <1>   0.0800 
 34 H      -12.6000    -1.6700    -1.5810 H     1 <1>   0.0800 
 35 H      -12.7380    -0.1530    -0.7400 H     1 <1>   0.0800 
 36 H       -9.3180    -2.4130     0.1900 H     1 <1>   0.0800 
 37 H      -10.3810    -3.1270    -0.9930 H     1 <1>   0.0800 
 38 H      -14.1150    -1.9900     0.2990 H     1 <1>   0.0800 
 39 H      -12.9500    -1.3110     1.4140 H     1 <1>   0.0800 
 40 H      -11.0260    -2.5970     1.9290 H     1 <1>   0.0800 
 41 H      -10.8490    -4.1590     1.1620 H     1 <1>   0.0800 
@<TRIPOS>BOND
  1   1   2  1   
  2   2   3  ar  
  3   2   4  ar  
  4   3   5  ar  
  5   3  22  1   
  6   4   6  ar  
  7   4  23  1   
  8   5   7  ar  
  9   5  24  1   
 10   6   7  ar  
 11   6  25  1   
 12   7   8  1   
 13   8   9  1   
 14   8  10  1   
 15   9  11  1   
 16   9  26  1   
 17   9  27  1   
 18  10  12  1   
 19  10  28  1   
 20  10  29  1   
 21  11  13  1   
 22  11  30  1   
 23  11  31  1   
 24  12  13  1   
 25  12  32  1   
 26  12  33  1   
 27  13  14  am  
 28  14  15  2   
 29  14  16  am  
 30  16  17  1   
 31  16  18  1   
 32  17  19  1   
 33  17  34  1   
 34  17  35  1   
 35  18  20  1   
 36  18  36  1   
 37  18  37  1   
 38  19  21  1   
 39  19  38  1   
 40  19  39  1   
 41  20  21  1   
 42  20  40  1   
 43  20  41  1   
@<TRIPOS>SUBSTRUCTURE
  1 ****   9 GROUP 4 **** **** 0

# MOE 2024.06 (io_trps.svl 2023.06)
