@<TRIPOS>MOLECULE
NONAME
38 39 1 0 0 
SMALL
USER_CHARGES


@<TRIPOS>ATOM
  1 O       -0.2010    -3.2970     2.5210 O.2   1 <1>  -0.5700 
  2 C        0.2190    -3.3640     1.3830 C.2   1 <1>   0.6340 
  3 O       -0.6020    -3.0170     0.3840 O.3   1 <1>  -0.4300 
  4 C        1.5710    -3.7610     1.0650 C.ar  1 <1>   0.0860 
  5 C       -1.9440    -2.6630     0.5980 C.3   1 <1>   0.2000 
  6 C        1.8810    -4.6190    -0.0010 C.ar  1 <1>   0.0820 
  7 C        2.6250    -3.2850     1.8480 C.ar  1 <1>  -0.1500 
  8 C       -2.7640    -3.9430     0.7780 C.3   1 <1>  -0.1600 
  9 C       -2.4120    -1.8780    -0.6260 C.3   1 <1>  -0.1600 
 10 O        0.8580    -5.1270    -0.7330 O.3   1 <1>  -0.3630 
 11 C        3.2100    -4.9450    -0.2730 C.ar  1 <1>  -0.1500 
 12 C        3.9380    -3.6150     1.5780 C.ar  1 <1>  -0.1500 
 13 C       -4.2530    -3.6230     0.8360 C.3   1 <1>   0.3430 
 14 C       -3.9090    -1.5970    -0.5450 C.3   1 <1>   0.3430 
 15 C        1.0590    -6.0260    -1.8030 C.3   1 <1>   0.0400 
 16 C        4.2310    -4.4440     0.5110 C.ar  1 <1>  -0.1500 
 17 N       -4.6570    -2.8810    -0.3960 N.4   1 <1>  -0.9590 
 18 C       -6.1320    -2.6460    -0.4150 C.3   1 <1>   0.2630 
 19 H       -2.0030    -2.0400     1.4770 H     1 <1>   0.0800 
 20 H        2.4040    -2.6410     2.6830 H     1 <1>   0.1500 
 21 H       -2.4810    -4.4240     1.6980 H     1 <1>   0.0800 
 22 H       -2.5700    -4.6250    -0.0310 H     1 <1>   0.0800 
 23 H       -2.1960    -2.4290    -1.5240 H     1 <1>   0.0800 
 24 H       -1.8810    -0.9430    -0.6690 H     1 <1>   0.0800 
 25 H        3.4720    -5.5900    -1.0890 H     1 <1>   0.1500 
 26 H        4.7320    -3.2310     2.1950 H     1 <1>   0.1500 
 27 H       -4.4580    -3.0240     1.7090 H     1 <1>   0.0800 
 28 H       -4.8130    -4.5420     0.9170 H     1 <1>   0.0800 
 29 H       -4.2260    -1.0870    -1.4410 H     1 <1>   0.0800 
 30 H       -4.1100    -0.9570     0.2990 H     1 <1>   0.0800 
 31 H        0.0970    -6.2870    -2.2070 H     1 <1>   0.0800 
 32 H        1.5490    -6.9090    -1.4320 H     1 <1>   0.0800 
 33 H        1.6530    -5.5440    -2.5590 H     1 <1>   0.0800 
 34 H        5.2550    -4.7010     0.2960 H     1 <1>   0.1500 
 35 H       -4.4090    -3.4740    -1.2020 H     1 <1>   0.4500 
 36 H       -6.4250    -2.0280     0.4180 H     1 <1>   0.0800 
 37 H       -6.6620    -3.5830    -0.3520 H     1 <1>   0.0800 
 38 H       -6.4210    -2.1510    -1.3290 H     1 <1>   0.0800 
@<TRIPOS>BOND
  1   1   2  2   
  2   2   3  1   
  3   2   4  1   
  4   3   5  1   
  5   4   6  ar  
  6   4   7  ar  
  7   5   8  1   
  8   5   9  1   
  9   5  19  1   
 10   6  10  1   
 11   6  11  ar  
 12   7  12  ar  
 13   7  20  1   
 14   8  13  1   
 15   8  21  1   
 16   8  22  1   
 17   9  14  1   
 18   9  23  1   
 19   9  24  1   
 20  10  15  1   
 21  11  16  ar  
 22  11  25  1   
 23  12  16  ar  
 24  12  26  1   
 25  13  17  1   
 26  13  27  1   
 27  13  28  1   
 28  14  17  1   
 29  14  29  1   
 30  14  30  1   
 31  15  31  1   
 32  15  32  1   
 33  15  33  1   
 34  16  34  1   
 35  17  18  1   
 36  17  35  1   
 37  18  36  1   
 38  18  37  1   
 39  18  38  1   
@<TRIPOS>SUBSTRUCTURE
  1 ****   3 GROUP 4 **** **** 0

# MOE 2024.06 (io_trps.svl 2023.06)
