@<TRIPOS>MOLECULE
NONAME
39 40 1 0 0 
SMALL
USER_CHARGES


@<TRIPOS>ATOM
  1 S       -3.4180     4.6890     0.3290 S.3   1 <1>  -0.0800 
  2 C       -2.5350     6.2080     0.4010 C.2   1 <1>  -0.1400 
  3 C       -4.8900     5.5170    -0.1430 C.2   1 <1>  -0.1100 
  4 C       -3.3420     7.2390     0.0830 C.2   1 <1>  -0.1500 
  5 C       -1.0790     6.1300     0.7860 C.3   1 <1>   0.5230 
  6 C       -4.6830     6.8430    -0.2270 C.2   1 <1>  -0.1500 
  7 N       -0.4050     5.3350    -0.2600 N.4   1 <1>  -0.9060 
  8 C        1.0400     5.1230     0.0060 C.3   1 <1>   0.3430 
  9 C        1.6750     4.2640    -1.0860 C.3   1 <1>  -0.0170 
 10 C        3.1330     4.0540    -0.7300 C.ar  1 <1>  -0.1430 
 11 C        3.4770     3.1290     0.2420 C.ar  1 <1>  -0.1500 
 12 C        4.1320     4.7850    -1.3490 C.ar  1 <1>  -0.1500 
 13 C        4.7950     2.9330     0.6170 C.ar  1 <1>   0.0830 
 14 C        5.4550     4.6030    -0.9870 C.ar  1 <1>  -0.1500 
 15 O        4.9620     1.9900     1.5890 O.3   1 <1>  -0.3620 
 16 C        5.8090     3.6880     0.0030 C.ar  1 <1>   0.0830 
 17 C        6.1730     1.2860     1.7510 C.3   1 <1>   0.0400 
 18 O        7.1090     3.5340     0.3890 O.3   1 <1>  -0.3630 
 19 C        8.1560     4.3160    -0.1430 C.3   1 <1>   0.0400 
 20 H       -5.7700     4.9170    -0.3080 H     1 <1>   0.1500 
 21 H       -3.0700     8.2810     0.0490 H     1 <1>   0.1500 
 22 H       -0.9820     5.6520     1.7480 H     1 <1>   0.0800 
 23 H       -0.6580     7.1210     0.8410 H     1 <1>   0.0800 
 24 H       -5.4280     7.5730    -0.4960 H     1 <1>   0.1500 
 25 H       -0.5560     5.8060    -1.1600 H     1 <1>   0.4500 
 26 H       -0.9050     4.4380    -0.3210 H     1 <1>   0.4500 
 27 H        1.1720     4.6290     0.9560 H     1 <1>   0.0800 
 28 H        1.5540     6.0700     0.0490 H     1 <1>   0.0800 
 29 H        1.6010     4.7520    -2.0420 H     1 <1>   0.0800 
 30 H        1.1880     3.3060    -1.1450 H     1 <1>   0.0800 
 31 H        2.7270     2.5350     0.7300 H     1 <1>   0.1500 
 32 H        3.8970     5.5010    -2.1180 H     1 <1>   0.1500 
 33 H        6.1970     5.1920    -1.4920 H     1 <1>   0.1500 
 34 H        5.9790     0.4210     2.3580 H     1 <1>   0.0800 
 35 H        6.8830     1.9250     2.2450 H     1 <1>   0.0800 
 36 H        6.5370     0.9850     0.7840 H     1 <1>   0.0800 
 37 H        9.0710     4.0210     0.3390 H     1 <1>   0.0800 
 38 H        7.9560     5.3530     0.0600 H     1 <1>   0.0800 
 39 H        8.2270     4.1330    -1.2000 H     1 <1>   0.0800 
@<TRIPOS>BOND
  1   1   2  1   
  2   1   3  1   
  3   2   4  2   
  4   2   5  1   
  5   3   6  2   
  6   3  20  1   
  7   4   6  1   
  8   4  21  1   
  9   5   7  1   
 10   5  22  1   
 11   5  23  1   
 12   6  24  1   
 13   7   8  1   
 14   7  25  1   
 15   7  26  1   
 16   8   9  1   
 17   8  27  1   
 18   8  28  1   
 19   9  10  1   
 20   9  29  1   
 21   9  30  1   
 22  10  11  ar  
 23  10  12  ar  
 24  11  13  ar  
 25  11  31  1   
 26  12  14  ar  
 27  12  32  1   
 28  13  15  1   
 29  13  16  ar  
 30  14  16  ar  
 31  14  33  1   
 32  15  17  1   
 33  16  18  1   
 34  17  34  1   
 35  17  35  1   
 36  17  36  1   
 37  18  19  1   
 38  19  37  1   
 39  19  38  1   
 40  19  39  1   
@<TRIPOS>SUBSTRUCTURE
  1 ****   8 GROUP 4 **** **** 0

# MOE 2024.06 (io_trps.svl 2023.06)
