@<TRIPOS>MOLECULE
NONAME
41 43 1 0 0 
SMALL
USER_CHARGES


@<TRIPOS>ATOM
  1 O       -1.4100     1.6770    -1.5320 O.2   1 <1>  -0.5700 
  2 C       -1.2370     2.1140    -0.4180 C.2   1 <1>   0.5690 
  3 N       -1.9140     1.7050     0.6830 N.am  1 <1>  -0.4200 
  4 C       -0.2690     3.2600    -0.0610 C.3   1 <1>   0.2510 
  5 C       -1.5930     2.4460     1.7680 C.2   1 <1>   0.5690 
  6 C       -3.0100     0.7230     0.6590 C.3   1 <1>   0.2840 
  7 N        1.1930     2.9860    -0.2130 N.3   1 <1>  -0.8100 
  8 C       -0.5840     3.5120     1.4270 C.3   1 <1>  -0.0990 
  9 O       -2.0440     2.3030     2.8750 O.2   1 <1>  -0.5700 
 10 C       -4.3160     1.4390     0.3550 C.ar  1 <1>  -0.1430 
 11 C        1.9890     4.2280    -0.0630 C.3   1 <1>   0.1100 
 12 C        1.5200     2.3680    -1.5210 C.3   1 <1>   0.1100 
 13 C       -4.7430     1.5910    -0.9550 C.ar  1 <1>  -0.1500 
 14 C       -5.0870     1.9560     1.3840 C.ar  1 <1>  -0.1500 
 15 C        3.4910     3.9630    -0.2690 C.3   1 <1>   0.1200 
 16 C        3.0370     2.1800    -1.7010 C.3   1 <1>   0.1200 
 17 C       -5.9310     2.2460    -1.2310 C.ar  1 <1>  -0.1500 
 18 C       -6.2740     2.6110     1.1070 C.ar  1 <1>  -0.1500 
 19 O        3.7110     3.3920    -1.5240 O.3   1 <1>  -0.5600 
 20 C       -6.7030     2.7600    -0.2020 C.ar  1 <1>  -0.1430 
 21 C       -8.0070     3.4750    -0.5050 C.3   1 <1>  -0.0970 
 22 H       -0.5420     4.1150    -0.6540 H     1 <1>   0.0800 
 23 H       -3.0720     0.2300     1.6140 H     1 <1>   0.0800 
 24 H       -2.8110    -0.0210    -0.0930 H     1 <1>   0.0800 
 25 H       -1.0270     4.4790     1.5700 H     1 <1>   0.0800 
 26 H        0.2760     3.3950     2.0600 H     1 <1>   0.0800 
 27 H        1.8490     4.6400     0.9210 H     1 <1>   0.0800 
 28 H        1.6690     4.9620    -0.7830 H     1 <1>   0.0800 
 29 H        1.1440     2.9780    -2.3250 H     1 <1>   0.0800 
 30 H        1.0590     1.3990    -1.5920 H     1 <1>   0.0800 
 31 H       -4.1500     1.2050    -1.7670 H     1 <1>   0.1500 
 32 H       -4.7630     1.8550     2.4070 H     1 <1>   0.1500 
 33 H        3.8660     3.2960     0.4870 H     1 <1>   0.0800 
 34 H        4.0430     4.8850    -0.2270 H     1 <1>   0.0800 
 35 H        3.2530     1.8260    -2.6940 H     1 <1>   0.0800 
 36 H        3.4150     1.4680    -0.9890 H     1 <1>   0.0800 
 37 H       -6.2510     2.3540    -2.2520 H     1 <1>   0.1500 
 38 H       -6.8620     3.0050     1.9170 H     1 <1>   0.1500 
 39 H       -8.2130     4.2160     0.2460 H     1 <1>   0.0800 
 40 H       -8.8140     2.7650    -0.5250 H     1 <1>   0.0800 
 41 H       -7.9520     3.9670    -1.4600 H     1 <1>   0.0800 
@<TRIPOS>BOND
  1   1   2  2   
  2   2   3  am  
  3   2   4  1   
  4   3   5  am  
  5   3   6  1   
  6   4   7  1   
  7   4   8  1   
  8   4  22  1   
  9   5   8  1   
 10   5   9  2   
 11   6  10  1   
 12   6  23  1   
 13   6  24  1   
 14   7  11  1   
 15   7  12  1   
 16   8  25  1   
 17   8  26  1   
 18  10  13  ar  
 19  10  14  ar  
 20  11  15  1   
 21  11  27  1   
 22  11  28  1   
 23  12  16  1   
 24  12  29  1   
 25  12  30  1   
 26  13  17  ar  
 27  13  31  1   
 28  14  18  ar  
 29  14  32  1   
 30  15  19  1   
 31  15  33  1   
 32  15  34  1   
 33  16  19  1   
 34  16  35  1   
 35  16  36  1   
 36  17  20  ar  
 37  17  37  1   
 38  18  20  ar  
 39  18  38  1   
 40  20  21  1   
 41  21  39  1   
 42  21  40  1   
 43  21  41  1   
@<TRIPOS>SUBSTRUCTURE
  1 ****   2 GROUP 4 **** **** 0

# MOE 2024.06 (io_trps.svl 2023.06)
