@<TRIPOS>MOLECULE
NONAME
27 28 1 0 0 
SMALL
USER_CHARGES


@<TRIPOS>ATOM
  1 O        0.3910    -1.8900     1.8440 O.2   1 <1>  -0.5700 
  2 C        0.0470    -2.1810     0.7240 C.2   1 <1>   0.6590 
  3 O        0.8160    -1.9210    -0.3280 O.3   1 <1>  -0.4300 
  4 C       -1.2680    -2.8970     0.4310 C.3   1 <1>   0.2610 
  5 C        2.0520    -1.2580    -0.1950 C.3   1 <1>   0.1200 
  6 O       -2.1510    -2.0430    -0.2910 O.3   1 <1>  -0.3630 
  7 C       -1.9590    -3.3840     1.7150 C.3   1 <1>   0.1200 
  8 C        2.6670    -1.1230    -1.5840 C.3   1 <1>  -0.2400 
  9 C       -3.4490    -2.4280    -0.3730 C.ar  1 <1>   0.0830 
 10 O       -3.1870    -4.0190     1.4040 O.3   1 <1>  -0.3630 
 11 C       -3.9630    -3.4230     0.4620 C.ar  1 <1>   0.0830 
 12 C       -4.2680    -1.8210    -1.3090 C.ar  1 <1>  -0.1500 
 13 C       -5.2850    -3.8140     0.3400 C.ar  1 <1>  -0.1500 
 14 C       -5.5930    -2.2110    -1.4240 C.ar  1 <1>  -0.1500 
 15 C       -6.1000    -3.2070    -0.6030 C.ar  1 <1>  -0.1500 
 16 H       -1.0570    -3.7430    -0.1960 H     1 <1>   0.0800 
 17 H        2.6850    -1.8400     0.4540 H     1 <1>   0.0800 
 18 H        1.8750    -0.2910     0.2450 H     1 <1>   0.0800 
 19 H       -2.1660    -2.5540     2.3670 H     1 <1>   0.0800 
 20 H       -1.3420    -4.0930     2.2360 H     1 <1>   0.0800 
 21 H        2.8290    -2.0940    -2.0150 H     1 <1>   0.0800 
 22 H        3.6130    -0.6170    -1.5140 H     1 <1>   0.0800 
 23 H        2.0190    -0.5490    -2.2220 H     1 <1>   0.0800 
 24 H       -3.8670    -1.0520    -1.9430 H     1 <1>   0.1500 
 25 H       -5.6700    -4.5840     0.9820 H     1 <1>   0.1500 
 26 H       -6.2300    -1.7410    -2.1530 H     1 <1>   0.1500 
 27 H       -7.1280    -3.5100    -0.6970 H     1 <1>   0.1500 
@<TRIPOS>BOND
  1   1   2  2   
  2   2   3  1   
  3   2   4  1   
  4   3   5  1   
  5   4   6  1   
  6   4   7  1   
  7   4  16  1   
  8   5   8  1   
  9   5  17  1   
 10   5  18  1   
 11   6   9  1   
 12   7  10  1   
 13   7  19  1   
 14   7  20  1   
 15   8  21  1   
 16   8  22  1   
 17   8  23  1   
 18   9  11  ar  
 19   9  12  ar  
 20  10  11  1   
 21  11  13  ar  
 22  12  14  ar  
 23  12  24  1   
 24  13  15  ar  
 25  13  25  1   
 26  14  15  ar  
 27  14  26  1   
 28  15  27  1   
@<TRIPOS>SUBSTRUCTURE
  1 ****   6 GROUP 4 **** **** 0

# MOE 2024.06 (io_trps.svl 2023.06)
