@<TRIPOS>MOLECULE
NONAME
47 49 1 0 0 
SMALL
USER_CHARGES


@<TRIPOS>ATOM
  1 O        0.1030    -0.3050    -0.1150 O.2   1 <1>  -0.5700 
  2 C       -0.0820    -1.5060    -0.2020 C.2   1 <1>   0.5440 
  3 N        1.0100    -2.3460    -0.3140 N.am  1 <1>  -0.6600 
  4 C       -1.4410    -2.0090    -0.1790 C.ar  1 <1>   0.0860 
  5 C        2.3780    -1.8190    -0.5840 C.3   1 <1>   0.1400 
  6 C        0.9630    -3.8070    -0.0210 C.3   1 <1>   0.1400 
  7 C       -2.3270    -1.6410     0.8330 C.ar  1 <1>  -0.1500 
  8 C       -1.9240    -2.8710    -1.1650 C.ar  1 <1>  -0.1500 
  9 C        3.2970    -2.1230     0.6030 C.3   1 <1>  -0.1600 
 10 C        1.8790    -4.1290     1.1650 C.3   1 <1>  -0.1600 
 11 C       -3.6200    -2.1270     0.8730 C.ar  1 <1>  -0.1500 
 12 C       -3.2160    -3.3580    -1.1270 C.ar  1 <1>  -0.1500 
 13 C        3.3100    -3.6210     0.9370 C.3   1 <1>  -0.1600 
 14 C       -4.0870    -3.0020    -0.1010 C.ar  1 <1>   0.1170 
 15 N       -5.4030    -3.4650    -0.0210 N.am  1 <1>  -0.5470 
 16 C       -6.0170    -4.5970    -0.5060 C.2   1 <1>   0.5440 
 17 O       -5.3370    -5.4440    -1.0550 O.2   1 <1>  -0.5700 
 18 C       -7.4560    -4.7850    -0.3770 C.ar  1 <1>   0.0860 
 19 C       -8.2660    -4.1190     0.5660 C.ar  1 <1>   0.0820 
 20 C       -8.0930    -5.6820    -1.2410 C.ar  1 <1>  -0.1500 
 21 O       -7.6870    -3.2510     1.4380 O.3   1 <1>  -0.3620 
 22 C       -9.6400    -4.3560     0.6040 C.ar  1 <1>  -0.1500 
 23 C       -9.4530    -5.9140    -1.1950 C.ar  1 <1>  -0.1500 
 24 C       -8.3920    -2.6390     2.4990 C.3   1 <1>   0.0400 
 25 C      -10.2310    -5.2470    -0.2690 C.ar  1 <1>  -0.1500 
 26 H        2.3510    -0.7570    -0.7590 H     1 <1>   0.0800 
 27 H        2.7610    -2.2890    -1.4730 H     1 <1>   0.0800 
 28 H        1.2880    -4.3490    -0.8920 H     1 <1>   0.0800 
 29 H       -0.0380    -4.1230     0.2170 H     1 <1>   0.0800 
 30 H       -1.9820    -0.9610     1.5930 H     1 <1>   0.1500 
 31 H       -1.2720    -3.1560    -1.9710 H     1 <1>   0.1500 
 32 H        2.9530    -1.5610     1.4540 H     1 <1>   0.0800 
 33 H        4.2940    -1.7940     0.3730 H     1 <1>   0.0800 
 34 H        1.8940    -5.1930     1.3230 H     1 <1>   0.0800 
 35 H        1.4710    -3.6730     2.0500 H     1 <1>   0.0800 
 36 H       -4.2750    -1.8270     1.6700 H     1 <1>   0.1500 
 37 H       -3.5540    -4.0190    -1.9040 H     1 <1>   0.1500 
 38 H        3.9020    -3.7920     1.8190 H     1 <1>   0.0800 
 39 H        3.7580    -4.1650     0.1230 H     1 <1>   0.0800 
 40 H       -6.0260    -2.9210     0.5820 H     1 <1>   0.3700 
 41 H       -7.5040    -6.2130    -1.9700 H     1 <1>   0.1500 
 42 H      -10.2760    -3.8570     1.3090 H     1 <1>   0.1500 
 43 H       -9.9060    -6.6120    -1.8780 H     1 <1>   0.1500 
 44 H       -7.6960    -2.0510     3.0700 H     1 <1>   0.0800 
 45 H       -8.8190    -3.4050     3.1230 H     1 <1>   0.0800 
 46 H       -9.1570    -2.0020     2.0910 H     1 <1>   0.0800 
 47 H      -11.2920    -5.4240    -0.2310 H     1 <1>   0.1500 
@<TRIPOS>BOND
  1   1   2  2   
  2   2   3  am  
  3   2   4  1   
  4   3   5  1   
  5   3   6  1   
  6   4   7  ar  
  7   4   8  ar  
  8   5   9  1   
  9   5  26  1   
 10   5  27  1   
 11   6  10  1   
 12   6  28  1   
 13   6  29  1   
 14   7  11  ar  
 15   7  30  1   
 16   8  12  ar  
 17   8  31  1   
 18   9  13  1   
 19   9  32  1   
 20   9  33  1   
 21  10  13  1   
 22  10  34  1   
 23  10  35  1   
 24  11  14  ar  
 25  11  36  1   
 26  12  14  ar  
 27  12  37  1   
 28  13  38  1   
 29  13  39  1   
 30  14  15  1   
 31  15  16  am  
 32  15  40  1   
 33  16  17  2   
 34  16  18  1   
 35  18  19  ar  
 36  18  20  ar  
 37  19  21  1   
 38  19  22  ar  
 39  20  23  ar  
 40  20  41  1   
 41  21  24  1   
 42  22  25  ar  
 43  22  42  1   
 44  23  25  ar  
 45  23  43  1   
 46  24  44  1   
 47  24  45  1   
 48  24  46  1   
 49  25  47  1   
@<TRIPOS>SUBSTRUCTURE
  1 ****  14 GROUP 4 **** **** 0

# MOE 2024.06 (io_trps.svl 2023.06)
