@<TRIPOS>MOLECULE
NONAME
50 52 1 0 0 
SMALL
USER_CHARGES


@<TRIPOS>ATOM
  1 S        0.0570    -0.0510     0.0060 S.o2  1 <1>   1.4470 
  2 O       -0.3190     0.5880    -1.2370 O.2   1 <1>  -0.6500 
  3 O       -0.2540     0.5980     1.2610 O.2   1 <1>  -0.6500 
  4 N        1.7430    -0.2400    -0.0480 N.am  1 <1>  -0.8490 
  5 C       -0.5460    -1.7620     0.0490 C.ar  1 <1>  -0.0090 
  6 C        2.4200     1.0290     0.2310 C.3   1 <1>   0.1960 
  7 C        2.1860    -0.7970    -1.3300 C.3   1 <1>   0.1960 
  8 C       -1.3030    -2.2900    -0.9900 C.ar  1 <1>  -0.1500 
  9 C       -0.2460    -2.5950     1.1200 C.ar  1 <1>  -0.1500 
 10 C        3.9290     0.8070     0.3620 C.3   1 <1>  -0.1600 
 11 C        3.6740    -1.1410    -1.2550 C.3   1 <1>  -0.1600 
 12 C       -1.7420    -3.6020    -0.9640 C.ar  1 <1>  -0.1500 
 13 C       -0.6820    -3.9080     1.1530 C.ar  1 <1>  -0.1500 
 14 C        4.5020     0.1050    -0.8830 C.3   1 <1>  -0.0190 
 15 C       -1.4320    -4.4200     0.1080 C.ar  1 <1>  -0.1440 
 16 C        6.0260    -0.0930    -0.8320 C.2   1 <1>   0.5690 
 17 C       -1.9140    -5.8590     0.1420 C.3   1 <1>  -0.0970 
 18 O        6.6550     0.6480    -1.5500 O.2   1 <1>  -0.5700 
 19 N        6.6710    -1.0300    -0.0340 N.am  1 <1>  -0.4770 
 20 C        8.0760    -1.1390    -0.0170 C.ar  1 <1>   0.1170 
 21 C        5.9850    -2.0030     0.8590 C.3   1 <1>   0.0600 
 22 C        8.8670    -0.0700     0.3890 C.ar  1 <1>  -0.1500 
 23 C        8.7020    -2.3250    -0.3870 C.ar  1 <1>  -0.1500 
 24 C       10.2450    -0.1840     0.4360 C.ar  1 <1>  -0.1500 
 25 C       10.0800    -2.4430    -0.3420 C.ar  1 <1>  -0.1500 
 26 C       10.8540    -1.3720     0.0720 C.ar  1 <1>  -0.1500 
 27 H        2.0550     1.4460     1.1570 H     1 <1>   0.0800 
 28 H        2.2130     1.7360    -0.5560 H     1 <1>   0.0800 
 29 H        2.0080    -0.0890    -2.1240 H     1 <1>   0.0800 
 30 H        1.6350    -1.6950    -1.5520 H     1 <1>   0.0800 
 31 H       -1.5550    -1.6660    -1.8320 H     1 <1>   0.1500 
 32 H        0.3360    -2.2070     1.9380 H     1 <1>   0.1500 
 33 H        4.1090     0.2400     1.2540 H     1 <1>   0.0800 
 34 H        4.4130     1.7600     0.4860 H     1 <1>   0.0800 
 35 H        4.0010    -1.5150    -2.2090 H     1 <1>   0.0800 
 36 H        3.7890    -1.9270    -0.5370 H     1 <1>   0.0800 
 37 H       -2.3300    -3.9830    -1.7820 H     1 <1>   0.1500 
 38 H       -0.4380    -4.5290     1.9980 H     1 <1>   0.1500 
 39 H        4.3400     0.7960    -1.6940 H     1 <1>   0.0800 
 40 H       -1.2200    -6.4770     0.6830 H     1 <1>   0.0800 
 41 H       -2.0090    -6.2490    -0.8550 H     1 <1>   0.0800 
 42 H       -2.8730    -5.9090     0.6270 H     1 <1>   0.0800 
 43 H        6.6400    -2.2740     1.6700 H     1 <1>   0.0800 
 44 H        5.0920    -1.5910     1.2830 H     1 <1>   0.0800 
 45 H        5.7410    -2.8910     0.3040 H     1 <1>   0.0800 
 46 H        8.3960     0.8560     0.6630 H     1 <1>   0.1500 
 47 H        8.1090    -3.1560    -0.7180 H     1 <1>   0.1500 
 48 H       10.8430     0.6540     0.7510 H     1 <1>   0.1500 
 49 H       10.5520    -3.3660    -0.6310 H     1 <1>   0.1500 
 50 H       11.9260    -1.4620     0.1070 H     1 <1>   0.1500 
@<TRIPOS>BOND
  1   1   2  2   
  2   1   3  2   
  3   1   4  am  
  4   1   5  1   
  5   4   6  1   
  6   4   7  1   
  7   5   8  ar  
  8   5   9  ar  
  9   6  10  1   
 10   6  27  1   
 11   6  28  1   
 12   7  11  1   
 13   7  29  1   
 14   7  30  1   
 15   8  12  ar  
 16   8  31  1   
 17   9  13  ar  
 18   9  32  1   
 19  10  14  1   
 20  10  33  1   
 21  10  34  1   
 22  11  14  1   
 23  11  35  1   
 24  11  36  1   
 25  12  15  ar  
 26  12  37  1   
 27  13  15  ar  
 28  13  38  1   
 29  14  16  1   
 30  14  39  1   
 31  15  17  1   
 32  16  18  2   
 33  16  19  am  
 34  17  40  1   
 35  17  41  1   
 36  17  42  1   
 37  19  20  1   
 38  19  21  1   
 39  20  22  ar  
 40  20  23  ar  
 41  21  43  1   
 42  21  44  1   
 43  21  45  1   
 44  22  24  ar  
 45  22  46  1   
 46  23  25  ar  
 47  23  47  1   
 48  24  26  ar  
 49  24  48  1   
 50  25  26  ar  
 51  25  49  1   
 52  26  50  1   
@<TRIPOS>SUBSTRUCTURE
  1 ****  11 GROUP 4 **** **** 0

# MOE 2024.06 (io_trps.svl 2023.06)
