@<TRIPOS>MOLECULE
NONAME
51 52 1 0 0 
SMALL
USER_CHARGES


@<TRIPOS>ATOM
  1 CL       0.8640     0.9790    -0.4440 Cl    1 <1>  -0.1770 
  2 C        2.2060     1.1620     0.6570 C.ar  1 <1>   0.1770 
  3 C        3.4940     1.0430     0.1730 C.ar  1 <1>  -0.1500 
  4 C        1.9520     1.4220     1.9910 C.ar  1 <1>  -0.1500 
  5 C        4.5640     1.1900     1.0520 C.ar  1 <1>   0.0830 
  6 C        3.0160     1.5680     2.8640 C.ar  1 <1>  -0.1500 
  7 O        5.8680     1.0910     0.6890 O.3   1 <1>  -0.3630 
  8 C        4.3130     1.4520     2.3920 C.ar  1 <1>  -0.1500 
  9 C        6.2890     0.8640    -0.6530 C.3   1 <1>   0.2610 
 10 C        7.7010     0.2570    -0.6530 C.2   1 <1>   0.5690 
 11 C        6.2480     2.2020    -1.4050 C.3   1 <1>  -0.2400 
 12 O        8.0930    -0.3140    -1.6450 O.2   1 <1>  -0.5700 
 13 N        8.4800     0.3770     0.4630 N.am  1 <1>  -0.7300 
 14 C        9.8450    -0.1310     0.6970 C.3   1 <1>   0.2200 
 15 C       10.8180     0.4950    -0.3040 C.3   1 <1>  -0.1600 
 16 C        9.8620    -1.6570     0.5870 C.3   1 <1>  -0.1600 
 17 C       12.2430    -0.0510    -0.1660 C.3   1 <1>   0.5030 
 18 C       11.2680    -2.2460     0.7420 C.3   1 <1>   0.5030 
 19 N       12.2370    -1.5200    -0.0940 N.4   1 <1>  -0.9060 
 20 C       12.9750     0.5440     1.0400 C.3   1 <1>  -0.2400 
 21 C       13.0450     0.2910    -1.4210 C.3   1 <1>  -0.2400 
 22 C       11.7270    -2.2670     2.2030 C.3   1 <1>  -0.2400 
 23 C       11.2800    -3.6830     0.2230 C.3   1 <1>  -0.2400 
 24 H        3.6240     0.8420    -0.8720 H     1 <1>   0.1500 
 25 H        0.9370     1.5090     2.3360 H     1 <1>   0.1500 
 26 H        2.8360     1.7720     3.9060 H     1 <1>   0.1500 
 27 H        5.1420     1.5650     3.0680 H     1 <1>   0.1500 
 28 H        5.6320     0.1440    -1.1050 H     1 <1>   0.0800 
 29 H        6.9150     2.9080    -0.9440 H     1 <1>   0.0800 
 30 H        5.2540     2.6070    -1.4160 H     1 <1>   0.0800 
 31 H        6.5630     2.0520    -2.4230 H     1 <1>   0.0800 
 32 H        8.0290     0.8340     1.2630 H     1 <1>   0.3700 
 33 H       10.1310     0.1550     1.6950 H     1 <1>   0.0800 
 34 H       10.8270     1.5630    -0.1720 H     1 <1>   0.0800 
 35 H       10.4750     0.3020    -1.3040 H     1 <1>   0.0800 
 36 H        9.4750    -1.9500    -0.3720 H     1 <1>   0.0800 
 37 H        9.2120    -2.0760     1.3340 H     1 <1>   0.0800 
 38 H       13.1760    -1.8380     0.1470 H     1 <1>   0.4500 
 39 H       12.0620    -1.8380    -1.0500 H     1 <1>   0.4500 
 40 H       12.3920     0.5010     1.9370 H     1 <1>   0.0800 
 41 H       13.1740     1.5870     0.8610 H     1 <1>   0.0800 
 42 H       13.9200     0.0570     1.2030 H     1 <1>   0.0800 
 43 H       12.5910    -0.1270    -2.3030 H     1 <1>   0.0800 
 44 H       14.0590    -0.0620    -1.3450 H     1 <1>   0.0800 
 45 H       13.0810     1.3590    -1.5540 H     1 <1>   0.0800 
 46 H       11.5820    -1.3260     2.6930 H     1 <1>   0.0800 
 47 H       12.7590    -2.5580     2.2840 H     1 <1>   0.0800 
 48 H       11.1440    -2.9850     2.7530 H     1 <1>   0.0800 
 49 H       10.9920    -3.7290    -0.8120 H     1 <1>   0.0800 
 50 H       10.5760    -4.2800     0.7790 H     1 <1>   0.0800 
 51 H       12.2510    -4.1330     0.3390 H     1 <1>   0.0800 
@<TRIPOS>BOND
  1   1   2  1   
  2   2   3  ar  
  3   2   4  ar  
  4   3   5  ar  
  5   3  24  1   
  6   4   6  ar  
  7   4  25  1   
  8   5   7  1   
  9   5   8  ar  
 10   6   8  ar  
 11   6  26  1   
 12   7   9  1   
 13   8  27  1   
 14   9  10  1   
 15   9  11  1   
 16   9  28  1   
 17  10  12  2   
 18  10  13  am  
 19  11  29  1   
 20  11  30  1   
 21  11  31  1   
 22  13  14  1   
 23  13  32  1   
 24  14  15  1   
 25  14  16  1   
 26  14  33  1   
 27  15  17  1   
 28  15  34  1   
 29  15  35  1   
 30  16  18  1   
 31  16  36  1   
 32  16  37  1   
 33  17  19  1   
 34  17  20  1   
 35  17  21  1   
 36  18  19  1   
 37  18  22  1   
 38  18  23  1   
 39  19  38  1   
 40  19  39  1   
 41  20  40  1   
 42  20  41  1   
 43  20  42  1   
 44  21  43  1   
 45  21  44  1   
 46  21  45  1   
 47  22  46  1   
 48  22  47  1   
 49  22  48  1   
 50  23  49  1   
 51  23  50  1   
 52  23  51  1   
@<TRIPOS>SUBSTRUCTURE
  1 ****  13 GROUP 4 **** **** 0

# MOE 2024.06 (io_trps.svl 2023.06)
