@<TRIPOS>MOLECULE
NONAME
53 56 1 0 0 
SMALL
USER_CHARGES


@<TRIPOS>ATOM
  1 O       -0.7700    -0.5100    -0.9580 O.2   1 <1>  -0.5740 
  2 C       -1.8350    -1.0800    -0.9130 C.2   1 <1>   0.6860 
  3 N       -2.9730    -0.4810    -0.3910 N.am  1 <1>  -0.4410 
  4 N       -1.9140    -2.3530    -1.3970 N.am  1 <1>  -0.4950 
  5 C       -4.1340    -1.2370    -0.3500 C.2   1 <1>   0.4210 
  6 C       -2.9210     0.9120     0.1440 C.3   1 <1>   0.0520 
  7 C       -3.0610    -3.0910    -1.4060 C.2   1 <1>   0.6990 
  8 N       -5.3490    -0.8670     0.1390 N.pl3 1 <1>  -0.7040 
  9 C       -4.2260    -2.5050    -0.8060 C.2   1 <1>   0.2710 
 10 O       -3.0570    -4.1750    -1.9530 O.2   1 <1>  -0.5740 
 11 C       -6.1950    -1.8920     0.0000 C.cat 1 <1>   1.0690 
 12 N       -5.5470    -2.9280    -0.5480 N.pl3 1 <1>  -0.7670 
 13 N       -7.4990    -1.8310     0.3870 N.pl3 1 <1>  -0.5960 
 14 C       -5.8370    -4.3920    -0.4840 C.3   1 <1>   0.4930 
 15 C       -7.9800    -0.9430     1.5080 C.3   1 <1>   0.1610 
 16 C       -8.5860    -2.6760    -0.2230 C.3   1 <1>   0.1610 
 17 C       -5.1390    -5.0150     0.7260 C.ar  1 <1>  -0.1510 
 18 C       -9.2720    -0.1680     1.1600 C.3   1 <1>   0.3370 
 19 C       -9.8740    -1.8780    -0.5380 C.3   1 <1>   0.3370 
 20 C       -4.4550    -6.2260     0.6210 C.ar  1 <1>  -0.1510 
 21 C       -5.1910    -4.3800     1.9650 C.ar  1 <1>  -0.1570 
 22 N      -10.3490    -1.0690     0.6340 N.4   1 <1>  -0.9610 
 23 C       -3.8100    -6.7470     1.7320 C.ar  1 <1>  -0.1570 
 24 C       -4.3860    -7.0370    -0.6700 C.3   1 <1>  -0.1040 
 25 C       -4.5480    -4.9120     3.0670 C.ar  1 <1>  -0.1570 
 26 C      -11.5680    -0.2780     0.2680 C.3   1 <1>   0.2570 
 27 C       -3.8500    -6.0950     2.9480 C.ar  1 <1>  -0.1570 
 28 H       -1.0680    -2.7570    -1.7960 H     1 <1>   0.3640 
 29 H       -2.0230     1.4110    -0.1790 H     1 <1>   0.0720 
 30 H       -2.9280     0.8890     1.2200 H     1 <1>   0.0720 
 31 H       -3.7620     1.4790    -0.2120 H     1 <1>   0.0720 
 32 H       -5.5550     0.0510     0.5170 H     1 <1>   0.4450 
 33 H       -5.5000    -4.8460    -1.3990 H     1 <1>   0.0720 
 34 H       -6.8870    -4.5860    -0.3980 H     1 <1>   0.0720 
 35 H       -7.2200    -0.2360     1.7910 H     1 <1>   0.0720 
 36 H       -8.1740    -1.5560     2.3720 H     1 <1>   0.0720 
 37 H       -8.8290    -3.4820     0.4500 H     1 <1>   0.0720 
 38 H       -8.2420    -3.1070    -1.1480 H     1 <1>   0.0720 
 39 H       -9.0420     0.5830     0.4210 H     1 <1>   0.0720 
 40 H       -9.6270     0.3420     2.0420 H     1 <1>   0.0720 
 41 H      -10.6480    -2.5640    -0.8420 H     1 <1>   0.0720 
 42 H       -9.6790    -1.2200    -1.3700 H     1 <1>   0.0720 
 43 H       -5.7320    -3.4670     2.1100 H     1 <1>   0.1430 
 44 H      -10.6280    -1.7200     1.3870 H     1 <1>   0.4450 
 45 H       -3.2680    -7.6750     1.6620 H     1 <1>   0.1430 
 46 H       -3.7360    -6.5630    -1.3810 H     1 <1>   0.0720 
 47 H       -5.3630    -7.1540    -1.1010 H     1 <1>   0.0720 
 48 H       -3.9990    -8.0230    -0.4800 H     1 <1>   0.0720 
 49 H       -4.5880    -4.4130     4.0210 H     1 <1>   0.1430 
 50 H      -11.3400     0.4230    -0.5200 H     1 <1>   0.0720 
 51 H      -11.9300     0.2700     1.1230 H     1 <1>   0.0720 
 52 H      -12.3530    -0.9350    -0.0730 H     1 <1>   0.0720 
 53 H       -3.3430    -6.5140     3.8010 H     1 <1>   0.1430 
@<TRIPOS>BOND
  1   1   2  2   
  2   2   3  am  
  3   2   4  am  
  4   3   5  1   
  5   3   6  1   
  6   4   7  am  
  7   4  28  1   
  8   5   8  1   
  9   5   9  2   
 10   6  29  1   
 11   6  30  1   
 12   6  31  1   
 13   7   9  1   
 14   7  10  2   
 15   8  11  ar  
 16   8  32  1   
 17   9  12  1   
 18  11  12  ar  
 19  11  13  ar  
 20  12  14  1   
 21  13  15  1   
 22  13  16  1   
 23  14  17  1   
 24  14  33  1   
 25  14  34  1   
 26  15  18  1   
 27  15  35  1   
 28  15  36  1   
 29  16  19  1   
 30  16  37  1   
 31  16  38  1   
 32  17  20  ar  
 33  17  21  ar  
 34  18  22  1   
 35  18  39  1   
 36  18  40  1   
 37  19  22  1   
 38  19  41  1   
 39  19  42  1   
 40  20  23  ar  
 41  20  24  1   
 42  21  25  ar  
 43  21  43  1   
 44  22  26  1   
 45  22  44  1   
 46  23  27  ar  
 47  23  45  1   
 48  24  46  1   
 49  24  47  1   
 50  24  48  1   
 51  25  27  ar  
 52  25  49  1   
 53  26  50  1   
 54  26  51  1   
 55  26  52  1   
 56  27  53  1   
@<TRIPOS>SUBSTRUCTURE
  1 ****  12 GROUP 4 **** **** 0

# MOE 2024.06 (io_trps.svl 2023.06)
