@<TRIPOS>MOLECULE
NONAME
46 46 1 0 0 
SMALL
USER_CHARGES


@<TRIPOS>ATOM
  1 S       -0.0030    -0.3900     0.0050 S.3   1 <1>  -0.3320 
  2 C       -1.6830    -1.0000    -0.2060 C.ar  1 <1>   0.1020 
  3 C        0.9750    -1.7570     0.7740 C.3   1 <1>  -0.0100 
  4 C       -2.0740    -2.2590     0.2170 C.ar  1 <1>  -0.1500 
  5 C       -2.5840    -0.1490    -0.8180 C.ar  1 <1>  -0.1500 
  6 C       -3.3850    -2.6630     0.0290 C.ar  1 <1>  -0.1500 
  7 C       -3.8930    -0.5550    -1.0060 C.ar  1 <1>  -0.1500 
  8 C       -4.3020    -1.8100    -0.5750 C.ar  1 <1>  -0.1430 
  9 C       -5.7420    -2.2430    -0.7580 C.3   1 <1>   0.4860 
 10 N       -6.4330    -2.1470     0.5690 N.4   1 <1>  -0.9590 
 11 C       -7.7600    -2.8650     0.6380 C.3   1 <1>   0.3430 
 12 C       -6.4720    -0.7310     1.0760 C.3   1 <1>   0.2630 
 13 C       -8.8990    -2.2550    -0.2330 C.3   1 <1>   0.3430 
 14 N      -10.2530    -2.9040    -0.0640 N.4   1 <1>  -0.9590 
 15 C      -10.3090    -4.3270    -0.5210 C.3   1 <1>   0.3430 
 16 C      -11.2910    -2.1000    -0.7780 C.3   1 <1>   0.3430 
 17 C      -10.2080    -5.2430     0.6920 C.3   1 <1>  -0.2400 
 18 C      -12.6610    -2.3960    -0.1780 C.3   1 <1>  -0.2400 
 19 H        1.9860    -1.4080     0.8830 H     1 <1>   0.0800 
 20 H        0.9350    -2.6060     0.1160 H     1 <1>   0.0800 
 21 H        0.5430    -1.9780     1.7330 H     1 <1>   0.0800 
 22 H       -1.3750    -2.9250     0.6860 H     1 <1>   0.1500 
 23 H       -2.2520     0.8210    -1.1460 H     1 <1>   0.1500 
 24 H       -3.6670    -3.6490     0.3570 H     1 <1>   0.1500 
 25 H       -4.5740     0.1230    -1.4930 H     1 <1>   0.1500 
 26 H       -5.7560    -3.2590    -1.1180 H     1 <1>   0.0800 
 27 H       -6.2230    -1.6100    -1.4860 H     1 <1>   0.0800 
 28 H       -5.7820    -2.6350     1.2090 H     1 <1>   0.4500 
 29 H       -8.0900    -2.8690     1.6650 H     1 <1>   0.0800 
 30 H       -7.6130    -3.8900     0.3390 H     1 <1>   0.0800 
 31 H       -7.0470    -0.1010     0.4170 H     1 <1>   0.0800 
 32 H       -5.4720    -0.3290     1.1400 H     1 <1>   0.0800 
 33 H       -6.9070    -0.6930     2.0630 H     1 <1>   0.0800 
 34 H       -8.6140    -2.3150    -1.2700 H     1 <1>   0.0800 
 35 H       -8.9910    -1.2130     0.0240 H     1 <1>   0.0800 
 36 H      -10.5420    -2.8930     0.9270 H     1 <1>   0.4500 
 37 H       -9.5190    -4.5380    -1.2240 H     1 <1>   0.0800 
 38 H      -11.2480    -4.5220    -1.0170 H     1 <1>   0.0800 
 39 H      -11.2900    -2.3290    -1.8330 H     1 <1>   0.0800 
 40 H      -11.0890    -1.0470    -0.6610 H     1 <1>   0.0800 
 41 H       -9.2740    -5.1360     1.2090 H     1 <1>   0.0800 
 42 H      -10.2830    -6.2650     0.3630 H     1 <1>   0.0800 
 43 H      -11.0230    -5.0650     1.3720 H     1 <1>   0.0800 
 44 H      -12.9490    -3.4220    -0.3200 H     1 <1>   0.0800 
 45 H      -13.3980    -1.7840    -0.6700 H     1 <1>   0.0800 
 46 H      -12.6850    -2.1550     0.8700 H     1 <1>   0.0800 
@<TRIPOS>BOND
  1   1   2  1   
  2   1   3  1   
  3   2   4  ar  
  4   2   5  ar  
  5   3  19  1   
  6   3  20  1   
  7   3  21  1   
  8   4   6  ar  
  9   4  22  1   
 10   5   7  ar  
 11   5  23  1   
 12   6   8  ar  
 13   6  24  1   
 14   7   8  ar  
 15   7  25  1   
 16   8   9  1   
 17   9  10  1   
 18   9  26  1   
 19   9  27  1   
 20  10  11  1   
 21  10  12  1   
 22  10  28  1   
 23  11  13  1   
 24  11  29  1   
 25  11  30  1   
 26  12  31  1   
 27  12  32  1   
 28  12  33  1   
 29  13  14  1   
 30  13  34  1   
 31  13  35  1   
 32  14  15  1   
 33  14  16  1   
 34  14  36  1   
 35  15  17  1   
 36  15  37  1   
 37  15  38  1   
 38  16  18  1   
 39  16  39  1   
 40  16  40  1   
 41  17  41  1   
 42  17  42  1   
 43  17  43  1   
 44  18  44  1   
 45  18  45  1   
 46  18  46  1   
@<TRIPOS>SUBSTRUCTURE
  1 ****   9 GROUP 4 **** **** 0

# MOE 2024.06 (io_trps.svl 2023.06)
