@<TRIPOS>MOLECULE
NONAME
53 56 1 0 0 
SMALL
USER_CHARGES


@<TRIPOS>ATOM
  1 O        0.2920    -0.8810     1.6590 O.2   1 <1>  -0.5700 
  2 C        0.3120    -1.8540     0.9270 C.2   1 <1>   0.5440 
  3 N        1.5110    -2.2290     0.3550 N.am  1 <1>  -0.6600 
  4 C       -0.9160    -2.5770     0.6630 C.ar  1 <1>   0.0860 
  5 C        2.8160    -1.6350     0.7790 C.3   1 <1>   0.1400 
  6 C        1.6170    -3.0440    -0.8920 C.3   1 <1>   0.1400 
  7 C       -2.0770    -1.9090     0.2710 C.ar  1 <1>  -0.1500 
  8 C       -0.9880    -3.9660     0.7840 C.ar  1 <1>  -0.1500 
  9 C        3.5040    -0.9420    -0.4070 C.3   1 <1>   0.1200 
 10 C        2.3840    -2.2730    -1.9800 C.3   1 <1>   0.1200 
 11 C       -3.2400    -2.5980    -0.0150 C.ar  1 <1>  -0.1500 
 12 C       -2.1500    -4.6560     0.4970 C.ar  1 <1>  -0.1500 
 13 O        3.6150    -1.8180    -1.4950 O.3   1 <1>  -0.5600 
 14 C       -3.2950    -3.9820     0.0870 C.ar  1 <1>   0.1170 
 15 N       -4.4920    -4.6150    -0.2430 N.am  1 <1>  -0.5470 
 16 C       -5.0560    -5.7930     0.1610 C.2   1 <1>   0.5690 
 17 O       -4.4420    -6.5650     0.8630 O.2   1 <1>  -0.5700 
 18 C       -6.4490    -6.2130    -0.3770 C.3   1 <1>  -0.0190 
 19 C       -7.6030    -5.1480    -0.5130 C.3   1 <1>  -0.1860 
 20 C       -7.0180    -7.4530     0.3790 C.3   1 <1>  -0.0800 
 21 C       -7.2130    -3.6800    -0.4050 C.2   1 <1>   0.9060 
 22 C       -8.8220    -5.5470     0.3600 C.3   1 <1>  -0.0800 
 23 C       -8.3110    -7.9310    -0.3180 C.3   1 <1>  -0.1600 
 24 C       -7.3920    -7.0440     1.8220 C.3   1 <1>  -0.1600 
 25 O       -6.5420    -3.2100    -1.3330 O.co2 1 <1>  -0.9000 
 26 O       -7.5220    -2.9970     0.5720 O.co2 1 <1>  -0.9000 
 27 C       -9.4110    -6.8500    -0.2180 C.3   1 <1>  -0.1600 
 28 C       -8.3510    -5.8360     1.8000 C.3   1 <1>  -0.1600 
 29 H        3.4540    -2.4170     1.1500 H     1 <1>   0.0800 
 30 H        2.6740    -0.9240     1.5730 H     1 <1>   0.0800 
 31 H        0.6420    -3.2940    -1.2710 H     1 <1>   0.0800 
 32 H        2.1370    -3.9600    -0.6740 H     1 <1>   0.0800 
 33 H       -2.0600    -0.8360     0.1940 H     1 <1>   0.1500 
 34 H       -0.1170    -4.5070     1.1090 H     1 <1>   0.1500 
 35 H        4.4960    -0.6320    -0.1320 H     1 <1>   0.0800 
 36 H        2.9430    -0.0760    -0.7140 H     1 <1>   0.0800 
 37 H        1.8110    -1.4250    -2.3160 H     1 <1>   0.0800 
 38 H        2.5790    -2.9130    -2.8220 H     1 <1>   0.0800 
 39 H       -4.1300    -2.0670    -0.3160 H     1 <1>   0.1500 
 40 H       -2.1740    -5.7260     0.5920 H     1 <1>   0.1500 
 41 H       -5.1490    -4.0000    -0.7590 H     1 <1>   0.3700 
 42 H       -6.2370    -6.5410    -1.3780 H     1 <1>   0.0800 
 43 H       -7.9460    -5.2170    -1.5290 H     1 <1>   0.0800 
 44 H       -6.2980    -8.2530     0.3920 H     1 <1>   0.0800 
 45 H       -9.5610    -4.7620     0.3560 H     1 <1>   0.0800 
 46 H       -8.6580    -8.8410     0.1400 H     1 <1>   0.0800 
 47 H       -8.1030    -8.1430    -1.3520 H     1 <1>   0.0800 
 48 H       -6.5110    -6.7900     2.3850 H     1 <1>   0.0800 
 49 H       -7.8640    -7.8730     2.3180 H     1 <1>   0.0800 
 50 H       -9.8300    -6.6630    -1.1910 H     1 <1>   0.0800 
 51 H      -10.2050    -7.1940     0.4210 H     1 <1>   0.0800 
 52 H       -9.1990    -6.0300     2.4320 H     1 <1>   0.0800 
 53 H       -7.8480    -4.9680     2.1900 H     1 <1>   0.0800 
@<TRIPOS>BOND
  1   1   2  2   
  2   2   3  am  
  3   2   4  1   
  4   3   5  1   
  5   3   6  1   
  6   4   7  ar  
  7   4   8  ar  
  8   5   9  1   
  9   5  29  1   
 10   5  30  1   
 11   6  10  1   
 12   6  31  1   
 13   6  32  1   
 14   7  11  ar  
 15   7  33  1   
 16   8  12  ar  
 17   8  34  1   
 18   9  13  1   
 19   9  35  1   
 20   9  36  1   
 21  10  13  1   
 22  10  37  1   
 23  10  38  1   
 24  11  14  ar  
 25  11  39  1   
 26  12  14  ar  
 27  12  40  1   
 28  14  15  1   
 29  15  16  am  
 30  15  41  1   
 31  16  17  2   
 32  16  18  1   
 33  18  19  1   
 34  18  20  1   
 35  18  42  1   
 36  19  21  1   
 37  19  22  1   
 38  19  43  1   
 39  20  23  1   
 40  20  24  1   
 41  20  44  1   
 42  21  25  ar  
 43  21  26  ar  
 44  22  27  1   
 45  22  28  1   
 46  22  45  1   
 47  23  27  1   
 48  23  46  1   
 49  23  47  1   
 50  24  28  1   
 51  24  48  1   
 52  24  49  1   
 53  27  50  1   
 54  27  51  1   
 55  28  52  1   
 56  28  53  1   
@<TRIPOS>SUBSTRUCTURE
  1 ****  14 GROUP 4 **** **** 0

# MOE 2024.06 (io_trps.svl 2023.06)
