@<TRIPOS>MOLECULE
NONAME
57 60 1 0 0 
SMALL
USER_CHARGES


@<TRIPOS>ATOM
  1 O       -1.8640     5.5690     1.0570 O.3   1 <1>  -0.2860 
  2 C       -2.5380     4.9050     0.1350 C.2   1 <1>  -0.0470 
  3 C       -1.6650     6.7920     0.6080 C.2   1 <1>  -0.0170 
  4 C       -2.7810     5.7030    -0.9310 C.2   1 <1>  -0.1560 
  5 C       -2.8860     3.4570     0.4330 C.3   1 <1>   0.3750 
  6 C       -2.2070     6.9410    -0.6180 C.2   1 <1>  -0.1560 
  7 O       -1.6810     2.7940     0.6360 O.3   1 <1>  -0.6830 
  8 C       -3.6870     2.7880    -0.7060 C.3   1 <1>   0.3490 
  9 N       -4.1440     1.3900    -0.4080 N.pl3 1 <1>  -0.7670 
 10 C       -3.4100     0.2750    -0.4070 C.cat 1 <1>   1.0690 
 11 C       -5.4710     1.0120    -0.2600 C.ar  1 <1>   0.3040 
 12 N       -2.1050     0.2920    -0.5050 N.pl3 1 <1>  -0.8390 
 13 N       -4.1820    -0.8120    -0.2910 N.pl3 1 <1>  -0.7670 
 14 C       -5.4940    -0.3700    -0.1920 C.ar  1 <1>   0.3040 
 15 C       -6.6520     1.7450    -0.1810 C.ar  1 <1>  -0.1160 
 16 C       -3.8440    -2.2620    -0.2520 C.3   1 <1>   0.4930 
 17 C       -6.6980    -1.0540    -0.0490 C.ar  1 <1>  -0.1160 
 18 C       -7.8470     1.0670    -0.0370 C.ar  1 <1>  -0.1560 
 19 C       -2.3450    -2.4910    -0.2050 C.ar  1 <1>  -0.1500 
 20 C       -7.8700    -0.3270     0.0270 C.ar  1 <1>  -0.1560 
 21 C       -1.6290    -2.6950    -1.3720 C.ar  1 <1>  -0.1560 
 22 C       -1.6680    -2.4390     1.0020 C.ar  1 <1>  -0.1560 
 23 C       -0.2520    -2.8180    -1.3350 C.ar  1 <1>  -0.1560 
 24 C       -0.2910    -2.5620     1.0310 C.ar  1 <1>  -0.1560 
 25 C        0.4460    -2.7450    -0.1330 C.ar  1 <1>  -0.1500 
 26 C        1.9840    -2.8670    -0.0440 C.3   1 <1>   0.1370 
 27 C        2.5650    -1.5920     0.5870 C.3   1 <1>  -0.2460 
 28 C        2.3550    -4.0790     0.8230 C.3   1 <1>  -0.2460 
 29 C        2.6590    -3.0520    -1.4140 C.3   1 <1>  -0.2460 
 30 H       -1.1290     7.4930     1.2250 H     1 <1>   0.1440 
 31 H       -3.2940     5.4960    -1.8540 H     1 <1>   0.1440 
 32 H       -3.4490     3.4170     1.3500 H     1 <1>   0.0730 
 33 H       -2.2140     7.8150    -1.2470 H     1 <1>   0.1440 
 34 H       -1.0980     3.4160     1.1310 H     1 <1>   0.3950 
 35 H       -3.0820     2.7830    -1.5970 H     1 <1>   0.0730 
 36 H       -4.5460     3.3990    -0.9140 H     1 <1>   0.0730 
 37 H       -1.5540    -0.5720    -0.4530 H     1 <1>   0.4450 
 38 H       -1.5910     1.1580    -0.3060 H     1 <1>   0.4450 
 39 H       -6.6390     2.8180    -0.2270 H     1 <1>   0.1440 
 40 H       -4.2550    -2.7450    -1.1230 H     1 <1>   0.0730 
 41 H       -4.2940    -2.7080     0.6180 H     1 <1>   0.0730 
 42 H       -6.7200    -2.1270     0.0020 H     1 <1>   0.1440 
 43 H       -8.7750     1.6130     0.0260 H     1 <1>   0.1440 
 44 H       -8.8160    -0.8330     0.1390 H     1 <1>   0.1440 
 45 H       -2.1290    -2.7540    -2.3250 H     1 <1>   0.1440 
 46 H       -2.1980    -2.2940     1.9280 H     1 <1>   0.1440 
 47 H        0.2590    -2.9740    -2.2670 H     1 <1>   0.1440 
 48 H        0.2070    -2.5160     1.9830 H     1 <1>   0.1440 
 49 H        2.2050    -1.4540     1.5890 H     1 <1>   0.0730 
 50 H        2.2890    -0.7320     0.0040 H     1 <1>   0.0730 
 51 H        3.6390    -1.6460     0.6260 H     1 <1>   0.0730 
 52 H        1.9920    -3.9650     1.8270 H     1 <1>   0.0730 
 53 H        3.4230    -4.2020     0.8670 H     1 <1>   0.0730 
 54 H        1.9250    -4.9730     0.4080 H     1 <1>   0.0730 
 55 H        2.4510    -2.2150    -2.0560 H     1 <1>   0.0730 
 56 H        2.3120    -3.9540    -1.8870 H     1 <1>   0.0730 
 57 H        3.7260    -3.1270    -1.3020 H     1 <1>   0.0730 
@<TRIPOS>BOND
  1   1   2  1   
  2   1   3  1   
  3   2   4  2   
  4   2   5  1   
  5   3   6  2   
  6   3  30  1   
  7   4   6  1   
  8   4  31  1   
  9   5   7  1   
 10   5   8  1   
 11   5  32  1   
 12   6  33  1   
 13   7  34  1   
 14   8   9  1   
 15   8  35  1   
 16   8  36  1   
 17   9  10  ar  
 18   9  11  1   
 19  10  12  ar  
 20  10  13  ar  
 21  11  14  ar  
 22  11  15  ar  
 23  12  37  1   
 24  12  38  1   
 25  13  14  1   
 26  13  16  1   
 27  14  17  ar  
 28  15  18  ar  
 29  15  39  1   
 30  16  19  1   
 31  16  40  1   
 32  16  41  1   
 33  17  20  ar  
 34  17  42  1   
 35  18  20  ar  
 36  18  43  1   
 37  19  21  ar  
 38  19  22  ar  
 39  20  44  1   
 40  21  23  ar  
 41  21  45  1   
 42  22  24  ar  
 43  22  46  1   
 44  23  25  ar  
 45  23  47  1   
 46  24  25  ar  
 47  24  48  1   
 48  25  26  1   
 49  26  27  1   
 50  26  28  1   
 51  26  29  1   
 52  27  49  1   
 53  27  50  1   
 54  27  51  1   
 55  28  52  1   
 56  28  53  1   
 57  28  54  1   
 58  29  55  1   
 59  29  56  1   
 60  29  57  1   
@<TRIPOS>SUBSTRUCTURE
  1 ****  12 GROUP 4 **** **** 0

# MOE 2024.06 (io_trps.svl 2023.06)
