@<TRIPOS>MOLECULE
NONAME
48 49 1 0 0 
SMALL
USER_CHARGES


@<TRIPOS>ATOM
  1 O        1.1200    -0.0990     0.3850 O.3   1 <1>  -0.5600 
  2 C        1.6090    -0.6500    -0.8130 C.3   1 <1>   0.5600 
  3 C        0.4860     1.1370     0.2610 C.3   1 <1>   0.1200 
  4 O        2.0340     0.3750    -1.6720 O.3   1 <1>  -0.5600 
  5 C        2.7880    -1.5720    -0.4820 C.3   1 <1>  -0.1600 
  6 C        0.5040    -1.4410    -1.5210 C.3   1 <1>  -0.1600 
  7 C        1.5200     2.1950    -0.1900 C.3   1 <1>   0.0000 
  8 C        2.5970     1.4880    -1.0440 C.3   1 <1>   0.1200 
  9 C        2.3560    -2.8160     0.3160 C.3   1 <1>  -0.1600 
 10 C        0.0580    -2.6760    -0.7190 C.3   1 <1>  -0.1600 
 11 C        2.1650     2.8360     1.0630 C.3   1 <1>  -0.1600 
 12 C        0.7910     3.2580    -1.0350 C.3   1 <1>  -0.2400 
 13 C        1.2450    -3.6210    -0.4040 C.3   1 <1>  -0.0800 
 14 C        3.2590     3.8810     0.7820 C.3   1 <1>  -0.2400 
 15 C        0.8280    -4.9340     0.3430 C.3   1 <1>   0.0000 
 16 C        0.2180    -4.6650     1.7300 C.3   1 <1>  -0.2400 
 17 C       -0.2040    -5.7240    -0.4830 C.3   1 <1>  -0.2400 
 18 C        2.0450    -5.8600     0.5330 C.3   1 <1>  -0.2400 
 19 H        0.0530     1.3890     1.2130 H     1 <1>   0.0800 
 20 H       -0.3080     1.0360    -0.4580 H     1 <1>   0.0800 
 21 H        3.5220    -1.0290     0.0810 H     1 <1>   0.0800 
 22 H        3.2380    -1.8910    -1.4050 H     1 <1>   0.0800 
 23 H        0.8830    -1.7700    -2.4720 H     1 <1>   0.0800 
 24 H       -0.3390    -0.8040    -1.7090 H     1 <1>   0.0800 
 25 H        2.9850     2.1420    -1.8040 H     1 <1>   0.0800 
 26 H        3.4140     1.1490    -0.4320 H     1 <1>   0.0800 
 27 H        2.0050    -2.4940     1.2800 H     1 <1>   0.0800 
 28 H        3.2280    -3.4250     0.4670 H     1 <1>   0.0800 
 29 H       -0.6910    -3.1860    -1.2950 H     1 <1>   0.0800 
 30 H       -0.3970    -2.3420     0.1970 H     1 <1>   0.0800 
 31 H        2.5940     2.0510     1.6650 H     1 <1>   0.0800 
 32 H        1.3970     3.3010     1.6570 H     1 <1>   0.0800 
 33 H        0.3080     2.7930    -1.8770 H     1 <1>   0.0800 
 34 H        1.4790     3.9890    -1.4170 H     1 <1>   0.0800 
 35 H        0.0450     3.7620    -0.4470 H     1 <1>   0.0800 
 36 H        1.6540    -3.9270    -1.3520 H     1 <1>   0.0800 
 37 H        4.0590     3.4610     0.2000 H     1 <1>   0.0800 
 38 H        3.6710     4.2280     1.7130 H     1 <1>   0.0800 
 39 H        2.8560     4.7310     0.2620 H     1 <1>   0.0800 
 40 H       -0.0530    -5.5910     2.2050 H     1 <1>   0.0800 
 41 H        0.9170    -4.1600     2.3700 H     1 <1>   0.0800 
 42 H       -0.6690    -4.0640     1.6540 H     1 <1>   0.0800 
 43 H       -1.1450    -5.2070    -0.5310 H     1 <1>   0.0800 
 44 H       -0.3920    -6.6850    -0.0390 H     1 <1>   0.0800 
 45 H        0.1540    -5.8820    -1.4850 H     1 <1>   0.0800 
 46 H        2.7490    -5.4420     1.2280 H     1 <1>   0.0800 
 47 H        2.5430    -6.0260    -0.4060 H     1 <1>   0.0800 
 48 H        1.7390    -6.8140     0.9240 H     1 <1>   0.0800 
@<TRIPOS>BOND
  1   1   2  1   
  2   1   3  1   
  3   2   4  1   
  4   2   5  1   
  5   2   6  1   
  6   3   7  1   
  7   3  19  1   
  8   3  20  1   
  9   4   8  1   
 10   5   9  1   
 11   5  21  1   
 12   5  22  1   
 13   6  10  1   
 14   6  23  1   
 15   6  24  1   
 16   7   8  1   
 17   7  11  1   
 18   7  12  1   
 19   8  25  1   
 20   8  26  1   
 21   9  13  1   
 22   9  27  1   
 23   9  28  1   
 24  10  13  1   
 25  10  29  1   
 26  10  30  1   
 27  11  14  1   
 28  11  31  1   
 29  11  32  1   
 30  12  33  1   
 31  12  34  1   
 32  12  35  1   
 33  13  15  1   
 34  13  36  1   
 35  14  37  1   
 36  14  38  1   
 37  14  39  1   
 38  15  16  1   
 39  15  17  1   
 40  15  18  1   
 41  16  40  1   
 42  16  41  1   
 43  16  42  1   
 44  17  43  1   
 45  17  44  1   
 46  17  45  1   
 47  18  46  1   
 48  18  47  1   
 49  18  48  1   
@<TRIPOS>SUBSTRUCTURE
  1 ****   2 GROUP 4 **** **** 0

# MOE 2024.06 (io_trps.svl 2023.06)
