@<TRIPOS>MOLECULE
NONAME
45 47 1 0 0 
SMALL
USER_CHARGES


@<TRIPOS>ATOM
  1 S       -0.2110     0.2890     1.0270 S.o2  1 <1>   1.5010 
  2 O       -0.8930     0.9580     2.1130 O.2   1 <1>  -0.6500 
  3 O       -0.7110    -0.9820     0.5510 O.2   1 <1>  -0.6500 
  4 N       -0.2120     1.3520    -0.2930 N.am  1 <1>  -0.8490 
  5 C        1.5470     0.1190     1.4250 C.2   1 <1>  -0.0630 
  6 C       -1.4860     1.2990    -1.0280 C.3   1 <1>   0.1960 
  7 C        0.0690     2.7440     0.0950 C.3   1 <1>   0.1960 
  8 C        2.0610    -0.0390     2.6630 C.2   1 <1>  -0.1100 
  9 C        2.5650     0.1100     0.4180 C.2   1 <1>  -0.1500 
 10 C       -1.4820     2.2730    -2.2200 C.3   1 <1>   0.1200 
 11 C        0.0450     3.6750    -1.1320 C.3   1 <1>   0.1200 
 12 S        3.8020    -0.1890     2.6190 S.3   1 <1>  -0.0800 
 13 C        3.8390    -0.0420     0.8620 C.2   1 <1>  -0.0450 
 14 O       -1.1820     3.5740    -1.7960 O.3   1 <1>  -0.5600 
 15 C        5.0980    -0.0950     0.1630 C.2   1 <1>   0.7150 
 16 O        5.1430     0.0960    -1.0370 O.2   1 <1>  -0.5700 
 17 N        6.2580    -0.3530     0.8350 N.am  1 <1>  -0.7300 
 18 C        7.5990    -0.4940     0.2170 C.3   1 <1>   0.1400 
 19 C        8.3810     0.8110     0.3540 C.3   1 <1>  -0.0170 
 20 C        9.7710     0.6540    -0.2410 C.ar  1 <1>  -0.1430 
 21 C        9.9610     0.7980    -1.6070 C.ar  1 <1>  -0.1500 
 22 C       10.8570     0.3600     0.5690 C.ar  1 <1>  -0.1500 
 23 C       11.2220     0.6500    -2.1570 C.ar  1 <1>  -0.1500 
 24 C       12.1190     0.2130     0.0200 C.ar  1 <1>  -0.1500 
 25 C       12.3030     0.3580    -1.3430 C.ar  1 <1>  -0.1500 
 26 H       -2.3030     1.5480    -0.3700 H     1 <1>   0.0800 
 27 H       -1.6500     0.3020    -1.3990 H     1 <1>   0.0800 
 28 H        1.0380     2.8030     0.5610 H     1 <1>   0.0800 
 29 H       -0.6650     3.0920     0.8040 H     1 <1>   0.0800 
 30 H        1.5780    -0.0850     3.6240 H     1 <1>   0.1500 
 31 H        2.3050     0.2160    -0.6230 H     1 <1>   0.1500 
 32 H       -2.4500     2.2950    -2.6880 H     1 <1>   0.0800 
 33 H       -0.7510     1.9720    -2.9500 H     1 <1>   0.0800 
 34 H        0.8330     3.4170    -1.8180 H     1 <1>   0.0800 
 35 H        0.1700     4.6980    -0.8260 H     1 <1>   0.0800 
 36 H        6.2050    -0.4980     1.8440 H     1 <1>   0.3700 
 37 H        7.4970    -0.7430    -0.8270 H     1 <1>   0.0800 
 38 H        8.1340    -1.2950     0.6990 H     1 <1>   0.0800 
 39 H        8.4610     1.0820     1.3920 H     1 <1>   0.0800 
 40 H        7.8590     1.5970    -0.1630 H     1 <1>   0.0800 
 41 H        9.1260     1.0250    -2.2480 H     1 <1>   0.1500 
 42 H       10.7270     0.2460     1.6310 H     1 <1>   0.1500 
 43 H       11.3620     0.7640    -3.2180 H     1 <1>   0.1500 
 44 H       12.9590    -0.0140     0.6540 H     1 <1>   0.1500 
 45 H       13.2840     0.2430    -1.7710 H     1 <1>   0.1500 
@<TRIPOS>BOND
  1   1   2  2   
  2   1   3  2   
  3   1   4  am  
  4   1   5  1   
  5   4   6  1   
  6   4   7  1   
  7   5   8  2   
  8   5   9  1   
  9   6  10  1   
 10   6  26  1   
 11   6  27  1   
 12   7  11  1   
 13   7  28  1   
 14   7  29  1   
 15   8  12  1   
 16   8  30  1   
 17   9  13  2   
 18   9  31  1   
 19  10  14  1   
 20  10  32  1   
 21  10  33  1   
 22  11  14  1   
 23  11  34  1   
 24  11  35  1   
 25  12  13  1   
 26  13  15  1   
 27  15  16  2   
 28  15  17  am  
 29  17  18  1   
 30  17  36  1   
 31  18  19  1   
 32  18  37  1   
 33  18  38  1   
 34  19  20  1   
 35  19  39  1   
 36  19  40  1   
 37  20  21  ar  
 38  20  22  ar  
 39  21  23  ar  
 40  21  41  1   
 41  22  24  ar  
 42  22  42  1   
 43  23  25  ar  
 44  23  43  1   
 45  24  25  ar  
 46  24  44  1   
 47  25  45  1   
@<TRIPOS>SUBSTRUCTURE
  1 ****  15 GROUP 4 **** **** 0

# MOE 2024.06 (io_trps.svl 2023.06)
