@<TRIPOS>MOLECULE
NONAME
42 43 1 0 0 
SMALL
USER_CHARGES


@<TRIPOS>ATOM
  1 O       -0.5930     0.6640    -0.4640 O.2   1 <1>  -0.5700 
  2 C       -0.7620    -0.5260    -0.3050 C.2   1 <1>   0.5440 
  3 N       -2.0540    -0.9140    -0.2430 N.am  1 <1>  -0.7300 
  4 C        0.3480    -1.4580    -0.1880 C.ar  1 <1>   0.0860 
  5 C       -3.4160    -1.4470    -0.1570 C.3   1 <1>   0.2840 
  6 C        1.6680    -1.0110    -0.2590 C.ar  1 <1>  -0.1500 
  7 C        0.1500    -2.8280     0.0000 C.ar  1 <1>  -0.1500 
  8 C       -4.3720    -0.2850     0.0300 C.ar  1 <1>  -0.1440 
  9 C        2.7480    -1.8790    -0.1490 C.ar  1 <1>   0.0830 
 10 C        1.2100    -3.7080     0.1120 C.ar  1 <1>  -0.1500 
 11 C       -4.3560     0.4890     1.1740 C.ar  1 <1>  -0.1500 
 12 C       -5.3000     0.0660    -0.9300 C.ar  1 <1>  -0.1500 
 13 O        4.0420    -1.4520    -0.2170 O.3   1 <1>  -0.3630 
 14 C        2.5200    -3.2450     0.0390 C.ar  1 <1>   0.0830 
 15 C       -5.2460     1.5420     1.3010 C.ar  1 <1>   0.1600 
 16 C       -6.1470     1.1380    -0.7030 C.ar  1 <1>   0.1600 
 17 C        4.3690    -0.0970    -0.4110 C.3   1 <1>   0.1200 
 18 O        3.5960    -4.0700     0.1440 O.3   1 <1>  -0.3630 
 19 N       -6.1430     1.8820     0.3900 N.ar  1 <1>  -0.6200 
 20 C        5.8890     0.0200    -0.4410 C.3   1 <1>  -0.2400 
 21 C        3.4680    -5.4590     0.3310 C.3   1 <1>   0.1200 
 22 C        4.8710    -6.0550     0.4010 C.3   1 <1>  -0.2400 
 23 H       -2.3990     0.0460    -0.3780 H     1 <1>   0.3700 
 24 H       -3.4860    -2.1230     0.6780 H     1 <1>   0.0800 
 25 H       -3.6460    -1.9870    -1.0600 H     1 <1>   0.0800 
 26 H        1.8240     0.0410    -0.4030 H     1 <1>   0.1500 
 27 H       -0.8520    -3.2120     0.0590 H     1 <1>   0.1500 
 28 H        0.9970    -4.7500     0.2550 H     1 <1>   0.1500 
 29 H       -3.6570     0.2850     1.9660 H     1 <1>   0.1500 
 30 H       -5.3760    -0.4800    -1.8530 H     1 <1>   0.1500 
 31 H       -5.2190     2.1350     2.2000 H     1 <1>   0.1500 
 32 H       -6.8650     1.3980    -1.4620 H     1 <1>   0.1500 
 33 H        3.9600     0.4740     0.4050 H     1 <1>   0.0800 
 34 H        3.9440     0.2260    -1.3460 H     1 <1>   0.0800 
 35 H        6.3030    -0.3230     0.4900 H     1 <1>   0.0800 
 36 H        6.1740     1.0450    -0.5890 H     1 <1>   0.0800 
 37 H        6.2870    -0.5690    -1.2490 H     1 <1>   0.0800 
 38 H        2.9230    -5.8670    -0.5030 H     1 <1>   0.0800 
 39 H        2.9360    -5.6310     1.2510 H     1 <1>   0.0800 
 40 H        5.3990    -5.8590    -0.5150 H     1 <1>   0.0800 
 41 H        4.8110    -7.1180     0.5440 H     1 <1>   0.0800 
 42 H        5.4120    -5.6250     1.2250 H     1 <1>   0.0800 
@<TRIPOS>BOND
  1   1   2  2   
  2   2   3  am  
  3   2   4  1   
  4   3   5  1   
  5   3  23  1   
  6   4   6  ar  
  7   4   7  ar  
  8   5   8  1   
  9   5  24  1   
 10   5  25  1   
 11   6   9  ar  
 12   6  26  1   
 13   7  10  ar  
 14   7  27  1   
 15   8  11  ar  
 16   8  12  ar  
 17   9  13  1   
 18   9  14  ar  
 19  10  14  ar  
 20  10  28  1   
 21  11  15  ar  
 22  11  29  1   
 23  12  16  ar  
 24  12  30  1   
 25  13  17  1   
 26  14  18  1   
 27  15  19  ar  
 28  15  31  1   
 29  16  19  ar  
 30  16  32  1   
 31  17  20  1   
 32  17  33  1   
 33  17  34  1   
 34  18  21  1   
 35  20  35  1   
 36  20  36  1   
 37  20  37  1   
 38  21  22  1   
 39  21  38  1   
 40  21  39  1   
 41  22  40  1   
 42  22  41  1   
 43  22  42  1   
@<TRIPOS>SUBSTRUCTURE
  1 ****   4 GROUP 4 **** **** 0

# MOE 2024.06 (io_trps.svl 2023.06)
