@<TRIPOS>MOLECULE
NONAME
51 53 1 0 0 
SMALL
USER_CHARGES


@<TRIPOS>ATOM
  1 O       -0.1310     3.0060     0.1810 O.2   1 <1>  -0.5700 
  2 C       -0.1900     1.9910    -0.4740 C.2   1 <1>   0.5690 
  3 N       -1.3520     1.5410    -1.0200 N.am  1 <1>  -0.7300 
  4 C        1.1270     1.2270    -0.6680 C.3   1 <1>   0.4040 
  5 C       -2.6780     2.1950    -0.8380 C.3   1 <1>   0.1400 
  6 N        2.3200     2.1090    -0.3930 N.4   1 <1>  -0.9060 
  7 C       -3.7010     1.2590    -0.1600 C.3   1 <1>   0.0000 
  8 C        3.6120     1.4780    -0.1500 C.3   1 <1>   0.5030 
  9 C       -3.2300     0.8460     1.2560 C.3   1 <1>  -0.1600 
 10 C       -3.9440    -0.0220    -0.9970 C.3   1 <1>  -0.1600 
 11 C       -5.0470     2.0100    -0.0220 C.3   1 <1>  -0.1600 
 12 C        4.6110     2.6110     0.0590 C.3   1 <1>  -0.2400 
 13 C        3.5310     0.6150     1.1080 C.3   1 <1>  -0.2400 
 14 C        4.0100     0.6450    -1.3670 C.3   1 <1>  -0.2400 
 15 C       -4.2790    -0.0520     1.9390 C.3   1 <1>  -0.0800 
 16 C       -4.9960    -0.9210    -0.3210 C.3   1 <1>  -0.0800 
 17 C       -6.1060     1.1210     0.6560 C.3   1 <1>  -0.0800 
 18 C       -4.5000    -1.3140     1.0830 C.3   1 <1>  -0.1600 
 19 C       -5.6070     0.7190     2.0550 C.3   1 <1>  -0.1600 
 20 C       -6.3200    -0.1460    -0.1920 C.3   1 <1>  -0.1600 
 21 H       -1.4080     0.6640    -1.5430 H     1 <1>   0.3700 
 22 H        1.1730     0.8470    -1.6740 H     1 <1>   0.0800 
 23 H        1.1220     0.3940     0.0130 H     1 <1>   0.0800 
 24 H       -3.0520     2.4950    -1.8020 H     1 <1>   0.0800 
 25 H       -2.5670     3.0870    -0.2420 H     1 <1>   0.0800 
 26 H        2.0580     2.6770     0.4270 H     1 <1>   0.4500 
 27 H        2.4130     2.7920    -1.1500 H     1 <1>   0.4500 
 28 H       -3.0660     1.7250     1.8570 H     1 <1>   0.0800 
 29 H       -2.2990     0.3130     1.2000 H     1 <1>   0.0800 
 30 H       -4.2840     0.2440    -1.9830 H     1 <1>   0.0800 
 31 H       -3.0330    -0.5810    -1.1030 H     1 <1>   0.0800 
 32 H       -5.4040     2.3070    -0.9930 H     1 <1>   0.0800 
 33 H       -4.9110     2.9040     0.5620 H     1 <1>   0.0800 
 34 H        5.5900     2.2060     0.2480 H     1 <1>   0.0800 
 35 H        4.3410     3.2150     0.9070 H     1 <1>   0.0800 
 36 H        4.6800     3.2360    -0.8130 H     1 <1>   0.0800 
 37 H        3.1930     1.1900     1.9510 H     1 <1>   0.0800 
 38 H        4.5080     0.2310     1.3450 H     1 <1>   0.0800 
 39 H        2.8830    -0.2320     0.9710 H     1 <1>   0.0800 
 40 H        4.0280     1.2450    -2.2590 H     1 <1>   0.0800 
 41 H        3.3480    -0.1900    -1.5110 H     1 <1>   0.0800 
 42 H        4.9990     0.2460    -1.2220 H     1 <1>   0.0800 
 43 H       -3.9370    -0.3330     2.9200 H     1 <1>   0.0800 
 44 H       -5.1520    -1.8080    -0.9120 H     1 <1>   0.0800 
 45 H       -7.0340     1.6610     0.7420 H     1 <1>   0.0800 
 46 H       -5.2250    -1.9510     1.5590 H     1 <1>   0.0800 
 47 H       -3.5810    -1.8680     1.0060 H     1 <1>   0.0800 
 48 H       -6.3440     0.1030     2.5410 H     1 <1>   0.0800 
 49 H       -5.4670     1.5980     2.6590 H     1 <1>   0.0800 
 50 H       -7.0640    -0.7710     0.2700 H     1 <1>   0.0800 
 51 H       -6.6820     0.1240    -1.1680 H     1 <1>   0.0800 
@<TRIPOS>BOND
  1   1   2  2   
  2   2   3  am  
  3   2   4  1   
  4   3   5  1   
  5   3  21  1   
  6   4   6  1   
  7   4  22  1   
  8   4  23  1   
  9   5   7  1   
 10   5  24  1   
 11   5  25  1   
 12   6   8  1   
 13   6  26  1   
 14   6  27  1   
 15   7   9  1   
 16   7  10  1   
 17   7  11  1   
 18   8  12  1   
 19   8  13  1   
 20   8  14  1   
 21   9  15  1   
 22   9  28  1   
 23   9  29  1   
 24  10  16  1   
 25  10  30  1   
 26  10  31  1   
 27  11  17  1   
 28  11  32  1   
 29  11  33  1   
 30  12  34  1   
 31  12  35  1   
 32  12  36  1   
 33  13  37  1   
 34  13  38  1   
 35  13  39  1   
 36  14  40  1   
 37  14  41  1   
 38  14  42  1   
 39  15  18  1   
 40  15  19  1   
 41  15  43  1   
 42  16  18  1   
 43  16  20  1   
 44  16  44  1   
 45  17  19  1   
 46  17  20  1   
 47  17  45  1   
 48  18  46  1   
 49  18  47  1   
 50  19  48  1   
 51  19  49  1   
 52  20  50  1   
 53  20  51  1   
@<TRIPOS>SUBSTRUCTURE
  1 ****   3 GROUP 4 **** **** 0

# MOE 2024.06 (io_trps.svl 2023.06)
