@<TRIPOS>MOLECULE
NONAME
52 54 1 0 0 
SMALL
USER_CHARGES


@<TRIPOS>ATOM
  1 O       -0.3800    -2.3120    -2.4310 O.2   1 <1>  -0.5700 
  2 C        0.1510    -2.0480    -1.3790 C.2   1 <1>   0.5690 
  3 N       -0.4770    -1.4760    -0.3100 N.am  1 <1>  -0.5470 
  4 C        1.6380    -2.3600    -1.1980 C.3   1 <1>   0.1710 
  5 C       -1.7920    -1.0490    -0.0740 C.ar  1 <1>   0.1170 
  6 N        2.3040    -1.5230    -0.1540 N.3   1 <1>  -0.8100 
  7 C       -2.8410    -1.2740    -0.9590 C.ar  1 <1>  -0.1500 
  8 C       -2.0650    -0.3680     1.1050 C.ar  1 <1>  -0.1500 
  9 C        3.6060    -2.1090     0.2350 C.3   1 <1>   0.1100 
 10 C        2.5260    -0.1400    -0.6510 C.3   1 <1>   0.1100 
 11 C       -4.1190    -0.8290    -0.6730 C.ar  1 <1>  -0.1500 
 12 C       -3.3420     0.0770     1.3930 C.ar  1 <1>  -0.1500 
 13 C        4.3370    -1.2730     1.3070 C.3   1 <1>   0.2090 
 14 C        3.1920     0.7620     0.4050 C.3   1 <1>   0.2090 
 15 C       -4.3850    -0.1490     0.5060 C.ar  1 <1>  -0.1430 
 16 N        4.4600     0.1630     0.9150 N.pl3 1 <1>  -0.8380 
 17 C       -5.8030     0.3340     0.8050 C.3   1 <1>   0.0630 
 18 C        5.6660     0.6840     0.4490 C.ar  1 <1>   0.1000 
 19 C       -5.8480     1.8600     0.9260 C.3   1 <1>  -0.2400 
 20 C       -6.3510    -0.3290     2.0730 C.3   1 <1>  -0.2400 
 21 C        6.0580     1.9560     0.8470 C.ar  1 <1>  -0.1500 
 22 C        6.4990    -0.0230    -0.4140 C.ar  1 <1>  -0.1500 
 23 C        7.2420     2.5120     0.3990 C.ar  1 <1>  -0.1500 
 24 C        7.6860     0.5260    -0.8640 C.ar  1 <1>  -0.1500 
 25 C        8.0590     1.7960    -0.4590 C.ar  1 <1>  -0.1500 
 26 H        0.1950    -1.2900     0.4410 H     1 <1>   0.3700 
 27 H        2.1380    -2.2380    -2.1440 H     1 <1>   0.0800 
 28 H        1.7070    -3.3960    -0.9200 H     1 <1>   0.0800 
 29 H       -2.6680    -1.8000    -1.8790 H     1 <1>   0.1500 
 30 H       -1.2730    -0.1830     1.8070 H     1 <1>   0.1500 
 31 H        4.2390    -2.1930    -0.6310 H     1 <1>   0.0800 
 32 H        3.4480    -3.0990     0.6260 H     1 <1>   0.0800 
 33 H        1.5870     0.3030    -0.9330 H     1 <1>   0.0800 
 34 H        3.1560    -0.1610    -1.5240 H     1 <1>   0.0800 
 35 H       -4.9070    -1.0200    -1.3790 H     1 <1>   0.1500 
 36 H       -3.5220     0.6010     2.3150 H     1 <1>   0.1500 
 37 H        5.3160    -1.6840     1.4840 H     1 <1>   0.0800 
 38 H        3.7880    -1.3320     2.2300 H     1 <1>   0.0800 
 39 H        2.5160     0.9060     1.2290 H     1 <1>   0.0800 
 40 H        3.3960     1.7250    -0.0300 H     1 <1>   0.0800 
 41 H       -6.4430     0.0520    -0.0140 H     1 <1>   0.0800 
 42 H       -5.2620     2.1960     1.7630 H     1 <1>   0.0800 
 43 H       -6.8610     2.1940     1.0590 H     1 <1>   0.0800 
 44 H       -5.4530     2.3080     0.0310 H     1 <1>   0.0800 
 45 H       -5.7760    -0.0420     2.9350 H     1 <1>   0.0800 
 46 H       -6.3050    -1.3990     1.9730 H     1 <1>   0.0800 
 47 H       -7.3750    -0.0430     2.2310 H     1 <1>   0.0800 
 48 H        5.4230     2.5030     1.5190 H     1 <1>   0.1500 
 49 H        6.2140    -1.0040    -0.7390 H     1 <1>   0.1500 
 50 H        7.5290     3.4980     0.7190 H     1 <1>   0.1500 
 51 H        8.3200    -0.0320    -1.5310 H     1 <1>   0.1500 
 52 H        8.9820     2.2250    -0.8080 H     1 <1>   0.1500 
@<TRIPOS>BOND
  1   1   2  2   
  2   2   3  am  
  3   2   4  1   
  4   3   5  1   
  5   3  26  1   
  6   4   6  1   
  7   4  27  1   
  8   4  28  1   
  9   5   7  ar  
 10   5   8  ar  
 11   6   9  1   
 12   6  10  1   
 13   7  11  ar  
 14   7  29  1   
 15   8  12  ar  
 16   8  30  1   
 17   9  13  1   
 18   9  31  1   
 19   9  32  1   
 20  10  14  1   
 21  10  33  1   
 22  10  34  1   
 23  11  15  ar  
 24  11  35  1   
 25  12  15  ar  
 26  12  36  1   
 27  13  16  1   
 28  13  37  1   
 29  13  38  1   
 30  14  16  1   
 31  14  39  1   
 32  14  40  1   
 33  15  17  1   
 34  16  18  1   
 35  17  19  1   
 36  17  20  1   
 37  17  41  1   
 38  18  21  ar  
 39  18  22  ar  
 40  19  42  1   
 41  19  43  1   
 42  19  44  1   
 43  20  45  1   
 44  20  46  1   
 45  20  47  1   
 46  21  23  ar  
 47  21  48  1   
 48  22  24  ar  
 49  22  49  1   
 50  23  25  ar  
 51  23  50  1   
 52  24  25  ar  
 53  24  51  1   
 54  25  52  1   
@<TRIPOS>SUBSTRUCTURE
  1 ****  10 GROUP 4 **** **** 0

# MOE 2024.06 (io_trps.svl 2023.06)
