@<TRIPOS>MOLECULE
NONAME
52 53 1 0 0 
SMALL
USER_CHARGES


@<TRIPOS>ATOM
  1 O        3.9840    -8.1420    -1.6320 O.3   1 <1>  -0.3630 
  2 C        5.0790    -7.4550    -1.2140 C.ar  1 <1>   0.0830 
  3 C        3.2730    -8.9020    -0.6870 C.3   1 <1>   0.1200 
  4 C        5.0470    -6.5040    -0.1850 C.ar  1 <1>   0.0820 
  5 C        6.2660    -7.7220    -1.8750 C.ar  1 <1>  -0.1500 
  6 C        1.8110    -8.4670    -0.7650 C.3   1 <1>  -0.1600 
  7 O        3.8580    -6.2210     0.4300 O.3   1 <1>  -0.3630 
  8 C        6.2330    -5.8650     0.1740 C.ar  1 <1>  -0.1500 
  9 C        7.4310    -7.0720    -1.5120 C.ar  1 <1>  -0.1500 
 10 C        1.0210    -9.0440     0.4040 C.3   1 <1>   0.3430 
 11 C        3.7080    -5.0420     1.1920 C.3   1 <1>   0.0400 
 12 C        7.4220    -6.1420    -0.4860 C.ar  1 <1>  -0.1430 
 13 N       -0.3860    -8.5640     0.3480 N.4   1 <1>  -0.9590 
 14 C        8.7140    -5.4350    -0.0990 C.3   1 <1>   0.1220 
 15 C       -0.5030    -7.1380     0.7530 C.3   1 <1>   0.3430 
 16 C       -1.2800    -9.4080     1.1840 C.3   1 <1>   0.3430 
 17 C        9.6770    -6.4090     0.5590 C.2   1 <1>  -0.2880 
 18 C       -1.4390    -6.3940    -0.2000 C.3   1 <1>  -0.1600 
 19 C       -2.7210    -9.3640     0.6680 C.3   1 <1>  -0.1600 
 20 C       10.9140    -6.6790     0.1320 C.2   1 <1>  -0.3000 
 21 C       -2.7330    -7.1280    -0.5950 C.3   1 <1>  -0.1600 
 22 C       -3.3550    -7.9660     0.5330 C.3   1 <1>  -0.1600 
 23 H        3.6880    -8.7340     0.2930 H     1 <1>   0.0800 
 24 H        3.3910    -9.9400    -0.9450 H     1 <1>   0.0800 
 25 H        6.2750    -8.4410    -2.6730 H     1 <1>   0.1500 
 26 H        1.3990    -8.8100    -1.6970 H     1 <1>   0.0800 
 27 H        1.7820    -7.3930    -0.7380 H     1 <1>   0.0800 
 28 H        6.2500    -5.1450     0.9690 H     1 <1>   0.1500 
 29 H        8.3490    -7.2950    -2.0290 H     1 <1>   0.1500 
 30 H        1.4750    -8.7500     1.3370 H     1 <1>   0.0800 
 31 H        1.0420   -10.1210     0.3400 H     1 <1>   0.0800 
 32 H        2.6710    -4.9350     1.4500 H     1 <1>   0.0800 
 33 H        4.0260    -4.2010     0.6010 H     1 <1>   0.0800 
 34 H        4.2980    -5.1260     2.0880 H     1 <1>   0.0800 
 35 H       -0.7160    -8.6300    -0.6240 H     1 <1>   0.4500 
 36 H        8.5090    -4.6290     0.5820 H     1 <1>   0.0800 
 37 H        9.1630    -5.0120    -0.9800 H     1 <1>   0.0800 
 38 H        0.4620    -6.6580     0.7410 H     1 <1>   0.0800 
 39 H       -0.8910    -7.0760     1.7570 H     1 <1>   0.0800 
 40 H       -1.2480    -9.0740     2.2080 H     1 <1>   0.0800 
 41 H       -0.9430   -10.4320     1.1580 H     1 <1>   0.0800 
 42 H        9.2500    -6.8780     1.4300 H     1 <1>   0.1500 
 43 H       -0.8970    -6.1310    -1.0930 H     1 <1>   0.0800 
 44 H       -1.7050    -5.4660     0.2770 H     1 <1>   0.0800 
 45 H       -3.3240    -9.9350     1.3530 H     1 <1>   0.0800 
 46 H       -2.7730    -9.8750    -0.2780 H     1 <1>   0.0800 
 47 H       11.5750    -7.3770     0.6180 H     1 <1>   0.1500 
 48 H       11.3710    -6.2320    -0.7330 H     1 <1>   0.1500 
 49 H       -2.5560    -7.7550    -1.4530 H     1 <1>   0.0800 
 50 H       -3.4510    -6.3860    -0.9070 H     1 <1>   0.0800 
 51 H       -3.3190    -7.4340     1.4690 H     1 <1>   0.0800 
 52 H       -4.3980    -8.1070     0.2980 H     1 <1>   0.0800 
@<TRIPOS>BOND
  1   1   2  1   
  2   1   3  1   
  3   2   4  ar  
  4   2   5  ar  
  5   3   6  1   
  6   3  23  1   
  7   3  24  1   
  8   4   7  1   
  9   4   8  ar  
 10   5   9  ar  
 11   5  25  1   
 12   6  10  1   
 13   6  26  1   
 14   6  27  1   
 15   7  11  1   
 16   8  12  ar  
 17   8  28  1   
 18   9  12  ar  
 19   9  29  1   
 20  10  13  1   
 21  10  30  1   
 22  10  31  1   
 23  11  32  1   
 24  11  33  1   
 25  11  34  1   
 26  12  14  1   
 27  13  15  1   
 28  13  16  1   
 29  13  35  1   
 30  14  17  1   
 31  14  36  1   
 32  14  37  1   
 33  15  18  1   
 34  15  38  1   
 35  15  39  1   
 36  16  19  1   
 37  16  40  1   
 38  16  41  1   
 39  17  20  2   
 40  17  42  1   
 41  18  21  1   
 42  18  43  1   
 43  18  44  1   
 44  19  22  1   
 45  19  45  1   
 46  19  46  1   
 47  20  47  1   
 48  20  48  1   
 49  21  22  1   
 50  21  49  1   
 51  21  50  1   
 52  22  51  1   
 53  22  52  1   
@<TRIPOS>SUBSTRUCTURE
  1 ****   7 GROUP 4 **** **** 0

# MOE 2024.06 (io_trps.svl 2023.06)
