@<TRIPOS>MOLECULE
NONAME
41 43 1 0 0 
SMALL
USER_CHARGES


@<TRIPOS>ATOM
  1 O        0.6390     0.0940     1.1040 O.2   1 <1>  -0.5700 
  2 C        0.4540     1.2140     0.6840 C.2   1 <1>   0.5690 
  3 N        1.4430     1.8980     0.0160 N.am  1 <1>  -0.6600 
  4 C       -0.9090     1.8410     0.9690 C.3   1 <1>   0.1810 
  5 C        1.3260     3.2960    -0.5160 C.3   1 <1>   0.1400 
  6 C        2.7720     1.2710    -0.2730 C.3   1 <1>   0.1400 
  7 O       -1.5640     2.2390    -0.2270 O.3   1 <1>  -0.3620 
  8 C        2.5030     4.1760    -0.0600 C.3   1 <1>   0.2090 
  9 C        3.9320     2.1660     0.1960 C.3   1 <1>   0.2090 
 10 C       -2.7560     2.8850    -0.1920 C.ar  1 <1>   0.0820 
 11 N        3.8200     3.5400    -0.3720 N.pl3 1 <1>  -0.8380 
 12 C       -3.4740     3.1270     0.9770 C.ar  1 <1>  -0.1500 
 13 C       -3.2630     3.3200    -1.4060 C.ar  1 <1>  -0.1500 
 14 C        4.9490     4.3310    -0.2860 C.ar  1 <1>   0.4100 
 15 C       -4.6820     3.8000     0.9180 C.ar  1 <1>  -0.1500 
 16 C       -4.4700     3.9930    -1.4620 C.ar  1 <1>  -0.1500 
 17 N        4.9540     5.2920     0.6320 N.ar  1 <1>  -0.6200 
 18 C        6.0210     4.0870    -1.1410 C.ar  1 <1>  -0.1500 
 19 C       -5.1800     4.2340    -0.2990 C.ar  1 <1>  -0.1500 
 20 C        6.0550     6.0210     0.6970 C.ar  1 <1>   0.1600 
 21 C        7.1600     4.8530    -1.0620 C.ar  1 <1>  -0.1500 
 22 C        7.1670     5.8500    -0.1070 C.ar  1 <1>  -0.1500 
 23 H       -0.7790     2.7040     1.5930 H     1 <1>   0.0800 
 24 H       -1.5330     1.1210     1.4660 H     1 <1>   0.0800 
 25 H        0.4120     3.7590    -0.1970 H     1 <1>   0.0800 
 26 H        1.3180     3.2590    -1.5910 H     1 <1>   0.0800 
 27 H        2.8600     1.1120    -1.3330 H     1 <1>   0.0800 
 28 H        2.8530     0.3130     0.2100 H     1 <1>   0.0800 
 29 H        2.4320     4.3440     1.0010 H     1 <1>   0.0800 
 30 H        2.4460     5.1320    -0.5500 H     1 <1>   0.0800 
 31 H        4.8660     1.7240    -0.1040 H     1 <1>   0.0800 
 32 H        3.9230     2.2240     1.2710 H     1 <1>   0.0800 
 33 H       -3.1170     2.7990     1.9340 H     1 <1>   0.1500 
 34 H       -2.7070     3.1260    -2.3060 H     1 <1>   0.1500 
 35 H       -5.2390     3.9870     1.8210 H     1 <1>   0.1500 
 36 H       -4.8570     4.3270    -2.4090 H     1 <1>   0.1500 
 37 H        5.9350     3.2970    -1.8620 H     1 <1>   0.1500 
 38 H       -6.1200     4.7570    -0.3410 H     1 <1>   0.1500 
 39 H        6.0710     6.8020     1.4370 H     1 <1>   0.1500 
 40 H        8.0020     4.6870    -1.7110 H     1 <1>   0.1500 
 41 H        8.0250     6.4870     0.0100 H     1 <1>   0.1500 
@<TRIPOS>BOND
  1   1   2  2   
  2   2   3  am  
  3   2   4  1   
  4   3   5  1   
  5   3   6  1   
  6   4   7  1   
  7   4  23  1   
  8   4  24  1   
  9   5   8  1   
 10   5  25  1   
 11   5  26  1   
 12   6   9  1   
 13   6  27  1   
 14   6  28  1   
 15   7  10  1   
 16   8  11  1   
 17   8  29  1   
 18   8  30  1   
 19   9  11  1   
 20   9  31  1   
 21   9  32  1   
 22  10  12  ar  
 23  10  13  ar  
 24  11  14  1   
 25  12  15  ar  
 26  12  33  1   
 27  13  16  ar  
 28  13  34  1   
 29  14  17  ar  
 30  14  18  ar  
 31  15  19  ar  
 32  15  35  1   
 33  16  19  ar  
 34  16  36  1   
 35  17  20  ar  
 36  18  21  ar  
 37  18  37  1   
 38  19  38  1   
 39  20  22  ar  
 40  20  39  1   
 41  21  22  ar  
 42  21  40  1   
 43  22  41  1   
@<TRIPOS>SUBSTRUCTURE
  1 ****   5 GROUP 4 **** **** 0

# MOE 2024.06 (io_trps.svl 2023.06)
