@<TRIPOS>MOLECULE
NONAME
43 45 1 0 0 
SMALL
USER_CHARGES


@<TRIPOS>ATOM
  1 S       -0.2920     0.4010    -1.1220 S.o2  1 <1>   1.4470 
  2 O       -0.8550     0.7770    -2.4020 O.2   1 <1>  -0.6500 
  3 O       -0.1220    -1.0010    -0.8080 O.2   1 <1>  -0.6500 
  4 N       -1.3120     1.0450     0.0670 N.am  1 <1>  -0.8490 
  5 C        1.2700     1.2780    -0.8400 C.ar  1 <1>  -0.0090 
  6 C       -1.6590     2.4590    -0.1960 C.3   1 <1>   0.1960 
  7 C       -2.5490     0.2480     0.1970 C.3   1 <1>   0.1960 
  8 C        1.8860     1.2520     0.4050 C.ar  1 <1>  -0.1500 
  9 C        1.8870     2.0010    -1.8510 C.ar  1 <1>  -0.1500 
 10 C       -2.5560     3.0570     0.9050 C.3   1 <1>   0.2090 
 11 C       -3.4670     0.7810     1.3120 C.3   1 <1>   0.2090 
 12 C        3.0730     1.9250     0.6490 C.ar  1 <1>  -0.1440 
 13 C        3.0720     2.6770    -1.6240 C.ar  1 <1>  -0.1500 
 14 N       -3.7860     2.2270     1.0900 N.pl3 1 <1>  -0.8380 
 15 C        3.6730     2.6460    -0.3760 C.ar  1 <1>  -0.1440 
 16 C        3.6910     1.8510     2.0380 C.3   1 <1>  -0.0970 
 17 C       -5.0330     2.6680     0.7020 C.ar  1 <1>   0.7200 
 18 C        4.9770     3.4000    -0.1630 C.3   1 <1>  -0.0970 
 19 N       -5.9310     1.7420     0.3660 N.ar  1 <1>  -0.6200 
 20 N       -5.2300     3.9860     0.6910 N.ar  1 <1>  -0.6200 
 21 C       -7.1120     2.1800     0.0030 C.ar  1 <1>   0.1600 
 22 C       -6.4210     4.3940     0.3260 C.ar  1 <1>   0.1600 
 23 C       -7.4150     3.5180    -0.0340 C.ar  1 <1>  -0.1500 
 24 H       -2.1770     2.5430    -1.1380 H     1 <1>   0.0800 
 25 H       -0.7600     3.0460    -0.2590 H     1 <1>   0.0800 
 26 H       -2.2960    -0.7740     0.4270 H     1 <1>   0.0800 
 27 H       -3.0910     0.2540    -0.7340 H     1 <1>   0.0800 
 28 H        1.4150     0.6890     1.1930 H     1 <1>   0.1500 
 29 H        1.4360     2.0370    -2.8290 H     1 <1>   0.1500 
 30 H       -2.8030     4.0700     0.6400 H     1 <1>   0.0800 
 31 H       -2.0100     3.0870     1.8310 H     1 <1>   0.0800 
 32 H       -2.9650     0.6770     2.2580 H     1 <1>   0.0800 
 33 H       -4.3600     0.1830     1.3580 H     1 <1>   0.0800 
 34 H        3.5240     3.2290    -2.4300 H     1 <1>   0.1500 
 35 H        3.0870     1.2590     2.7010 H     1 <1>   0.0800 
 36 H        3.7810     2.8380     2.4550 H     1 <1>   0.0800 
 37 H        4.6670     1.4030     1.9830 H     1 <1>   0.0800 
 38 H        5.7530     2.7180     0.1340 H     1 <1>   0.0800 
 39 H        4.8520     4.1450     0.6020 H     1 <1>   0.0800 
 40 H        5.2910     3.8930    -1.0650 H     1 <1>   0.0800 
 41 H       -7.8560     1.4520    -0.2710 H     1 <1>   0.1500 
 42 H       -6.6090     5.4550     0.3140 H     1 <1>   0.1500 
 43 H       -8.3860     3.8650    -0.3310 H     1 <1>   0.1500 
@<TRIPOS>BOND
  1   1   2  2   
  2   1   3  2   
  3   1   4  am  
  4   1   5  1   
  5   4   6  1   
  6   4   7  1   
  7   5   8  ar  
  8   5   9  ar  
  9   6  10  1   
 10   6  24  1   
 11   6  25  1   
 12   7  11  1   
 13   7  26  1   
 14   7  27  1   
 15   8  12  ar  
 16   8  28  1   
 17   9  13  ar  
 18   9  29  1   
 19  10  14  1   
 20  10  30  1   
 21  10  31  1   
 22  11  14  1   
 23  11  32  1   
 24  11  33  1   
 25  12  15  ar  
 26  12  16  1   
 27  13  15  ar  
 28  13  34  1   
 29  14  17  1   
 30  15  18  1   
 31  16  35  1   
 32  16  36  1   
 33  16  37  1   
 34  17  19  ar  
 35  17  20  ar  
 36  18  38  1   
 37  18  39  1   
 38  18  40  1   
 39  19  21  ar  
 40  20  22  ar  
 41  21  23  ar  
 42  21  41  1   
 43  22  23  ar  
 44  22  42  1   
 45  23  43  1   
@<TRIPOS>SUBSTRUCTURE
  1 ****   6 GROUP 4 **** **** 0

# MOE 2024.06 (io_trps.svl 2023.06)
