@<TRIPOS>MOLECULE
NONAME
25 25 1 0 0 
SMALL
USER_CHARGES


@<TRIPOS>ATOM
  1 I        0.5760     0.5070     2.3830 I     1 <1>  -0.0810 
  2 C        1.6610    -0.7450     1.0260 C.ar  1 <1>   0.0810 
  3 C        1.0050    -1.7760     0.3490 C.ar  1 <1>   0.1170 
  4 C        3.0080    -0.4730     0.8730 C.ar  1 <1>  -0.1500 
  5 N       -0.3700    -2.0180     0.5510 N.am  1 <1>  -0.5470 
  6 C        1.7840    -2.5500    -0.5080 C.ar  1 <1>  -0.1500 
  7 C        3.7500    -1.2580     0.0090 C.ar  1 <1>  -0.1500 
  8 C       -1.3000    -2.6070    -0.2660 C.2   1 <1>   0.5690 
  9 C        3.1360    -2.2940    -0.6770 C.ar  1 <1>  -0.1500 
 10 O       -1.0360    -3.0060    -1.3690 O.2   1 <1>  -0.5700 
 11 C       -2.6990    -2.7440     0.2400 C.3   1 <1>  -0.0190 
 12 C       -3.2080    -4.1440     0.0540 C.3   1 <1>   1.0200 
 13 C       -3.5810    -1.7500    -0.4530 C.3   1 <1>   1.0200 
 14 F       -2.3570    -5.0320     0.5490 F     1 <1>  -0.3400 
 15 F       -3.4490    -4.5170    -1.1930 F     1 <1>  -0.3400 
 16 F       -4.3380    -4.3440     0.7170 F     1 <1>  -0.3400 
 17 F       -4.8190    -1.7600     0.0160 F     1 <1>  -0.3400 
 18 F       -3.1400    -0.5170    -0.2460 F     1 <1>  -0.3400 
 19 F       -3.6830    -1.8840    -1.7650 F     1 <1>  -0.3400 
 20 H        3.4730     0.3340     1.4120 H     1 <1>   0.1500 
 21 H       -0.7180    -1.5880     1.4100 H     1 <1>   0.3700 
 22 H        1.3430    -3.3660    -1.0510 H     1 <1>   0.1500 
 23 H        4.8010    -1.0670    -0.1300 H     1 <1>   0.1500 
 24 H        3.7130    -2.9060    -1.3490 H     1 <1>   0.1500 
 25 H       -2.7160    -2.5310     1.2890 H     1 <1>   0.0800 
@<TRIPOS>BOND
  1   1   2  1   
  2   2   3  ar  
  3   2   4  ar  
  4   3   5  1   
  5   3   6  ar  
  6   4   7  ar  
  7   4  20  1   
  8   5   8  am  
  9   5  21  1   
 10   6   9  ar  
 11   6  22  1   
 12   7   9  ar  
 13   7  23  1   
 14   8  10  2   
 15   8  11  1   
 16   9  24  1   
 17  11  12  1   
 18  11  13  1   
 19  11  25  1   
 20  12  14  1   
 21  12  15  1   
 22  12  16  1   
 23  13  17  1   
 24  13  18  1   
 25  13  19  1   
@<TRIPOS>SUBSTRUCTURE
  1 ****   8 GROUP 4 **** **** 0

# MOE 2024.06 (io_trps.svl 2023.06)
