@<TRIPOS>MOLECULE
NONAME
46 47 1 0 0 
SMALL
USER_CHARGES


@<TRIPOS>ATOM
  1 F        2.1780    -1.7430    -1.4490 F     1 <1>  -0.3400 
  2 C        0.9670    -1.7020    -0.8940 C.3   1 <1>   1.1640 
  3 F        0.1660    -1.1230    -1.7720 F     1 <1>  -0.3400 
  4 F        1.0840    -0.8710     0.1330 F     1 <1>  -0.3400 
  5 C        0.5470    -3.1130    -0.4410 C.ar  1 <1>  -0.1440 
  6 C        1.2770    -3.8320     0.5170 C.ar  1 <1>  -0.1440 
  7 C       -0.5820    -3.7050    -1.0010 C.ar  1 <1>  -0.1500 
  8 C        0.8630    -5.1050     0.8880 C.ar  1 <1>  -0.1500 
  9 C        2.5270    -3.2850     1.1890 C.3   1 <1>   0.4870 
 10 C       -0.9810    -4.9730    -0.6260 C.ar  1 <1>  -0.1500 
 11 C       -0.2590    -5.6740     0.3190 C.ar  1 <1>  -0.1500 
 12 N        3.6630    -3.5090     0.2580 N.4   1 <1>  -0.9060 
 13 C        4.9720    -2.9770     0.7030 C.3   1 <1>   0.4230 
 14 C        4.9670    -1.4440     0.6710 C.3   1 <1>  -0.1600 
 15 C        6.0590    -3.5200    -0.2260 C.3   1 <1>  -0.1600 
 16 C        6.3500    -0.8760     1.0020 C.3   1 <1>   0.3430 
 17 C        7.4300    -2.9340     0.1170 C.3   1 <1>   0.3430 
 18 N        7.3730    -1.4420     0.0770 N.4   1 <1>  -0.9590 
 19 C        8.7080    -0.8370     0.3780 C.3   1 <1>   0.3430 
 20 C        9.6750    -1.0610    -0.7860 C.3   1 <1>  -0.1600 
 21 C       11.0040    -0.3410    -0.5330 C.3   1 <1>  -0.2400 
 22 H       -1.1740    -3.1880    -1.7410 H     1 <1>   0.1500 
 23 H        1.3980    -5.6770     1.6290 H     1 <1>   0.1500 
 24 H        2.6950    -3.8040     2.1190 H     1 <1>   0.0800 
 25 H        2.4050    -2.2360     1.4060 H     1 <1>   0.0800 
 26 H       -1.8580    -5.4170    -1.0690 H     1 <1>   0.1500 
 27 H       -0.5790    -6.6610     0.6110 H     1 <1>   0.1500 
 28 H        3.4050    -3.1030    -0.6530 H     1 <1>   0.4500 
 29 H        3.7140    -4.5240     0.0960 H     1 <1>   0.4500 
 30 H        5.1750    -3.3130     1.7100 H     1 <1>   0.0800 
 31 H        4.2730    -1.0580     1.3970 H     1 <1>   0.0800 
 32 H        4.6710    -1.0840    -0.2990 H     1 <1>   0.0800 
 33 H        5.8340    -3.2900    -1.2530 H     1 <1>   0.0800 
 34 H        6.1190    -4.5900    -0.1270 H     1 <1>   0.0800 
 35 H        6.6090    -1.1160     2.0210 H     1 <1>   0.0800 
 36 H        6.3280     0.2000     0.9100 H     1 <1>   0.0800 
 37 H        8.1590    -3.2960    -0.5920 H     1 <1>   0.0800 
 38 H        7.7340    -3.2610     1.1000 H     1 <1>   0.0800 
 39 H        7.1470    -1.1440    -0.8850 H     1 <1>   0.4500 
 40 H        9.1190    -1.2600     1.2820 H     1 <1>   0.0800 
 41 H        8.5990     0.2260     0.5280 H     1 <1>   0.0800 
 42 H        9.2510    -0.6770    -1.6980 H     1 <1>   0.0800 
 43 H        9.8840    -2.1090    -0.9130 H     1 <1>   0.0800 
 44 H       10.8540     0.7200    -0.4310 H     1 <1>   0.0800 
 45 H       11.6750    -0.5040    -1.3610 H     1 <1>   0.0800 
 46 H       11.4800    -0.7110     0.3590 H     1 <1>   0.0800 
@<TRIPOS>BOND
  1   1   2  1   
  2   2   3  1   
  3   2   4  1   
  4   2   5  1   
  5   5   6  ar  
  6   5   7  ar  
  7   6   8  ar  
  8   6   9  1   
  9   7  10  ar  
 10   7  22  1   
 11   8  11  ar  
 12   8  23  1   
 13   9  12  1   
 14   9  24  1   
 15   9  25  1   
 16  10  11  ar  
 17  10  26  1   
 18  11  27  1   
 19  12  13  1   
 20  12  28  1   
 21  12  29  1   
 22  13  14  1   
 23  13  15  1   
 24  13  30  1   
 25  14  16  1   
 26  14  31  1   
 27  14  32  1   
 28  15  17  1   
 29  15  33  1   
 30  15  34  1   
 31  16  18  1   
 32  16  35  1   
 33  16  36  1   
 34  17  18  1   
 35  17  37  1   
 36  17  38  1   
 37  18  19  1   
 38  18  39  1   
 39  19  20  1   
 40  19  40  1   
 41  19  41  1   
 42  20  21  1   
 43  20  42  1   
 44  20  43  1   
 45  21  44  1   
 46  21  45  1   
 47  21  46  1   
@<TRIPOS>SUBSTRUCTURE
  1 ****  12 GROUP 4 **** **** 0

# MOE 2024.06 (io_trps.svl 2023.06)
