@<TRIPOS>MOLECULE
NONAME
35 36 1 0 0 
SMALL
USER_CHARGES


@<TRIPOS>ATOM
  1 O        0.2760    -0.5980     0.5200 O.2   1 <1>  -0.5700 
  2 C        0.3430    -1.8000     0.4590 C.2   1 <1>   0.5700 
  3 N        1.5240    -2.4810     0.5790 N.am  1 <1>  -0.6600 
  4 C        1.6340    -3.9450     0.3380 C.3   1 <1>   0.1400 
  5 C        2.8060    -1.7750     0.8830 C.3   1 <1>   0.1400 
  6 C        2.7180    -4.2440    -0.7200 C.3   1 <1>   0.3430 
  7 C        3.8650    -2.0890    -0.1880 C.3   1 <1>   0.3430 
  8 N        4.0280    -3.5740    -0.4030 N.4   1 <1>  -0.9590 
  9 C        5.0620    -3.8590    -1.4350 C.3   1 <1>   0.4860 
 10 C        6.3940    -3.3520    -0.9210 C.ar  1 <1>  -0.1440 
 11 C        7.0650    -4.0430     0.0790 C.ar  1 <1>  -0.1500 
 12 C        6.9450    -2.1890    -1.4390 C.ar  1 <1>  -0.1500 
 13 C        8.2690    -3.5690     0.5720 C.ar  1 <1>  -0.1440 
 14 C        8.1480    -1.7160    -0.9490 C.ar  1 <1>  -0.1500 
 15 C        8.8060    -2.4030     0.0540 C.ar  1 <1>  -0.1500 
 16 C        9.0120    -4.3200     1.6640 C.3   1 <1>  -0.0970 
 17 H       -0.5610    -2.3580     0.2870 H     1 <1>   0.0600 
 18 H        0.6880    -4.3330     0.0000 H     1 <1>   0.0800 
 19 H        1.8810    -4.4390     1.2620 H     1 <1>   0.0800 
 20 H        3.1620    -2.0820     1.8510 H     1 <1>   0.0800 
 21 H        2.6500    -0.7090     0.9200 H     1 <1>   0.0800 
 22 H        2.3600    -3.8970    -1.6760 H     1 <1>   0.0800 
 23 H        2.8570    -5.3110    -0.7890 H     1 <1>   0.0800 
 24 H        4.8050    -1.6540     0.1150 H     1 <1>   0.0800 
 25 H        3.5660    -1.6170    -1.1090 H     1 <1>   0.0800 
 26 H        4.3940    -3.9550     0.4790 H     1 <1>   0.4500 
 27 H        4.8130    -3.3710    -2.3630 H     1 <1>   0.0800 
 28 H        5.1330    -4.9200    -1.6130 H     1 <1>   0.0800 
 29 H        6.6650    -4.9580     0.4800 H     1 <1>   0.1500 
 30 H        6.4550    -1.6400    -2.2250 H     1 <1>   0.1500 
 31 H        8.5800    -0.8130    -1.3490 H     1 <1>   0.1500 
 32 H        9.7440    -2.0270     0.4280 H     1 <1>   0.1500 
 33 H        8.3470    -4.9640     2.2100 H     1 <1>   0.0800 
 34 H        9.4560    -3.6270     2.3570 H     1 <1>   0.0800 
 35 H        9.7920    -4.9180     1.2280 H     1 <1>   0.0800 
@<TRIPOS>BOND
  1   1   2  2   
  2   2   3  am  
  3   2  17  1   
  4   3   4  1   
  5   3   5  1   
  6   4   6  1   
  7   4  18  1   
  8   4  19  1   
  9   5   7  1   
 10   5  20  1   
 11   5  21  1   
 12   6   8  1   
 13   6  22  1   
 14   6  23  1   
 15   7   8  1   
 16   7  24  1   
 17   7  25  1   
 18   8   9  1   
 19   8  26  1   
 20   9  10  1   
 21   9  27  1   
 22   9  28  1   
 23  10  11  ar  
 24  10  12  ar  
 25  11  13  ar  
 26  11  29  1   
 27  12  14  ar  
 28  12  30  1   
 29  13  15  ar  
 30  13  16  1   
 31  14  15  ar  
 32  14  31  1   
 33  15  32  1   
 34  16  33  1   
 35  16  34  1   
 36  16  35  1   
@<TRIPOS>SUBSTRUCTURE
  1 ****   8 GROUP 4 **** **** 0

# MOE 2024.06 (io_trps.svl 2023.06)
