@<TRIPOS>MOLECULE
NONAME
51 54 1 0 0 
SMALL
USER_CHARGES


@<TRIPOS>ATOM
  1 O       -0.4460     1.7740    -1.2170 O.2   1 <1>  -0.5700 
  2 C       -0.1630     1.5200    -0.0740 C.2   1 <1>   0.6670 
  3 O        1.0930     1.2620     0.2760 O.3   1 <1>  -0.4300 
  4 C       -1.1620     1.4570     1.0820 C.3   1 <1>   0.0530 
  5 C        2.1300     1.2320    -0.6870 C.3   1 <1>   0.1200 
  6 C       -2.0860     0.2030     1.0700 C.3   1 <1>   0.1080 
  7 C       -2.4660     2.3090     0.9890 C.3   1 <1>   0.1080 
  8 C        3.4170     0.7310    -0.0270 C.3   1 <1>   0.2000 
  9 C       -1.5320    -1.0420     0.3730 C.ar  1 <1>  -0.1080 
 10 C       -3.1080     1.0790     0.2870 C.3   1 <1>  -0.0710 
 11 C       -2.4020     3.6200     0.2050 C.ar  1 <1>  -0.1080 
 12 O        4.4310     0.6650    -0.9750 O.3   1 <1>  -0.5600 
 13 C        3.3290    -0.6830     0.5270 C.3   1 <1>  -0.1600 
 14 C       -0.3460    -1.6040     0.8230 C.ar  1 <1>  -0.1500 
 15 C       -2.1980    -1.6400    -0.6870 C.ar  1 <1>  -0.1500 
 16 C       -4.5540     0.8280     0.6580 C.2   1 <1>   0.8710 
 17 C       -3.3660     3.9280    -0.7440 C.ar  1 <1>  -0.1500 
 18 C       -1.3880     4.5350     0.4560 C.ar  1 <1>  -0.1500 
 19 C        5.4030    -0.2600    -0.5980 C.3   1 <1>   0.1200 
 20 C        4.7720    -1.1510     0.4700 C.3   1 <1>  -0.1600 
 21 C        0.1750    -2.7340     0.2160 C.ar  1 <1>  -0.1500 
 22 C       -1.6780    -2.7670    -1.2980 C.ar  1 <1>  -0.1500 
 23 O       -5.3700     0.6520    -0.2530 O.co2 1 <1>  -0.9000 
 24 O       -4.8830     0.8040     1.8490 O.co2 1 <1>  -0.9000 
 25 C       -3.3100     5.1220    -1.4420 C.ar  1 <1>  -0.1500 
 26 C       -1.3290     5.7290    -0.2420 C.ar  1 <1>  -0.1500 
 27 C       -0.4890    -3.3150    -0.8490 C.ar  1 <1>  -0.1500 
 28 C       -2.2900     6.0240    -1.1930 C.ar  1 <1>  -0.1500 
 29 H       -0.6780     1.5850     2.0350 H     1 <1>   0.0000 
 30 H        2.2620     2.2280    -1.0710 H     1 <1>   0.0800 
 31 H        1.8340     0.5680    -1.4820 H     1 <1>   0.0800 
 32 H       -2.4230    -0.0280     2.0670 H     1 <1>   0.0000 
 33 H       -2.8750     2.4740     1.9720 H     1 <1>   0.0000 
 34 H        3.7380     1.4210     0.7340 H     1 <1>   0.0800 
 35 H       -2.9340     1.0790    -0.7760 H     1 <1>   0.0000 
 36 H        2.7180    -1.2840    -0.1220 H     1 <1>   0.0800 
 37 H        2.9200    -0.7000     1.5210 H     1 <1>   0.0800 
 38 H        0.1740    -1.1610     1.6540 H     1 <1>   0.1500 
 39 H       -3.1330    -1.2350    -1.0420 H     1 <1>   0.1500 
 40 H       -4.1710     3.2380    -0.9440 H     1 <1>   0.1500 
 41 H       -0.6410     4.3190     1.1970 H     1 <1>   0.1500 
 42 H        6.2530     0.2770    -0.2130 H     1 <1>   0.0800 
 43 H        5.6860    -0.8210    -1.4710 H     1 <1>   0.0800 
 44 H        4.8500    -2.1920     0.2130 H     1 <1>   0.0800 
 45 H        5.2650    -0.9830     1.4120 H     1 <1>   0.0800 
 46 H        1.0950    -3.1620     0.5730 H     1 <1>   0.1500 
 47 H       -2.2050    -3.2150    -2.1220 H     1 <1>   0.1500 
 48 H       -4.0630     5.3430    -2.1770 H     1 <1>   0.1500 
 49 H       -0.5360     6.4280    -0.0440 H     1 <1>   0.1500 
 50 H       -0.0870    -4.1910    -1.3260 H     1 <1>   0.1500 
 51 H       -2.2470     6.9500    -1.7370 H     1 <1>   0.1500 
@<TRIPOS>BOND
  1   1   2  2   
  2   2   3  1   
  3   2   4  1   
  4   3   5  1   
  5   4   6  1   
  6   4   7  1   
  7   4  29  1   
  8   5   8  1   
  9   5  30  1   
 10   5  31  1   
 11   6   9  1   
 12   6  10  1   
 13   6  32  1   
 14   7  10  1   
 15   7  11  1   
 16   7  33  1   
 17   8  12  1   
 18   8  13  1   
 19   8  34  1   
 20   9  14  ar  
 21   9  15  ar  
 22  10  16  1   
 23  10  35  1   
 24  11  17  ar  
 25  11  18  ar  
 26  12  19  1   
 27  13  20  1   
 28  13  36  1   
 29  13  37  1   
 30  14  21  ar  
 31  14  38  1   
 32  15  22  ar  
 33  15  39  1   
 34  16  23  ar  
 35  16  24  ar  
 36  17  25  ar  
 37  17  40  1   
 38  18  26  ar  
 39  18  41  1   
 40  19  20  1   
 41  19  42  1   
 42  19  43  1   
 43  20  44  1   
 44  20  45  1   
 45  21  27  ar  
 46  21  46  1   
 47  22  27  ar  
 48  22  47  1   
 49  25  28  ar  
 50  25  48  1   
 51  26  28  ar  
 52  26  49  1   
 53  27  50  1   
 54  28  51  1   
@<TRIPOS>SUBSTRUCTURE
  1 ****   2 GROUP 4 **** **** 0

# MOE 2024.06 (io_trps.svl 2023.06)
