@<TRIPOS>MOLECULE
NONAME
47 49 1 0 0 
SMALL
USER_CHARGES


@<TRIPOS>ATOM
  1 S        0.4420     0.3120     0.6940 S.o2  1 <1>   1.4470 
  2 O        0.9120     1.1600     1.7650 O.2   1 <1>  -0.6500 
  3 O       -0.6190    -0.6330     0.9440 O.2   1 <1>  -0.6500 
  4 N       -0.1490     1.3300    -0.4910 N.am  1 <1>  -0.9140 
  5 C        1.8430    -0.5010    -0.1200 C.ar  1 <1>  -0.0090 
  6 C       -1.1690     2.2460     0.0250 C.3   1 <1>   0.4800 
  7 C        1.9640    -1.8860    -0.1350 C.ar  1 <1>  -0.1500 
  8 C        2.8360     0.2450    -0.7450 C.ar  1 <1>  -0.1500 
  9 C       -2.5190     1.6080    -0.3250 C.ar  1 <1>  -0.1430 
 10 C       -0.9830     3.7140    -0.4780 C.2   1 <1>   0.5690 
 11 C        3.0360    -2.5070    -0.7530 C.ar  1 <1>  -0.1500 
 12 C        3.9120    -0.3670    -1.3660 C.ar  1 <1>  -0.1500 
 13 C       -3.3390     1.1290     0.6890 C.ar  1 <1>  -0.1500 
 14 C       -2.9350     1.4670    -1.6440 C.ar  1 <1>  -0.1500 
 15 O       -1.6500     4.1020    -1.4150 O.2   1 <1>  -0.5700 
 16 N       -0.0680     4.5670     0.1110 N.am  1 <1>  -0.6600 
 17 C        4.0120    -1.7460    -1.3700 C.ar  1 <1>  -0.1500 
 18 C       -4.5490     0.5270     0.3920 C.ar  1 <1>  -0.1500 
 19 C       -4.1450     0.8650    -1.9420 C.ar  1 <1>  -0.1500 
 20 C        0.1680     5.9290    -0.4670 C.3   1 <1>   0.1400 
 21 C        0.8020     4.1770     1.2670 C.3   1 <1>   0.1400 
 22 C       -4.9540     0.3950    -0.9240 C.ar  1 <1>  -0.1500 
 23 C        1.6610     6.2690    -0.4330 C.3   1 <1>  -0.1600 
 24 C        1.4050     5.4040     1.9590 C.3   1 <1>  -0.1600 
 25 C        2.2320     6.2710     0.9950 C.3   1 <1>  -0.1600 
 26 H       -0.6920     0.7130    -1.0920 H     1 <1>   0.4200 
 27 H       -1.1200     2.2940     1.0960 H     1 <1>   0.0800 
 28 H        1.2100    -2.4900     0.3430 H     1 <1>   0.1500 
 29 H        2.7660     1.3200    -0.7470 H     1 <1>   0.1500 
 30 H        3.1110    -3.5810    -0.7530 H     1 <1>   0.1500 
 31 H        4.6700     0.2290    -1.8450 H     1 <1>   0.1500 
 32 H       -3.0400     1.2100     1.7190 H     1 <1>   0.1500 
 33 H       -2.3230     1.8360    -2.4500 H     1 <1>   0.1500 
 34 H        4.8470    -2.2260    -1.8510 H     1 <1>   0.1500 
 35 H       -5.1750     0.1580     1.1860 H     1 <1>   0.1500 
 36 H       -4.4580     0.7680    -2.9670 H     1 <1>   0.1500 
 37 H       -0.3890     6.6540     0.1020 H     1 <1>   0.0800 
 38 H       -0.1770     5.9700    -1.4860 H     1 <1>   0.0800 
 39 H        1.5950     3.5430     0.9090 H     1 <1>   0.0800 
 40 H        0.2290     3.6300     1.9940 H     1 <1>   0.0800 
 41 H       -5.8950    -0.0730    -1.1550 H     1 <1>   0.1500 
 42 H        1.8220     7.2310    -0.8870 H     1 <1>   0.0800 
 43 H        2.1810     5.5400    -1.0300 H     1 <1>   0.0800 
 44 H        2.0250     5.0850     2.7780 H     1 <1>   0.0800 
 45 H        0.6010     5.9880     2.3720 H     1 <1>   0.0800 
 46 H        2.2590     7.2780     1.3750 H     1 <1>   0.0800 
 47 H        3.2460     5.9090     0.9620 H     1 <1>   0.0800 
@<TRIPOS>BOND
  1   1   2  2   
  2   1   3  2   
  3   1   4  am  
  4   1   5  1   
  5   4   6  1   
  6   4  26  1   
  7   5   7  ar  
  8   5   8  ar  
  9   6   9  1   
 10   6  10  1   
 11   6  27  1   
 12   7  11  ar  
 13   7  28  1   
 14   8  12  ar  
 15   8  29  1   
 16   9  13  ar  
 17   9  14  ar  
 18  10  15  2   
 19  10  16  am  
 20  11  17  ar  
 21  11  30  1   
 22  12  17  ar  
 23  12  31  1   
 24  13  18  ar  
 25  13  32  1   
 26  14  19  ar  
 27  14  33  1   
 28  16  20  1   
 29  16  21  1   
 30  17  34  1   
 31  18  22  ar  
 32  18  35  1   
 33  19  22  ar  
 34  19  36  1   
 35  20  23  1   
 36  20  37  1   
 37  20  38  1   
 38  21  24  1   
 39  21  39  1   
 40  21  40  1   
 41  22  41  1   
 42  23  25  1   
 43  23  42  1   
 44  23  43  1   
 45  24  25  1   
 46  24  44  1   
 47  24  45  1   
 48  25  46  1   
 49  25  47  1   
@<TRIPOS>SUBSTRUCTURE
  1 ****   4 GROUP 4 **** **** 0

# MOE 2024.06 (io_trps.svl 2023.06)
