@<TRIPOS>MOLECULE
NONAME
47 47 1 0 0 
SMALL
USER_CHARGES


@<TRIPOS>ATOM
  1 O       -1.6570     0.8030     0.6210 O.3   1 <1>  -0.3630 
  2 C       -0.8390     1.7480     0.0890 C.ar  1 <1>   0.0830 
  3 C       -1.2950    -0.5440     0.3670 C.3   1 <1>   0.0400 
  4 C       -1.3120     2.4790    -0.9960 C.ar  1 <1>  -0.1440 
  5 C        0.4250     2.0000     0.6200 C.ar  1 <1>  -0.1440 
  6 C       -0.4890     3.4080    -1.6090 C.ar  1 <1>  -0.1500 
  7 C       -2.7330     2.2820    -1.4780 C.3   1 <1>   0.4870 
  8 C        1.2460     2.9330    -0.0090 C.ar  1 <1>   0.0830 
  9 C        0.9300     1.3000     1.8830 C.3   1 <1>  -0.0960 
 10 C        0.7860     3.6270    -1.1250 C.ar  1 <1>  -0.1500 
 11 N       -3.6260     2.5950    -0.3220 N.4   1 <1>  -0.9590 
 12 O        2.4880     3.1310     0.5070 O.3   1 <1>  -0.3630 
 13 C       -5.0010     2.0120    -0.4880 C.3   1 <1>   0.3430 
 14 C       -3.5890     4.0670    -0.0220 C.3   1 <1>   0.2630 
 15 C        3.4210     4.0080    -0.0860 C.3   1 <1>   0.0400 
 16 C       -5.8340     2.0070     0.8260 C.3   1 <1>   0.3430 
 17 N       -7.2210     1.4200     0.6960 N.4   1 <1>  -0.9590 
 18 C       -7.9930     1.6350     1.9670 C.3   1 <1>   0.2630 
 19 C       -7.2240    -0.0480     0.3730 C.3   1 <1>   0.2630 
 20 H       -0.3260    -0.7460     0.7860 H     1 <1>   0.0800 
 21 H       -1.2700    -0.7080    -0.6960 H     1 <1>   0.0800 
 22 H       -2.0240    -1.1880     0.8250 H     1 <1>   0.0800 
 23 H       -0.8220     3.9730    -2.4640 H     1 <1>   0.1500 
 24 H       -2.8550     1.2550    -1.7830 H     1 <1>   0.0800 
 25 H       -2.9450     2.9260    -2.3150 H     1 <1>   0.0800 
 26 H        0.1250     0.8740     2.4530 H     1 <1>   0.0800 
 27 H        1.4350     2.0030     2.5220 H     1 <1>   0.0800 
 28 H        1.6240     0.5240     1.6180 H     1 <1>   0.0800 
 29 H        1.4080     4.3460    -1.6250 H     1 <1>   0.1500 
 30 H       -3.1170     2.1080     0.4460 H     1 <1>   0.4500 
 31 H       -4.9040     0.9950    -0.8310 H     1 <1>   0.0800 
 32 H       -5.5310     2.5730    -1.2410 H     1 <1>   0.0800 
 33 H       -4.0220     4.6310    -0.8340 H     1 <1>   0.0800 
 34 H       -2.5690     4.3940     0.1110 H     1 <1>   0.0800 
 35 H       -4.1290     4.2880     0.8830 H     1 <1>   0.0800 
 36 H        4.3280     3.9690     0.4910 H     1 <1>   0.0800 
 37 H        3.0230     5.0070    -0.0700 H     1 <1>   0.0800 
 38 H        3.6160     3.6830    -1.0930 H     1 <1>   0.0800 
 39 H       -5.9240     3.0240     1.1710 H     1 <1>   0.0800 
 40 H       -5.2920     1.4510     1.5740 H     1 <1>   0.0800 
 41 H       -7.7480     1.9130    -0.0470 H     1 <1>   0.4500 
 42 H       -7.5140     1.1300     2.7920 H     1 <1>   0.0800 
 43 H       -8.9950     1.2480     1.8680 H     1 <1>   0.0800 
 44 H       -8.0580     2.6860     2.1990 H     1 <1>   0.0800 
 45 H       -6.7090    -0.6050     1.1400 H     1 <1>   0.0800 
 46 H       -6.7450    -0.2340    -0.5740 H     1 <1>   0.0800 
 47 H       -8.2380    -0.4140     0.3130 H     1 <1>   0.0800 
@<TRIPOS>BOND
  1   1   2  1   
  2   1   3  1   
  3   2   4  ar  
  4   2   5  ar  
  5   3  20  1   
  6   3  21  1   
  7   3  22  1   
  8   4   6  ar  
  9   4   7  1   
 10   5   8  ar  
 11   5   9  1   
 12   6  10  ar  
 13   6  23  1   
 14   7  11  1   
 15   7  24  1   
 16   7  25  1   
 17   8  10  ar  
 18   8  12  1   
 19   9  26  1   
 20   9  27  1   
 21   9  28  1   
 22  10  29  1   
 23  11  13  1   
 24  11  14  1   
 25  11  30  1   
 26  12  15  1   
 27  13  16  1   
 28  13  31  1   
 29  13  32  1   
 30  14  33  1   
 31  14  34  1   
 32  14  35  1   
 33  15  36  1   
 34  15  37  1   
 35  15  38  1   
 36  16  17  1   
 37  16  39  1   
 38  16  40  1   
 39  17  18  1   
 40  17  19  1   
 41  17  41  1   
 42  18  42  1   
 43  18  43  1   
 44  18  44  1   
 45  19  45  1   
 46  19  46  1   
 47  19  47  1   
@<TRIPOS>SUBSTRUCTURE
  1 ****   2 GROUP 4 **** **** 0

# MOE 2024.06 (io_trps.svl 2023.06)
