@<TRIPOS>MOLECULE
NONAME
30 30 1 0 0 
SMALL
USER_CHARGES


@<TRIPOS>ATOM
  1 O       -4.6080    -1.8000     0.0900 O.co2 1 <1>  -0.9000 
  2 C       -4.1180    -0.6800    -0.0860 C.2   1 <1>   0.9060 
  3 O       -3.0650    -0.3090     0.4070 O.co2 1 <1>  -0.9000 
  4 C       -5.0390     0.3510    -0.6180 C.3   1 <1>  -0.2660 
  5 C       -5.8290     0.7550     0.6040 C.3   1 <1>   0.5660 
  6 N       -6.6110    -0.3890     1.0760 N.4   1 <1>  -0.8530 
  7 C       -6.8090     1.8920     0.3530 C.ar  1 <1>  -0.1440 
  8 C       -7.7070     1.8740    -0.7090 C.ar  1 <1>  -0.1500 
  9 C       -6.8160     2.9750     1.2220 C.ar  1 <1>  -0.1500 
 10 C       -8.6010     2.9150    -0.8940 C.ar  1 <1>  -0.1500 
 11 C       -7.7090     4.0140     1.0380 C.ar  1 <1>  -0.1500 
 12 C       -8.6080     3.9940    -0.0150 C.ar  1 <1>   0.0820 
 13 O       -9.4490     5.0510    -0.1180 O.3   1 <1>  -0.3620 
 14 C      -10.3710     5.1640    -1.1770 C.3   1 <1>   0.1200 
 15 C      -11.1320     6.4750    -1.0020 C.3   1 <1>  -0.2400 
 16 H       -5.6450    -0.0570    -1.4030 H     1 <1>   0.0800 
 17 H       -4.4650     1.1790    -0.9890 H     1 <1>   0.0800 
 18 H       -5.1250     1.0470     1.3690 H     1 <1>   0.0800 
 19 H       -7.4370    -0.5150     0.4980 H     1 <1>   0.4500 
 20 H       -6.8420    -0.3070     2.0630 H     1 <1>   0.4500 
 21 H       -5.9850    -1.2200     0.9300 H     1 <1>   0.4500 
 22 H       -7.7210     1.0570    -1.4100 H     1 <1>   0.1500 
 23 H       -6.1260     3.0240     2.0480 H     1 <1>   0.1500 
 24 H       -9.2810     2.8740    -1.7240 H     1 <1>   0.1500 
 25 H       -7.7160     4.8540     1.7100 H     1 <1>   0.1500 
 26 H      -11.0450     4.3260    -1.1350 H     1 <1>   0.0800 
 27 H       -9.8270     5.1620    -2.1050 H     1 <1>   0.0800 
 28 H      -11.6590     6.4740    -0.0640 H     1 <1>   0.0800 
 29 H      -11.8460     6.5920    -1.7970 H     1 <1>   0.0800 
 30 H      -10.4480     7.3050    -1.0290 H     1 <1>   0.0800 
@<TRIPOS>BOND
  1   1   2  ar  
  2   2   3  ar  
  3   2   4  1   
  4   4   5  1   
  5   4  16  1   
  6   4  17  1   
  7   5   6  1   
  8   5   7  1   
  9   5  18  1   
 10   6  19  1   
 11   6  20  1   
 12   6  21  1   
 13   7   8  ar  
 14   7   9  ar  
 15   8  10  ar  
 16   8  22  1   
 17   9  11  ar  
 18   9  23  1   
 19  10  12  ar  
 20  10  24  1   
 21  11  12  ar  
 22  11  25  1   
 23  12  13  1   
 24  13  14  1   
 25  14  15  1   
 26  14  26  1   
 27  14  27  1   
 28  15  28  1   
 29  15  29  1   
 30  15  30  1   
@<TRIPOS>SUBSTRUCTURE
  1 ****   7 GROUP 4 **** **** 0

# MOE 2024.06 (io_trps.svl 2023.06)
