@<TRIPOS>MOLECULE
NONAME
41 43 1 0 0 
SMALL
USER_CHARGES


@<TRIPOS>ATOM
  1 S       -1.7780     1.3310    -1.0080 S.3   1 <1>  -0.0800 
  2 C       -2.3280     0.7830     0.5420 C.2   1 <1>   0.4420 
  3 C       -0.1930     1.4400    -0.3230 C.2   1 <1>   0.1980 
  4 N       -1.3760     0.7230     1.4010 N.2   1 <1>  -0.3380 
  5 N       -3.6680     0.4940     0.6540 N.am  1 <1>  -0.4940 
  6 N       -0.1600     1.0990     0.8990 N.2   1 <1>  -0.3380 
  7 C        0.9370     1.9080    -1.2110 C.3   1 <1>  -0.0600 
  8 C       -4.4060     0.0780     1.7210 C.2   1 <1>   0.5690 
  9 O       -3.9660    -0.1100     2.8270 O.2   1 <1>  -0.5700 
 10 C       -5.8930    -0.1560     1.4560 C.3   1 <1>   0.1710 
 11 N       -6.4100     0.6070     0.2790 N.3   1 <1>  -0.8100 
 12 C       -7.6940     0.0370    -0.1920 C.3   1 <1>   0.1100 
 13 C       -6.6180     2.0360     0.6300 C.3   1 <1>   0.1100 
 14 C       -8.2700     0.7970    -1.4060 C.3   1 <1>   0.2090 
 15 C       -7.1300     2.8660    -0.5630 C.3   1 <1>   0.2090 
 16 N       -8.3610     2.2680    -1.1590 N.pl3 1 <1>  -0.8380 
 17 C       -9.5860     2.8840    -0.9140 C.ar  1 <1>   0.1000 
 18 C       -9.8610     4.1070    -1.5200 C.ar  1 <1>  -0.1500 
 19 C      -10.5420     2.3150    -0.0740 C.ar  1 <1>  -0.1500 
 20 C      -11.0640     4.7560    -1.3000 C.ar  1 <1>  -0.1500 
 21 C      -11.7510     2.9490     0.1560 C.ar  1 <1>  -0.1500 
 22 C      -11.9880     4.1620    -0.4630 C.ar  1 <1>   0.1900 
 23 F      -13.1290     4.7680    -0.2490 F     1 <1>  -0.1900 
 24 H       -4.2470     0.6420    -0.1750 H     1 <1>   0.3700 
 25 H        1.0520     1.2360    -2.0420 H     1 <1>   0.0800 
 26 H        1.8530     1.9290    -0.6500 H     1 <1>   0.0800 
 27 H        0.7290     2.8960    -1.5780 H     1 <1>   0.0800 
 28 H       -6.4520     0.0970     2.3400 H     1 <1>   0.0800 
 29 H       -6.0160    -1.2100     1.2800 H     1 <1>   0.0800 
 30 H       -8.4160     0.0610     0.6060 H     1 <1>   0.0800 
 31 H       -7.5460    -0.9900    -0.4740 H     1 <1>   0.0800 
 32 H       -5.6940     2.4670     0.9730 H     1 <1>   0.0800 
 33 H       -7.3350     2.1160     1.4300 H     1 <1>   0.0800 
 34 H       -9.2440     0.4090    -1.6470 H     1 <1>   0.0800 
 35 H       -7.6330     0.6290    -2.2570 H     1 <1>   0.0800 
 36 H       -6.3650     2.9170    -1.3170 H     1 <1>   0.0800 
 37 H       -7.3390     3.8690    -0.2340 H     1 <1>   0.0800 
 38 H       -9.1240     4.5380    -2.1710 H     1 <1>   0.1500 
 39 H      -10.3370     1.3770     0.4040 H     1 <1>   0.1500 
 40 H      -11.2830     5.6990    -1.7660 H     1 <1>   0.1500 
 41 H      -12.4960     2.5200     0.8010 H     1 <1>   0.1500 
@<TRIPOS>BOND
  1   1   2  1   
  2   1   3  1   
  3   2   4  2   
  4   2   5  1   
  5   3   6  2   
  6   3   7  1   
  7   4   6  1   
  8   5   8  am  
  9   5  24  1   
 10   7  25  1   
 11   7  26  1   
 12   7  27  1   
 13   8   9  2   
 14   8  10  1   
 15  10  11  1   
 16  10  28  1   
 17  10  29  1   
 18  11  12  1   
 19  11  13  1   
 20  12  14  1   
 21  12  30  1   
 22  12  31  1   
 23  13  15  1   
 24  13  32  1   
 25  13  33  1   
 26  14  16  1   
 27  14  34  1   
 28  14  35  1   
 29  15  16  1   
 30  15  36  1   
 31  15  37  1   
 32  16  17  1   
 33  17  18  ar  
 34  17  19  ar  
 35  18  20  ar  
 36  18  38  1   
 37  19  21  ar  
 38  19  39  1   
 39  20  22  ar  
 40  20  40  1   
 41  21  22  ar  
 42  21  41  1   
 43  22  23  1   
@<TRIPOS>SUBSTRUCTURE
  1 ****  13 GROUP 4 **** **** 0

# MOE 2024.06 (io_trps.svl 2023.06)
