@<TRIPOS>MOLECULE
NONAME
35 34 1 0 0 
SMALL
USER_CHARGES


@<TRIPOS>ATOM
  1 P        0.5210     0.3730     0.1120 P.3   1 <1>   0.9710 
  2 O        0.6280     1.7130    -0.4590 O.2   1 <1>  -0.7000 
  3 O       -0.8990    -0.3250    -0.1550 O.3   1 <1>  -0.5510 
  4 C        1.8050    -0.7630    -0.4500 C.3   1 <1>   0.1100 
  5 C        0.6340     0.3880     1.8770 C.3   1 <1>  -0.2400 
  6 C       -1.6960    -0.2210    -1.2870 C.3   1 <1>   0.2000 
  7 N        2.1020    -2.0090     0.3380 N.3   1 <1>  -0.8100 
  8 C       -0.8990    -0.4720    -2.5690 C.3   1 <1>  -0.2400 
  9 C       -2.4030     1.1330    -1.2890 C.3   1 <1>  -0.2400 
 10 C        1.3060    -3.2000    -0.1020 C.3   1 <1>   0.1710 
 11 C        3.5360    -2.3250     0.2950 C.3   1 <1>   0.0300 
 12 C       -0.2010    -3.1990     0.1790 C.2   1 <1>   0.6590 
 13 O       -0.9980    -3.4160    -0.7010 O.2   1 <1>  -0.5700 
 14 O       -0.5770    -2.9830     1.4360 O.3   1 <1>  -0.4300 
 15 C       -1.9390    -2.9120     1.7990 C.3   1 <1>   0.0400 
 16 H        1.6430    -1.0390    -1.4740 H     1 <1>   0.0800 
 17 H        2.7110    -0.1850    -0.4610 H     1 <1>   0.0800 
 18 H       -0.1450     0.9880     2.3050 H     1 <1>   0.0800 
 19 H        1.5730     0.7910     2.2020 H     1 <1>   0.0800 
 20 H        0.5450    -0.6010     2.2830 H     1 <1>   0.0800 
 21 H       -2.4420    -0.9930    -1.1940 H     1 <1>   0.0800 
 22 H       -0.1690     0.3000    -2.7320 H     1 <1>   0.0800 
 23 H       -1.5710    -0.4720    -3.4070 H     1 <1>   0.0800 
 24 H       -0.4250    -1.4350    -2.5280 H     1 <1>   0.0800 
 25 H       -1.7060     1.9350    -1.4470 H     1 <1>   0.0800 
 26 H       -2.9140     1.2820    -0.3550 H     1 <1>   0.0800 
 27 H       -3.1280     1.1610    -2.0810 H     1 <1>   0.0800 
 28 H        1.6940    -4.0690     0.3980 H     1 <1>   0.0800 
 29 H        1.4460    -3.3500    -1.1570 H     1 <1>   0.0800 
 30 H        3.8510    -2.5240    -0.7150 H     1 <1>   0.0800 
 31 H        4.1080    -1.5010     0.6860 H     1 <1>   0.0800 
 32 H        3.7420    -3.1890     0.9050 H     1 <1>   0.0800 
 33 H       -2.0010    -2.7380     2.8580 H     1 <1>   0.0800 
 34 H       -2.3970    -2.0990     1.2620 H     1 <1>   0.0800 
 35 H       -2.4170    -3.8420     1.5450 H     1 <1>   0.0800 
@<TRIPOS>BOND
  1   1   2  2   
  2   1   3  1   
  3   1   4  1   
  4   1   5  1   
  5   3   6  1   
  6   4   7  1   
  7   4  16  1   
  8   4  17  1   
  9   5  18  1   
 10   5  19  1   
 11   5  20  1   
 12   6   8  1   
 13   6   9  1   
 14   6  21  1   
 15   7  10  1   
 16   7  11  1   
 17   8  22  1   
 18   8  23  1   
 19   8  24  1   
 20   9  25  1   
 21   9  26  1   
 22   9  27  1   
 23  10  12  1   
 24  10  28  1   
 25  10  29  1   
 26  11  30  1   
 27  11  31  1   
 28  11  32  1   
 29  12  13  2   
 30  12  14  1   
 31  14  15  1   
 32  15  33  1   
 33  15  34  1   
 34  15  35  1   
@<TRIPOS>SUBSTRUCTURE
  1 ****   3 GROUP 4 **** **** 0

# MOE 2024.06 (io_trps.svl 2023.06)
