@<TRIPOS>MOLECULE
NONAME
46 47 1 0 0 
SMALL
USER_CHARGES


@<TRIPOS>ATOM
  1 S        0.0070    -0.0160    -0.3050 S.o2  1 <1>   1.4470 
  2 O        0.4220     0.3440    -1.6410 O.2   1 <1>  -0.6500 
  3 O        0.6320     0.5970     0.8460 O.2   1 <1>  -0.6500 
  4 N        0.3290    -1.6590    -0.2280 N.am  1 <1>  -0.9140 
  5 C       -1.7980     0.0550    -0.1520 C.ar  1 <1>  -0.0090 
  6 C        1.6850    -1.9480     0.1880 C.3   1 <1>   0.1960 
  7 C       -2.5960     0.5220    -1.1900 C.ar  1 <1>  -0.1500 
  8 C       -2.4290    -0.3670     1.0110 C.ar  1 <1>  -0.1500 
  9 C        1.9080    -3.4480     0.0620 C.3   1 <1>  -0.2400 
 10 C       -3.9740     0.5630    -1.0720 C.ar  1 <1>  -0.1500 
 11 C       -3.8060    -0.3280     1.1370 C.ar  1 <1>  -0.1500 
 12 C       -4.5880     0.1370     0.0930 C.ar  1 <1>  -0.1430 
 13 C       -6.1010     0.1710     0.2230 C.3   1 <1>  -0.0170 
 14 C       -6.7030    -1.1640    -0.2390 C.3   1 <1>  -0.0990 
 15 C       -8.2200    -1.2270    -0.1340 C.2   1 <1>   0.5690 
 16 O       -8.8060    -0.2380     0.2430 O.2   1 <1>  -0.5700 
 17 N       -8.8870    -2.3810    -0.4630 N.am  1 <1>  -0.6600 
 18 C       -8.2540    -3.6320    -0.9690 C.3   1 <1>   0.1400 
 19 C      -10.3670    -2.4830    -0.3100 C.3   1 <1>   0.1400 
 20 C       -8.5630    -4.7870    -0.0110 C.3   1 <1>  -0.1600 
 21 C      -10.7060    -3.6290     0.6510 C.3   1 <1>  -0.1600 
 22 C      -10.0750    -4.9540     0.2010 C.3   1 <1>  -0.1600 
 23 H        0.2510    -1.9570    -1.1970 H     1 <1>   0.4200 
 24 H        1.8260    -1.6410     1.2130 H     1 <1>   0.0800 
 25 H        2.3880    -1.4140    -0.4330 H     1 <1>   0.0800 
 26 H       -2.1350     0.8590    -2.1040 H     1 <1>   0.1500 
 27 H       -1.8300    -0.7310     1.8300 H     1 <1>   0.1500 
 28 H        1.2070    -3.9800     0.6810 H     1 <1>   0.0800 
 29 H        2.9030    -3.6920     0.3890 H     1 <1>   0.0800 
 30 H        1.7980    -3.7640    -0.9600 H     1 <1>   0.0800 
 31 H       -4.5680     0.9300    -1.8930 H     1 <1>   0.1500 
 32 H       -4.2670    -0.6620     2.0510 H     1 <1>   0.1500 
 33 H       -6.5010     0.9750    -0.3700 H     1 <1>   0.0800 
 34 H       -6.3750     0.3580     1.2480 H     1 <1>   0.0800 
 35 H       -6.2890    -1.9530     0.3620 H     1 <1>   0.0800 
 36 H       -6.4260    -1.3320    -1.2630 H     1 <1>   0.0800 
 37 H       -7.1900    -3.5260    -1.0700 H     1 <1>   0.0800 
 38 H       -8.6570    -3.8540    -1.9430 H     1 <1>   0.0800 
 39 H      -10.8060    -2.6700    -1.2740 H     1 <1>   0.0800 
 40 H      -10.7780    -1.5630     0.0700 H     1 <1>   0.0800 
 41 H       -8.0840    -4.5930     0.9330 H     1 <1>   0.0800 
 42 H       -8.1520    -5.6990    -0.4070 H     1 <1>   0.0800 
 43 H      -11.7740    -3.7370     0.7100 H     1 <1>   0.0800 
 44 H      -10.3490    -3.3700     1.6330 H     1 <1>   0.0800 
 45 H      -10.2580    -5.7140     0.9420 H     1 <1>   0.0800 
 46 H      -10.5320    -5.2710    -0.7210 H     1 <1>   0.0800 
@<TRIPOS>BOND
  1   1   2  2   
  2   1   3  2   
  3   1   4  am  
  4   1   5  1   
  5   4   6  1   
  6   4  23  1   
  7   5   7  ar  
  8   5   8  ar  
  9   6   9  1   
 10   6  24  1   
 11   6  25  1   
 12   7  10  ar  
 13   7  26  1   
 14   8  11  ar  
 15   8  27  1   
 16   9  28  1   
 17   9  29  1   
 18   9  30  1   
 19  10  12  ar  
 20  10  31  1   
 21  11  12  ar  
 22  11  32  1   
 23  12  13  1   
 24  13  14  1   
 25  13  33  1   
 26  13  34  1   
 27  14  15  1   
 28  14  35  1   
 29  14  36  1   
 30  15  16  2   
 31  15  17  am  
 32  17  18  1   
 33  17  19  1   
 34  18  20  1   
 35  18  37  1   
 36  18  38  1   
 37  19  21  1   
 38  19  39  1   
 39  19  40  1   
 40  20  22  1   
 41  20  41  1   
 42  20  42  1   
 43  21  22  1   
 44  21  43  1   
 45  21  44  1   
 46  22  45  1   
 47  22  46  1   
@<TRIPOS>SUBSTRUCTURE
  1 ****  12 GROUP 4 **** **** 0

# MOE 2024.06 (io_trps.svl 2023.06)
