@<TRIPOS>MOLECULE
NONAME
40 41 1 0 0 
SMALL
USER_CHARGES


@<TRIPOS>ATOM
  1 BR      -0.1980     0.3370    -1.1280 Br    1 <1>  -0.1110 
  2 C        1.4640    -0.5230    -0.6840 C.ar  1 <1>   0.1110 
  3 C        2.6340    -0.0330    -1.2160 C.ar  1 <1>  -0.1500 
  4 C        1.4370    -1.6180     0.1640 C.ar  1 <1>  -0.1500 
  5 C        3.8470    -0.6520    -0.8980 C.ar  1 <1>   0.0860 
  6 C        2.6320    -2.2320     0.4780 C.ar  1 <1>  -0.1500 
  7 C        5.1170    -0.2120    -1.4020 C.2   1 <1>   0.5440 
  8 C        3.8380    -1.7640    -0.0420 C.ar  1 <1>   0.1790 
  9 O        5.1900     0.6910    -2.2200 O.2   1 <1>  -0.5700 
 10 N        6.2560    -0.8470    -0.9590 N.am  1 <1>  -0.4200 
 11 N        5.0030    -2.4150     0.2970 N.2   1 <1>  -0.6290 
 12 C        6.1090    -1.9540    -0.1530 C.2   1 <1>   0.6510 
 13 C        7.5790    -0.2590    -1.3070 C.3   1 <1>   0.2780 
 14 S        7.5820    -2.8600     0.2970 S.3   1 <1>  -0.3710 
 15 C        7.9280     0.8710    -0.3410 C.2   1 <1>  -0.2760 
 16 C        6.9690    -4.1600     1.4780 C.3   1 <1>   0.1310 
 17 C        7.8880     2.1580    -0.6990 C.2   1 <1>  -0.3000 
 18 C        8.3310     0.4350     1.0610 C.3   1 <1>  -0.1020 
 19 C        8.1120    -5.0210     2.0020 C.2   1 <1>   0.6590 
 20 O        8.4970    -4.8840     3.1320 O.2   1 <1>  -0.5700 
 21 O        8.6620    -5.9510     1.2240 O.3   1 <1>  -0.4300 
 22 C        8.3850    -6.1490    -0.1430 C.3   1 <1>   0.1200 
 23 C        9.1820    -7.3630    -0.6080 C.3   1 <1>  -0.2400 
 24 H        2.6200     0.8210    -1.8720 H     1 <1>   0.1500 
 25 H        0.5010    -1.9710     0.5600 H     1 <1>   0.1500 
 26 H        2.6480    -3.0840     1.1340 H     1 <1>   0.1500 
 27 H        7.5340     0.1350    -2.3080 H     1 <1>   0.0800 
 28 H        8.3580    -0.9990    -1.3120 H     1 <1>   0.0800 
 29 H        6.2360    -4.7540     0.9670 H     1 <1>   0.0800 
 30 H        6.5020    -3.6420     2.2950 H     1 <1>   0.0800 
 31 H        8.1300     2.9790    -0.0470 H     1 <1>   0.1500 
 32 H        7.6000     2.5020    -1.6790 H     1 <1>   0.1500 
 33 H        9.1640    -0.2440     1.0180 H     1 <1>   0.0800 
 34 H        7.5090    -0.0490     1.5570 H     1 <1>   0.0800 
 35 H        8.6210     1.2860     1.6520 H     1 <1>   0.0800 
 36 H        8.6870    -5.2700    -0.6870 H     1 <1>   0.0800 
 37 H        7.3300    -6.3210    -0.2670 H     1 <1>   0.0800 
 38 H       10.2340    -7.1890    -0.4700 H     1 <1>   0.0800 
 39 H        8.9980    -7.5420    -1.6520 H     1 <1>   0.0800 
 40 H        8.8870    -8.2350    -0.0530 H     1 <1>   0.0800 
@<TRIPOS>BOND
  1   1   2  1   
  2   2   3  ar  
  3   2   4  ar  
  4   3   5  ar  
  5   3  24  1   
  6   4   6  ar  
  7   4  25  1   
  8   5   7  1   
  9   5   8  ar  
 10   6   8  ar  
 11   6  26  1   
 12   7   9  2   
 13   7  10  am  
 14   8  11  1   
 15  10  12  1   
 16  10  13  1   
 17  11  12  2   
 18  12  14  1   
 19  13  15  1   
 20  13  27  1   
 21  13  28  1   
 22  14  16  1   
 23  15  17  2   
 24  15  18  1   
 25  16  19  1   
 26  16  29  1   
 27  16  30  1   
 28  17  31  1   
 29  17  32  1   
 30  18  33  1   
 31  18  34  1   
 32  18  35  1   
 33  19  20  2   
 34  19  21  1   
 35  21  22  1   
 36  22  23  1   
 37  22  36  1   
 38  22  37  1   
 39  23  38  1   
 40  23  39  1   
 41  23  40  1   
@<TRIPOS>SUBSTRUCTURE
  1 ****  12 GROUP 4 **** **** 0

# MOE 2024.06 (io_trps.svl 2023.06)
