@<TRIPOS>MOLECULE
NONAME
39 40 1 0 0 
SMALL
USER_CHARGES


@<TRIPOS>ATOM
  1 BR       0.9820     1.8250     0.0150 Br    1 <1>  -0.1110 
  2 C        2.8030     1.6120     0.6000 C.ar  1 <1>   0.1110 
  3 C        3.7660     1.2810    -0.3340 C.ar  1 <1>  -0.1500 
  4 C        3.0980     1.7970     1.9370 C.ar  1 <1>  -0.1500 
  5 C        5.0800     1.1290     0.0850 C.ar  1 <1>  -0.1440 
  6 C        4.4100     1.6400     2.3500 C.ar  1 <1>  -0.1500 
  7 C        5.3910     1.3070     1.4280 C.ar  1 <1>  -0.1500 
  8 C        6.1680     0.7720    -0.9120 C.3   1 <1>   0.2140 
  9 S        6.4490    -1.0200    -0.8200 S.3   1 <1>  -0.4600 
 10 C        7.7810    -1.2900    -2.0410 C.3   1 <1>   0.1310 
 11 C        8.9360    -0.3140    -1.8390 C.2   1 <1>   0.5690 
 12 O        9.0270     0.5870    -2.6420 O.2   1 <1>  -0.5700 
 13 N        9.8250    -0.4410    -0.7990 N.am  1 <1>  -0.6600 
 14 C       10.9930     0.4710    -0.6880 C.3   1 <1>   0.1400 
 15 C        9.7620    -1.4790     0.2690 C.3   1 <1>   0.1400 
 16 C       10.6390     1.7540     0.0730 C.3   1 <1>  -0.1600 
 17 C        9.2480    -0.9070     1.5970 C.3   1 <1>  -0.1600 
 18 C        9.7490     1.5890     1.3180 C.3   1 <1>  -0.1600 
 19 C       10.0110     0.3170     2.1390 C.3   1 <1>  -0.1600 
 20 H        3.4890     1.1420    -1.3630 H     1 <1>   0.1500 
 21 H        2.3210     2.0540     2.6340 H     1 <1>   0.1500 
 22 H        4.6680     1.7740     3.3860 H     1 <1>   0.1500 
 23 H        6.4060     1.1820     1.7620 H     1 <1>   0.1500 
 24 H        7.0930     1.2650    -0.6730 H     1 <1>   0.0800 
 25 H        5.8810     1.0040    -1.9220 H     1 <1>   0.0800 
 26 H        7.3450    -1.1440    -3.0120 H     1 <1>   0.0800 
 27 H        8.1080    -2.3070    -1.9490 H     1 <1>   0.0800 
 28 H       11.3470     0.7270    -1.6730 H     1 <1>   0.0800 
 29 H       11.7970    -0.0360    -0.1820 H     1 <1>   0.0800 
 30 H       10.7450    -1.8920     0.4150 H     1 <1>   0.0800 
 31 H        9.1210    -2.2890    -0.0290 H     1 <1>   0.0800 
 32 H       10.1520     2.4280    -0.6100 H     1 <1>   0.0800 
 33 H       11.5620     2.2210     0.3650 H     1 <1>   0.0800 
 34 H        9.3080    -1.6920     2.3300 H     1 <1>   0.0800 
 35 H        8.2060    -0.6650     1.4930 H     1 <1>   0.0800 
 36 H        8.7180     1.6040     1.0130 H     1 <1>   0.0800 
 37 H        9.8990     2.4490     1.9480 H     1 <1>   0.0800 
 38 H       11.0660     0.1140     2.2010 H     1 <1>   0.0800 
 39 H        9.6620     0.4960     3.1420 H     1 <1>   0.0800 
@<TRIPOS>BOND
  1   1   2  1   
  2   2   3  ar  
  3   2   4  ar  
  4   3   5  ar  
  5   3  20  1   
  6   4   6  ar  
  7   4  21  1   
  8   5   7  ar  
  9   5   8  1   
 10   6   7  ar  
 11   6  22  1   
 12   7  23  1   
 13   8   9  1   
 14   8  24  1   
 15   8  25  1   
 16   9  10  1   
 17  10  11  1   
 18  10  26  1   
 19  10  27  1   
 20  11  12  2   
 21  11  13  am  
 22  13  14  1   
 23  13  15  1   
 24  14  16  1   
 25  14  28  1   
 26  14  29  1   
 27  15  17  1   
 28  15  30  1   
 29  15  31  1   
 30  16  18  1   
 31  16  32  1   
 32  16  33  1   
 33  17  19  1   
 34  17  34  1   
 35  17  35  1   
 36  18  19  1   
 37  18  36  1   
 38  18  37  1   
 39  19  38  1   
 40  19  39  1   
@<TRIPOS>SUBSTRUCTURE
  1 ****   8 GROUP 4 **** **** 0

# MOE 2024.06 (io_trps.svl 2023.06)
