@<TRIPOS>MOLECULE
NONAME
53 56 1 0 0 
SMALL
USER_CHARGES


@<TRIPOS>ATOM
  1 CL      -0.9020    -2.5640    -1.5260 Cl    1 <1>  -0.1770 
  2 C       -2.0720    -2.0150    -0.3540 C.ar  1 <1>   0.1770 
  3 C       -3.1210    -1.2170    -0.7730 C.ar  1 <1>  -0.1500 
  4 C       -1.9340    -2.3880     0.9690 C.ar  1 <1>  -0.1500 
  5 C       -4.0590    -0.7810     0.1510 C.ar  1 <1>  -0.1440 
  6 C       -2.8670    -1.9510     1.8930 C.ar  1 <1>  -0.1500 
  7 C       -3.9230    -1.1520     1.4820 C.ar  1 <1>  -0.1500 
  8 C       -5.2280     0.0930    -0.2820 C.3   1 <1>   0.2540 
  9 N       -6.5220    -0.6030    -0.0720 N.3   1 <1>  -0.8100 
 10 C       -7.7770     0.1810    -0.3430 C.3   1 <1>   0.1900 
 11 C       -6.5260    -1.8950    -0.8170 C.3   1 <1>   0.1100 
 12 C       -7.7420     1.6260     0.2630 C.3   1 <1>  -0.0800 
 13 C       -9.0130    -0.6600     0.1410 C.3   1 <1>   0.4230 
 14 C       -7.8850    -2.6250    -0.8120 C.3   1 <1>   0.3430 
 15 C       -9.0910     2.1760     0.7950 C.3   1 <1>  -0.1600 
 16 C       -7.2010     2.6370    -0.7800 C.3   1 <1>  -0.1600 
 17 N       -8.7550    -2.1230     0.2930 N.4   1 <1>  -0.9590 
 18 C      -10.2370    -0.6130    -0.7750 C.3   1 <1>  -0.1600 
 19 C       -8.9400     3.5830     1.3910 C.3   1 <1>  -0.1600 
 20 C       -7.0310     4.0420    -0.1880 C.3   1 <1>  -0.1600 
 21 C      -10.0760    -2.7890     0.3450 C.3   1 <1>   0.3430 
 22 C      -10.9930    -1.9210    -0.5140 C.3   1 <1>  -0.1600 
 23 C       -8.3570     4.5640     0.3710 C.3   1 <1>  -0.1600 
 24 H       -3.1880    -0.9460    -1.8110 H     1 <1>   0.1500 
 25 H       -1.1080    -3.0080     1.2680 H     1 <1>   0.1500 
 26 H       -2.7720    -2.2300     2.9280 H     1 <1>   0.1500 
 27 H       -4.6470    -0.8150     2.2050 H     1 <1>   0.1500 
 28 H       -5.1210     0.3620    -1.3190 H     1 <1>   0.0800 
 29 H       -5.1830     0.9910     0.3060 H     1 <1>   0.0800 
 30 H       -7.8670     0.2910    -1.4100 H     1 <1>   0.0800 
 31 H       -5.8010    -2.5580    -0.3750 H     1 <1>   0.0800 
 32 H       -6.2270    -1.7340    -1.8390 H     1 <1>   0.0800 
 33 H       -7.0830     1.6100     1.1140 H     1 <1>   0.0800 
 34 H       -9.3080    -0.2990     1.1090 H     1 <1>   0.0800 
 35 H       -7.7190    -3.6840    -0.7100 H     1 <1>   0.0800 
 36 H       -8.3730    -2.4580    -1.7570 H     1 <1>   0.0800 
 37 H       -9.4830     1.5540     1.5790 H     1 <1>   0.0800 
 38 H       -9.8100     2.2250    -0.0030 H     1 <1>   0.0800 
 39 H       -7.8840     2.6950    -1.6100 H     1 <1>   0.0800 
 40 H       -6.2530     2.3300    -1.1760 H     1 <1>   0.0800 
 41 H       -8.2130    -2.2330     1.1620 H     1 <1>   0.4500 
 42 H       -9.9320    -0.5660    -1.8060 H     1 <1>   0.0800 
 43 H      -10.8530     0.2430    -0.5640 H     1 <1>   0.0800 
 44 H       -8.2930     3.5420     2.2510 H     1 <1>   0.0800 
 45 H       -9.9000     3.9420     1.7210 H     1 <1>   0.0800 
 46 H       -6.6750     4.7150    -0.9490 H     1 <1>   0.0800 
 47 H       -6.2960     4.0160     0.5980 H     1 <1>   0.0800 
 48 H      -10.4390    -2.7960     1.3610 H     1 <1>   0.0800 
 49 H      -10.0270    -3.8030    -0.0200 H     1 <1>   0.0800 
 50 H      -11.2240    -2.4210    -1.4390 H     1 <1>   0.0800 
 51 H      -11.9150    -1.7410     0.0120 H     1 <1>   0.0800 
 52 H       -8.2000     5.5220     0.8380 H     1 <1>   0.0800 
 53 H       -9.0570     4.7030    -0.4360 H     1 <1>   0.0800 
@<TRIPOS>BOND
  1   1   2  1   
  2   2   3  ar  
  3   2   4  ar  
  4   3   5  ar  
  5   3  24  1   
  6   4   6  ar  
  7   4  25  1   
  8   5   7  ar  
  9   5   8  1   
 10   6   7  ar  
 11   6  26  1   
 12   7  27  1   
 13   8   9  1   
 14   8  28  1   
 15   8  29  1   
 16   9  10  1   
 17   9  11  1   
 18  10  12  1   
 19  10  13  1   
 20  10  30  1   
 21  11  14  1   
 22  11  31  1   
 23  11  32  1   
 24  12  15  1   
 25  12  16  1   
 26  12  33  1   
 27  13  17  1   
 28  13  18  1   
 29  13  34  1   
 30  14  17  1   
 31  14  35  1   
 32  14  36  1   
 33  15  19  1   
 34  15  37  1   
 35  15  38  1   
 36  16  20  1   
 37  16  39  1   
 38  16  40  1   
 39  17  21  1   
 40  17  41  1   
 41  18  22  1   
 42  18  42  1   
 43  18  43  1   
 44  19  23  1   
 45  19  44  1   
 46  19  45  1   
 47  20  23  1   
 48  20  46  1   
 49  20  47  1   
 50  21  22  1   
 51  21  48  1   
 52  21  49  1   
 53  22  50  1   
 54  22  51  1   
 55  23  52  1   
 56  23  53  1   
@<TRIPOS>SUBSTRUCTURE
  1 ****   9 GROUP 4 **** **** 0

# MOE 2024.06 (io_trps.svl 2023.06)
