@<TRIPOS>MOLECULE
NONAME
40 42 1 0 0 
SMALL
USER_CHARGES


@<TRIPOS>ATOM
  1 O        0.3540    -2.1880    -0.0040 O.co2 1 <1>  -0.9000 
  2 C       -0.2510    -2.7090     0.9330 C.2   1 <1>   0.9060 
  3 O        0.3360    -3.2800     1.8580 O.co2 1 <1>  -0.9000 
  4 C       -1.7640    -2.8000     0.9380 C.3   1 <1>  -0.1860 
  5 C       -2.3780    -4.2360     0.2550 C.3   1 <1>  -0.0190 
  6 C       -2.5390    -1.5380     0.2070 C.3   1 <1>   0.0580 
  7 C       -1.3810    -5.2980    -0.2480 C.2   1 <1>   0.5690 
  8 C       -3.5030    -3.7670    -0.8720 C.3   1 <1>   0.0580 
  9 C       -3.7860    -1.2650    -0.7970 C.2   1 <1>  -0.2880 
 10 C       -2.9840    -2.6730    -0.3240 C.3   1 <1>  -0.1600 
 11 O       -1.6560    -5.9270    -1.2450 O.2   1 <1>  -0.5700 
 12 N       -0.2620    -5.5870     0.4790 N.am  1 <1>  -0.5470 
 13 C       -4.2940    -2.4360    -1.3630 C.2   1 <1>  -0.2880 
 14 C        0.8560    -6.3060     0.0300 C.ar  1 <1>   0.1170 
 15 C        1.0400    -7.6920     0.1820 C.ar  1 <1>   0.0830 
 16 C        1.8660    -5.5690    -0.5740 C.ar  1 <1>  -0.1500 
 17 O        0.1420    -8.5160     0.7850 O.3   1 <1>  -0.3630 
 18 C        2.2060    -8.2890    -0.2680 C.ar  1 <1>  -0.1500 
 19 C        3.0240    -6.1740    -1.0290 C.ar  1 <1>  -0.1500 
 20 C       -1.1600    -8.5730     0.2550 C.3   1 <1>   0.1200 
 21 C        3.1960    -7.5380    -0.8760 C.ar  1 <1>  -0.1500 
 22 C       -1.7480    -9.9410     0.5870 C.3   1 <1>  -0.2400 
 23 H       -2.0310    -2.7880     1.9820 H     1 <1>   0.0800 
 24 H       -2.9120    -4.7470     1.0400 H     1 <1>   0.0800 
 25 H       -1.7480    -0.9750    -0.2690 H     1 <1>   0.0800 
 26 H       -3.1190    -4.1310    -1.8140 H     1 <1>   0.0800 
 27 H       -4.1070    -0.2470    -0.9460 H     1 <1>   0.1500 
 28 H       -2.1640    -2.6250    -1.1520 H     1 <1>   0.0800 
 29 H       -3.7880    -2.7670     0.5880 H     1 <1>   0.0800 
 30 H       -0.0110    -4.8690     1.1880 H     1 <1>   0.3700 
 31 H       -5.1060    -2.5520    -2.0600 H     1 <1>   0.1500 
 32 H        1.7370    -4.5020    -0.6780 H     1 <1>   0.1500 
 33 H        2.3320    -9.3480    -0.1360 H     1 <1>   0.1500 
 34 H        3.7870    -5.5750    -1.4940 H     1 <1>   0.1500 
 35 H       -1.1080    -8.4250    -0.8110 H     1 <1>   0.0800 
 36 H       -1.7420    -7.7910     0.7060 H     1 <1>   0.0800 
 37 H        4.0970    -8.0110    -1.2260 H     1 <1>   0.1500 
 38 H       -1.1500   -10.7150     0.1430 H     1 <1>   0.0800 
 39 H       -2.7470   -10.0080     0.1970 H     1 <1>   0.0800 
 40 H       -1.7830   -10.0760     1.6530 H     1 <1>   0.0800 
@<TRIPOS>BOND
  1   1   2  ar  
  2   2   3  ar  
  3   2   4  1   
  4   4   5  1   
  5   4   6  1   
  6   4  23  1   
  7   5   7  1   
  8   5   8  1   
  9   5  24  1   
 10   6   9  1   
 11   6  10  1   
 12   6  25  1   
 13   7  11  2   
 14   7  12  am  
 15   8  10  1   
 16   8  13  1   
 17   8  26  1   
 18   9  13  2   
 19   9  27  1   
 20  10  28  1   
 21  10  29  1   
 22  12  14  1   
 23  12  30  1   
 24  13  31  1   
 25  14  15  ar  
 26  14  16  ar  
 27  15  17  1   
 28  15  18  ar  
 29  16  19  ar  
 30  16  32  1   
 31  17  20  1   
 32  18  21  ar  
 33  18  33  1   
 34  19  21  ar  
 35  19  34  1   
 36  20  22  1   
 37  20  35  1   
 38  20  36  1   
 39  21  37  1   
 40  22  38  1   
 41  22  39  1   
 42  22  40  1   
@<TRIPOS>SUBSTRUCTURE
  1 ****   7 GROUP 4 **** **** 0

# MOE 2024.06 (io_trps.svl 2023.06)
