@<TRIPOS>MOLECULE
NONAME
51 54 1 0 0 
SMALL
USER_CHARGES


@<TRIPOS>ATOM
  1 S       -0.7500    -0.0090    -0.5780 S.3   1 <1>  -0.0800 
  2 C       -1.9160     1.2280    -0.1220 C.ar  1 <1>   0.2970 
  3 C        0.6020     1.1540    -0.6080 C.2   1 <1>  -0.0450 
  4 N       -3.1780     0.9090     0.0720 N.ar  1 <1>  -0.5670 
  5 C       -1.2940     2.4670    -0.0270 C.ar  1 <1>   0.0000 
  6 C        0.1290     2.3930    -0.2780 C.2   1 <1>   0.0830 
  7 C        1.9070     0.6830    -0.9230 C.2   1 <1>   0.8050 
  8 C       -3.9430     1.9400     0.3960 C.ar  1 <1>   0.4100 
  9 C       -2.1330     3.5420     0.2860 C.ar  1 <1>  -0.1430 
 10 N        0.9650     3.4850    -0.1700 N.pl3 1 <1>  -0.8830 
 11 O        2.9020     1.3940    -0.9010 O.2   1 <1>  -0.5700 
 12 O        2.0640    -0.6080    -1.2560 O.3   1 <1>  -0.4300 
 13 N       -5.2800     1.6670     0.5980 N.pl3 1 <1>  -0.8380 
 14 C       -3.4620     3.2540     0.5190 C.ar  1 <1>  -0.1430 
 15 C       -1.6580     4.9850     0.3810 C.3   1 <1>  -0.0170 
 16 C        3.3320    -1.1450    -1.5800 C.3   1 <1>   0.0400 
 17 C       -6.1950     1.7470    -0.5700 C.3   1 <1>   0.2090 
 18 C       -5.6600     0.6900     1.6550 C.3   1 <1>   0.2090 
 19 C       -4.4500     4.3510     0.9060 C.3   1 <1>   0.2630 
 20 C       -2.8180     5.9960     0.3170 C.3   1 <1>   0.2800 
 21 C       -6.4390     0.3560    -1.1630 C.3   1 <1>  -0.1600 
 22 C       -5.9380    -0.6950     1.0580 C.3   1 <1>  -0.1600 
 23 O       -3.8260     5.5770     1.1810 O.3   1 <1>  -0.5600 
 24 C       -2.3690     7.3610     0.8410 C.3   1 <1>  -0.2400 
 25 C       -3.3820     6.1640    -1.1040 C.3   1 <1>  -0.2400 
 26 C       -6.9380    -0.6330    -0.1030 C.3   1 <1>  -0.1600 
 27 H        0.6990     4.2960     0.3950 H     1 <1>   0.4000 
 28 H        1.9820     3.3460    -0.2690 H     1 <1>   0.4000 
 29 H       -0.9830     5.2030    -0.4250 H     1 <1>   0.0800 
 30 H       -1.1300     5.1070     1.3090 H     1 <1>   0.0800 
 31 H        3.2110    -2.1880    -1.8120 H     1 <1>   0.0800 
 32 H        3.9880    -1.0280    -0.7340 H     1 <1>   0.0800 
 33 H        3.7270    -0.6200    -2.4330 H     1 <1>   0.0800 
 34 H       -5.7660     2.3870    -1.3230 H     1 <1>   0.0800 
 35 H       -7.1290     2.1780    -0.2520 H     1 <1>   0.0800 
 36 H       -6.5400     1.0520     2.1590 H     1 <1>   0.0800 
 37 H       -4.8660     0.6170     2.3780 H     1 <1>   0.0800 
 38 H       -4.9850     4.0620     1.7930 H     1 <1>   0.0800 
 39 H       -5.1640     4.5040     0.1170 H     1 <1>   0.0800 
 40 H       -5.5160    -0.0020    -1.5850 H     1 <1>   0.0800 
 41 H       -7.1580     0.4300    -1.9590 H     1 <1>   0.0800 
 42 H       -6.3120    -1.3440     1.8280 H     1 <1>   0.0800 
 43 H       -5.0070    -1.1080     0.7090 H     1 <1>   0.0800 
 44 H       -2.0270     7.2760     1.8570 H     1 <1>   0.0800 
 45 H       -3.1870     8.0570     0.8090 H     1 <1>   0.0800 
 46 H       -1.5670     7.7480     0.2400 H     1 <1>   0.0800 
 47 H       -4.2570     6.7880    -1.0850 H     1 <1>   0.0800 
 48 H       -3.6280     5.2150    -1.5440 H     1 <1>   0.0800 
 49 H       -2.6480     6.6300    -1.7350 H     1 <1>   0.0800 
 50 H       -7.0480    -1.6100    -0.5400 H     1 <1>   0.0800 
 51 H       -7.8990    -0.3170     0.2640 H     1 <1>   0.0800 
@<TRIPOS>BOND
  1   1   2  1   
  2   1   3  1   
  3   2   4  ar  
  4   2   5  ar  
  5   3   6  2   
  6   3   7  1   
  7   4   8  ar  
  8   5   6  1   
  9   5   9  ar  
 10   6  10  1   
 11   7  11  2   
 12   7  12  1   
 13   8  13  1   
 14   8  14  ar  
 15   9  14  ar  
 16   9  15  1   
 17  10  27  1   
 18  10  28  1   
 19  12  16  1   
 20  13  17  1   
 21  13  18  1   
 22  14  19  1   
 23  15  20  1   
 24  15  29  1   
 25  15  30  1   
 26  16  31  1   
 27  16  32  1   
 28  16  33  1   
 29  17  21  1   
 30  17  34  1   
 31  17  35  1   
 32  18  22  1   
 33  18  36  1   
 34  18  37  1   
 35  19  23  1   
 36  19  38  1   
 37  19  39  1   
 38  20  23  1   
 39  20  24  1   
 40  20  25  1   
 41  21  26  1   
 42  21  40  1   
 43  21  41  1   
 44  22  26  1   
 45  22  42  1   
 46  22  43  1   
 47  24  44  1   
 48  24  45  1   
 49  24  46  1   
 50  25  47  1   
 51  25  48  1   
 52  25  49  1   
 53  26  50  1   
 54  26  51  1   
@<TRIPOS>SUBSTRUCTURE
  1 ****   5 GROUP 4 **** **** 0

# MOE 2024.06 (io_trps.svl 2023.06)
