@<TRIPOS>MOLECULE
NONAME
41 42 1 0 0 
SMALL
USER_CHARGES


@<TRIPOS>ATOM
  1 S       -0.3600    -0.0630     0.5900 S.o2  1 <1>   1.4470 
  2 O       -0.1290    -1.1100    -0.3810 O.2   1 <1>  -0.6500 
  3 O       -0.9120    -0.4030     1.8830 O.2   1 <1>  -0.6500 
  4 N       -1.4280     1.0420    -0.1230 N.am  1 <1>  -0.8490 
  5 C        1.1500     0.9170     0.8240 C.ar  1 <1>  -0.0090 
  6 C       -2.8080     0.5360    -0.1040 C.3   1 <1>   0.1960 
  7 C       -1.0560     1.3840    -1.5080 C.3   1 <1>   0.1960 
  8 C        2.2020     0.8410    -0.0770 C.ar  1 <1>  -0.1500 
  9 C        1.2770     1.7940     1.8920 C.ar  1 <1>  -0.1500 
 10 C       -3.7780     1.5370    -0.7600 C.3   1 <1>   0.1200 
 11 C       -2.0660     2.3700    -2.1230 C.3   1 <1>   0.1200 
 12 C        3.3580     1.6050     0.0530 C.ar  1 <1>   0.0860 
 13 C        2.4130     2.5670     2.0490 C.ar  1 <1>  -0.1500 
 14 O       -3.3630     1.8480    -2.0600 O.3   1 <1>  -0.5600 
 15 C        3.4500     2.4830     1.1370 C.ar  1 <1>  -0.1430 
 16 C        4.4110     1.4670    -0.9350 C.2   1 <1>   0.5440 
 17 C        4.6830     3.3600     1.3170 C.3   1 <1>  -0.0960 
 18 O        4.2960     2.0490    -1.9970 O.2   1 <1>  -0.5700 
 19 N        5.5230     0.6780    -0.7050 N.am  1 <1>  -0.6600 
 20 C        6.6270     0.5680    -1.7000 C.3   1 <1>   0.0600 
 21 C        5.6980    -0.1760     0.5020 C.3   1 <1>   0.0600 
 22 H       -3.1190     0.3700     0.9140 H     1 <1>   0.0800 
 23 H       -2.8650    -0.4050    -0.6260 H     1 <1>   0.0800 
 24 H       -1.0250     0.4970    -2.1190 H     1 <1>   0.0800 
 25 H       -0.0790     1.8360    -1.5220 H     1 <1>   0.0800 
 26 H        2.1300     0.1700    -0.9160 H     1 <1>   0.1500 
 27 H        0.4740     1.8740     2.6070 H     1 <1>   0.1500 
 28 H       -3.8250     2.4460    -0.1860 H     1 <1>   0.0800 
 29 H       -4.7640     1.1130    -0.8220 H     1 <1>   0.0800 
 30 H       -1.8320     2.5460    -3.1580 H     1 <1>   0.0800 
 31 H       -2.0450     3.3090    -1.5970 H     1 <1>   0.0800 
 32 H        2.4790     3.2400     2.8880 H     1 <1>   0.1500 
 33 H        5.5490     2.7500     1.5010 H     1 <1>   0.0800 
 34 H        4.5610     4.0370     2.1430 H     1 <1>   0.0800 
 35 H        4.8540     3.9400     0.4270 H     1 <1>   0.0800 
 36 H        6.5130     1.2930    -2.4860 H     1 <1>   0.0800 
 37 H        6.6230    -0.4160    -2.1360 H     1 <1>   0.0800 
 38 H        7.5730     0.7380    -1.2160 H     1 <1>   0.0800 
 39 H        4.8450    -0.1190     1.1540 H     1 <1>   0.0800 
 40 H        6.5690     0.1440     1.0470 H     1 <1>   0.0800 
 41 H        5.8290    -1.2010     0.2020 H     1 <1>   0.0800 
@<TRIPOS>BOND
  1   1   2  2   
  2   1   3  2   
  3   1   4  am  
  4   1   5  1   
  5   4   6  1   
  6   4   7  1   
  7   5   8  ar  
  8   5   9  ar  
  9   6  10  1   
 10   6  22  1   
 11   6  23  1   
 12   7  11  1   
 13   7  24  1   
 14   7  25  1   
 15   8  12  ar  
 16   8  26  1   
 17   9  13  ar  
 18   9  27  1   
 19  10  14  1   
 20  10  28  1   
 21  10  29  1   
 22  11  14  1   
 23  11  30  1   
 24  11  31  1   
 25  12  15  ar  
 26  12  16  1   
 27  13  15  ar  
 28  13  32  1   
 29  15  17  1   
 30  16  18  2   
 31  16  19  am  
 32  17  33  1   
 33  17  34  1   
 34  17  35  1   
 35  19  20  1   
 36  19  21  1   
 37  20  36  1   
 38  20  37  1   
 39  20  38  1   
 40  21  39  1   
 41  21  40  1   
 42  21  41  1   
@<TRIPOS>SUBSTRUCTURE
  1 ****   8 GROUP 4 **** **** 0

# MOE 2024.06 (io_trps.svl 2023.06)
