@<TRIPOS>MOLECULE
NONAME
43 45 1 0 0 
SMALL
USER_CHARGES


@<TRIPOS>ATOM
  1 N       -0.4590     0.4870    -0.0140 N.pl3 1 <1>  -0.8410 
  2 C       -1.3250     0.8050     0.9000 C.cat 1 <1>   1.2010 
  3 C        0.9020     1.0060    -0.1550 C.3   1 <1>   0.6600 
  4 N       -1.1750     1.9500     1.5010 N.pl3 1 <1>  -0.9140 
  5 N       -2.3420     0.0390     1.1860 N.pl3 1 <1>  -0.8240 
  6 N        0.4290     2.3850     0.0190 N.pl3 1 <1>  -0.8410 
  7 C        1.3830    -0.4690    -0.4410 C.3   1 <1>  -0.1510 
  8 C        2.3750     1.5630    -0.2000 C.3   1 <1>  -0.1510 
  9 C       -0.3970     2.8130     0.9230 C.cat 1 <1>   1.2010 
 10 C       -2.6140    -1.2160     0.6290 C.ar  1 <1>   0.3190 
 11 C        2.8460    -0.6160    -0.8300 C.3   1 <1>  -0.1510 
 12 C        3.4570     0.5040    -0.0660 C.3   1 <1>  -0.1510 
 13 N       -0.4980     4.0630     1.2220 N.pl3 1 <1>  -0.9640 
 14 C       -3.3620    -1.3430    -0.5410 C.ar  1 <1>  -0.1340 
 15 C       -2.0960    -2.3480     1.2430 C.ar  1 <1>  -0.1410 
 16 C       -3.5580    -2.6030    -1.0820 C.ar  1 <1>  -0.1410 
 17 C       -3.9850    -0.1390    -1.2430 C.3   1 <1>  -0.0870 
 18 C       -2.2950    -3.6050     0.6990 C.ar  1 <1>  -0.1340 
 19 C       -3.0270    -3.7250    -0.4700 C.ar  1 <1>  -0.1410 
 20 C       -1.7340    -4.8490     1.3680 C.3   1 <1>  -0.0870 
 21 H       -0.6530    -0.3510    -0.5560 H     1 <1>   0.4570 
 22 H       -1.7890     2.2360     2.2440 H     1 <1>   0.4570 
 23 H       -3.0060     0.3290     1.9000 H     1 <1>   0.4570 
 24 H        0.9440     3.0560    -0.5430 H     1 <1>   0.4570 
 25 H        0.8420    -0.9460    -1.2460 H     1 <1>   0.0900 
 26 H        1.2610    -1.0620     0.4540 H     1 <1>   0.0900 
 27 H        2.6060     2.2780     0.5790 H     1 <1>   0.0900 
 28 H        2.5370     2.0360    -1.1570 H     1 <1>   0.0900 
 29 H        2.9800    -0.4610    -1.8900 H     1 <1>   0.0900 
 30 H        3.2600    -1.5730    -0.5560 H     1 <1>   0.0900 
 31 H        3.5980     0.2230     0.9660 H     1 <1>   0.0900 
 32 H        4.4020     0.8150    -0.4840 H     1 <1>   0.0900 
 33 H        0.0760     4.7880     0.7920 H     1 <1>   0.4570 
 34 H       -1.1430     4.4350     1.9160 H     1 <1>   0.4570 
 35 H       -1.5370    -2.2510     2.1560 H     1 <1>   0.1590 
 36 H       -4.1320    -2.7310    -1.9860 H     1 <1>   0.1590 
 37 H       -3.2240     0.4890    -1.6670 H     1 <1>   0.0900 
 38 H       -4.5750     0.4350    -0.5510 H     1 <1>   0.0900 
 39 H       -4.6370    -0.4560    -2.0390 H     1 <1>   0.0900 
 40 H       -3.1940    -4.6970    -0.9060 H     1 <1>   0.1590 
 41 H       -0.9850    -4.5970     2.0970 H     1 <1>   0.0900 
 42 H       -1.2860    -5.4980     0.6350 H     1 <1>   0.0900 
 43 H       -2.5250    -5.3860     1.8610 H     1 <1>   0.0900 
@<TRIPOS>BOND
  1   1   2  ar  
  2   1   3  1   
  3   1  21  1   
  4   2   4  ar  
  5   2   5  ar  
  6   3   6  1   
  7   3   7  1   
  8   3   8  1   
  9   4   9  ar  
 10   4  22  1   
 11   5  10  1   
 12   5  23  1   
 13   6   9  ar  
 14   6  24  1   
 15   7  11  1   
 16   7  25  1   
 17   7  26  1   
 18   8  12  1   
 19   8  27  1   
 20   8  28  1   
 21   9  13  ar  
 22  10  14  ar  
 23  10  15  ar  
 24  11  12  1   
 25  11  29  1   
 26  11  30  1   
 27  12  31  1   
 28  12  32  1   
 29  13  33  1   
 30  13  34  1   
 31  14  16  ar  
 32  14  17  1   
 33  15  18  ar  
 34  15  35  1   
 35  16  19  ar  
 36  16  36  1   
 37  17  37  1   
 38  17  38  1   
 39  17  39  1   
 40  18  19  ar  
 41  18  20  1   
 42  19  40  1   
 43  20  41  1   
 44  20  42  1   
 45  20  43  1   
@<TRIPOS>SUBSTRUCTURE
  1 ****   1 GROUP 4 **** **** 0

# MOE 2024.06 (io_trps.svl 2023.06)
