@<TRIPOS>MOLECULE
NONAME
49 50 1 0 0 
SMALL
USER_CHARGES


@<TRIPOS>ATOM
  1 BR      -0.8330     0.7970     0.9870 Br    1 <1>  -0.1110 
  2 C        0.9720     1.4610     1.0770 C.ar  1 <1>   0.1110 
  3 C        1.4760     2.3150     0.1060 C.ar  1 <1>  -0.0090 
  4 C        1.7250     1.0340     2.1540 C.ar  1 <1>  -0.1500 
  5 S        0.4890     2.8860    -1.3020 S.o2  1 <1>   1.4470 
  6 C        2.7970     2.7200     0.2550 C.ar  1 <1>  -0.1500 
  7 C        3.0330     1.4630     2.2710 C.ar  1 <1>  -0.1500 
  8 O        0.0430     1.7190    -2.0320 O.2   1 <1>  -0.6500 
  9 O        1.2480     3.8820    -2.0300 O.2   1 <1>  -0.6500 
 10 N       -0.8550     3.6720    -0.6060 N.am  1 <1>  -0.8490 
 11 C        3.6040     2.3110     1.3210 C.ar  1 <1>   0.0860 
 12 C       -0.6410     5.1020    -0.3320 C.3   1 <1>   0.1960 
 13 C       -2.0950     3.4400    -1.3590 C.3   1 <1>   0.1960 
 14 C        4.9830     2.7490     1.4470 C.2   1 <1>   0.5440 
 15 C        0.3230     5.3000     0.8350 C.3   1 <1>  -0.2400 
 16 C       -3.3230     3.6560    -0.4740 C.3   1 <1>  -0.2400 
 17 O        5.5140     2.8070     2.5380 O.2   1 <1>  -0.5700 
 18 N        5.7080     3.0930     0.3410 N.am  1 <1>  -0.7300 
 19 C        7.0970     3.5800     0.3420 C.3   1 <1>   0.2200 
 20 C        7.1510     4.9170    -0.4050 C.3   1 <1>  -0.1600 
 21 C        7.9890     2.5320    -0.3300 C.3   1 <1>  -0.1600 
 22 C        8.5950     5.4240    -0.5310 C.3   1 <1>  -0.1600 
 23 C        9.4350     3.0330    -0.4560 C.3   1 <1>  -0.1600 
 24 C        9.4960     4.3750    -1.1990 C.3   1 <1>  -0.1600 
 25 H        1.2930     0.3770     2.8880 H     1 <1>   0.1500 
 26 H        3.2120     3.3880    -0.4800 H     1 <1>   0.1500 
 27 H        3.6300     1.1410     3.1080 H     1 <1>   0.1500 
 28 H       -1.5690     5.5660    -0.0520 H     1 <1>   0.0800 
 29 H       -0.2820     5.6110    -1.2120 H     1 <1>   0.0800 
 30 H       -2.1410     2.4170    -1.6910 H     1 <1>   0.0800 
 31 H       -2.1290     4.0710    -2.2330 H     1 <1>   0.0800 
 32 H        0.0370     4.6810     1.6680 H     1 <1>   0.0800 
 33 H        0.2900     6.3270     1.1500 H     1 <1>   0.0800 
 34 H        1.3330     5.0850     0.5440 H     1 <1>   0.0800 
 35 H       -3.2170     3.1040     0.4430 H     1 <1>   0.0800 
 36 H       -4.1940     3.2910    -0.9860 H     1 <1>   0.0800 
 37 H       -3.4850     4.6940    -0.2560 H     1 <1>   0.0800 
 38 H        5.3140     2.9490    -0.5870 H     1 <1>   0.3700 
 39 H        7.4330     3.7310     1.3550 H     1 <1>   0.0800 
 40 H        6.5650     5.6440     0.1280 H     1 <1>   0.0800 
 41 H        6.7360     4.7980    -1.3910 H     1 <1>   0.0800 
 42 H        7.6100     2.3090    -1.3110 H     1 <1>   0.0800 
 43 H        7.9760     1.6300     0.2570 H     1 <1>   0.0800 
 44 H        8.9780     5.6490     0.4500 H     1 <1>   0.0800 
 45 H        8.6100     6.3330    -1.1070 H     1 <1>   0.0800 
 46 H       10.0270     2.3030    -0.9800 H     1 <1>   0.0800 
 47 H        9.8560     3.1520     0.5280 H     1 <1>   0.0800 
 48 H       10.5110     4.7320    -1.2150 H     1 <1>   0.0800 
 49 H        9.1810     4.2320    -2.2190 H     1 <1>   0.0800 
@<TRIPOS>BOND
  1   1   2  1   
  2   2   3  ar  
  3   2   4  ar  
  4   3   5  1   
  5   3   6  ar  
  6   4   7  ar  
  7   4  25  1   
  8   5   8  2   
  9   5   9  2   
 10   5  10  am  
 11   6  11  ar  
 12   6  26  1   
 13   7  11  ar  
 14   7  27  1   
 15  10  12  1   
 16  10  13  1   
 17  11  14  1   
 18  12  15  1   
 19  12  28  1   
 20  12  29  1   
 21  13  16  1   
 22  13  30  1   
 23  13  31  1   
 24  14  17  2   
 25  14  18  am  
 26  15  32  1   
 27  15  33  1   
 28  15  34  1   
 29  16  35  1   
 30  16  36  1   
 31  16  37  1   
 32  18  19  1   
 33  18  38  1   
 34  19  20  1   
 35  19  21  1   
 36  19  39  1   
 37  20  22  1   
 38  20  40  1   
 39  20  41  1   
 40  21  23  1   
 41  21  42  1   
 42  21  43  1   
 43  22  24  1   
 44  22  44  1   
 45  22  45  1   
 46  23  24  1   
 47  23  46  1   
 48  23  47  1   
 49  24  48  1   
 50  24  49  1   
@<TRIPOS>SUBSTRUCTURE
  1 ****   6 GROUP 4 **** **** 0

# MOE 2024.06 (io_trps.svl 2023.06)
