@<TRIPOS>MOLECULE
NONAME
41 43 1 0 0 
SMALL
USER_CHARGES


@<TRIPOS>ATOM
  1 BR       1.1560    -0.9350    -1.1500 Br    1 <1>  -0.0580 
  2 C        1.9440     0.5720    -0.2560 C.2   1 <1>   0.1980 
  3 O        2.7930     1.3090    -0.9250 O.3   1 <1>  -0.2800 
  4 C        1.7510     1.0030     1.0050 C.2   1 <1>  -0.1500 
  5 C        3.2000     2.2820    -0.1070 C.2   1 <1>   0.0550 
  6 C        2.5760     2.1260     1.1030 C.2   1 <1>  -0.1500 
  7 C        4.1570     3.2690    -0.5460 C.2   1 <1>   0.7150 
  8 O        4.3800     3.4710    -1.7270 O.2   1 <1>  -0.5700 
  9 N        4.8800     3.9550     0.3920 N.am  1 <1>  -0.5470 
 10 C        5.8930     4.8940     0.1470 C.ar  1 <1>   0.1170 
 11 C        7.2460     4.5200     0.2260 C.ar  1 <1>   0.1000 
 12 C        5.5520     6.2040    -0.1490 C.ar  1 <1>  -0.1500 
 13 N        7.6050     3.1740     0.4420 N.pl3 1 <1>  -0.8380 
 14 C        8.2150     5.5000     0.0390 C.ar  1 <1>  -0.1500 
 15 C        6.5310     7.1620    -0.3400 C.ar  1 <1>  -0.1500 
 16 C        7.4380     2.2750    -0.7490 C.3   1 <1>   0.2090 
 17 C        8.7330     2.8380     1.3680 C.3   1 <1>   0.2090 
 18 C        7.8640     6.8100    -0.2390 C.ar  1 <1>  -0.1500 
 19 C        8.7780     1.9850    -1.4520 C.3   1 <1>   0.3430 
 20 C       10.0400     2.4940     0.6150 C.3   1 <1>   0.3430 
 21 N        9.8370     1.4930    -0.4950 N.4   1 <1>  -0.9590 
 22 C       11.1160     1.2040    -1.2110 C.3   1 <1>   0.2630 
 23 H        1.1130     0.5920     1.7680 H     1 <1>   0.1500 
 24 H        2.6730     2.7390     1.9820 H     1 <1>   0.1500 
 25 H        4.9930     3.4630     1.2740 H     1 <1>   0.3700 
 26 H        4.5150     6.4760    -0.2260 H     1 <1>   0.1500 
 27 H        9.2550     5.2540     0.0970 H     1 <1>   0.1500 
 28 H        6.2540     8.1780    -0.5650 H     1 <1>   0.1500 
 29 H        6.7800     2.7370    -1.4640 H     1 <1>   0.0800 
 30 H        6.9790     1.3530    -0.4380 H     1 <1>   0.0800 
 31 H        8.4420     2.0000     1.9770 H     1 <1>   0.0800 
 32 H        8.9100     3.6660     2.0330 H     1 <1>   0.0800 
 33 H        8.6250     7.5580    -0.3830 H     1 <1>   0.1500 
 34 H        9.1100     2.8950    -1.9230 H     1 <1>   0.0800 
 35 H        8.6130     1.2550    -2.2270 H     1 <1>   0.0800 
 36 H       10.7590     2.1150     1.3230 H     1 <1>   0.0800 
 37 H       10.4380     3.4060     0.2030 H     1 <1>   0.0800 
 38 H        9.4830     0.6250    -0.0700 H     1 <1>   0.4500 
 39 H       11.5010     2.1000    -1.6690 H     1 <1>   0.0800 
 40 H       10.9560     0.4650    -1.9800 H     1 <1>   0.0800 
 41 H       11.8540     0.8250    -0.5220 H     1 <1>   0.0800 
@<TRIPOS>BOND
  1   1   2  1   
  2   2   3  1   
  3   2   4  2   
  4   3   5  1   
  5   4   6  1   
  6   4  23  1   
  7   5   6  2   
  8   5   7  1   
  9   6  24  1   
 10   7   8  2   
 11   7   9  am  
 12   9  10  1   
 13   9  25  1   
 14  10  11  ar  
 15  10  12  ar  
 16  11  13  1   
 17  11  14  ar  
 18  12  15  ar  
 19  12  26  1   
 20  13  16  1   
 21  13  17  1   
 22  14  18  ar  
 23  14  27  1   
 24  15  18  ar  
 25  15  28  1   
 26  16  19  1   
 27  16  29  1   
 28  16  30  1   
 29  17  20  1   
 30  17  31  1   
 31  17  32  1   
 32  18  33  1   
 33  19  21  1   
 34  19  34  1   
 35  19  35  1   
 36  20  21  1   
 37  20  36  1   
 38  20  37  1   
 39  21  22  1   
 40  21  38  1   
 41  22  39  1   
 42  22  40  1   
 43  22  41  1   
@<TRIPOS>SUBSTRUCTURE
  1 ****   9 GROUP 4 **** **** 0

# MOE 2024.06 (io_trps.svl 2023.06)
