@<TRIPOS>MOLECULE
NONAME
53 55 1 0 0 
SMALL
USER_CHARGES


@<TRIPOS>ATOM
  1 S       -0.0030    -1.0030     0.4280 S.3   1 <1>  -0.0800 
  2 C        1.0710     0.3870     0.3090 C.2   1 <1>   0.1040 
  3 C       -1.3600    -0.0800    -0.1660 C.2   1 <1>  -0.1400 
  4 N        2.4070     0.2450     0.6730 N.am  1 <1>  -0.4940 
  5 C        0.3930     1.4870    -0.1600 C.2   1 <1>  -0.0860 
  6 C       -0.9970     1.1800    -0.4420 C.2   1 <1>  -0.1810 
  7 C       -2.7160    -0.7410    -0.2940 C.3   1 <1>   0.3200 
  8 C        3.1090    -0.7880     1.2490 C.2   1 <1>   0.5690 
  9 C        0.9740     2.7950    -0.3360 C.2   1 <1>   0.8060 
 10 C       -2.0440     2.1410    -0.9960 C.3   1 <1>   0.0210 
 11 N       -3.7250     0.2900    -0.6780 N.am  1 <1>  -0.6600 
 12 O        2.6190    -1.8400     1.5760 O.2   1 <1>  -0.5700 
 13 C        4.5920    -0.5920     1.5170 C.3   1 <1>   0.0440 
 14 O        0.3370     3.7950    -0.6110 O.2   1 <1>  -0.5700 
 15 O        2.3000     2.9240    -0.1830 O.3   1 <1>  -0.4300 
 16 C       -3.2480     1.3820    -1.5850 C.3   1 <1>   0.1400 
 17 C       -5.0200     0.2200    -0.2500 C.2   1 <1>   0.7800 
 18 C        5.3610     0.0860     0.3860 C.ar  1 <1>  -0.1440 
 19 C        2.9380     4.1740    -0.3340 C.3   1 <1>   0.1200 
 20 O       -5.8550     1.0540    -0.5420 O.2   1 <1>  -0.5700 
 21 O       -5.3650    -0.8210     0.5090 O.3   1 <1>  -0.4300 
 22 C        5.1340    -0.2590    -0.9390 C.ar  1 <1>  -0.1500 
 23 C        6.3230     1.0410     0.6800 C.ar  1 <1>  -0.1500 
 24 C        4.4370     3.9630    -0.1660 C.3   1 <1>  -0.2400 
 25 C       -6.6820    -0.9600     0.9910 C.3   1 <1>   0.1200 
 26 C        5.8500     0.3500    -1.9540 C.ar  1 <1>  -0.1500 
 27 C        7.0450     1.6460    -0.3340 C.ar  1 <1>  -0.1500 
 28 C       -6.7460    -2.2350     1.8270 C.3   1 <1>  -0.2400 
 29 C        6.8070     1.3020    -1.6530 C.ar  1 <1>  -0.1500 
 30 H        2.9910     1.0570     0.4500 H     1 <1>   0.3700 
 31 H       -2.9770    -1.1910     0.6480 H     1 <1>   0.0800 
 32 H       -2.6800    -1.5070    -1.0490 H     1 <1>   0.0800 
 33 H       -1.6230     2.7430    -1.7790 H     1 <1>   0.0800 
 34 H       -2.3800     2.7980    -0.2120 H     1 <1>   0.0800 
 35 H        5.0350    -1.5550     1.6960 H     1 <1>   0.0800 
 36 H        4.6860    -0.0220     2.4230 H     1 <1>   0.0800 
 37 H       -2.9560     0.9380    -2.5210 H     1 <1>   0.0800 
 38 H       -4.0430     2.0800    -1.7880 H     1 <1>   0.0800 
 39 H        2.5540     4.8470     0.4140 H     1 <1>   0.0800 
 40 H        2.7140     4.5580    -1.3160 H     1 <1>   0.0800 
 41 H        4.4020    -1.0080    -1.1920 H     1 <1>   0.1500 
 42 H        6.5240     1.3180     1.7010 H     1 <1>   0.1500 
 43 H        4.6520     3.5630     0.8080 H     1 <1>   0.0800 
 44 H        4.9490     4.9020    -0.2720 H     1 <1>   0.0800 
 45 H        4.7980     3.2910    -0.9240 H     1 <1>   0.0800 
 46 H       -7.3500    -1.0150     0.1480 H     1 <1>   0.0800 
 47 H       -6.9210    -0.0950     1.5860 H     1 <1>   0.0800 
 48 H        5.6670     0.0780    -2.9790 H     1 <1>   0.1500 
 49 H        7.7930     2.3830    -0.0980 H     1 <1>   0.1500 
 50 H       -6.4970    -3.0880     1.2210 H     1 <1>   0.0800 
 51 H       -7.7410    -2.3660     2.2110 H     1 <1>   0.0800 
 52 H       -6.0640    -2.1690     2.6550 H     1 <1>   0.0800 
 53 H        7.3680     1.7710    -2.4430 H     1 <1>   0.1500 
@<TRIPOS>BOND
  1   1   2  1   
  2   1   3  1   
  3   2   4  1   
  4   2   5  2   
  5   3   6  2   
  6   3   7  1   
  7   4   8  am  
  8   4  30  1   
  9   5   6  1   
 10   5   9  1   
 11   6  10  1   
 12   7  11  1   
 13   7  31  1   
 14   7  32  1   
 15   8  12  2   
 16   8  13  1   
 17   9  14  2   
 18   9  15  1   
 19  10  16  1   
 20  10  33  1   
 21  10  34  1   
 22  11  16  1   
 23  11  17  am  
 24  13  18  1   
 25  13  35  1   
 26  13  36  1   
 27  15  19  1   
 28  16  37  1   
 29  16  38  1   
 30  17  20  2   
 31  17  21  1   
 32  18  22  ar  
 33  18  23  ar  
 34  19  24  1   
 35  19  39  1   
 36  19  40  1   
 37  21  25  1   
 38  22  26  ar  
 39  22  41  1   
 40  23  27  ar  
 41  23  42  1   
 42  24  43  1   
 43  24  44  1   
 44  24  45  1   
 45  25  28  1   
 46  25  46  1   
 47  25  47  1   
 48  26  29  ar  
 49  26  48  1   
 50  27  29  ar  
 51  27  49  1   
 52  28  50  1   
 53  28  51  1   
 54  28  52  1   
 55  29  53  1   
@<TRIPOS>SUBSTRUCTURE
  1 ****   2 GROUP 4 **** **** 0

# MOE 2024.06 (io_trps.svl 2023.06)
