@<TRIPOS>MOLECULE
NONAME
49 52 1 0 0 
SMALL
USER_CHARGES


@<TRIPOS>ATOM
  1 O        1.0930     0.1750    -0.7090 O.3   1 <1>  -0.6800 
  2 C        2.2700    -0.1640    -0.0610 C.3   1 <1>   0.1200 
  3 C        3.0560    -1.1190    -0.9640 C.3   1 <1>   0.1100 
  4 N        4.3220    -1.5580    -0.3340 N.3   1 <1>  -0.8100 
  5 C        4.1010    -2.5960     0.7030 C.3   1 <1>   0.1100 
  6 C        5.2620    -2.0610    -1.3670 C.3   1 <1>   0.1100 
  7 C        5.4230    -3.0450     1.3760 C.3   1 <1>   0.3430 
  8 C        6.5790    -2.6100    -0.7680 C.3   1 <1>   0.3430 
  9 N        6.6130    -2.4140     0.7210 N.4   1 <1>  -0.9590 
 10 C        7.9160    -2.7480     1.3560 C.3   1 <1>   0.4860 
 11 C        9.0000    -1.9050     0.7090 C.ar  1 <1>  -0.1440 
 12 C        9.8110    -2.4720    -0.2840 C.ar  1 <1>   0.0000 
 13 C        9.1270    -0.5670     1.1050 C.ar  1 <1>   0.0000 
 14 C       10.7560    -1.6370    -0.9390 C.ar  1 <1>   0.0000 
 15 C        9.7550    -3.8350    -0.7050 C.ar  1 <1>  -0.1500 
 16 C       10.0820     0.2480     0.4410 C.ar  1 <1>   0.0000 
 17 C        8.3550     0.0510     2.1350 C.ar  1 <1>  -0.1500 
 18 C       10.8640    -0.3090    -0.5580 C.ar  1 <1>  -0.1500 
 19 C       11.5620    -2.1760    -1.9740 C.ar  1 <1>  -0.1500 
 20 C       10.5450    -4.3200    -1.7020 C.ar  1 <1>  -0.1500 
 21 C       10.2080     1.6110     0.8080 C.ar  1 <1>  -0.1500 
 22 C        8.5030     1.3640     2.4630 C.ar  1 <1>  -0.1500 
 23 C       11.4610    -3.4780    -2.3510 C.ar  1 <1>  -0.1500 
 24 C        9.4420     2.1600     1.7880 C.ar  1 <1>  -0.1500 
 25 H        0.5840     0.8310    -0.1920 H     1 <1>   0.4000 
 26 H        2.0110    -0.6280     0.8730 H     1 <1>   0.0800 
 27 H        2.8330     0.7370     0.1120 H     1 <1>   0.0800 
 28 H        3.2770    -0.5890    -1.8760 H     1 <1>   0.0800 
 29 H        2.4470    -1.9730    -1.2080 H     1 <1>   0.0800 
 30 H        3.6220    -3.4550     0.2610 H     1 <1>   0.0800 
 31 H        3.4420    -2.2190     1.4650 H     1 <1>   0.0800 
 32 H        5.5030    -1.2590    -2.0440 H     1 <1>   0.0800 
 33 H        4.7910    -2.8380    -1.9470 H     1 <1>   0.0800 
 34 H        5.4960    -4.1190     1.3240 H     1 <1>   0.0800 
 35 H        5.3910    -2.7690     2.4170 H     1 <1>   0.0800 
 36 H        7.4060    -2.0950    -1.2300 H     1 <1>   0.0800 
 37 H        6.6710    -3.6560    -1.0060 H     1 <1>   0.0800 
 38 H        6.4590    -1.3970     0.8130 H     1 <1>   0.4500 
 39 H        8.1260    -3.7960     1.2490 H     1 <1>   0.0800 
 40 H        7.8810    -2.5320     2.4100 H     1 <1>   0.0800 
 41 H        9.0830    -4.5210    -0.2310 H     1 <1>   0.1500 
 42 H        7.6360    -0.5210     2.6860 H     1 <1>   0.1500 
 43 H       11.5840     0.3150    -1.0570 H     1 <1>   0.1500 
 44 H       12.2640    -1.5230    -2.4610 H     1 <1>   0.1500 
 45 H       10.4950    -5.3510    -2.0110 H     1 <1>   0.1500 
 46 H       10.9350     2.2110     0.2880 H     1 <1>   0.1500 
 47 H        7.9160     1.8210     3.2420 H     1 <1>   0.1500 
 48 H       12.0750    -3.8830    -3.1380 H     1 <1>   0.1500 
 49 H        9.5420     3.1960     2.0640 H     1 <1>   0.1500 
@<TRIPOS>BOND
  1   1   2  1   
  2   1  25  1   
  3   2   3  1   
  4   2  26  1   
  5   2  27  1   
  6   3   4  1   
  7   3  28  1   
  8   3  29  1   
  9   4   5  1   
 10   4   6  1   
 11   5   7  1   
 12   5  30  1   
 13   5  31  1   
 14   6   8  1   
 15   6  32  1   
 16   6  33  1   
 17   7   9  1   
 18   7  34  1   
 19   7  35  1   
 20   8   9  1   
 21   8  36  1   
 22   8  37  1   
 23   9  10  1   
 24   9  38  1   
 25  10  11  1   
 26  10  39  1   
 27  10  40  1   
 28  11  12  ar  
 29  11  13  ar  
 30  12  14  ar  
 31  12  15  ar  
 32  13  16  ar  
 33  13  17  ar  
 34  14  18  ar  
 35  14  19  ar  
 36  15  20  ar  
 37  15  41  1   
 38  16  18  ar  
 39  16  21  ar  
 40  17  22  ar  
 41  17  42  1   
 42  18  43  1   
 43  19  23  ar  
 44  19  44  1   
 45  20  23  ar  
 46  20  45  1   
 47  21  24  ar  
 48  21  46  1   
 49  22  24  ar  
 50  22  47  1   
 51  23  48  1   
 52  24  49  1   
@<TRIPOS>SUBSTRUCTURE
  1 ****  11 GROUP 4 **** **** 0

# MOE 2024.06 (io_trps.svl 2023.06)
