@<TRIPOS>MOLECULE
NONAME
47 49 1 0 0 
SMALL
USER_CHARGES


@<TRIPOS>ATOM
  1 N        0.3610     0.1990    -1.2020 N.pl3 1 <1>  -0.8380 
  2 C       -0.8530     0.7020    -0.7380 C.ar  1 <1>   0.1000 
  3 C        1.6000     0.9730    -0.8950 C.3   1 <1>   0.2090 
  4 C        0.5300    -1.2640    -1.4510 C.3   1 <1>   0.2090 
  5 C       -1.3760     1.8570    -1.3070 C.ar  1 <1>  -0.1500 
  6 C       -1.5620     0.0900     0.2920 C.ar  1 <1>  -0.1500 
  7 C        2.4480     0.2660     0.1810 C.3   1 <1>   0.3430 
  8 C        1.4200    -1.9260    -0.3770 C.3   1 <1>   0.3430 
  9 C       -2.5700     2.3920    -0.8600 C.ar  1 <1>  -0.1500 
 10 C       -2.7570     0.6210     0.7420 C.ar  1 <1>  -0.1500 
 11 N        2.7100    -1.1830    -0.1480 N.4   1 <1>  -0.9590 
 12 C       -3.2630     1.7740     0.1670 C.ar  1 <1>  -0.1500 
 13 C        3.5570    -1.8420     0.8720 C.3   1 <1>   0.4810 
 14 C        4.9360    -1.2200     0.7840 C.2   1 <1>  -0.2760 
 15 C        5.7450    -1.4260    -0.2740 C.2   1 <1>  -0.1780 
 16 C        5.3100    -0.3900     2.0110 C.3   1 <1>  -0.1020 
 17 C        7.0620    -0.8920    -0.5260 C.ar  1 <1>   0.0280 
 18 C        8.1100    -1.7440    -0.8620 C.ar  1 <1>  -0.1500 
 19 C        7.3240     0.4740    -0.4690 C.ar  1 <1>  -0.1500 
 20 C        9.3760    -1.2530    -1.1220 C.ar  1 <1>  -0.1500 
 21 C        8.5880     0.9720    -0.7270 C.ar  1 <1>  -0.1500 
 22 C        9.6180     0.1070    -1.0550 C.ar  1 <1>  -0.1500 
 23 H        2.1760     1.0910    -1.7970 H     1 <1>   0.0800 
 24 H        1.3360     1.9570    -0.5460 H     1 <1>   0.0800 
 25 H       -0.4360    -1.7410    -1.4680 H     1 <1>   0.0800 
 26 H        0.9710    -1.4020    -2.4230 H     1 <1>   0.0800 
 27 H       -0.8440     2.3320    -2.1100 H     1 <1>   0.1500 
 28 H       -1.1830    -0.8000     0.7520 H     1 <1>   0.1500 
 29 H        1.9230     0.3350     1.1190 H     1 <1>   0.0800 
 30 H        3.3830     0.7920     0.2850 H     1 <1>   0.0800 
 31 H        1.6270    -2.9410    -0.6750 H     1 <1>   0.0800 
 32 H        0.8600    -1.9610     0.5430 H     1 <1>   0.0800 
 33 H       -2.9640     3.2860    -1.3120 H     1 <1>   0.1500 
 34 H       -3.2990     0.1420     1.5380 H     1 <1>   0.1500 
 35 H        3.2530    -1.1910    -1.0200 H     1 <1>   0.4500 
 36 H       -4.1940     2.1890     0.5150 H     1 <1>   0.1500 
 37 H        3.1400    -1.7170     1.8580 H     1 <1>   0.0800 
 38 H        3.6330    -2.8970     0.6600 H     1 <1>   0.0800 
 39 H        5.4290    -2.0750    -1.0740 H     1 <1>   0.1500 
 40 H        5.1930    -0.9760     2.9060 H     1 <1>   0.0800 
 41 H        4.6950     0.4880     2.0910 H     1 <1>   0.0800 
 42 H        6.3390    -0.0760     1.9740 H     1 <1>   0.0800 
 43 H        7.9350    -2.8040    -0.9160 H     1 <1>   0.1500 
 44 H        6.5320     1.1560    -0.2230 H     1 <1>   0.1500 
 45 H       10.1760    -1.9270    -1.3770 H     1 <1>   0.1500 
 46 H        8.7750     2.0310    -0.6770 H     1 <1>   0.1500 
 47 H       10.6030     0.4920    -1.2570 H     1 <1>   0.1500 
@<TRIPOS>BOND
  1   1   2  1   
  2   1   3  1   
  3   1   4  1   
  4   2   5  ar  
  5   2   6  ar  
  6   3   7  1   
  7   3  23  1   
  8   3  24  1   
  9   4   8  1   
 10   4  25  1   
 11   4  26  1   
 12   5   9  ar  
 13   5  27  1   
 14   6  10  ar  
 15   6  28  1   
 16   7  11  1   
 17   7  29  1   
 18   7  30  1   
 19   8  11  1   
 20   8  31  1   
 21   8  32  1   
 22   9  12  ar  
 23   9  33  1   
 24  10  12  ar  
 25  10  34  1   
 26  11  13  1   
 27  11  35  1   
 28  12  36  1   
 29  13  14  1   
 30  13  37  1   
 31  13  38  1   
 32  14  15  2   
 33  14  16  1   
 34  15  17  1   
 35  15  39  1   
 36  16  40  1   
 37  16  41  1   
 38  16  42  1   
 39  17  18  ar  
 40  17  19  ar  
 41  18  20  ar  
 42  18  43  1   
 43  19  21  ar  
 44  19  44  1   
 45  20  22  ar  
 46  20  45  1   
 47  21  22  ar  
 48  21  46  1   
 49  22  47  1   
@<TRIPOS>SUBSTRUCTURE
  1 ****   7 GROUP 4 **** **** 0

# MOE 2024.06 (io_trps.svl 2023.06)
