@<TRIPOS>MOLECULE
NONAME
32 33 1 0 0 
SMALL
USER_CHARGES


@<TRIPOS>ATOM
  1 O       -0.2980     0.7310    -1.8190 O.2   1 <1>  -0.5700 
  2 C       -1.3140     1.1240    -1.2890 C.2   1 <1>   0.6900 
  3 N       -1.4280     2.4300    -0.9010 N.am  1 <1>  -0.3680 
  4 N       -2.3300     0.2760    -1.0770 N.am  1 <1>  -0.8000 
  5 N       -2.5010     3.0560    -0.2890 N.2   1 <1>  -0.5120 
  6 C       -2.4020     4.2870     0.0640 C.2   1 <1>   0.3750 
  7 C       -1.2310     5.1230     0.0000 C.2   1 <1>  -0.1240 
  8 C       -3.6600     4.9350     0.6260 C.3   1 <1>  -0.0990 
  9 C        0.0000     4.7070     0.4130 C.2   1 <1>  -0.1050 
 10 C       -1.4870     6.5250    -0.5650 C.3   1 <1>  -0.0220 
 11 C       -3.9450     6.2940    -0.0240 C.3   1 <1>  -0.1600 
 12 C        1.3010     5.3110     0.3870 C.2   1 <1>   0.0950 
 13 C       -2.7100     7.1930     0.0750 C.3   1 <1>  -0.1600 
 14 O        1.5810     6.3720    -0.3580 O.3   1 <1>  -0.2800 
 15 C        2.4350     4.9310     1.0370 C.2   1 <1>  -0.1500 
 16 C        2.8500     6.6820    -0.1980 C.2   1 <1>  -0.0100 
 17 C        3.4390     5.8230     0.6590 C.2   1 <1>  -0.1500 
 18 H       -0.6010     2.9830    -1.1430 H     1 <1>   0.3700 
 19 H       -2.2820    -0.6880    -1.3930 H     1 <1>   0.3700 
 20 H       -3.1900     0.6290    -0.6600 H     1 <1>   0.3700 
 21 H       -4.5050     4.2860     0.4770 H     1 <1>   0.0800 
 22 H       -3.5280     5.0630     1.6850 H     1 <1>   0.0800 
 23 H        0.0480     3.7290     0.8600 H     1 <1>   0.1500 
 24 H       -0.6500     7.1760    -0.4110 H     1 <1>   0.0800 
 25 H       -1.6420     6.4420    -1.6270 H     1 <1>   0.0800 
 26 H       -4.2020     6.1470    -1.0590 H     1 <1>   0.0800 
 27 H       -4.7810     6.7640     0.4650 H     1 <1>   0.0800 
 28 H       -2.4970     7.4000     1.1110 H     1 <1>   0.0800 
 29 H       -2.9040     8.1320    -0.4150 H     1 <1>   0.0800 
 30 H        2.5610     4.1040     1.7130 H     1 <1>   0.1500 
 31 H        3.2530     7.5260    -0.7300 H     1 <1>   0.1500 
 32 H        4.4600     5.8040     0.9970 H     1 <1>   0.1500 
@<TRIPOS>BOND
  1   1   2  2   
  2   2   3  am  
  3   2   4  am  
  4   3   5  1   
  5   3  18  1   
  6   4  19  1   
  7   4  20  1   
  8   5   6  2   
  9   6   7  1   
 10   6   8  1   
 11   7   9  2   
 12   7  10  1   
 13   8  11  1   
 14   8  21  1   
 15   8  22  1   
 16   9  12  1   
 17   9  23  1   
 18  10  13  1   
 19  10  24  1   
 20  10  25  1   
 21  11  13  1   
 22  11  26  1   
 23  11  27  1   
 24  12  14  1   
 25  12  15  2   
 26  13  28  1   
 27  13  29  1   
 28  14  16  1   
 29  15  17  1   
 30  15  30  1   
 31  16  17  2   
 32  16  31  1   
 33  17  32  1   
@<TRIPOS>SUBSTRUCTURE
  1 ****   7 GROUP 4 **** **** 0

# MOE 2024.06 (io_trps.svl 2023.06)
