@<TRIPOS>MOLECULE
NONAME
51 53 1 0 0 
SMALL
USER_CHARGES


@<TRIPOS>ATOM
  1 S        0.4310    -0.1420     0.1620 S.o2  1 <1>   1.4470 
  2 O        0.1720    -0.3490     1.5720 O.2   1 <1>  -0.6500 
  3 O       -0.0520    -1.1090    -0.8000 O.2   1 <1>  -0.6500 
  4 N       -0.2380     1.3610    -0.2480 N.am  1 <1>  -0.8490 
  5 C        2.2040     0.1150    -0.1150 C.ar  1 <1>  -0.0090 
  6 C        0.0540     2.3850     0.7610 C.3   1 <1>   0.1960 
  7 C       -1.6820     1.2530    -0.4810 C.3   1 <1>   0.1960 
  8 C        3.1420    -0.1740     0.8700 C.ar  1 <1>  -0.1500 
  9 C        2.6680     0.6080    -1.3300 C.ar  1 <1>  -0.1500 
 10 C       -0.4300     3.7570     0.2800 C.3   1 <1>  -0.1600 
 11 C       -2.2400     2.5850    -0.9960 C.3   1 <1>  -0.1600 
 12 C        4.4930     0.0240     0.6500 C.ar  1 <1>  -0.1500 
 13 C        4.0170     0.8100    -1.5610 C.ar  1 <1>  -0.1500 
 14 C       -1.9300     3.7370    -0.0340 C.3   1 <1>  -0.1600 
 15 C        4.9410     0.5160    -0.5630 C.ar  1 <1>   0.0820 
 16 O        6.2770     0.6810    -0.7010 O.3   1 <1>  -0.3630 
 17 C        6.8390     1.1610    -1.9190 C.3   1 <1>   0.1810 
 18 C        8.3560     1.2420    -1.8320 C.2   1 <1>   0.5690 
 19 O        8.9560     1.6080    -2.8130 O.2   1 <1>  -0.5700 
 20 N        8.9470     0.8870    -0.6500 N.am  1 <1>  -0.5470 
 21 C       10.2830     0.8280    -0.2180 C.ar  1 <1>   0.1170 
 22 C       10.5880     0.1520     0.9670 C.ar  1 <1>  -0.1430 
 23 C       11.3200     1.4310    -0.9260 C.ar  1 <1>  -0.1500 
 24 C       11.8990     0.0900     1.4120 C.ar  1 <1>  -0.1500 
 25 C        9.5010    -0.5300     1.7900 C.3   1 <1>  -0.0970 
 26 C       12.6250     1.3650    -0.4770 C.ar  1 <1>  -0.1500 
 27 C       12.9170     0.6930     0.6950 C.ar  1 <1>  -0.1500 
 28 H        1.1150     2.4320     0.9370 H     1 <1>   0.0800 
 29 H       -0.4310     2.1350     1.6920 H     1 <1>   0.0800 
 30 H       -2.1790     0.9700     0.4330 H     1 <1>   0.0800 
 31 H       -1.8780     0.4930    -1.2190 H     1 <1>   0.0800 
 32 H        2.8090    -0.5610     1.8190 H     1 <1>   0.1500 
 33 H        1.9530     0.8350    -2.1050 H     1 <1>   0.1500 
 34 H        0.1240     4.0310    -0.6020 H     1 <1>   0.0800 
 35 H       -0.2280     4.4930     1.0380 H     1 <1>   0.0800 
 36 H       -3.3040     2.4980    -1.1260 H     1 <1>   0.0800 
 37 H       -1.8070     2.7890    -1.9600 H     1 <1>   0.0800 
 38 H        5.2050    -0.2050     1.4230 H     1 <1>   0.1500 
 39 H        4.3190     1.1930    -2.5180 H     1 <1>   0.1500 
 40 H       -2.2290     4.6740    -0.4710 H     1 <1>   0.0800 
 41 H       -2.4850     3.6000     0.8790 H     1 <1>   0.0800 
 42 H        6.4430     2.1410    -2.1140 H     1 <1>   0.0800 
 43 H        6.5660     0.4880    -2.7100 H     1 <1>   0.0800 
 44 H        8.2700     0.5710     0.0450 H     1 <1>   0.3700 
 45 H       11.1150     1.9630    -1.8350 H     1 <1>   0.1500 
 46 H       12.1410    -0.4290     2.3230 H     1 <1>   0.1500 
 47 H        8.9850    -1.2580     1.1900 H     1 <1>   0.0800 
 48 H        8.7980     0.1990     2.1500 H     1 <1>   0.0800 
 49 H        9.9230    -1.0370     2.6400 H     1 <1>   0.0800 
 50 H       13.4120     1.8360    -1.0390 H     1 <1>   0.1500 
 51 H       13.9320     0.6390     1.0480 H     1 <1>   0.1500 
@<TRIPOS>BOND
  1   1   2  2   
  2   1   3  2   
  3   1   4  am  
  4   1   5  1   
  5   4   6  1   
  6   4   7  1   
  7   5   8  ar  
  8   5   9  ar  
  9   6  10  1   
 10   6  28  1   
 11   6  29  1   
 12   7  11  1   
 13   7  30  1   
 14   7  31  1   
 15   8  12  ar  
 16   8  32  1   
 17   9  13  ar  
 18   9  33  1   
 19  10  14  1   
 20  10  34  1   
 21  10  35  1   
 22  11  14  1   
 23  11  36  1   
 24  11  37  1   
 25  12  15  ar  
 26  12  38  1   
 27  13  15  ar  
 28  13  39  1   
 29  14  40  1   
 30  14  41  1   
 31  15  16  1   
 32  16  17  1   
 33  17  18  1   
 34  17  42  1   
 35  17  43  1   
 36  18  19  2   
 37  18  20  am  
 38  20  21  1   
 39  20  44  1   
 40  21  22  ar  
 41  21  23  ar  
 42  22  24  ar  
 43  22  25  1   
 44  23  26  ar  
 45  23  45  1   
 46  24  27  ar  
 47  24  46  1   
 48  25  47  1   
 49  25  48  1   
 50  25  49  1   
 51  26  27  ar  
 52  26  50  1   
 53  27  51  1   
@<TRIPOS>SUBSTRUCTURE
  1 ****  15 GROUP 4 **** **** 0

# MOE 2024.06 (io_trps.svl 2023.06)
