@<TRIPOS>MOLECULE
NONAME
49 51 1 0 0 
SMALL
USER_CHARGES


@<TRIPOS>ATOM
  1 O       -0.8000    -1.0770    -1.3910 O.2   1 <1>  -0.5700 
  2 C       -0.6010    -1.9100    -0.5390 C.2   1 <1>   0.5690 
  3 N        0.6040    -2.0190     0.0700 N.am  1 <1>  -0.7300 
  4 C       -1.7060    -2.8830    -0.1320 C.3   1 <1>  -0.0190 
  5 C        1.7920    -1.2330    -0.2930 C.3   1 <1>   0.2840 
  6 C       -1.6020    -4.1930    -0.9330 C.3   1 <1>  -0.1600 
  7 C       -3.1170    -2.2820    -0.2920 C.3   1 <1>  -0.1600 
  8 C        3.0140    -2.0610     0.0570 C.ar  1 <1>  -0.1440 
  9 C       -2.7030    -5.1820    -0.5430 C.3   1 <1>   0.1400 
 10 C       -4.2060    -3.2860     0.0910 C.3   1 <1>   0.1400 
 11 C        3.6800    -1.8620     1.2570 C.ar  1 <1>  -0.1500 
 12 C        3.4690    -3.0340    -0.8210 C.ar  1 <1>  -0.1500 
 13 N       -4.0370    -4.5380    -0.7000 N.am  1 <1>  -0.6600 
 14 C        4.7900    -2.6270     1.5750 C.ar  1 <1>  -0.1500 
 15 C        4.5780    -3.7980    -0.5040 C.ar  1 <1>  -0.1500 
 16 C       -5.0180    -5.1240    -1.4670 C.2   1 <1>   0.5690 
 17 C        5.2390    -3.5950     0.6940 C.ar  1 <1>  -0.1500 
 18 O       -4.8330    -6.1780    -2.0320 O.2   1 <1>  -0.5700 
 19 C       -6.3860    -4.4760    -1.6570 C.3   1 <1>   0.0440 
 20 C       -7.2250    -4.4280    -0.3820 C.ar  1 <1>  -0.1440 
 21 C       -7.9120    -3.2730    -0.0370 C.ar  1 <1>  -0.1500 
 22 C       -7.3110    -5.5390     0.4450 C.ar  1 <1>  -0.1500 
 23 C       -8.6660    -3.2250     1.1230 C.ar  1 <1>  -0.1500 
 24 C       -8.0640    -5.4920     1.6050 C.ar  1 <1>  -0.1500 
 25 C       -8.7410    -4.3350     1.9460 C.ar  1 <1>  -0.1500 
 26 H        0.7890    -2.7590     0.7460 H     1 <1>   0.3700 
 27 H       -1.5660    -3.1130     0.9090 H     1 <1>   0.0800 
 28 H        1.7920    -0.3060     0.2550 H     1 <1>   0.0800 
 29 H        1.7790    -1.0080    -1.3460 H     1 <1>   0.0800 
 30 H       -0.6430    -4.6490    -0.7640 H     1 <1>   0.0800 
 31 H       -1.6820    -3.9820    -1.9860 H     1 <1>   0.0800 
 32 H       -3.2710    -1.9790    -1.3130 H     1 <1>   0.0800 
 33 H       -3.2070    -1.4050     0.3240 H     1 <1>   0.0800 
 34 H       -2.5820    -5.4870     0.4820 H     1 <1>   0.0800 
 35 H       -2.6270    -6.0610    -1.1610 H     1 <1>   0.0800 
 36 H       -5.1670    -2.8380    -0.0790 H     1 <1>   0.0800 
 37 H       -4.1360    -3.5250     1.1390 H     1 <1>   0.0800 
 38 H        3.3380    -1.1130     1.9500 H     1 <1>   0.1500 
 39 H        2.9580    -3.1990    -1.7540 H     1 <1>   0.1500 
 40 H        5.3040    -2.4680     2.5070 H     1 <1>   0.1500 
 41 H        4.9270    -4.5500    -1.1900 H     1 <1>   0.1500 
 42 H        6.1030    -4.1880     0.9410 H     1 <1>   0.1500 
 43 H       -6.9280    -5.0360    -2.3970 H     1 <1>   0.0800 
 44 H       -6.2390    -3.4890    -2.0510 H     1 <1>   0.0800 
 45 H       -7.8650    -2.4030    -0.6690 H     1 <1>   0.1500 
 46 H       -6.7910    -6.4470     0.1880 H     1 <1>   0.1500 
 47 H       -9.1950    -2.3260     1.3850 H     1 <1>   0.1500 
 48 H       -8.1240    -6.3580     2.2410 H     1 <1>   0.1500 
 49 H       -9.3260    -4.2990     2.8480 H     1 <1>   0.1500 
@<TRIPOS>BOND
  1   1   2  2   
  2   2   3  am  
  3   2   4  1   
  4   3   5  1   
  5   3  26  1   
  6   4   6  1   
  7   4   7  1   
  8   4  27  1   
  9   5   8  1   
 10   5  28  1   
 11   5  29  1   
 12   6   9  1   
 13   6  30  1   
 14   6  31  1   
 15   7  10  1   
 16   7  32  1   
 17   7  33  1   
 18   8  11  ar  
 19   8  12  ar  
 20   9  13  1   
 21   9  34  1   
 22   9  35  1   
 23  10  13  1   
 24  10  36  1   
 25  10  37  1   
 26  11  14  ar  
 27  11  38  1   
 28  12  15  ar  
 29  12  39  1   
 30  13  16  am  
 31  14  17  ar  
 32  14  40  1   
 33  15  17  ar  
 34  15  41  1   
 35  16  18  2   
 36  16  19  1   
 37  17  42  1   
 38  19  20  1   
 39  19  43  1   
 40  19  44  1   
 41  20  21  ar  
 42  20  22  ar  
 43  21  23  ar  
 44  21  45  1   
 45  22  24  ar  
 46  22  46  1   
 47  23  25  ar  
 48  23  47  1   
 49  24  25  ar  
 50  24  48  1   
 51  25  49  1   
@<TRIPOS>SUBSTRUCTURE
  1 ****   4 GROUP 4 **** **** 0

# MOE 2024.06 (io_trps.svl 2023.06)
