@<TRIPOS>MOLECULE
NONAME
35 36 1 0 0 
SMALL
USER_CHARGES


@<TRIPOS>ATOM
  1 CL      -2.0130     1.0250     1.7890 Cl    1 <1>  -0.1770 
  2 C       -0.9990     2.0730     0.8250 C.ar  1 <1>   0.1770 
  3 C       -1.4190     2.4620    -0.4390 C.ar  1 <1>  -0.1440 
  4 C        0.2030     2.5030     1.3530 C.ar  1 <1>  -0.1500 
  5 C       -0.6000     3.3000    -1.1840 C.ar  1 <1>  -0.1500 
  6 C       -2.7450     1.9780    -0.9870 C.3   1 <1>   0.4870 
  7 C        1.0090     3.3420     0.6030 C.ar  1 <1>  -0.1500 
  8 C        0.6070     3.7370    -0.6620 C.ar  1 <1>  -0.1500 
  9 N       -3.8470     2.6190    -0.2260 N.4   1 <1>  -0.9590 
 10 C       -5.2050     2.0830    -0.5480 C.3   1 <1>   0.3430 
 11 C       -3.8420     4.1240    -0.2930 C.3   1 <1>   0.3430 
 12 C       -6.2590     2.6270     0.4520 C.3   1 <1>   0.2000 
 13 C       -5.1440     4.7540     0.2710 C.3   1 <1>   0.2000 
 14 O       -5.8430     3.8260     1.0560 O.3   1 <1>  -0.5600 
 15 C       -6.5050     1.6460     1.5970 C.3   1 <1>  -0.2400 
 16 C       -6.0750     5.3130    -0.8120 C.3   1 <1>  -0.2400 
 17 H        0.5060     2.1870     2.3360 H     1 <1>   0.1500 
 18 H       -0.8830     3.6190    -2.1740 H     1 <1>   0.1500 
 19 H       -2.8000     0.9060    -0.8820 H     1 <1>   0.0800 
 20 H       -2.8220     2.2230    -2.0340 H     1 <1>   0.0800 
 21 H        1.9500     3.6850     1.0010 H     1 <1>   0.1500 
 22 H        1.2420     4.3870    -1.2430 H     1 <1>   0.1500 
 23 H       -3.6960     2.3950     0.7710 H     1 <1>   0.4500 
 24 H       -5.2070     1.0060    -0.5100 H     1 <1>   0.0800 
 25 H       -5.4850     2.3770    -1.5450 H     1 <1>   0.0800 
 26 H       -3.7170     4.4500    -1.3120 H     1 <1>   0.0800 
 27 H       -3.0040     4.5040     0.2670 H     1 <1>   0.0800 
 28 H       -7.1890     2.8120    -0.0600 H     1 <1>   0.0800 
 29 H       -4.8720     5.5660     0.9240 H     1 <1>   0.0800 
 30 H       -5.6000     1.4650     2.1480 H     1 <1>   0.0800 
 31 H       -6.8720     0.7090     1.2170 H     1 <1>   0.0800 
 32 H       -7.2470     2.0480     2.2650 H     1 <1>   0.0800 
 33 H       -6.3350     4.5740    -1.5470 H     1 <1>   0.0800 
 34 H       -5.5940     6.1320    -1.3180 H     1 <1>   0.0800 
 35 H       -6.9740     5.6930    -0.3570 H     1 <1>   0.0800 
@<TRIPOS>BOND
  1   1   2  1   
  2   2   3  ar  
  3   2   4  ar  
  4   3   5  ar  
  5   3   6  1   
  6   4   7  ar  
  7   4  17  1   
  8   5   8  ar  
  9   5  18  1   
 10   6   9  1   
 11   6  19  1   
 12   6  20  1   
 13   7   8  ar  
 14   7  21  1   
 15   8  22  1   
 16   9  10  1   
 17   9  11  1   
 18   9  23  1   
 19  10  12  1   
 20  10  24  1   
 21  10  25  1   
 22  11  13  1   
 23  11  26  1   
 24  11  27  1   
 25  12  14  1   
 26  12  15  1   
 27  12  28  1   
 28  13  14  1   
 29  13  16  1   
 30  13  29  1   
 31  15  30  1   
 32  15  31  1   
 33  15  32  1   
 34  16  33  1   
 35  16  34  1   
 36  16  35  1   
@<TRIPOS>SUBSTRUCTURE
  1 ****   9 GROUP 4 **** **** 0

# MOE 2024.06 (io_trps.svl 2023.06)
