@<TRIPOS>MOLECULE
NONAME
37 38 1 0 0 
SMALL
USER_CHARGES


@<TRIPOS>ATOM
  1 BR       1.1830    -0.5640     3.6870 Br    1 <1>  -0.1110 
  2 C        2.2450    -1.0870     2.1720 C.ar  1 <1>   0.1110 
  3 C        3.0680    -0.1690     1.5780 C.ar  1 <1>  -0.1500 
  4 C        2.1430    -2.4020     1.7210 C.ar  1 <1>  -0.1500 
  5 C        3.8490    -0.5480     0.4660 C.ar  1 <1>   0.0000 
  6 C        2.9010    -2.7770     0.6410 C.ar  1 <1>  -0.1500 
  7 C        4.7380     0.2980    -0.2420 C.ar  1 <1>   0.4100 
  8 C        3.7590    -1.8680     0.0010 C.ar  1 <1>   0.3100 
  9 N        5.4320    -0.1220    -1.2580 N.ar  1 <1>  -0.6200 
 10 N        4.8930     1.6070     0.1280 N.pl3 1 <1>  -0.8690 
 11 N        4.4870    -2.2800    -1.0560 N.ar  1 <1>  -0.6200 
 12 C        5.2620    -1.4010    -1.6070 C.ar  1 <1>   0.4700 
 13 C        5.8030     2.5700    -0.5210 C.3   1 <1>   0.2090 
 14 C        5.8500     3.8440     0.3150 C.3   1 <1>  -0.1600 
 15 C        6.7910     4.8690    -0.3120 C.3   1 <1>   0.1200 
 16 O        6.7720     5.9990     0.4970 O.3   1 <1>  -0.5600 
 17 C        7.5880     7.0450     0.0870 C.3   1 <1>   0.2000 
 18 C        7.9310     7.8460     1.3370 C.3   1 <1>  -0.2400 
 19 C        6.8240     7.8990    -0.9240 C.3   1 <1>  -0.2400 
 20 H        3.1160     0.8330     1.9600 H     1 <1>   0.1500 
 21 H        1.4820    -3.0880     2.2200 H     1 <1>   0.1500 
 22 H        2.8570    -3.7800     0.2560 H     1 <1>   0.1500 
 23 H        4.3380     1.9870     0.8950 H     1 <1>   0.4000 
 24 H        5.8470    -1.7240    -2.4520 H     1 <1>   0.1500 
 25 H        5.4430     2.7830    -1.5140 H     1 <1>   0.0800 
 26 H        6.7860     2.1350    -0.5970 H     1 <1>   0.0800 
 27 H        6.2030     3.6090     1.3030 H     1 <1>   0.0800 
 28 H        4.8650     4.2690     0.3740 H     1 <1>   0.0800 
 29 H        6.4560     5.1370    -1.2990 H     1 <1>   0.0800 
 30 H        7.7970     4.4880    -0.3510 H     1 <1>   0.0800 
 31 H        8.4920     6.6470    -0.3450 H     1 <1>   0.0800 
 32 H        7.0340     8.2270     1.7940 H     1 <1>   0.0800 
 33 H        8.5680     8.6730     1.0840 H     1 <1>   0.0800 
 34 H        8.4480     7.2200     2.0410 H     1 <1>   0.0800 
 35 H        5.8940     8.2330    -0.4990 H     1 <1>   0.0800 
 36 H        6.6270     7.3440    -1.8220 H     1 <1>   0.0800 
 37 H        7.4080     8.7620    -1.1880 H     1 <1>   0.0800 
@<TRIPOS>BOND
  1   1   2  1   
  2   2   3  ar  
  3   2   4  ar  
  4   3   5  ar  
  5   3  20  1   
  6   4   6  ar  
  7   4  21  1   
  8   5   7  ar  
  9   5   8  ar  
 10   6   8  ar  
 11   6  22  1   
 12   7   9  ar  
 13   7  10  1   
 14   8  11  ar  
 15   9  12  ar  
 16  10  13  1   
 17  10  23  1   
 18  11  12  ar  
 19  12  24  1   
 20  13  14  1   
 21  13  25  1   
 22  13  26  1   
 23  14  15  1   
 24  14  27  1   
 25  14  28  1   
 26  15  16  1   
 27  15  29  1   
 28  15  30  1   
 29  16  17  1   
 30  17  18  1   
 31  17  19  1   
 32  17  31  1   
 33  18  32  1   
 34  18  33  1   
 35  18  34  1   
 36  19  35  1   
 37  19  36  1   
 38  19  37  1   
@<TRIPOS>SUBSTRUCTURE
  1 ****  10 GROUP 4 **** **** 0

# MOE 2024.06 (io_trps.svl 2023.06)
