@<TRIPOS>MOLECULE
NONAME
32 33 1 0 0 
SMALL
USER_CHARGES


@<TRIPOS>ATOM
  1 CL      -0.0260     0.0230     0.8920 Cl    1 <1>  -0.1770 
  2 C        1.4500    -0.8140     0.4920 C.ar  1 <1>   0.1770 
  3 C        2.6350    -0.1090     0.4390 C.ar  1 <1>  -0.1500 
  4 C        1.4130    -2.1700     0.2350 C.ar  1 <1>  -0.1500 
  5 C        3.8160    -0.7660     0.1240 C.ar  1 <1>  -0.1440 
  6 C        2.5870    -2.8290    -0.0840 C.ar  1 <1>  -0.1500 
  7 C        3.7900    -2.1360    -0.1440 C.ar  1 <1>  -0.1430 
  8 C        5.1210     0.0240     0.0880 C.3   1 <1>   0.0640 
  9 C        5.0480    -2.9060    -0.5240 C.3   1 <1>   0.4870 
 10 C        6.2210    -0.7720    -0.6320 C.3   1 <1>   0.3430 
 11 C        5.5490     0.3860     1.5200 C.3   1 <1>  -0.2400 
 12 N        6.2730    -2.1680    -0.1000 N.4   1 <1>  -0.9590 
 13 C        7.5360    -2.8570    -0.5130 C.3   1 <1>   0.3430 
 14 C        7.7720    -4.1740     0.2420 C.3   1 <1>   0.1200 
 15 O        8.9390    -4.7280    -0.2460 O.3   1 <1>  -0.6800 
 16 H        2.6190     0.9470     0.6470 H     1 <1>   0.1500 
 17 H        0.4750    -2.6950     0.2850 H     1 <1>   0.1500 
 18 H        2.5440    -3.8860    -0.2880 H     1 <1>   0.1500 
 19 H        4.9630     0.9380    -0.4590 H     1 <1>   0.0800 
 20 H        5.0590    -3.0490    -1.5930 H     1 <1>   0.0800 
 21 H        5.0210    -3.8760    -0.0550 H     1 <1>   0.0800 
 22 H        7.1680    -0.2780    -0.4830 H     1 <1>   0.0800 
 23 H        6.0120    -0.7930    -1.6890 H     1 <1>   0.0800 
 24 H        5.6480    -0.4910     2.1340 H     1 <1>   0.0800 
 25 H        4.8090     1.0230     1.9740 H     1 <1>   0.0800 
 26 H        6.4840     0.9190     1.5150 H     1 <1>   0.0800 
 27 H        6.2350    -2.0910     0.9250 H     1 <1>   0.4500 
 28 H        8.3770    -2.2110    -0.3180 H     1 <1>   0.0800 
 29 H        7.5100    -3.0630    -1.5710 H     1 <1>   0.0800 
 30 H        6.9780    -4.8800     0.0710 H     1 <1>   0.0800 
 31 H        7.9010    -3.9980     1.2970 H     1 <1>   0.0800 
 32 H        9.1710    -5.5620     0.2160 H     1 <1>   0.4000 
@<TRIPOS>BOND
  1   1   2  1   
  2   2   3  ar  
  3   2   4  ar  
  4   3   5  ar  
  5   3  16  1   
  6   4   6  ar  
  7   4  17  1   
  8   5   7  ar  
  9   5   8  1   
 10   6   7  ar  
 11   6  18  1   
 12   7   9  1   
 13   8  10  1   
 14   8  11  1   
 15   8  19  1   
 16   9  12  1   
 17   9  20  1   
 18   9  21  1   
 19  10  12  1   
 20  10  22  1   
 21  10  23  1   
 22  11  24  1   
 23  11  25  1   
 24  11  26  1   
 25  12  13  1   
 26  12  27  1   
 27  13  14  1   
 28  13  28  1   
 29  13  29  1   
 30  14  15  1   
 31  14  30  1   
 32  14  31  1   
 33  15  32  1   
@<TRIPOS>SUBSTRUCTURE
  1 ****   7 GROUP 4 **** **** 0

# MOE 2024.06 (io_trps.svl 2023.06)
