@<TRIPOS>MOLECULE
NONAME
37 37 1 0 0 
SMALL
USER_CHARGES


@<TRIPOS>ATOM
  1 O        1.1960    -0.6060     1.0120 O.2   1 <1>  -0.5700 
  2 C        0.6610    -1.5120     0.3990 C.2   1 <1>   0.6900 
  3 N        1.3410    -2.2650    -0.5100 N.am  1 <1>  -0.4210 
  4 N       -0.6540    -1.7350     0.6660 N.am  1 <1>  -0.4900 
  5 N        2.7480    -2.0920    -0.9740 N.3   1 <1>  -0.6390 
  6 C       -1.5050    -2.6560     0.1390 C.2   1 <1>   0.5690 
  7 C        3.6530    -2.5420     0.1100 C.3   1 <1>   0.2540 
  8 O       -1.1600    -3.4640    -0.6860 O.2   1 <1>  -0.5700 
  9 C       -2.9430    -2.6540     0.6200 C.3   1 <1>  -0.0990 
 10 C        4.7890    -1.5420     0.2240 C.ar  1 <1>  -0.1440 
 11 C       -3.7550    -1.4940     0.0140 C.3   1 <1>  -0.1600 
 12 C        4.6530    -0.4230     1.0320 C.ar  1 <1>  -0.1500 
 13 C        5.9670    -1.7320    -0.4820 C.ar  1 <1>  -0.1500 
 14 C       -5.1860    -1.4060     0.5650 C.3   1 <1>  -0.1600 
 15 C        5.6860     0.4920     1.1390 C.ar  1 <1>  -0.1500 
 16 C        7.0020    -0.8180    -0.3750 C.ar  1 <1>  -0.1500 
 17 C       -6.0490    -2.6160     0.1890 C.3   1 <1>  -0.2400 
 18 C        6.8620     0.2940     0.4370 C.ar  1 <1>  -0.1500 
 19 H        0.7770    -2.9750    -1.0080 H     1 <1>   0.3700 
 20 H       -1.0160    -1.0810     1.3510 H     1 <1>   0.3700 
 21 H        2.9040    -1.0720    -1.0160 H     1 <1>   0.3600 
 22 H        4.0380    -3.5170    -0.1350 H     1 <1>   0.0800 
 23 H        3.1330    -2.6080     1.0500 H     1 <1>   0.0800 
 24 H       -2.9550    -2.5920     1.6930 H     1 <1>   0.0800 
 25 H       -3.3870    -3.5930     0.3420 H     1 <1>   0.0800 
 26 H       -3.7900    -1.6070    -1.0570 H     1 <1>   0.0800 
 27 H       -3.2560    -0.5630     0.2220 H     1 <1>   0.0800 
 28 H        3.7390    -0.2600     1.5790 H     1 <1>   0.1500 
 29 H        6.0800    -2.5910    -1.1200 H     1 <1>   0.1500 
 30 H       -5.6510    -0.5200     0.1660 H     1 <1>   0.0800 
 31 H       -5.1610    -1.3020     1.6370 H     1 <1>   0.0800 
 32 H        5.5730     1.3570     1.7690 H     1 <1>   0.1500 
 33 H        7.9130    -0.9720    -0.9250 H     1 <1>   0.1500 
 34 H       -6.0530    -2.7590    -0.8780 H     1 <1>   0.0800 
 35 H       -7.0620    -2.4550     0.5120 H     1 <1>   0.0800 
 36 H       -5.6870    -3.5120     0.6590 H     1 <1>   0.0800 
 37 H        7.6650     1.0050     0.5200 H     1 <1>   0.1500 
@<TRIPOS>BOND
  1   1   2  2   
  2   2   3  am  
  3   2   4  am  
  4   3   5  1   
  5   3  19  1   
  6   4   6  am  
  7   4  20  1   
  8   5   7  1   
  9   5  21  1   
 10   6   8  2   
 11   6   9  1   
 12   7  10  1   
 13   7  22  1   
 14   7  23  1   
 15   9  11  1   
 16   9  24  1   
 17   9  25  1   
 18  10  12  ar  
 19  10  13  ar  
 20  11  14  1   
 21  11  26  1   
 22  11  27  1   
 23  12  15  ar  
 24  12  28  1   
 25  13  16  ar  
 26  13  29  1   
 27  14  17  1   
 28  14  30  1   
 29  14  31  1   
 30  15  18  ar  
 31  15  32  1   
 32  16  18  ar  
 33  16  33  1   
 34  17  34  1   
 35  17  35  1   
 36  17  36  1   
 37  18  37  1   
@<TRIPOS>SUBSTRUCTURE
  1 ****   2 GROUP 4 **** **** 0

# MOE 2024.06 (io_trps.svl 2023.06)
