@<TRIPOS>MOLECULE
NONAME
48 51 1 0 0 
SMALL
USER_CHARGES


@<TRIPOS>ATOM
  1 O       -0.9390     1.7540     1.4950 O.2   1 <1>  -0.5700 
  2 C       -0.0190     2.2050     0.8380 C.2   1 <1>   0.5440 
  3 N       -0.2520     3.3300     0.0900 N.am  1 <1>  -0.6600 
  4 C        1.2570     1.5210     0.8130 C.ar  1 <1>   0.0860 
  5 C        0.7940     4.0650    -0.6680 C.3   1 <1>   0.2810 
  6 C       -1.6030     3.8610    -0.1830 C.3   1 <1>   0.1400 
  7 C        2.4980     2.1840     0.8630 C.ar  1 <1>   0.1170 
  8 C        1.2560     0.1270     0.7250 C.ar  1 <1>  -0.1500 
  9 C        1.9550     4.5170     0.2420 C.2   1 <1>   0.5690 
 10 C        0.0150     5.2000    -1.3550 C.3   1 <1>  -0.1600 
 11 C       -1.4260     4.7020    -1.4400 C.3   1 <1>  -0.1600 
 12 N        2.6180     3.5810     1.0110 N.am  1 <1>  -0.4770 
 13 C        3.6690     1.4290     0.7780 C.ar  1 <1>  -0.1500 
 14 C        2.4250    -0.6030     0.6570 C.ar  1 <1>  -0.1500 
 15 O        2.2820     5.6850     0.2720 O.2   1 <1>  -0.5700 
 16 C        3.4820     4.0740     2.1410 C.3   1 <1>   0.2010 
 17 C        3.6390     0.0540     0.6780 C.ar  1 <1>  -0.1500 
 18 C        4.8820     4.5010     1.7040 C.2   1 <1>   0.5690 
 19 O        5.8270     3.8720     2.1150 O.2   1 <1>  -0.5700 
 20 N        5.0030     5.5740     0.8660 N.am  1 <1>  -0.5470 
 21 C        6.1240     6.2060     0.2950 C.ar  1 <1>   0.1170 
 22 C        7.4550     5.9020     0.5990 C.ar  1 <1>   0.1600 
 23 C        5.8960     7.2050    -0.6370 C.ar  1 <1>  -0.1500 
 24 N        8.5220     6.4860     0.0710 N.ar  1 <1>  -0.6200 
 25 C        6.9900     7.8250    -1.1960 C.ar  1 <1>  -0.1500 
 26 C        8.2670     7.4390    -0.8190 C.ar  1 <1>   0.3930 
 27 O        9.3010     8.0850    -1.4050 O.3   1 <1>  -0.3620 
 28 C       10.6350     7.7480    -1.0760 C.3   1 <1>   0.0400 
 29 H        1.1850     3.4080    -1.4240 H     1 <1>   0.0800 
 30 H       -2.3130     3.0630    -0.3290 H     1 <1>   0.0800 
 31 H       -1.9140     4.4720     0.6470 H     1 <1>   0.0800 
 32 H        0.3110    -0.3900     0.7080 H     1 <1>   0.1500 
 33 H        0.0380     6.0860    -0.7440 H     1 <1>   0.0800 
 34 H        0.4270     5.4370    -2.3190 H     1 <1>   0.0800 
 35 H       -1.5500     4.0730    -2.3040 H     1 <1>   0.0800 
 36 H       -2.1380     5.5070    -1.4850 H     1 <1>   0.0800 
 37 H        4.6280     1.9170     0.7890 H     1 <1>   0.1500 
 38 H        2.3920    -1.6780     0.5880 H     1 <1>   0.1500 
 39 H        3.0010     4.9100     2.6160 H     1 <1>   0.0800 
 40 H        3.5750     3.2980     2.8800 H     1 <1>   0.0800 
 41 H        4.5570    -0.5060     0.6190 H     1 <1>   0.1500 
 42 H        4.0950     5.9490     0.5550 H     1 <1>   0.3700 
 43 H        7.6540     5.1320     1.3210 H     1 <1>   0.1500 
 44 H        4.8960     7.4880    -0.9140 H     1 <1>   0.1500 
 45 H        6.8750     8.6060    -1.9230 H     1 <1>   0.1500 
 46 H       11.2940     8.3720    -1.6500 H     1 <1>   0.0800 
 47 H       10.8000     6.7120    -1.3170 H     1 <1>   0.0800 
 48 H       10.7860     7.9160    -0.0240 H     1 <1>   0.0800 
@<TRIPOS>BOND
  1   1   2  2   
  2   2   3  am  
  3   2   4  1   
  4   3   5  1   
  5   3   6  1   
  6   4   7  ar  
  7   4   8  ar  
  8   5   9  1   
  9   5  10  1   
 10   5  29  1   
 11   6  11  1   
 12   6  30  1   
 13   6  31  1   
 14   7  12  1   
 15   7  13  ar  
 16   8  14  ar  
 17   8  32  1   
 18   9  12  am  
 19   9  15  2   
 20  10  11  1   
 21  10  33  1   
 22  10  34  1   
 23  11  35  1   
 24  11  36  1   
 25  12  16  1   
 26  13  17  ar  
 27  13  37  1   
 28  14  17  ar  
 29  14  38  1   
 30  16  18  1   
 31  16  39  1   
 32  16  40  1   
 33  17  41  1   
 34  18  19  2   
 35  18  20  am  
 36  20  21  1   
 37  20  42  1   
 38  21  22  ar  
 39  21  23  ar  
 40  22  24  ar  
 41  22  43  1   
 42  23  25  ar  
 43  23  44  1   
 44  24  26  ar  
 45  25  26  ar  
 46  25  45  1   
 47  26  27  1   
 48  27  28  1   
 49  28  46  1   
 50  28  47  1   
 51  28  48  1   
@<TRIPOS>SUBSTRUCTURE
  1 ****  12 GROUP 4 **** **** 0

# MOE 2024.06 (io_trps.svl 2023.06)
