@<TRIPOS>MOLECULE
NONAME
32 33 1 0 0 
SMALL
USER_CHARGES


@<TRIPOS>ATOM
  1 F       -0.9460    -0.9160     1.6840 F     1 <1>  -0.3400 
  2 C       -1.2340    -0.9490     0.3880 C.3   1 <1>   1.1580 
  3 F       -0.9130     0.2500    -0.0920 F     1 <1>  -0.3400 
  4 F       -0.3760    -1.8070    -0.1610 F     1 <1>  -0.3400 
  5 C       -2.7280    -1.3260     0.1190 C.2   1 <1>  -0.0380 
  6 N       -3.0110    -2.5620    -0.4420 N.pl3 1 <1>  -0.8690 
  7 C       -3.6710    -0.3830     0.4530 C.2   1 <1>  -0.1500 
  8 C       -4.3530    -3.1670    -0.6620 C.3   1 <1>   0.2090 
  9 C       -5.0860    -0.3230     0.3640 C.2   1 <1>   0.1000 
 10 C       -5.3240    -2.8640     0.4850 C.3   1 <1>   0.2090 
 11 N       -5.8060    -1.4660     0.4240 N.pl3 1 <1>  -0.8690 
 12 C       -5.7720     0.9120     0.2490 C.2   1 <1>   0.0140 
 13 C       -7.1700     1.0810     0.5320 C.2   1 <1>   0.5410 
 14 C       -5.0890     2.0810    -0.1860 C.2   1 <1>  -0.1500 
 15 O       -7.9320     0.1530     0.8580 O.2   1 <1>  -0.5700 
 16 C       -7.7490     2.3700     0.4400 C.2   1 <1>  -0.1360 
 17 C       -5.6780     3.3120    -0.2790 C.2   1 <1>  -0.1380 
 18 C       -7.0330     3.4590     0.0500 C.2   1 <1>  -0.1500 
 19 C       -4.9060     4.5360    -0.7400 C.3   1 <1>  -0.1020 
 20 H       -2.2350    -3.1700    -0.7440 H     1 <1>   0.4000 
 21 H       -3.2680     0.5150     0.8860 H     1 <1>   0.1500 
 22 H       -4.2360    -4.2340    -0.7340 H     1 <1>   0.0800 
 23 H       -4.7660    -2.8100    -1.5890 H     1 <1>   0.0800 
 24 H       -4.8440    -3.0440     1.4310 H     1 <1>   0.0800 
 25 H       -6.1730    -3.5180     0.4040 H     1 <1>   0.0800 
 26 H       -6.8340    -1.3620     0.5070 H     1 <1>   0.4000 
 27 H       -4.0570     1.9910    -0.4710 H     1 <1>   0.1500 
 28 H       -8.7900     2.4460     0.6920 H     1 <1>   0.1500 
 29 H       -7.4900     4.4320    -0.0160 H     1 <1>   0.1500 
 30 H       -5.3580     4.9420    -1.6280 H     1 <1>   0.0800 
 31 H       -3.8840     4.2870    -0.9620 H     1 <1>   0.0800 
 32 H       -4.9150     5.2870     0.0290 H     1 <1>   0.0800 
@<TRIPOS>BOND
  1   1   2  1   
  2   2   3  1   
  3   2   4  1   
  4   2   5  1   
  5   5   6  1   
  6   5   7  2   
  7   6   8  1   
  8   6  20  1   
  9   7   9  1   
 10   7  21  1   
 11   8  10  1   
 12   8  22  1   
 13   8  23  1   
 14   9  11  1   
 15   9  12  2   
 16  10  11  1   
 17  10  24  1   
 18  10  25  1   
 19  11  26  1   
 20  12  13  1   
 21  12  14  1   
 22  13  15  2   
 23  13  16  1   
 24  14  17  2   
 25  14  27  1   
 26  16  18  2   
 27  16  28  1   
 28  17  18  1   
 29  17  19  1   
 30  18  29  1   
 31  19  30  1   
 32  19  31  1   
 33  19  32  1   
@<TRIPOS>SUBSTRUCTURE
  1 ****   9 GROUP 4 **** **** 0

# MOE 2024.06 (io_trps.svl 2023.06)
