@<TRIPOS>MOLECULE
NONAME
44 45 1 0 0 
SMALL
USER_CHARGES


@<TRIPOS>ATOM
  1 O        0.4040    -0.2460    -0.9730 O.3   1 <1>  -0.3630 
  2 C        1.5370    -0.8110    -0.4890 C.ar  1 <1>   0.0830 
  3 C       -0.2470     0.7990    -0.2850 C.3   1 <1>   0.0400 
  4 C        2.1710    -0.4030     0.6800 C.ar  1 <1>  -0.1500 
  5 C        2.0740    -1.8560    -1.2230 C.ar  1 <1>  -0.1500 
  6 C        3.3290    -1.0350     1.0990 C.ar  1 <1>  -0.1500 
  7 C        3.2310    -2.4870    -0.8040 C.ar  1 <1>  -0.1500 
  8 C        3.8680    -2.0770     0.3570 C.ar  1 <1>  -0.1430 
  9 C        5.1500    -2.7510     0.8020 C.3   1 <1>  -0.0170 
 10 C        6.3250    -2.0290     0.1450 C.3   1 <1>   0.3430 
 11 N        7.6190    -2.6500     0.5430 N.4   1 <1>  -0.9060 
 12 C        8.7930    -2.0150    -0.0900 C.3   1 <1>   0.4230 
 13 C       10.0010    -2.9530     0.0680 C.3   1 <1>  -0.1600 
 14 C        9.0620    -0.6410     0.5340 C.3   1 <1>  -0.1600 
 15 C       11.3560    -2.2130     0.0940 C.3   1 <1>  -0.0800 
 16 C       10.2420     0.0610    -0.1650 C.3   1 <1>  -0.1600 
 17 C       11.2910    -0.9170    -0.7260 C.3   1 <1>  -0.1600 
 18 C       12.4840    -3.1220    -0.4060 C.3   1 <1>  -0.2400 
 19 H       -1.1230     1.0720    -0.8460 H     1 <1>   0.0800 
 20 H        0.4190     1.6400    -0.2160 H     1 <1>   0.0800 
 21 H       -0.5330     0.4490     0.6910 H     1 <1>   0.0800 
 22 H        1.7750     0.3990     1.2740 H     1 <1>   0.1500 
 23 H        1.5740    -2.1680    -2.1220 H     1 <1>   0.1500 
 24 H        3.7990    -0.7050     2.0090 H     1 <1>   0.1500 
 25 H        3.6200    -3.2990    -1.3950 H     1 <1>   0.1500 
 26 H        5.1290    -3.7850     0.5060 H     1 <1>   0.0800 
 27 H        5.2280    -2.6980     1.8740 H     1 <1>   0.0800 
 28 H        6.3040    -0.9920     0.4390 H     1 <1>   0.0800 
 29 H        6.2090    -2.0740    -0.9260 H     1 <1>   0.0800 
 30 H        7.6160    -3.6430     0.2830 H     1 <1>   0.4500 
 31 H        7.7390    -2.6040     1.5610 H     1 <1>   0.4500 
 32 H        8.6080    -1.8770    -1.1440 H     1 <1>   0.0800 
 33 H        9.9900    -3.6390    -0.7620 H     1 <1>   0.0800 
 34 H        9.9300    -3.5280     0.9750 H     1 <1>   0.0800 
 35 H        9.3070    -0.7660     1.5750 H     1 <1>   0.0800 
 36 H        8.2010     0.0000     0.4630 H     1 <1>   0.0800 
 37 H       11.5830    -1.9430     1.1140 H     1 <1>   0.0800 
 38 H       10.7160     0.7220     0.5430 H     1 <1>   0.0800 
 39 H        9.8800     0.6740    -0.9740 H     1 <1>   0.0800 
 40 H       11.0510    -1.1570    -1.7490 H     1 <1>   0.0800 
 41 H       12.2550    -0.4340    -0.7310 H     1 <1>   0.0800 
 42 H       12.3320    -3.3950    -1.4360 H     1 <1>   0.0800 
 43 H       12.5350    -4.0200     0.1850 H     1 <1>   0.0800 
 44 H       13.4310    -2.6170    -0.3270 H     1 <1>   0.0800 
@<TRIPOS>BOND
  1   1   2  1   
  2   1   3  1   
  3   2   4  ar  
  4   2   5  ar  
  5   3  19  1   
  6   3  20  1   
  7   3  21  1   
  8   4   6  ar  
  9   4  22  1   
 10   5   7  ar  
 11   5  23  1   
 12   6   8  ar  
 13   6  24  1   
 14   7   8  ar  
 15   7  25  1   
 16   8   9  1   
 17   9  10  1   
 18   9  26  1   
 19   9  27  1   
 20  10  11  1   
 21  10  28  1   
 22  10  29  1   
 23  11  12  1   
 24  11  30  1   
 25  11  31  1   
 26  12  13  1   
 27  12  14  1   
 28  12  32  1   
 29  13  15  1   
 30  13  33  1   
 31  13  34  1   
 32  14  16  1   
 33  14  35  1   
 34  14  36  1   
 35  15  17  1   
 36  15  18  1   
 37  15  37  1   
 38  16  17  1   
 39  16  38  1   
 40  16  39  1   
 41  17  40  1   
 42  17  41  1   
 43  18  42  1   
 44  18  43  1   
 45  18  44  1   
@<TRIPOS>SUBSTRUCTURE
  1 ****  10 GROUP 4 **** **** 0

# MOE 2024.06 (io_trps.svl 2023.06)
