@<TRIPOS>MOLECULE
NONAME
34 35 1 0 0 
SMALL
USER_CHARGES


@<TRIPOS>ATOM
  1 F        1.8200    -5.9250     0.3050 F     1 <1>  -0.1900 
  2 C        2.3920    -4.7720     0.0910 C.ar  1 <1>   0.1900 
  3 C        1.6660    -3.5950     0.2790 C.ar  1 <1>   0.0860 
  4 C        3.7050    -4.7910    -0.3380 C.ar  1 <1>  -0.1500 
  5 C        0.2970    -3.5890     0.7380 C.2   1 <1>   0.6340 
  6 C        2.3400    -2.4040    -0.0100 C.ar  1 <1>  -0.1500 
  7 C        4.3420    -3.5940    -0.6070 C.ar  1 <1>  -0.1500 
  8 O       -0.1450    -4.3330     1.5880 O.2   1 <1>  -0.5700 
  9 O       -0.5300    -2.6890     0.1920 O.3   1 <1>  -0.4300 
 10 C        3.6550    -2.4020    -0.4440 C.ar  1 <1>  -0.1500 
 11 C       -1.8890    -2.6040     0.5530 C.3   1 <1>   0.2000 
 12 C       -2.6690    -3.6970    -0.1840 C.3   1 <1>  -0.1600 
 13 C       -2.3910    -1.2160     0.1610 C.3   1 <1>  -0.1600 
 14 C       -4.1660    -3.5440     0.0620 C.3   1 <1>   0.3430 
 15 C       -3.8950    -1.1030     0.3950 C.3   1 <1>   0.3430 
 16 N       -4.6090    -2.1800    -0.3550 N.4   1 <1>  -0.9590 
 17 C       -6.0900    -2.0370    -0.2110 C.3   1 <1>   0.2630 
 18 H        4.2170    -5.7300    -0.4620 H     1 <1>   0.1500 
 19 H        1.8260    -1.4660     0.1110 H     1 <1>   0.1500 
 20 H        5.3660    -3.5870    -0.9430 H     1 <1>   0.1500 
 21 H        4.1500    -1.4690    -0.6560 H     1 <1>   0.1500 
 22 H       -1.9700    -2.7300     1.6220 H     1 <1>   0.0800 
 23 H       -2.3620    -4.6640     0.1760 H     1 <1>   0.0800 
 24 H       -2.4700    -3.6520    -1.2400 H     1 <1>   0.0800 
 25 H       -2.1730    -1.0200    -0.8740 H     1 <1>   0.0800 
 26 H       -1.8880    -0.4760     0.7580 H     1 <1>   0.0800 
 27 H       -4.3740    -3.6930     1.1100 H     1 <1>   0.0800 
 28 H       -4.6990    -4.2960    -0.4990 H     1 <1>   0.0800 
 29 H       -4.2380    -0.1350     0.0660 H     1 <1>   0.0800 
 30 H       -4.1020    -1.1950     1.4500 H     1 <1>   0.0800 
 31 H       -4.3670    -2.0730    -1.3520 H     1 <1>   0.4500 
 32 H       -6.3790    -2.1470     0.8220 H     1 <1>   0.0800 
 33 H       -6.5970    -2.7910    -0.7920 H     1 <1>   0.0800 
 34 H       -6.4080    -1.0670    -0.5580 H     1 <1>   0.0800 
@<TRIPOS>BOND
  1   1   2  1   
  2   2   3  ar  
  3   2   4  ar  
  4   3   5  1   
  5   3   6  ar  
  6   4   7  ar  
  7   4  18  1   
  8   5   8  2   
  9   5   9  1   
 10   6  10  ar  
 11   6  19  1   
 12   7  10  ar  
 13   7  20  1   
 14   9  11  1   
 15  10  21  1   
 16  11  12  1   
 17  11  13  1   
 18  11  22  1   
 19  12  14  1   
 20  12  23  1   
 21  12  24  1   
 22  13  15  1   
 23  13  25  1   
 24  13  26  1   
 25  14  16  1   
 26  14  27  1   
 27  14  28  1   
 28  15  16  1   
 29  15  29  1   
 30  15  30  1   
 31  16  17  1   
 32  16  31  1   
 33  17  32  1   
 34  17  33  1   
 35  17  34  1   
@<TRIPOS>SUBSTRUCTURE
  1 ****   9 GROUP 4 **** **** 0

# MOE 2024.06 (io_trps.svl 2023.06)
