@<TRIPOS>MOLECULE
NONAME
35 35 1 0 0 
SMALL
USER_CHARGES


@<TRIPOS>ATOM
  1 CL       0.3230    -0.4480    -0.7900 Cl    1 <1>  -0.1770 
  2 C       -1.3300    -0.9330    -0.5160 C.ar  1 <1>   0.1770 
  3 C       -2.3510    -0.0590    -0.8370 C.ar  1 <1>  -0.1500 
  4 C       -1.5930    -2.1800     0.0160 C.ar  1 <1>  -0.1500 
  5 C       -3.6680    -0.4380    -0.6210 C.ar  1 <1>  -0.1440 
  6 C       -2.9050    -2.5620     0.2360 C.ar  1 <1>  -0.1500 
  7 C       -3.9490    -1.6920    -0.0800 C.ar  1 <1>   0.0830 
  8 C       -4.7960     0.5060    -0.9770 C.3   1 <1>   0.4870 
  9 O       -5.2580    -2.0030     0.1250 O.3   1 <1>  -0.3630 
 10 N       -5.4920     0.8410     0.2760 N.4   1 <1>  -0.9060 
 11 C       -5.6490    -3.3200     0.4650 C.3   1 <1>   0.0400 
 12 C       -6.6830     1.6920     0.0770 C.3   1 <1>   0.4230 
 13 C       -6.3170     3.1900     0.2520 C.3   1 <1>   0.1200 
 14 C       -7.7600     1.2390     1.0710 C.3   1 <1>  -0.1600 
 15 O       -4.9900     3.4320    -0.1130 O.3   1 <1>  -0.6800 
 16 C       -9.0980     1.9690     0.8770 C.3   1 <1>  -0.2400 
 17 H       -2.0970     0.9020    -1.2520 H     1 <1>   0.1500 
 18 H       -0.7770    -2.8400     0.2550 H     1 <1>   0.1500 
 19 H       -3.0880    -3.5350     0.6550 H     1 <1>   0.1500 
 20 H       -5.4700     0.0160    -1.6600 H     1 <1>   0.0800 
 21 H       -4.4090     1.4000    -1.4410 H     1 <1>   0.0800 
 22 H       -4.8240     1.3640     0.8530 H     1 <1>   0.4500 
 23 H       -5.7110    -0.0530     0.7350 H     1 <1>   0.4500 
 24 H       -6.7240    -3.3600     0.4870 H     1 <1>   0.0800 
 25 H       -5.2580    -3.5660     1.4370 H     1 <1>   0.0800 
 26 H       -5.2770    -4.0020    -0.2800 H     1 <1>   0.0800 
 27 H       -7.0650     1.5440    -0.9200 H     1 <1>   0.0800 
 28 H       -6.4330     3.4880     1.2810 H     1 <1>   0.0800 
 29 H       -6.9610     3.8030    -0.3560 H     1 <1>   0.0800 
 30 H       -7.4210     1.3980     2.0810 H     1 <1>   0.0800 
 31 H       -7.9400     0.1860     0.9380 H     1 <1>   0.0800 
 32 H       -4.7780     4.3910    -0.0490 H     1 <1>   0.4000 
 33 H       -9.0070     3.0230     1.0760 H     1 <1>   0.0800 
 34 H       -9.8320     1.5700     1.5570 H     1 <1>   0.0800 
 35 H       -9.4680     1.8350    -0.1260 H     1 <1>   0.0800 
@<TRIPOS>BOND
  1   1   2  1   
  2   2   3  ar  
  3   2   4  ar  
  4   3   5  ar  
  5   3  17  1   
  6   4   6  ar  
  7   4  18  1   
  8   5   7  ar  
  9   5   8  1   
 10   6   7  ar  
 11   6  19  1   
 12   7   9  1   
 13   8  10  1   
 14   8  20  1   
 15   8  21  1   
 16   9  11  1   
 17  10  12  1   
 18  10  22  1   
 19  10  23  1   
 20  11  24  1   
 21  11  25  1   
 22  11  26  1   
 23  12  13  1   
 24  12  14  1   
 25  12  27  1   
 26  13  15  1   
 27  13  28  1   
 28  13  29  1   
 29  14  16  1   
 30  14  30  1   
 31  14  31  1   
 32  15  32  1   
 33  16  33  1   
 34  16  34  1   
 35  16  35  1   
@<TRIPOS>SUBSTRUCTURE
  1 ****   5 GROUP 4 **** **** 0

# MOE 2024.06 (io_trps.svl 2023.06)
