@<TRIPOS>MOLECULE
NONAME
29 29 1 0 0 
SMALL
USER_CHARGES


@<TRIPOS>ATOM
  1 CL      -2.4500    -1.4030     2.0540 Cl    1 <1>  -0.1770 
  2 C       -1.1450    -2.2300     1.2380 C.ar  1 <1>   0.1770 
  3 C       -1.2070    -2.5050    -0.1230 C.ar  1 <1>  -0.0090 
  4 C       -0.0570    -2.5960     2.0160 C.ar  1 <1>  -0.1500 
  5 S       -2.6330    -2.0270    -1.1230 S.o2  1 <1>   1.4470 
  6 C       -0.1250    -3.1710    -0.6930 C.ar  1 <1>  -0.1500 
  7 C        1.0090    -3.2580     1.4330 C.ar  1 <1>  -0.1500 
  8 O       -2.8940    -0.6150    -0.9630 O.2   1 <1>  -0.6500 
  9 O       -2.4760    -2.5470    -2.4640 O.2   1 <1>  -0.6500 
 10 N       -3.9250    -2.8830    -0.4330 N.am  1 <1>  -0.8490 
 11 C        0.9600    -3.5380     0.0810 C.ar  1 <1>   0.1770 
 12 C       -5.2200    -2.2190    -0.7410 C.3   1 <1>   0.2570 
 13 C       -3.9530    -4.3020    -0.8200 C.3   1 <1>   0.1160 
 14 CL       2.2950    -4.3750    -0.6650 Cl    1 <1>  -0.1770 
 15 C       -6.4580    -2.8390    -0.0830 C.2   1 <1>   0.6590 
 16 O       -7.1500    -3.6380    -0.6640 O.2   1 <1>  -0.5700 
 17 O       -6.7270    -2.4490     1.1590 O.3   1 <1>  -0.4300 
 18 C       -7.8300    -2.9580     1.8790 C.3   1 <1>   0.0400 
 19 H       -0.0510    -2.3620     3.0660 H     1 <1>   0.1500 
 20 H       -0.1220    -3.4060    -1.7440 H     1 <1>   0.1500 
 21 H        1.8660    -3.5530     2.0140 H     1 <1>   0.1500 
 22 H       -5.3740    -2.2170    -1.8060 H     1 <1>   0.0800 
 23 H       -5.1820    -1.1950    -0.4150 H     1 <1>   0.0800 
 24 H       -2.9990    -4.7600    -0.6200 H     1 <1>   0.0800 
 25 H       -4.1730    -4.4060    -1.8700 H     1 <1>   0.0800 
 26 H       -4.7000    -4.8320    -0.2540 H     1 <1>   0.0800 
 27 H       -7.8420    -2.5020     2.8520 H     1 <1>   0.0800 
 28 H       -7.7220    -4.0250     1.9710 H     1 <1>   0.0800 
 29 H       -8.7340    -2.7210     1.3450 H     1 <1>   0.0800 
@<TRIPOS>BOND
  1   1   2  1   
  2   2   3  ar  
  3   2   4  ar  
  4   3   5  1   
  5   3   6  ar  
  6   4   7  ar  
  7   4  19  1   
  8   5   8  2   
  9   5   9  2   
 10   5  10  am  
 11   6  11  ar  
 12   6  20  1   
 13   7  11  ar  
 14   7  21  1   
 15  10  12  1   
 16  10  13  1   
 17  11  14  1   
 18  12  15  1   
 19  12  22  1   
 20  12  23  1   
 21  13  24  1   
 22  13  25  1   
 23  13  26  1   
 24  15  16  2   
 25  15  17  1   
 26  17  18  1   
 27  18  27  1   
 28  18  28  1   
 29  18  29  1   
@<TRIPOS>SUBSTRUCTURE
  1 ****  10 GROUP 4 **** **** 0

# MOE 2024.06 (io_trps.svl 2023.06)
