@<TRIPOS>MOLECULE
NONAME
37 37 1 0 0 
SMALL
USER_CHARGES


@<TRIPOS>ATOM
  1 O       -2.8140    -3.8410    -0.2930 O.3   1 <1>  -0.3630 
  2 C       -1.8350    -4.3740     0.4760 C.ar  1 <1>   0.0830 
  3 C       -4.0880    -4.4380    -0.3770 C.3   1 <1>   0.1200 
  4 C       -0.6410    -3.6740     0.5210 C.ar  1 <1>  -0.1500 
  5 C       -1.9650    -5.5550     1.1990 C.ar  1 <1>  -0.1500 
  6 C       -4.9500    -3.5810    -1.2980 C.3   1 <1>  -0.2400 
  7 C        0.4270    -4.1430     1.2700 C.ar  1 <1>  -0.1430 
  8 C       -0.9030    -6.0220     1.9540 C.ar  1 <1>  -0.1500 
  9 C        0.2900    -5.3200     1.9910 C.ar  1 <1>  -0.1500 
 10 C        1.7280    -3.3790     1.2790 C.3   1 <1>   0.4860 
 11 N        2.4480    -3.7890     0.0550 N.4   1 <1>  -0.9060 
 12 C        3.7360    -3.1590    -0.2180 C.3   1 <1>   0.5030 
 13 C        3.5480    -1.6520    -0.3850 C.3   1 <1>  -0.2400 
 14 C        4.2420    -3.7670    -1.5220 C.3   1 <1>  -0.2400 
 15 C        4.7130    -3.4710     0.9150 C.3   1 <1>  -0.2400 
 16 H       -4.5120    -4.4790     0.6120 H     1 <1>   0.0800 
 17 H       -3.9750    -5.4310    -0.7780 H     1 <1>   0.0800 
 18 H       -0.5790    -2.7580    -0.0410 H     1 <1>   0.1500 
 19 H       -2.8780    -6.1200     1.1870 H     1 <1>   0.1500 
 20 H       -5.0450    -2.5870    -0.8970 H     1 <1>   0.0800 
 21 H       -5.9310    -4.0110    -1.3830 H     1 <1>   0.0800 
 22 H       -4.5110    -3.5320    -2.2780 H     1 <1>   0.0800 
 23 H       -1.0100    -6.9350     2.5160 H     1 <1>   0.1500 
 24 H        1.0980    -5.7060     2.5900 H     1 <1>   0.1500 
 25 H        2.2980    -3.6260     2.1600 H     1 <1>   0.0800 
 26 H        1.5300    -2.3200     1.2710 H     1 <1>   0.0800 
 27 H        1.8230    -3.6200    -0.7380 H     1 <1>   0.4500 
 28 H        2.5740    -4.8030     0.0920 H     1 <1>   0.4500 
 29 H        2.8240    -1.4340    -1.1500 H     1 <1>   0.0800 
 30 H        4.4800    -1.2030    -0.6810 H     1 <1>   0.0800 
 31 H        3.2490    -1.1830     0.5350 H     1 <1>   0.0800 
 32 H        3.5650    -3.5660    -2.3340 H     1 <1>   0.0800 
 33 H        4.3770    -4.8310    -1.4300 H     1 <1>   0.0800 
 34 H        5.1950    -3.3400    -1.7810 H     1 <1>   0.0800 
 35 H        4.4130    -3.0070     1.8380 H     1 <1>   0.0800 
 36 H        5.6870    -3.0850     0.6680 H     1 <1>   0.0800 
 37 H        4.8100    -4.5320     1.0630 H     1 <1>   0.0800 
@<TRIPOS>BOND
  1   1   2  1   
  2   1   3  1   
  3   2   4  ar  
  4   2   5  ar  
  5   3   6  1   
  6   3  16  1   
  7   3  17  1   
  8   4   7  ar  
  9   4  18  1   
 10   5   8  ar  
 11   5  19  1   
 12   6  20  1   
 13   6  21  1   
 14   6  22  1   
 15   7   9  ar  
 16   7  10  1   
 17   8   9  ar  
 18   8  23  1   
 19   9  24  1   
 20  10  11  1   
 21  10  25  1   
 22  10  26  1   
 23  11  12  1   
 24  11  27  1   
 25  11  28  1   
 26  12  13  1   
 27  12  14  1   
 28  12  15  1   
 29  13  29  1   
 30  13  30  1   
 31  13  31  1   
 32  14  32  1   
 33  14  33  1   
 34  14  34  1   
 35  15  35  1   
 36  15  36  1   
 37  15  37  1   
@<TRIPOS>SUBSTRUCTURE
  1 ****   7 GROUP 4 **** **** 0

# MOE 2024.06 (io_trps.svl 2023.06)
