@<TRIPOS>MOLECULE
NONAME
49 51 1 0 0 
SMALL
USER_CHARGES


@<TRIPOS>ATOM
  1 O       -0.9880    -1.6230     1.3940 O.2   1 <1>  -0.5700 
  2 C       -0.5760    -1.8310     0.2780 C.2   1 <1>   0.5690 
  3 N       -1.3310    -1.6100    -0.8430 N.am  1 <1>  -0.5470 
  4 C        0.8390    -2.3810     0.0900 C.3   1 <1>  -0.0190 
  5 C       -2.6250    -1.0860    -0.9490 C.ar  1 <1>   0.1170 
  6 C        0.9700    -3.8000     0.6780 C.3   1 <1>  -0.1600 
  7 C        1.8970    -1.4430     0.7030 C.3   1 <1>  -0.1600 
  8 C       -3.1050    -0.1170    -0.0760 C.ar  1 <1>  -0.1500 
  9 C       -3.4630    -1.5330    -1.9630 C.ar  1 <1>  -0.1500 
 10 C        2.3890    -4.3560     0.4970 C.3   1 <1>  -0.1600 
 11 C        3.3170    -1.9980     0.5220 C.3   1 <1>  -0.1600 
 12 C       -4.3900     0.3760    -0.1950 C.ar  1 <1>  -0.1500 
 13 C       -4.7520    -1.0470    -2.0870 C.ar  1 <1>  -0.1500 
 14 C        3.4360    -3.4120     1.1040 C.3   1 <1>  -0.1600 
 15 C       -5.2290    -0.0960    -1.1950 C.ar  1 <1>  -0.1430 
 16 C       -6.6560     0.4060    -1.3000 C.3   1 <1>   0.4860 
 17 N       -7.4210    -0.0860    -0.1220 N.4   1 <1>  -0.9590 
 18 C       -7.3650    -1.5770     0.0630 C.3   1 <1>   0.3430 
 19 C       -8.8360     0.4120    -0.0670 C.3   1 <1>   0.3430 
 20 C       -8.0990    -2.0050     1.3550 C.3   1 <1>   0.1200 
 21 C       -9.6170    -0.2180     1.1090 C.3   1 <1>   0.1200 
 22 O       -8.7560    -0.9210     1.9610 O.3   1 <1>  -0.5600 
 23 H       -0.9080    -1.9130    -1.7180 H     1 <1>   0.3700 
 24 H        1.0360    -2.4450    -0.9650 H     1 <1>   0.0800 
 25 H        0.2630    -4.4570     0.2020 H     1 <1>   0.0800 
 26 H        0.7330    -3.7700     1.7280 H     1 <1>   0.0800 
 27 H        1.6960    -1.3220     1.7550 H     1 <1>   0.0800 
 28 H        1.8290    -0.4710     0.2440 H     1 <1>   0.0800 
 29 H       -2.4640     0.2540     0.7060 H     1 <1>   0.1500 
 30 H       -3.1040    -2.2740    -2.6550 H     1 <1>   0.1500 
 31 H        2.5930    -4.4880    -0.5510 H     1 <1>   0.0800 
 32 H        2.4600    -5.3210     0.9700 H     1 <1>   0.0800 
 33 H        4.0210    -1.3480     1.0120 H     1 <1>   0.0800 
 34 H        3.5630    -2.0210    -0.5260 H     1 <1>   0.0800 
 35 H       -4.7190     1.1270     0.5030 H     1 <1>   0.1500 
 36 H       -5.3730    -1.4210    -2.8830 H     1 <1>   0.1500 
 37 H        4.4230    -3.7980     0.9160 H     1 <1>   0.0800 
 38 H        3.2970    -3.3690     2.1720 H     1 <1>   0.0800 
 39 H       -7.1040     0.0440    -2.2110 H     1 <1>   0.0800 
 40 H       -6.6560     1.4830    -1.3210 H     1 <1>   0.0800 
 41 H       -6.9640     0.2810     0.7250 H     1 <1>   0.4500 
 42 H       -6.3400    -1.9090     0.1190 H     1 <1>   0.0800 
 43 H       -7.8190    -2.0700    -0.7800 H     1 <1>   0.0800 
 44 H       -9.3480     0.1820    -0.9870 H     1 <1>   0.0800 
 45 H       -8.8410     1.4840     0.0470 H     1 <1>   0.0800 
 46 H       -7.3930    -2.3950     2.0670 H     1 <1>   0.0800 
 47 H       -8.8230    -2.7740     1.1450 H     1 <1>   0.0800 
 48 H      -10.3720    -0.8960     0.7480 H     1 <1>   0.0800 
 49 H      -10.1030     0.5490     1.6870 H     1 <1>   0.0800 
@<TRIPOS>BOND
  1   1   2  2   
  2   2   3  am  
  3   2   4  1   
  4   3   5  1   
  5   3  23  1   
  6   4   6  1   
  7   4   7  1   
  8   4  24  1   
  9   5   8  ar  
 10   5   9  ar  
 11   6  10  1   
 12   6  25  1   
 13   6  26  1   
 14   7  11  1   
 15   7  27  1   
 16   7  28  1   
 17   8  12  ar  
 18   8  29  1   
 19   9  13  ar  
 20   9  30  1   
 21  10  14  1   
 22  10  31  1   
 23  10  32  1   
 24  11  14  1   
 25  11  33  1   
 26  11  34  1   
 27  12  15  ar  
 28  12  35  1   
 29  13  15  ar  
 30  13  36  1   
 31  14  37  1   
 32  14  38  1   
 33  15  16  1   
 34  16  17  1   
 35  16  39  1   
 36  16  40  1   
 37  17  18  1   
 38  17  19  1   
 39  17  41  1   
 40  18  20  1   
 41  18  42  1   
 42  18  43  1   
 43  19  21  1   
 44  19  44  1   
 45  19  45  1   
 46  20  22  1   
 47  20  46  1   
 48  20  47  1   
 49  21  22  1   
 50  21  48  1   
 51  21  49  1   
@<TRIPOS>SUBSTRUCTURE
  1 ****   5 GROUP 4 **** **** 0

# MOE 2024.06 (io_trps.svl 2023.06)
