@<TRIPOS>MOLECULE
NONAME
35 36 1 0 0 
SMALL
USER_CHARGES


@<TRIPOS>ATOM
  1 BR       0.5580    -1.1780     0.9730 Br    1 <1>  -0.1110 
  2 C        2.3310    -0.5940     0.5070 C.ar  1 <1>   0.1110 
  3 C        2.5080     0.1400    -0.6500 C.ar  1 <1>  -0.1500 
  4 C        3.3820    -0.9220     1.3400 C.ar  1 <1>  -0.1500 
  5 C        3.7860     0.5570    -0.9810 C.ar  1 <1>  -0.1500 
  6 C        4.6540    -0.4990     0.9960 C.ar  1 <1>  -0.1500 
  7 C        4.8670     0.2410    -0.1630 C.ar  1 <1>  -0.1430 
  8 C        6.2700     0.7050    -0.5440 C.3   1 <1>   0.3640 
  9 N        7.1390    -0.4740    -0.7490 N.am  1 <1>  -0.7300 
 10 C        6.8340     1.7210     0.4490 C.3   1 <1>  -0.2400 
 11 C        7.9270    -1.1460     0.1340 C.2   1 <1>   0.5690 
 12 O        8.0810    -0.8000     1.2810 O.2   1 <1>  -0.5700 
 13 C        8.6190    -2.4150    -0.3630 C.3   1 <1>  -0.0190 
 14 C        8.0450    -3.7000     0.2370 C.3   1 <1>  -0.1600 
 15 C       10.1100    -2.5060    -0.0290 C.3   1 <1>  -0.1600 
 16 C        9.1350    -4.7560     0.0400 C.3   1 <1>  -0.1600 
 17 C       10.4510    -3.9920    -0.1600 C.3   1 <1>  -0.1600 
 18 H        1.6650     0.3770    -1.2730 H     1 <1>   0.1500 
 19 H        3.2110    -1.4940     2.2340 H     1 <1>   0.1500 
 20 H        3.9320     1.1300    -1.8800 H     1 <1>   0.1500 
 21 H        5.4850    -0.7470     1.6370 H     1 <1>   0.1500 
 22 H        6.2090     1.2100    -1.4940 H     1 <1>   0.0800 
 23 H        6.9730    -0.9210    -1.6480 H     1 <1>   0.3700 
 24 H        6.8050     1.3410     1.4530 H     1 <1>   0.0800 
 25 H        6.2410     2.6170     0.4200 H     1 <1>   0.0800 
 26 H        7.8480     1.9690     0.1910 H     1 <1>   0.0800 
 27 H        8.5200    -2.4730    -1.4320 H     1 <1>   0.0800 
 28 H        7.1160    -3.9820    -0.2270 H     1 <1>   0.0800 
 29 H        7.8800    -3.5550     1.2920 H     1 <1>   0.0800 
 30 H       10.2700    -2.1970     0.9910 H     1 <1>   0.0800 
 31 H       10.7080    -1.8920    -0.6780 H     1 <1>   0.0800 
 32 H        8.9230    -5.3470    -0.8360 H     1 <1>   0.0800 
 33 H        9.1890    -5.4100     0.8940 H     1 <1>   0.0800 
 34 H       11.1890    -4.2820     0.5680 H     1 <1>   0.0800 
 35 H       10.8370    -4.1920    -1.1450 H     1 <1>   0.0800 
@<TRIPOS>BOND
  1   1   2  1   
  2   2   3  ar  
  3   2   4  ar  
  4   3   5  ar  
  5   3  18  1   
  6   4   6  ar  
  7   4  19  1   
  8   5   7  ar  
  9   5  20  1   
 10   6   7  ar  
 11   6  21  1   
 12   7   8  1   
 13   8   9  1   
 14   8  10  1   
 15   8  22  1   
 16   9  11  am  
 17   9  23  1   
 18  10  24  1   
 19  10  25  1   
 20  10  26  1   
 21  11  12  2   
 22  11  13  1   
 23  13  14  1   
 24  13  15  1   
 25  13  27  1   
 26  14  16  1   
 27  14  28  1   
 28  14  29  1   
 29  15  17  1   
 30  15  30  1   
 31  15  31  1   
 32  16  17  1   
 33  16  32  1   
 34  16  33  1   
 35  17  34  1   
 36  17  35  1   
@<TRIPOS>SUBSTRUCTURE
  1 ****   9 GROUP 4 **** **** 0

# MOE 2024.06 (io_trps.svl 2023.06)
