@<TRIPOS>MOLECULE
NONAME
38 39 1 0 0 
SMALL
USER_CHARGES


@<TRIPOS>ATOM
  1 F        1.9400    -1.3080    -2.6090 F     1 <1>  -0.1900 
  2 C        2.0960    -1.1890    -1.3200 C.ar  1 <1>   0.1900 
  3 C        3.3230    -0.7810    -0.8390 C.ar  1 <1>  -0.1500 
  4 C        1.0330    -1.4830    -0.4900 C.ar  1 <1>  -0.1500 
  5 C        3.5270    -0.6790     0.5370 C.ar  1 <1>   0.0860 
  6 C        1.2140    -1.3580     0.8760 C.ar  1 <1>  -0.1500 
  7 C        4.8160    -0.3110     1.0920 C.2   1 <1>   0.5440 
  8 C        2.4440    -0.9590     1.3750 C.ar  1 <1>  -0.1500 
  9 O        4.9040     0.4990     1.9850 O.2   1 <1>  -0.5700 
 10 N        5.9840    -0.8920     0.6980 N.am  1 <1>  -0.7300 
 11 C        6.1820    -2.1740    -0.0230 C.3   1 <1>   0.1400 
 12 C        5.5410    -3.3420     0.7530 C.3   1 <1>   0.3430 
 13 N        5.4960    -4.6140    -0.0400 N.4   1 <1>  -0.9590 
 14 C        4.6180    -5.6100     0.6450 C.3   1 <1>   0.3430 
 15 C        6.8550    -5.1810    -0.2970 C.3   1 <1>   0.3430 
 16 C        4.4490    -6.8440    -0.2430 C.3   1 <1>  -0.1600 
 17 C        6.7380    -6.4070    -1.2050 C.3   1 <1>  -0.1600 
 18 C        5.8010    -7.4670    -0.6120 C.3   1 <1>  -0.1600 
 19 H        4.1090    -0.5350    -1.5290 H     1 <1>   0.1500 
 20 H        0.0880    -1.7910    -0.9050 H     1 <1>   0.1500 
 21 H        0.3970    -1.5640     1.5490 H     1 <1>   0.1500 
 22 H        2.5730    -0.8510     2.4400 H     1 <1>   0.1500 
 23 H        6.8150    -0.4650     1.1260 H     1 <1>   0.3700 
 24 H        7.2390    -2.3430    -0.1350 H     1 <1>   0.0800 
 25 H        5.7420    -2.0950    -1.0020 H     1 <1>   0.0800 
 26 H        4.5330    -3.0590     1.0100 H     1 <1>   0.0800 
 27 H        6.0870    -3.5000     1.6680 H     1 <1>   0.0800 
 28 H        5.0610    -4.4260    -0.9540 H     1 <1>   0.4500 
 29 H        3.6490    -5.1780     0.8420 H     1 <1>   0.0800 
 30 H        5.0570    -5.9010     1.5850 H     1 <1>   0.0800 
 31 H        7.3140    -5.4690     0.6360 H     1 <1>   0.0800 
 32 H        7.4850    -4.4470    -0.7730 H     1 <1>   0.0800 
 33 H        3.9120    -6.5740    -1.1360 H     1 <1>   0.0800 
 34 H        3.8540    -7.5740     0.2790 H     1 <1>   0.0800 
 35 H        7.7150    -6.8360    -1.3450 H     1 <1>   0.0800 
 36 H        6.3810    -6.1030    -2.1740 H     1 <1>   0.0800 
 37 H        5.6560    -8.2660    -1.3200 H     1 <1>   0.0800 
 38 H        6.2530    -7.8920     0.2700 H     1 <1>   0.0800 
@<TRIPOS>BOND
  1   1   2  1   
  2   2   3  ar  
  3   2   4  ar  
  4   3   5  ar  
  5   3  19  1   
  6   4   6  ar  
  7   4  20  1   
  8   5   7  1   
  9   5   8  ar  
 10   6   8  ar  
 11   6  21  1   
 12   7   9  2   
 13   7  10  am  
 14   8  22  1   
 15  10  11  1   
 16  10  23  1   
 17  11  12  1   
 18  11  24  1   
 19  11  25  1   
 20  12  13  1   
 21  12  26  1   
 22  12  27  1   
 23  13  14  1   
 24  13  15  1   
 25  13  28  1   
 26  14  16  1   
 27  14  29  1   
 28  14  30  1   
 29  15  17  1   
 30  15  31  1   
 31  15  32  1   
 32  16  18  1   
 33  16  33  1   
 34  16  34  1   
 35  17  18  1   
 36  17  35  1   
 37  17  36  1   
 38  18  37  1   
 39  18  38  1   
@<TRIPOS>SUBSTRUCTURE
  1 ****  12 GROUP 4 **** **** 0

# MOE 2024.06 (io_trps.svl 2023.06)
