@<TRIPOS>MOLECULE
NONAME
47 49 1 0 0 
SMALL
USER_CHARGES


@<TRIPOS>ATOM
  1 F       -3.6380     1.0120     1.6900 F     1 <1>  -0.1900 
  2 C       -2.5710     1.7280     1.4480 C.ar  1 <1>   0.1900 
  3 C       -2.2340     2.0260     0.1370 C.ar  1 <1>  -0.1440 
  4 C       -1.8220     2.1560     2.5330 C.ar  1 <1>  -0.1500 
  5 C       -1.0880     2.7860    -0.0400 C.ar  1 <1>   0.1900 
  6 C       -3.0720     1.5370    -1.0340 C.3   1 <1>   0.2540 
  7 C       -0.6820     2.9140     2.3130 C.ar  1 <1>  -0.1500 
  8 F       -0.7170     3.1110    -1.2500 F     1 <1>  -0.1900 
  9 C       -0.3100     3.2320     1.0160 C.ar  1 <1>  -0.1500 
 10 N       -4.2700     2.3830    -1.2070 N.3   1 <1>  -0.8100 
 11 C       -3.9370     3.7700    -1.6150 C.3   1 <1>   0.1100 
 12 C       -5.2340     1.7760    -2.1530 C.3   1 <1>   0.1100 
 13 C       -5.1980     4.6450    -1.8190 C.3   1 <1>   0.3430 
 14 C       -6.5270     2.6170    -2.2940 C.3   1 <1>   0.3430 
 15 N       -6.4470     3.8840    -1.4930 N.4   1 <1>  -0.9590 
 16 C       -7.6670     4.7170    -1.5080 C.3   1 <1>   0.4810 
 17 C       -8.7830     3.9250    -0.8710 C.2   1 <1>  -0.2880 
 18 C       -9.2300     4.1030     0.3840 C.2   1 <1>  -0.1780 
 19 C      -10.2960     3.3860     1.0500 C.ar  1 <1>   0.0280 
 20 C      -10.3770     3.3950     2.4400 C.ar  1 <1>  -0.1500 
 21 C      -11.2690     2.6760     0.3500 C.ar  1 <1>  -0.1500 
 22 C      -11.3830     2.7180     3.1060 C.ar  1 <1>  -0.1500 
 23 C      -12.2780     1.9970     1.0100 C.ar  1 <1>  -0.1500 
 24 C      -12.3360     2.0160     2.3920 C.ar  1 <1>  -0.1500 
 25 H       -2.1280     1.8950     3.5300 H     1 <1>   0.1500 
 26 H       -3.3770     0.5230    -0.8320 H     1 <1>   0.0800 
 27 H       -2.4900     1.5260    -1.9400 H     1 <1>   0.0800 
 28 H       -0.0880     3.2520     3.1460 H     1 <1>   0.1500 
 29 H        0.5720     3.8180     0.8240 H     1 <1>   0.1500 
 30 H       -3.3290     4.2320    -0.8560 H     1 <1>   0.0800 
 31 H       -3.3600     3.7600    -2.5250 H     1 <1>   0.0800 
 32 H       -4.7760     1.6640    -3.1220 H     1 <1>   0.0800 
 33 H       -5.5020     0.7910    -1.8060 H     1 <1>   0.0800 
 34 H       -5.2290     4.9840    -2.8410 H     1 <1>   0.0800 
 35 H       -5.1200     5.5150    -1.1870 H     1 <1>   0.0800 
 36 H       -7.3590     2.0230    -1.9540 H     1 <1>   0.0800 
 37 H       -6.6900     2.8450    -3.3340 H     1 <1>   0.0800 
 38 H       -6.2980     3.5460    -0.5280 H     1 <1>   0.4500 
 39 H       -7.4980     5.6130    -0.9320 H     1 <1>   0.0800 
 40 H       -7.9290     5.0000    -2.5150 H     1 <1>   0.0800 
 41 H       -9.2020     3.1880    -1.5320 H     1 <1>   0.1500 
 42 H       -8.7750     4.8500     1.0130 H     1 <1>   0.1500 
 43 H       -9.6450     3.9330     3.0140 H     1 <1>   0.1500 
 44 H      -11.2530     2.6550    -0.7230 H     1 <1>   0.1500 
 45 H      -11.4260     2.7370     4.1820 H     1 <1>   0.1500 
 46 H      -13.0210     1.4550     0.4510 H     1 <1>   0.1500 
 47 H      -13.1200     1.4890     2.9080 H     1 <1>   0.1500 
@<TRIPOS>BOND
  1   1   2  1   
  2   2   3  ar  
  3   2   4  ar  
  4   3   5  ar  
  5   3   6  1   
  6   4   7  ar  
  7   4  25  1   
  8   5   8  1   
  9   5   9  ar  
 10   6  10  1   
 11   6  26  1   
 12   6  27  1   
 13   7   9  ar  
 14   7  28  1   
 15   9  29  1   
 16  10  11  1   
 17  10  12  1   
 18  11  13  1   
 19  11  30  1   
 20  11  31  1   
 21  12  14  1   
 22  12  32  1   
 23  12  33  1   
 24  13  15  1   
 25  13  34  1   
 26  13  35  1   
 27  14  15  1   
 28  14  36  1   
 29  14  37  1   
 30  15  16  1   
 31  15  38  1   
 32  16  17  1   
 33  16  39  1   
 34  16  40  1   
 35  17  18  2   
 36  17  41  1   
 37  18  19  1   
 38  18  42  1   
 39  19  20  ar  
 40  19  21  ar  
 41  20  22  ar  
 42  20  43  1   
 43  21  23  ar  
 44  21  44  1   
 45  22  24  ar  
 46  22  45  1   
 47  23  24  ar  
 48  23  46  1   
 49  24  47  1   
@<TRIPOS>SUBSTRUCTURE
  1 ****  15 GROUP 4 **** **** 0

# MOE 2024.06 (io_trps.svl 2023.06)
