@<TRIPOS>MOLECULE
NONAME
45 47 1 0 0 
SMALL
USER_CHARGES


@<TRIPOS>ATOM
  1 S       -2.4590     0.1930    -1.1520 S.3   1 <1>  -0.0800 
  2 C       -2.5380    -0.4810     0.4430 C.2   1 <1>   0.4420 
  3 C       -1.0920     1.1060    -0.6160 C.2   1 <1>   0.1980 
  4 N       -1.6190    -0.0210     1.2110 N.2   1 <1>  -0.3380 
  5 N       -3.5420    -1.3930     0.6790 N.am  1 <1>  -0.4940 
  6 N       -0.7970     0.8860     0.5990 N.2   1 <1>  -0.3380 
  7 C       -0.4200     2.0320    -1.6050 C.3   1 <1>  -0.0600 
  8 C       -3.8860    -2.0710     1.8090 C.2   1 <1>   0.5690 
  9 O       -3.3270    -1.9650     2.8710 O.2   1 <1>  -0.5700 
 10 C       -5.0750    -3.0240     1.6790 C.3   1 <1>   0.1710 
 11 N       -5.9760    -2.6870     0.5350 N.3   1 <1>  -0.8100 
 12 C       -6.8330    -3.8430     0.1850 C.3   1 <1>   0.1100 
 13 C       -6.8450    -1.5300     0.8750 C.3   1 <1>   0.1100 
 14 C       -7.7880    -3.5380    -0.9880 C.3   1 <1>   0.2090 
 15 C       -7.7800    -1.1360    -0.2840 C.3   1 <1>   0.2090 
 16 N       -8.5890    -2.3010    -0.7470 N.pl3 1 <1>  -0.8380 
 17 C       -9.9340    -2.3600    -0.3770 C.ar  1 <1>   0.1000 
 18 C      -10.8160    -1.4010    -0.8550 C.ar  1 <1>  -0.1500 
 19 C      -10.4280    -3.3470     0.4700 C.ar  1 <1>  -0.1500 
 20 C      -12.1540    -1.4110    -0.5030 C.ar  1 <1>   0.0820 
 21 C      -11.7650    -3.3730     0.8270 C.ar  1 <1>  -0.1500 
 22 O      -12.9320    -0.4250    -1.0200 O.3   1 <1>  -0.3630 
 23 C      -12.6310    -2.4070     0.3450 C.ar  1 <1>  -0.1500 
 24 C      -14.3140    -0.3670    -0.7480 C.3   1 <1>   0.0400 
 25 H       -4.1820    -1.5920    -0.0920 H     1 <1>   0.3700 
 26 H       -0.0520     1.4670    -2.4410 H     1 <1>   0.0800 
 27 H        0.4040     2.5320    -1.1300 H     1 <1>   0.0800 
 28 H       -1.1220     2.7670    -1.9520 H     1 <1>   0.0800 
 29 H       -5.6280    -3.0260     2.6020 H     1 <1>   0.0800 
 30 H       -4.6690    -4.0100     1.5370 H     1 <1>   0.0800 
 31 H       -7.4190    -4.1330     1.0400 H     1 <1>   0.0800 
 32 H       -6.2130    -4.6780    -0.0910 H     1 <1>   0.0800 
 33 H       -6.2390    -0.6770     1.1290 H     1 <1>   0.0800 
 34 H       -7.4530    -1.7670     1.7320 H     1 <1>   0.0800 
 35 H       -8.4490    -4.3720    -1.1490 H     1 <1>   0.0800 
 36 H       -7.2100    -3.4050    -1.8850 H     1 <1>   0.0800 
 37 H       -7.1950    -0.7660    -1.1070 H     1 <1>   0.0800 
 38 H       -8.4340    -0.3460     0.0410 H     1 <1>   0.0800 
 39 H      -10.4540    -0.6390    -1.5170 H     1 <1>   0.1500 
 40 H       -9.7660    -4.0960     0.8570 H     1 <1>   0.1500 
 41 H      -12.1320    -4.1430     1.4820 H     1 <1>   0.1500 
 42 H      -13.6630    -2.4470     0.6380 H     1 <1>   0.1500 
 43 H      -14.7210     0.4810    -1.2690 H     1 <1>   0.0800 
 44 H      -14.4570    -0.2490     0.3110 H     1 <1>   0.0800 
 45 H      -14.7770    -1.2710    -1.1030 H     1 <1>   0.0800 
@<TRIPOS>BOND
  1   1   2  1   
  2   1   3  1   
  3   2   4  2   
  4   2   5  1   
  5   3   6  2   
  6   3   7  1   
  7   4   6  1   
  8   5   8  am  
  9   5  25  1   
 10   7  26  1   
 11   7  27  1   
 12   7  28  1   
 13   8   9  2   
 14   8  10  1   
 15  10  11  1   
 16  10  29  1   
 17  10  30  1   
 18  11  12  1   
 19  11  13  1   
 20  12  14  1   
 21  12  31  1   
 22  12  32  1   
 23  13  15  1   
 24  13  33  1   
 25  13  34  1   
 26  14  16  1   
 27  14  35  1   
 28  14  36  1   
 29  15  16  1   
 30  15  37  1   
 31  15  38  1   
 32  16  17  1   
 33  17  18  ar  
 34  17  19  ar  
 35  18  20  ar  
 36  18  39  1   
 37  19  21  ar  
 38  19  40  1   
 39  20  22  1   
 40  20  23  ar  
 41  21  23  ar  
 42  21  41  1   
 43  22  24  1   
 44  23  42  1   
 45  24  43  1   
 46  24  44  1   
 47  24  45  1   
@<TRIPOS>SUBSTRUCTURE
  1 ****  13 GROUP 4 **** **** 0

# MOE 2024.06 (io_trps.svl 2023.06)
