@<TRIPOS>MOLECULE
NONAME
35 36 1 0 0 
SMALL
USER_CHARGES


@<TRIPOS>ATOM
  1 I       -0.3660     0.3790     0.0470 I     1 <1>  -0.0810 
  2 C        1.7330     0.6810     0.2390 C.ar  1 <1>   0.0810 
  3 C        2.5600     0.2650    -0.7890 C.ar  1 <1>  -0.1500 
  4 C        2.2140     1.2840     1.3860 C.ar  1 <1>  -0.1500 
  5 C        3.9250     0.4620    -0.6610 C.ar  1 <1>  -0.1500 
  6 C        3.5810     1.4750     1.5010 C.ar  1 <1>  -0.1500 
  7 C        4.4390     1.0690     0.4870 C.ar  1 <1>   0.0830 
  8 O        5.7610     1.2990     0.6890 O.3   1 <1>  -0.3630 
  9 C        6.7240     0.9370    -0.2720 C.3   1 <1>   0.1200 
 10 C        8.1000     1.3390     0.2570 C.3   1 <1>  -0.1600 
 11 C        9.2070     0.9840    -0.7400 C.3   1 <1>   0.0210 
 12 C       10.5630     1.3950    -0.1930 C.2   1 <1>  -0.1810 
 13 C       11.1880     2.6300    -0.3590 C.2   1 <1>   0.1080 
 14 C       11.4260     0.6710     0.5530 C.2   1 <1>  -0.3320 
 15 N       12.3430     2.6790     0.2240 N.2   1 <1>  -0.7070 
 16 C       10.6300     3.8100    -1.1230 C.3   1 <1>  -0.0590 
 17 N       12.4890     1.4680     0.7880 N.pl3 1 <1>   0.3000 
 18 C       11.3240    -0.7500     1.0810 C.3   1 <1>  -0.0600 
 19 H        2.1490    -0.2020    -1.6660 H     1 <1>   0.1500 
 20 H        1.5450     1.5960     2.1680 H     1 <1>   0.1500 
 21 H        4.5670     0.1390    -1.4580 H     1 <1>   0.1500 
 22 H        3.9930     1.9410     2.3780 H     1 <1>   0.1500 
 23 H        6.5010     1.4580    -1.1870 H     1 <1>   0.0800 
 24 H        6.6690    -0.1280    -0.4230 H     1 <1>   0.0800 
 25 H        8.2870     0.8280     1.1860 H     1 <1>   0.0800 
 26 H        8.1140     2.3980     0.4420 H     1 <1>   0.0800 
 27 H        9.0350     1.4810    -1.6780 H     1 <1>   0.0800 
 28 H        9.2060    -0.0750    -0.9260 H     1 <1>   0.0800 
 29 H        9.6310     4.0230    -0.7930 H     1 <1>   0.0800 
 30 H       10.6240     3.5900    -2.1740 H     1 <1>   0.0800 
 31 H       11.2440     4.6760    -0.9520 H     1 <1>   0.0800 
 32 H       13.3250     1.2180     1.3280 H     1 <1>   0.2700 
 33 H       10.3770    -1.1850     0.8200 H     1 <1>   0.0800 
 34 H       11.4130    -0.7520     2.1530 H     1 <1>   0.0800 
 35 H       12.1070    -1.3570     0.6630 H     1 <1>   0.0800 
@<TRIPOS>BOND
  1   1   2  1   
  2   2   3  ar  
  3   2   4  ar  
  4   3   5  ar  
  5   3  19  1   
  6   4   6  ar  
  7   4  20  1   
  8   5   7  ar  
  9   5  21  1   
 10   6   7  ar  
 11   6  22  1   
 12   7   8  1   
 13   8   9  1   
 14   9  10  1   
 15   9  23  1   
 16   9  24  1   
 17  10  11  1   
 18  10  25  1   
 19  10  26  1   
 20  11  12  1   
 21  11  27  1   
 22  11  28  1   
 23  12  13  1   
 24  12  14  2   
 25  13  15  2   
 26  13  16  1   
 27  14  17  1   
 28  14  18  1   
 29  15  17  1   
 30  16  29  1   
 31  16  30  1   
 32  16  31  1   
 33  17  32  1   
 34  18  33  1   
 35  18  34  1   
 36  18  35  1   
@<TRIPOS>SUBSTRUCTURE
  1 ****   9 GROUP 4 **** **** 0

# MOE 2024.06 (io_trps.svl 2023.06)
