@<TRIPOS>MOLECULE
NONAME
43 43 1 0 0 
SMALL
USER_CHARGES


@<TRIPOS>ATOM
  1 O        1.9620    -1.1610     2.4330 O.2   1 <1>  -0.5700 
  2 C        1.6980    -1.9780     1.5910 C.2   1 <1>   0.4950 
  3 C        2.4180    -2.3190     0.4150 C.2   1 <1>   0.0290 
  4 C        0.4860    -2.8600     1.7110 C.3   1 <1>  -0.0990 
  5 C        1.8450    -3.3670    -0.2370 C.2   1 <1>  -0.1240 
  6 C        3.5800    -1.5710     0.0470 C.2   1 <1>   0.3750 
  7 C        0.5540    -3.7910     0.4760 C.3   1 <1>   0.1380 
  8 C        2.3400    -4.0200    -1.4140 C.2   1 <1>   0.7060 
  9 N        3.4800    -0.4770    -0.6050 N.2   1 <1>  -0.5130 
 10 C        4.9180    -2.1760     0.4800 C.3   1 <1>  -0.0990 
 11 C       -0.6890    -3.5580    -0.3990 C.3   1 <1>  -0.2400 
 12 C        0.6140    -5.2560     0.9370 C.3   1 <1>  -0.2400 
 13 O        3.4580    -3.8320    -1.8480 O.2   1 <1>  -0.5700 
 14 O        1.5580    -4.8940    -2.0550 O.3   1 <1>  -0.4300 
 15 O        4.5830     0.1600    -0.9010 O.3   1 <1>  -0.2170 
 16 C        5.3970    -1.6030     1.8220 C.3   1 <1>  -0.1600 
 17 C        1.9900    -5.5690    -3.2210 C.3   1 <1>   0.0400 
 18 C        4.4730     1.3350    -1.6660 C.3   1 <1>   0.1200 
 19 C        6.7360    -2.2140     2.2430 C.3   1 <1>  -0.2400 
 20 C        4.3940     0.9650    -3.1480 C.3   1 <1>  -0.2400 
 21 H        0.5380    -3.4020     2.6380 H     1 <1>   0.0800 
 22 H       -0.3960    -2.2450     1.7170 H     1 <1>   0.0800 
 23 H        4.8140    -3.2420     0.5600 H     1 <1>   0.0800 
 24 H        5.6560    -1.9910    -0.2800 H     1 <1>   0.0800 
 25 H       -0.7050    -2.5470    -0.7690 H     1 <1>   0.0800 
 26 H       -1.5860    -3.7270     0.1700 H     1 <1>   0.0800 
 27 H       -0.7060    -4.2250    -1.2410 H     1 <1>   0.0800 
 28 H       -0.2470    -5.4970     1.5350 H     1 <1>   0.0800 
 29 H        1.4990    -5.4310     1.5240 H     1 <1>   0.0800 
 30 H        0.6290    -5.9260     0.0960 H     1 <1>   0.0800 
 31 H        5.5030    -0.5350     1.7320 H     1 <1>   0.0800 
 32 H        4.6610    -1.7950     2.5840 H     1 <1>   0.0800 
 33 H        1.1960    -6.2080    -3.5610 H     1 <1>   0.0800 
 34 H        2.8620    -6.1540    -2.9830 H     1 <1>   0.0800 
 35 H        2.2290    -4.8400    -3.9770 H     1 <1>   0.0800 
 36 H        3.5950     1.8680    -1.3450 H     1 <1>   0.0800 
 37 H        5.3450     1.9320    -1.4680 H     1 <1>   0.0800 
 38 H        7.4910    -2.0070     1.5050 H     1 <1>   0.0800 
 39 H        6.6460    -3.2800     2.3580 H     1 <1>   0.0800 
 40 H        7.0520    -1.7940     3.1810 H     1 <1>   0.0800 
 41 H        3.5200     0.3650    -3.3300 H     1 <1>   0.0800 
 42 H        5.2710     0.4150    -3.4370 H     1 <1>   0.0800 
 43 H        4.3300     1.8560    -3.7430 H     1 <1>   0.0800 
@<TRIPOS>BOND
  1   1   2  2   
  2   2   3  1   
  3   2   4  1   
  4   3   5  2   
  5   3   6  1   
  6   4   7  1   
  7   4  21  1   
  8   4  22  1   
  9   5   7  1   
 10   5   8  1   
 11   6   9  2   
 12   6  10  1   
 13   7  11  1   
 14   7  12  1   
 15   8  13  2   
 16   8  14  1   
 17   9  15  1   
 18  10  16  1   
 19  10  23  1   
 20  10  24  1   
 21  11  25  1   
 22  11  26  1   
 23  11  27  1   
 24  12  28  1   
 25  12  29  1   
 26  12  30  1   
 27  14  17  1   
 28  15  18  1   
 29  16  19  1   
 30  16  31  1   
 31  16  32  1   
 32  17  33  1   
 33  17  34  1   
 34  17  35  1   
 35  18  20  1   
 36  18  36  1   
 37  18  37  1   
 38  19  38  1   
 39  19  39  1   
 40  19  40  1   
 41  20  41  1   
 42  20  42  1   
 43  20  43  1   
@<TRIPOS>SUBSTRUCTURE
  1 ****   3 GROUP 4 **** **** 0

# MOE 2024.06 (io_trps.svl 2023.06)
