@<TRIPOS>MOLECULE
NONAME
29 29 1 0 0 
SMALL
USER_CHARGES


@<TRIPOS>ATOM
  1 S       -0.1580     0.3490    -0.0260 S.3   1 <1>  -0.3320 
  2 C       -1.5710    -0.7660    -0.1090 C.ar  1 <1>   0.1020 
  3 C        1.3300    -0.7110     0.2510 C.3   1 <1>   0.0700 
  4 C       -2.8130    -0.1920    -0.3150 C.ar  1 <1>  -0.1500 
  5 C       -1.4370    -2.1400     0.0270 C.ar  1 <1>  -0.1500 
  6 C        2.5540     0.2020     0.3280 C.3   1 <1>  -0.0990 
  7 C       -3.9360    -0.9980    -0.3880 C.ar  1 <1>  -0.1500 
  8 C       -2.5650    -2.9410    -0.0470 C.ar  1 <1>  -0.1500 
  9 C        3.8410    -0.5720     0.5500 C.2   1 <1>   0.5690 
 10 C       -3.8110    -2.3710    -0.2540 C.ar  1 <1>  -0.1500 
 11 O        3.8090    -1.7700     0.6790 O.2   1 <1>  -0.5700 
 12 N        5.0300     0.0700     0.6050 N.am  1 <1>  -0.7300 
 13 C        5.3280     1.5100     0.4830 C.3   1 <1>   0.1400 
 14 C        6.1940     1.7210    -0.7530 C.3   1 <1>  -0.2400 
 15 H        1.4020    -1.3950    -0.5760 H     1 <1>   0.0800 
 16 H        1.1820    -1.2480     1.1720 H     1 <1>   0.0800 
 17 H       -2.8950     0.8750    -0.4180 H     1 <1>   0.1500 
 18 H       -0.4810    -2.5970     0.1870 H     1 <1>   0.1500 
 19 H        2.4250     0.8940     1.1390 H     1 <1>   0.0800 
 20 H        2.6390     0.7520    -0.5910 H     1 <1>   0.0800 
 21 H       -4.9050    -0.5570    -0.5480 H     1 <1>   0.1500 
 22 H       -2.4730    -4.0080     0.0570 H     1 <1>   0.1500 
 23 H       -4.6850    -2.9970    -0.3100 H     1 <1>   0.1500 
 24 H        5.8400    -0.5390     0.7410 H     1 <1>   0.3700 
 25 H        5.8540     1.8400     1.3630 H     1 <1>   0.0800 
 26 H        4.4210     2.0830     0.3960 H     1 <1>   0.0800 
 27 H        7.1180     1.1790    -0.6620 H     1 <1>   0.0800 
 28 H        6.4220     2.7660    -0.8620 H     1 <1>   0.0800 
 29 H        5.6720     1.3920    -1.6340 H     1 <1>   0.0800 
@<TRIPOS>BOND
  1   1   2  1   
  2   1   3  1   
  3   2   4  ar  
  4   2   5  ar  
  5   3   6  1   
  6   3  15  1   
  7   3  16  1   
  8   4   7  ar  
  9   4  17  1   
 10   5   8  ar  
 11   5  18  1   
 12   6   9  1   
 13   6  19  1   
 14   6  20  1   
 15   7  10  ar  
 16   7  21  1   
 17   8  10  ar  
 18   8  22  1   
 19   9  11  2   
 20   9  12  am  
 21  10  23  1   
 22  12  13  1   
 23  12  24  1   
 24  13  14  1   
 25  13  25  1   
 26  13  26  1   
 27  14  27  1   
 28  14  28  1   
 29  14  29  1   
@<TRIPOS>SUBSTRUCTURE
  1 ****   3 GROUP 4 **** **** 0

# MOE 2024.06 (io_trps.svl 2023.06)
