@<TRIPOS>MOLECULE
NONAME
40 40 1 0 0 
SMALL
USER_CHARGES


@<TRIPOS>ATOM
  1 BR       0.4740    -0.7240     1.1070 Br    1 <1>  -0.1110 
  2 C       -0.8880     0.4380     0.3840 C.ar  1 <1>   0.1110 
  3 C       -0.6380     1.7980     0.2420 C.ar  1 <1>   0.0830 
  4 C       -2.0990    -0.1230     0.0250 C.ar  1 <1>  -0.1500 
  5 O        0.5450     2.3460     0.5940 O.3   1 <1>  -0.3630 
  6 C       -1.6410     2.6130    -0.2600 C.ar  1 <1>  -0.1500 
  7 C       -3.0900     0.7000    -0.4860 C.ar  1 <1>  -0.1500 
  8 C        1.5830     2.2390    -0.3480 C.3   1 <1>   0.1200 
  9 C       -2.8610     2.0620    -0.6250 C.ar  1 <1>  -0.1500 
 10 C        2.8890     2.5930     0.3650 C.3   1 <1>  -0.1600 
 11 C        4.1030     2.4470    -0.5630 C.3   1 <1>  -0.1600 
 12 C        5.3900     2.7770     0.1910 C.3   1 <1>   0.3430 
 13 N        6.5460     2.6080    -0.7260 N.4   1 <1>  -0.9060 
 14 C        7.8740     2.8790    -0.1710 C.3   1 <1>   0.5030 
 15 C        8.8690     2.6340    -1.3010 C.3   1 <1>  -0.2400 
 16 C        8.1570     1.9210     0.9860 C.3   1 <1>  -0.2400 
 17 C        7.9570     4.3340     0.2870 C.3   1 <1>  -0.2400 
 18 H       -2.2630    -1.1790     0.1440 H     1 <1>   0.1500 
 19 H       -1.4670     3.6690    -0.3610 H     1 <1>   0.1500 
 20 H       -4.0400     0.2830    -0.7720 H     1 <1>   0.1500 
 21 H        1.3730     2.9190    -1.1560 H     1 <1>   0.0800 
 22 H        1.6090     1.2290    -0.7210 H     1 <1>   0.0800 
 23 H       -3.6370     2.6970    -1.0170 H     1 <1>   0.1500 
 24 H        2.9990     1.9360     1.2120 H     1 <1>   0.0800 
 25 H        2.8190     3.6070     0.7240 H     1 <1>   0.0800 
 26 H        3.9860     3.1150    -1.3990 H     1 <1>   0.0800 
 27 H        4.1430     1.4340    -0.9240 H     1 <1>   0.0800 
 28 H        5.4880     2.1180     1.0390 H     1 <1>   0.0800 
 29 H        5.3450     3.7930     0.5510 H     1 <1>   0.0800 
 30 H        6.4240     3.2200    -1.5380 H     1 <1>   0.4500 
 31 H        6.5540     1.6470    -1.0800 H     1 <1>   0.4500 
 32 H        8.6870     3.2950    -2.1300 H     1 <1>   0.0800 
 33 H        9.8710     2.8180    -0.9530 H     1 <1>   0.0800 
 34 H        8.8260     1.6150    -1.6440 H     1 <1>   0.0800 
 35 H        7.5120     2.1090     1.8250 H     1 <1>   0.0800 
 36 H        9.1680     2.0560     1.3280 H     1 <1>   0.0800 
 37 H        8.0500     0.8960     0.6770 H     1 <1>   0.0800 
 38 H        7.3110     4.5240     1.1260 H     1 <1>   0.0800 
 39 H        7.7100     5.0090    -0.5130 H     1 <1>   0.0800 
 40 H        8.9610     4.5570     0.6040 H     1 <1>   0.0800 
@<TRIPOS>BOND
  1   1   2  1   
  2   2   3  ar  
  3   2   4  ar  
  4   3   5  1   
  5   3   6  ar  
  6   4   7  ar  
  7   4  18  1   
  8   5   8  1   
  9   6   9  ar  
 10   6  19  1   
 11   7   9  ar  
 12   7  20  1   
 13   8  10  1   
 14   8  21  1   
 15   8  22  1   
 16   9  23  1   
 17  10  11  1   
 18  10  24  1   
 19  10  25  1   
 20  11  12  1   
 21  11  26  1   
 22  11  27  1   
 23  12  13  1   
 24  12  28  1   
 25  12  29  1   
 26  13  14  1   
 27  13  30  1   
 28  13  31  1   
 29  14  15  1   
 30  14  16  1   
 31  14  17  1   
 32  15  32  1   
 33  15  33  1   
 34  15  34  1   
 35  16  35  1   
 36  16  36  1   
 37  16  37  1   
 38  17  38  1   
 39  17  39  1   
 40  17  40  1   
@<TRIPOS>SUBSTRUCTURE
  1 ****  10 GROUP 4 **** **** 0

# MOE 2024.06 (io_trps.svl 2023.06)
