@<TRIPOS>MOLECULE
NONAME
32 34 1 0 0 
SMALL
USER_CHARGES


@<TRIPOS>ATOM
  1 O        2.0950    -0.6950    -1.0020 O.3   1 <1>  -0.5600 
  2 C        3.2360    -0.6360    -0.2040 C.3   1 <1>   0.5000 
  3 C        1.1690     0.3030    -0.6490 C.3   1 <1>   0.2000 
  4 N        3.5680    -1.9940     0.2150 N.am  1 <1>  -0.4770 
  5 C        2.9400     0.3180     0.9450 C.3   1 <1>  -0.1600 
  6 C        1.8840     1.2180     0.3480 C.3   1 <1>   0.2000 
  7 C       -0.0930    -0.3470    -0.0580 C.3   1 <1>   0.1200 
  8 C        2.7710    -2.8780     0.8820 C.2   1 <1>   0.6900 
  9 C        4.6090    -2.7170    -0.3170 C.ar  1 <1>   0.4270 
 10 O        2.5240     2.2400    -0.3390 O.3   1 <1>  -0.6800 
 11 O       -0.5460    -1.3360    -0.9160 O.3   1 <1>  -0.6800 
 12 O        1.7310    -2.6260     1.4640 O.2   1 <1>  -0.5700 
 13 N        3.3050    -4.1190     0.8150 N.am  1 <1>  -0.5470 
 14 N        5.6010    -2.2550    -1.0610 N.ar  1 <1>  -0.6200 
 15 C        4.4630    -4.0280     0.0430 C.ar  1 <1>   0.1170 
 16 C        6.4480    -3.1950    -1.4390 C.ar  1 <1>   0.4700 
 17 C        5.4280    -4.9140    -0.4190 C.ar  1 <1>   0.4100 
 18 N        6.4270    -4.4990    -1.1640 N.ar  1 <1>  -0.6200 
 19 N        5.4260    -6.2470    -0.1370 N.pl3 1 <1>  -0.9000 
 20 H        4.0290    -0.2350    -0.8150 H     1 <1>   0.0800 
 21 H        0.8930     0.8470    -1.5350 H     1 <1>   0.0800 
 22 H        2.5260    -0.2140     1.7820 H     1 <1>   0.0800 
 23 H        3.8140     0.8560     1.2660 H     1 <1>   0.0800 
 24 H        1.2290     1.6600     1.0800 H     1 <1>   0.0800 
 25 H       -0.8770     0.3780     0.0620 H     1 <1>   0.0800 
 26 H        0.1150    -0.7980     0.8960 H     1 <1>   0.0800 
 27 H        2.9690     1.8900    -1.1360 H     1 <1>   0.4000 
 28 H        0.2180    -1.9110    -1.1390 H     1 <1>   0.4000 
 29 H        2.8010    -4.9540     1.1080 H     1 <1>   0.3700 
 30 H        7.2710    -2.8670    -2.0530 H     1 <1>   0.1500 
 31 H        6.2630    -6.7330    -0.4660 H     1 <1>   0.4000 
 32 H        5.1320    -6.5390     0.7960 H     1 <1>   0.4000 
@<TRIPOS>BOND
  1   1   2  1   
  2   1   3  1   
  3   2   4  1   
  4   2   5  1   
  5   2  20  1   
  6   3   6  1   
  7   3   7  1   
  8   3  21  1   
  9   4   8  am  
 10   4   9  1   
 11   5   6  1   
 12   5  22  1   
 13   5  23  1   
 14   6  10  1   
 15   6  24  1   
 16   7  11  1   
 17   7  25  1   
 18   7  26  1   
 19   8  12  2   
 20   8  13  am  
 21   9  14  ar  
 22   9  15  ar  
 23  10  27  1   
 24  11  28  1   
 25  13  15  1   
 26  13  29  1   
 27  14  16  ar  
 28  15  17  ar  
 29  16  18  ar  
 30  16  30  1   
 31  17  18  ar  
 32  17  19  1   
 33  19  31  1   
 34  19  32  1   
@<TRIPOS>SUBSTRUCTURE
  1 ****   4 GROUP 4 **** **** 0

# MOE 2024.06 (io_trps.svl 2023.06)
