@<TRIPOS>MOLECULE
NONAME
41 43 1 0 0 
SMALL
USER_CHARGES


@<TRIPOS>ATOM
  1 O       -0.3640    -0.4740    -1.7700 O.3   1 <1>  -0.5600 
  2 C        0.3790    -0.2010    -0.6130 C.3   1 <1>   0.1200 
  3 C       -1.6580    -0.9500    -1.5200 C.3   1 <1>   0.1200 
  4 C        0.4630    -1.4380     0.3100 C.3   1 <1>   0.3430 
  5 C       -1.6170    -2.2720    -0.7210 C.3   1 <1>   0.3430 
  6 N       -0.2160    -2.6320    -0.3100 N.4   1 <1>  -0.9590 
  7 C       -0.0270    -3.9120     0.4310 C.3   1 <1>   0.7030 
  8 C        1.4420    -4.1230     0.5710 C.1   1 <1>  -0.2000 
  9 C       -0.6730    -5.0850    -0.3140 C.3   1 <1>  -0.1600 
 10 C       -0.7430    -3.9150     1.7870 C.3   1 <1>  -0.1600 
 11 C        2.6180    -4.2730     0.6820 C.1   1 <1>  -0.0730 
 12 C       -2.0940    -5.2660     0.2430 C.3   1 <1>  -0.1600 
 13 C       -2.1510    -4.4850     1.5600 C.3   1 <1>  -0.1600 
 14 C        4.0330    -4.4400     0.8220 C.ar  1 <1>   0.0730 
 15 C        4.8690    -4.3680    -0.2840 C.ar  1 <1>  -0.1500 
 16 C        4.5980    -4.6750     2.0690 C.ar  1 <1>  -0.1500 
 17 C        6.2380    -4.5230    -0.1500 C.ar  1 <1>  -0.1500 
 18 C        5.9660    -4.8310     2.2090 C.ar  1 <1>  -0.1500 
 19 C        6.7880    -4.7550     1.0980 C.ar  1 <1>  -0.1500 
 20 H       -0.0740     0.6290    -0.0980 H     1 <1>   0.0800 
 21 H        1.3670     0.0970    -0.9220 H     1 <1>   0.0800 
 22 H       -2.1420    -1.1040    -2.4690 H     1 <1>   0.0800 
 23 H       -2.2060    -0.1940    -0.9820 H     1 <1>   0.0800 
 24 H        0.0040    -1.2010     1.2550 H     1 <1>   0.0800 
 25 H        1.5020    -1.6520     0.5020 H     1 <1>   0.0800 
 26 H       -2.0340    -3.0550    -1.3320 H     1 <1>   0.0800 
 27 H       -2.2430    -2.1700     0.1490 H     1 <1>   0.0800 
 28 H        0.2900    -2.7640    -1.1940 H     1 <1>   0.4500 
 29 H       -0.1240    -5.9830    -0.0830 H     1 <1>   0.0800 
 30 H       -0.6570    -4.9610    -1.3820 H     1 <1>   0.0800 
 31 H       -0.7630    -2.9540     2.2650 H     1 <1>   0.0800 
 32 H       -0.2250    -4.5960     2.4420 H     1 <1>   0.0800 
 33 H       -2.2980    -6.3110     0.4120 H     1 <1>   0.0800 
 34 H       -2.8330    -4.8930    -0.4470 H     1 <1>   0.0800 
 35 H       -2.8780    -3.6940     1.4940 H     1 <1>   0.0800 
 36 H       -2.4360    -5.1290     2.3770 H     1 <1>   0.0800 
 37 H        4.4510    -4.1920    -1.2590 H     1 <1>   0.1500 
 38 H        3.9670    -4.7370     2.9370 H     1 <1>   0.1500 
 39 H        6.8760    -4.4660    -1.0150 H     1 <1>   0.1500 
 40 H        6.3920    -5.0130     3.1810 H     1 <1>   0.1500 
 41 H        7.8520    -4.8760     1.2050 H     1 <1>   0.1500 
@<TRIPOS>BOND
  1   1   2  1   
  2   1   3  1   
  3   2   4  1   
  4   2  20  1   
  5   2  21  1   
  6   3   5  1   
  7   3  22  1   
  8   3  23  1   
  9   4   6  1   
 10   4  24  1   
 11   4  25  1   
 12   5   6  1   
 13   5  26  1   
 14   5  27  1   
 15   6   7  1   
 16   6  28  1   
 17   7   8  1   
 18   7   9  1   
 19   7  10  1   
 20   8  11  3   
 21   9  12  1   
 22   9  29  1   
 23   9  30  1   
 24  10  13  1   
 25  10  31  1   
 26  10  32  1   
 27  11  14  1   
 28  12  13  1   
 29  12  33  1   
 30  12  34  1   
 31  13  35  1   
 32  13  36  1   
 33  14  15  ar  
 34  14  16  ar  
 35  15  17  ar  
 36  15  37  1   
 37  16  18  ar  
 38  16  38  1   
 39  17  19  ar  
 40  17  39  1   
 41  18  19  ar  
 42  18  40  1   
 43  19  41  1   
@<TRIPOS>SUBSTRUCTURE
  1 ****   8 GROUP 4 **** **** 0

# MOE 2024.06 (io_trps.svl 2023.06)
