@<TRIPOS>MOLECULE
NONAME
45 46 1 0 0 
SMALL
USER_CHARGES


@<TRIPOS>ATOM
  1 CL       0.9060    -1.0890    -1.3930 Cl    1 <1>  -0.1770 
  2 C       -0.7630    -1.3930    -0.9510 C.ar  1 <1>   0.1770 
  3 C       -1.6440    -0.3240    -0.9400 C.ar  1 <1>   0.1770 
  4 C       -1.1810    -2.6750    -0.6200 C.ar  1 <1>  -0.0090 
  5 CL      -1.0680     1.2800    -1.3610 Cl    1 <1>  -0.1770 
  6 C       -2.9790    -0.5030    -0.5970 C.ar  1 <1>   0.0820 
  7 S       -0.0420    -4.0770    -0.6240 S.o2  1 <1>   1.4470 
  8 C       -2.5210    -2.8450    -0.2790 C.ar  1 <1>  -0.1500 
  9 O       -3.7990     0.5790    -0.6010 O.3   1 <1>  -0.3630 
 10 C       -3.4110    -1.7840    -0.2660 C.ar  1 <1>  -0.1500 
 11 O        0.6350    -4.1930    -1.8940 O.2   1 <1>  -0.6500 
 12 O       -0.7000    -5.2340    -0.0640 O.2   1 <1>  -0.6500 
 13 N        1.0830    -3.7010     0.5610 N.am  1 <1>  -0.9140 
 14 C       -5.1660     0.4860    -0.2670 C.3   1 <1>   0.0400 
 15 C        2.4690    -3.8330     0.1300 C.3   1 <1>   0.1960 
 16 C        3.4010    -3.4220     1.2680 C.3   1 <1>  -0.0170 
 17 C        4.8500    -3.5230     0.8190 C.ar  1 <1>  -0.1430 
 18 C        5.4170    -2.4990     0.0760 C.ar  1 <1>  -0.1500 
 19 C        5.6090    -4.6350     1.1390 C.ar  1 <1>  -0.1500 
 20 C        6.7400    -2.5790    -0.3510 C.ar  1 <1>   0.0820 
 21 C        6.9260    -4.7270     0.7230 C.ar  1 <1>  -0.1500 
 22 O        7.3320    -1.5930    -1.0870 O.3   1 <1>  -0.3620 
 23 C        7.5020    -3.7040    -0.0240 C.ar  1 <1>   0.0820 
 24 C        6.6160    -0.4620    -1.5290 C.3   1 <1>   0.0400 
 25 O        8.7960    -3.7530    -0.4580 O.3   1 <1>  -0.3630 
 26 C        9.6280    -4.8580    -0.1880 C.3   1 <1>   0.0400 
 27 H       -2.8780    -3.8290    -0.0180 H     1 <1>   0.1500 
 28 H       -4.4340    -1.9740     0.0050 H     1 <1>   0.1500 
 29 H        0.9030    -4.4100     1.2710 H     1 <1>   0.4200 
 30 H       -5.5950     1.4690    -0.3440 H     1 <1>   0.0800 
 31 H       -5.2560     0.1270     0.7430 H     1 <1>   0.0800 
 32 H       -5.6520    -0.1790    -0.9590 H     1 <1>   0.0800 
 33 H        2.6520    -3.1940    -0.7190 H     1 <1>   0.0800 
 34 H        2.6720    -4.8500    -0.1660 H     1 <1>   0.0800 
 35 H        3.2400    -4.0570     2.1200 H     1 <1>   0.0800 
 36 H        3.1880    -2.4080     1.5560 H     1 <1>   0.0800 
 37 H        4.8140    -1.6440    -0.1630 H     1 <1>   0.1500 
 38 H        5.1830    -5.4380     1.7140 H     1 <1>   0.1500 
 39 H        7.4820    -5.6040     0.9910 H     1 <1>   0.1500 
 40 H        7.2840     0.1470    -2.1110 H     1 <1>   0.0800 
 41 H        6.2720     0.0890    -0.6720 H     1 <1>   0.0800 
 42 H        5.7920    -0.7870    -2.1390 H     1 <1>   0.0800 
 43 H       10.5880    -4.6670    -0.6340 H     1 <1>   0.0800 
 44 H        9.1910    -5.7380    -0.6230 H     1 <1>   0.0800 
 45 H        9.7350    -4.9620     0.8770 H     1 <1>   0.0800 
@<TRIPOS>BOND
  1   1   2  1   
  2   2   3  ar  
  3   2   4  ar  
  4   3   5  1   
  5   3   6  ar  
  6   4   7  1   
  7   4   8  ar  
  8   6   9  1   
  9   6  10  ar  
 10   7  11  2   
 11   7  12  2   
 12   7  13  am  
 13   8  10  ar  
 14   8  27  1   
 15   9  14  1   
 16  10  28  1   
 17  13  15  1   
 18  13  29  1   
 19  14  30  1   
 20  14  31  1   
 21  14  32  1   
 22  15  16  1   
 23  15  33  1   
 24  15  34  1   
 25  16  17  1   
 26  16  35  1   
 27  16  36  1   
 28  17  18  ar  
 29  17  19  ar  
 30  18  20  ar  
 31  18  37  1   
 32  19  21  ar  
 33  19  38  1   
 34  20  22  1   
 35  20  23  ar  
 36  21  23  ar  
 37  21  39  1   
 38  22  24  1   
 39  23  25  1   
 40  24  40  1   
 41  24  41  1   
 42  24  42  1   
 43  25  26  1   
 44  26  43  1   
 45  26  44  1   
 46  26  45  1   
@<TRIPOS>SUBSTRUCTURE
  1 ****  15 GROUP 4 **** **** 0

# MOE 2024.06 (io_trps.svl 2023.06)
