@<TRIPOS>MOLECULE
NONAME
33 35 1 0 0 
SMALL
USER_CHARGES


@<TRIPOS>ATOM
  1 CL      -1.1850     0.0920     0.4510 Cl    1 <1>  -0.1770 
  2 C       -0.7770     1.7710     0.1730 C.ar  1 <1>   0.1770 
  3 C       -1.7140     2.7700     0.4510 C.ar  1 <1>   0.0280 
  4 C        0.4790     2.0520    -0.3300 C.ar  1 <1>  -0.1500 
  5 C       -1.3160     4.0840     0.2070 C.ar  1 <1>  -0.1500 
  6 C       -3.0140     2.4460     0.9760 C.2   1 <1>  -0.1780 
  7 C        0.8400     3.3660    -0.5710 C.ar  1 <1>  -0.1500 
  8 C       -0.0620     4.3800    -0.3000 C.ar  1 <1>  -0.1500 
  9 C       -4.2440     2.7950     0.5380 C.2   1 <1>  -0.0380 
 10 N       -5.4000     2.2900     1.1350 N.pl3 1 <1>  -0.8380 
 11 C       -4.5370     3.6470    -0.7160 C.3   1 <1>   0.3380 
 12 C       -6.4350     3.3320     1.4190 C.3   1 <1>   0.2090 
 13 C       -6.0060     1.2560     0.2400 C.3   1 <1>   0.2090 
 14 O       -4.3360     4.9780    -0.4040 O.3   1 <1>  -0.6800 
 15 C       -6.0320     3.4320    -1.0830 C.3   1 <1>  -0.0800 
 16 C       -6.9160     3.9480     0.0830 C.3   1 <1>  -0.1600 
 17 C       -6.2750     1.9020    -1.1460 C.3   1 <1>  -0.1600 
 18 H        1.1640     1.2490    -0.5310 H     1 <1>   0.1500 
 19 H       -1.9940     4.8880     0.4240 H     1 <1>   0.1500 
 20 H       -2.9740     1.7960     1.8320 H     1 <1>   0.1500 
 21 H        1.8150     3.5980    -0.9640 H     1 <1>   0.1500 
 22 H        0.2120     5.4050    -0.4820 H     1 <1>   0.1500 
 23 H       -3.8840     3.3830    -1.5290 H     1 <1>   0.0800 
 24 H       -7.2600     2.8930     1.9540 H     1 <1>   0.0800 
 25 H       -5.9990     4.0930     2.0430 H     1 <1>   0.0800 
 26 H       -5.3270     0.4260     0.1420 H     1 <1>   0.0800 
 27 H       -6.9220     0.8940     0.6740 H     1 <1>   0.0800 
 28 H       -4.5810     5.0770     0.5340 H     1 <1>   0.4000 
 29 H       -6.2720     3.9060    -2.0180 H     1 <1>   0.0800 
 30 H       -7.9430     3.6770    -0.0870 H     1 <1>   0.0800 
 31 H       -6.8810     5.0210     0.1450 H     1 <1>   0.0800 
 32 H       -5.6200     1.4570    -1.8740 H     1 <1>   0.0800 
 33 H       -7.2850     1.6910    -1.4480 H     1 <1>   0.0800 
@<TRIPOS>BOND
  1   1   2  1   
  2   2   3  ar  
  3   2   4  ar  
  4   3   5  ar  
  5   3   6  1   
  6   4   7  ar  
  7   4  18  1   
  8   5   8  ar  
  9   5  19  1   
 10   6   9  2   
 11   6  20  1   
 12   7   8  ar  
 13   7  21  1   
 14   8  22  1   
 15   9  10  1   
 16   9  11  1   
 17  10  12  1   
 18  10  13  1   
 19  11  14  1   
 20  11  15  1   
 21  11  23  1   
 22  12  16  1   
 23  12  24  1   
 24  12  25  1   
 25  13  17  1   
 26  13  26  1   
 27  13  27  1   
 28  14  28  1   
 29  15  16  1   
 30  15  17  1   
 31  15  29  1   
 32  16  30  1   
 33  16  31  1   
 34  17  32  1   
 35  17  33  1   
@<TRIPOS>SUBSTRUCTURE
  1 ****   9 GROUP 4 **** **** 0

# MOE 2024.06 (io_trps.svl 2023.06)
