@<TRIPOS>MOLECULE
NONAME
38 40 1 0 0 
SMALL
USER_CHARGES


@<TRIPOS>ATOM
  1 CL      -1.8580     0.7480     1.2330 Cl    1 <1>  -0.1770 
  2 C       -1.1380     2.1760     0.5160 C.ar  1 <1>   0.1770 
  3 C        0.0910     2.6340     0.9640 C.ar  1 <1>   0.1770 
  4 C       -1.8200     2.8450    -0.4910 C.ar  1 <1>  -0.1440 
  5 CL       0.9390     1.7970     2.2410 Cl    1 <1>  -0.1770 
  6 C        0.6590     3.7650     0.4100 C.ar  1 <1>  -0.1500 
  7 C       -1.2430     3.9810    -1.0470 C.ar  1 <1>  -0.1500 
  8 C       -3.1660     2.3420    -0.9780 C.3   1 <1>   0.4870 
  9 C       -0.0120     4.4370    -0.5980 C.ar  1 <1>  -0.1500 
 10 N       -4.1780     2.5090     0.0990 N.4   1 <1>  -0.9590 
 11 C       -5.4890     1.8510    -0.2710 C.3   1 <1>   0.3430 
 12 C       -4.3660     3.9640     0.4810 C.3   1 <1>   0.3430 
 13 C       -6.5890     2.0640     0.7920 C.3   1 <1>   0.2090 
 14 C       -5.4610     4.1550     1.5490 C.3   1 <1>   0.2090 
 15 N       -6.7270     3.5190     1.0810 N.pl3 1 <1>  -0.8380 
 16 C       -7.6500     4.2480     0.3690 C.ar  1 <1>   0.7200 
 17 N       -8.8690     3.7310     0.2780 N.ar  1 <1>  -0.6200 
 18 N       -7.2200     5.3760    -0.1940 N.ar  1 <1>  -0.6200 
 19 C       -9.7480     4.4390    -0.3900 C.ar  1 <1>   0.1600 
 20 C       -8.1210     6.0630    -0.8570 C.ar  1 <1>   0.1600 
 21 C       -9.4200     5.6330    -0.9840 C.ar  1 <1>  -0.1500 
 22 H        1.6150     4.1120     0.7640 H     1 <1>   0.1500 
 23 H       -1.7380     4.5240    -1.8370 H     1 <1>   0.1500 
 24 H       -3.0780     1.3000    -1.2410 H     1 <1>   0.0800 
 25 H       -3.4680     2.8890    -1.8560 H     1 <1>   0.0800 
 26 H        0.4310     5.3180    -1.0360 H     1 <1>   0.1500 
 27 H       -3.8110     2.0200     0.9290 H     1 <1>   0.4500 
 28 H       -5.3430     0.7930    -0.4150 H     1 <1>   0.0800 
 29 H       -5.8490     2.2640    -1.1990 H     1 <1>   0.0800 
 30 H       -4.6540     4.5330    -0.3890 H     1 <1>   0.0800 
 31 H       -3.4400     4.3720     0.8510 H     1 <1>   0.0800 
 32 H       -6.3390     1.5400     1.6980 H     1 <1>   0.0800 
 33 H       -7.5180     1.6550     0.4300 H     1 <1>   0.0800 
 34 H       -5.6150     5.2050     1.7330 H     1 <1>   0.0800 
 35 H       -5.1550     3.7070     2.4780 H     1 <1>   0.0800 
 36 H      -10.7530     4.0590    -0.4660 H     1 <1>   0.1500 
 37 H       -7.8200     6.9930    -1.3110 H     1 <1>   0.1500 
 38 H      -10.1490     6.2060    -1.5270 H     1 <1>   0.1500 
@<TRIPOS>BOND
  1   1   2  1   
  2   2   3  ar  
  3   2   4  ar  
  4   3   5  1   
  5   3   6  ar  
  6   4   7  ar  
  7   4   8  1   
  8   6   9  ar  
  9   6  22  1   
 10   7   9  ar  
 11   7  23  1   
 12   8  10  1   
 13   8  24  1   
 14   8  25  1   
 15   9  26  1   
 16  10  11  1   
 17  10  12  1   
 18  10  27  1   
 19  11  13  1   
 20  11  28  1   
 21  11  29  1   
 22  12  14  1   
 23  12  30  1   
 24  12  31  1   
 25  13  15  1   
 26  13  32  1   
 27  13  33  1   
 28  14  15  1   
 29  14  34  1   
 30  14  35  1   
 31  15  16  1   
 32  16  17  ar  
 33  16  18  ar  
 34  17  19  ar  
 35  18  20  ar  
 36  19  21  ar  
 37  19  36  1   
 38  20  21  ar  
 39  20  37  1   
 40  21  38  1   
@<TRIPOS>SUBSTRUCTURE
  1 ****  12 GROUP 4 **** **** 0

# MOE 2024.06 (io_trps.svl 2023.06)
