@<TRIPOS>MOLECULE
NONAME
49 51 1 0 0 
SMALL
USER_CHARGES


@<TRIPOS>ATOM
  1 S       -0.1150     0.0750     1.0910 S.o2  1 <1>   1.4470 
  2 O       -0.4260     0.3600     2.4740 O.2   1 <1>  -0.6500 
  3 O       -0.5660    -1.1550     0.4830 O.2   1 <1>  -0.6500 
  4 N       -0.8200     1.2730     0.1530 N.am  1 <1>  -0.9140 
  5 C        1.6600     0.2970     0.7920 C.ar  1 <1>  -0.0090 
  6 C       -2.0480     1.8310     0.6790 C.3   1 <1>   0.2760 
  7 C        2.4620    -0.7630     0.3840 C.ar  1 <1>  -0.1500 
  8 C        2.2710     1.5330     0.9700 C.ar  1 <1>  -0.1500 
  9 C       -3.2070     0.8480     0.5200 C.3   1 <1>  -0.1600 
 10 C       -2.4600     2.9720    -0.2420 C.3   1 <1>  -0.1600 
 11 C        3.8180    -0.5960     0.1630 C.ar  1 <1>  -0.1500 
 12 C        3.6260     1.7040     0.7490 C.ar  1 <1>  -0.1500 
 13 C       -3.6280     0.9370    -0.9510 C.3   1 <1>  -0.1600 
 14 C       -3.1660     2.3170    -1.4360 C.3   1 <1>  -0.1600 
 15 C        4.4240     0.6400     0.3440 C.ar  1 <1>   0.1170 
 16 N        5.7970     0.7670     0.0980 N.am  1 <1>  -0.5470 
 17 C        6.7210     1.6570     0.5640 C.2   1 <1>   0.6900 
 18 O        6.4380     2.4540     1.4390 O.2   1 <1>  -0.5700 
 19 N        7.9920     1.6130     0.0490 N.am  1 <1>  -0.6600 
 20 C        9.1280     2.2620     0.7590 C.3   1 <1>   0.1400 
 21 C        8.3330     1.1100    -1.3100 C.3   1 <1>   0.1400 
 22 C       10.2940     1.2730     0.8720 C.3   1 <1>  -0.1600 
 23 C        9.4770     0.0960    -1.2080 C.3   1 <1>  -0.1600 
 24 C       10.6960     0.7000    -0.4950 C.3   1 <1>  -0.1600 
 25 H       -1.0820     0.7930    -0.7030 H     1 <1>   0.4200 
 26 H       -1.9190     2.1700     1.6950 H     1 <1>   0.0800 
 27 H        2.0180    -1.7340     0.2390 H     1 <1>   0.1500 
 28 H        1.6760     2.3730     1.2880 H     1 <1>   0.1500 
 29 H       -4.0220     1.1940     1.1310 H     1 <1>   0.0800 
 30 H       -2.9720    -0.1560     0.8260 H     1 <1>   0.0800 
 31 H       -1.6230     3.5810    -0.5370 H     1 <1>   0.0800 
 32 H       -3.1650     3.5930     0.2820 H     1 <1>   0.0800 
 33 H        4.4090    -1.4370    -0.1490 H     1 <1>   0.1500 
 34 H        4.0640     2.6760     0.8930 H     1 <1>   0.1500 
 35 H       -4.6930     0.8170    -1.0540 H     1 <1>   0.0800 
 36 H       -3.1360     0.1660    -1.5200 H     1 <1>   0.0800 
 37 H       -2.4760     2.2030    -2.2550 H     1 <1>   0.0800 
 38 H       -3.9980     2.9170    -1.7650 H     1 <1>   0.0800 
 39 H        6.2320    -0.0010    -0.4000 H     1 <1>   0.3700 
 40 H        8.8290     2.5770     1.7440 H     1 <1>   0.0800 
 41 H        9.4340     3.1340     0.2070 H     1 <1>   0.0800 
 42 H        8.6440     1.9430    -1.9170 H     1 <1>   0.0800 
 43 H        7.4800     0.6590    -1.7860 H     1 <1>   0.0800 
 44 H       10.0010     0.4720     1.5290 H     1 <1>   0.0800 
 45 H       11.1370     1.7690     1.3200 H     1 <1>   0.0800 
 46 H        9.7600    -0.2230    -2.1950 H     1 <1>   0.0800 
 47 H        9.1330    -0.7690    -0.6680 H     1 <1>   0.0800 
 48 H       11.4540    -0.0530    -0.3660 H     1 <1>   0.0800 
 49 H       11.1100     1.4880    -1.1020 H     1 <1>   0.0800 
@<TRIPOS>BOND
  1   1   2  2   
  2   1   3  2   
  3   1   4  am  
  4   1   5  1   
  5   4   6  1   
  6   4  25  1   
  7   5   7  ar  
  8   5   8  ar  
  9   6   9  1   
 10   6  10  1   
 11   6  26  1   
 12   7  11  ar  
 13   7  27  1   
 14   8  12  ar  
 15   8  28  1   
 16   9  13  1   
 17   9  29  1   
 18   9  30  1   
 19  10  14  1   
 20  10  31  1   
 21  10  32  1   
 22  11  15  ar  
 23  11  33  1   
 24  12  15  ar  
 25  12  34  1   
 26  13  14  1   
 27  13  35  1   
 28  13  36  1   
 29  14  37  1   
 30  14  38  1   
 31  15  16  1   
 32  16  17  am  
 33  16  39  1   
 34  17  18  2   
 35  17  19  am  
 36  19  20  1   
 37  19  21  1   
 38  20  22  1   
 39  20  40  1   
 40  20  41  1   
 41  21  23  1   
 42  21  42  1   
 43  21  43  1   
 44  22  24  1   
 45  22  44  1   
 46  22  45  1   
 47  23  24  1   
 48  23  46  1   
 49  23  47  1   
 50  24  48  1   
 51  24  49  1   
@<TRIPOS>SUBSTRUCTURE
  1 ****  12 GROUP 4 **** **** 0

# MOE 2024.06 (io_trps.svl 2023.06)
