@<TRIPOS>MOLECULE
NONAME
37 38 1 0 0 
SMALL
USER_CHARGES


@<TRIPOS>ATOM
  1 S        0.0500    -0.8930    -1.1870 S.3   1 <1>  -0.4600 
  2 C        1.6320    -0.0940    -1.5700 C.3   1 <1>   0.0700 
  3 C        0.5710    -2.4330    -0.3860 C.3   1 <1>   0.0700 
  4 C        2.4780    -0.0190    -0.2930 C.3   1 <1>   0.3430 
  5 C        1.5320    -2.1010     0.7630 C.3   1 <1>   0.3430 
  6 N        2.7570    -1.3780     0.2900 N.4   1 <1>  -0.9590 
  7 C        3.7920    -1.3080     1.3520 C.3   1 <1>   0.4860 
  8 C        5.0970    -0.8780     0.7140 C.ar  1 <1>  -0.1430 
  9 C        5.6840    -1.6520    -0.2820 C.ar  1 <1>   0.0830 
 10 C        5.7080     0.2970     1.1240 C.ar  1 <1>  -0.1500 
 11 O        5.0370    -2.7910    -0.6580 O.3   1 <1>  -0.3630 
 12 C        6.8830    -1.2360    -0.8570 C.ar  1 <1>  -0.1500 
 13 C        6.8970     0.7120     0.5510 C.ar  1 <1>   0.0830 
 14 C        5.6870    -3.7570    -1.4620 C.3   1 <1>   0.0400 
 15 C        7.4860    -0.0610    -0.4440 C.ar  1 <1>  -0.1500 
 16 O        7.4140     1.8770     1.0130 O.3   1 <1>  -0.3630 
 17 C        8.6680     2.3480     0.5680 C.3   1 <1>   0.0400 
 18 H        1.4060     0.8890    -1.9440 H     1 <1>   0.0800 
 19 H        2.1170    -0.6690    -2.3380 H     1 <1>   0.0800 
 20 H        1.0370    -3.0530    -1.1320 H     1 <1>   0.0800 
 21 H       -0.3200    -2.9140    -0.0220 H     1 <1>   0.0800 
 22 H        1.9620     0.5890     0.4320 H     1 <1>   0.0800 
 23 H        3.4090     0.4700    -0.5330 H     1 <1>   0.0800 
 24 H        1.8200    -3.0220     1.2430 H     1 <1>   0.0800 
 25 H        1.0100    -1.4960     1.4880 H     1 <1>   0.0800 
 26 H        3.2180    -1.9430    -0.4440 H     1 <1>   0.4500 
 27 H        3.9300    -2.2790     1.7990 H     1 <1>   0.0800 
 28 H        3.5010    -0.6100     2.1200 H     1 <1>   0.0800 
 29 H        5.2810     0.9130     1.8960 H     1 <1>   0.1500 
 30 H        7.3640    -1.8080    -1.6300 H     1 <1>   0.1500 
 31 H        5.8660    -3.3430    -2.4390 H     1 <1>   0.0800 
 32 H        5.0470    -4.6170    -1.5450 H     1 <1>   0.0800 
 33 H        6.6140    -4.0400    -0.9920 H     1 <1>   0.0800 
 34 H        8.4090     0.2360    -0.9050 H     1 <1>   0.1500 
 35 H        8.8880     3.2600     1.0930 H     1 <1>   0.0800 
 36 H        8.6160     2.5400    -0.4890 H     1 <1>   0.0800 
 37 H        9.4190     1.6100     0.7900 H     1 <1>   0.0800 
@<TRIPOS>BOND
  1   1   2  1   
  2   1   3  1   
  3   2   4  1   
  4   2  18  1   
  5   2  19  1   
  6   3   5  1   
  7   3  20  1   
  8   3  21  1   
  9   4   6  1   
 10   4  22  1   
 11   4  23  1   
 12   5   6  1   
 13   5  24  1   
 14   5  25  1   
 15   6   7  1   
 16   6  26  1   
 17   7   8  1   
 18   7  27  1   
 19   7  28  1   
 20   8   9  ar  
 21   8  10  ar  
 22   9  11  1   
 23   9  12  ar  
 24  10  13  ar  
 25  10  29  1   
 26  11  14  1   
 27  12  15  ar  
 28  12  30  1   
 29  13  15  ar  
 30  13  16  1   
 31  14  31  1   
 32  14  32  1   
 33  14  33  1   
 34  15  34  1   
 35  16  17  1   
 36  17  35  1   
 37  17  36  1   
 38  17  37  1   
@<TRIPOS>SUBSTRUCTURE
  1 ****   8 GROUP 4 **** **** 0

# MOE 2024.06 (io_trps.svl 2023.06)
