@<TRIPOS>MOLECULE
NONAME
33 33 1 0 0 
SMALL
USER_CHARGES


@<TRIPOS>ATOM
  1 CL       0.1000     0.6800     1.7130 Cl    1 <1>  -0.1770 
  2 C        0.5560     2.1120     0.8210 C.ar  1 <1>   0.1770 
  3 C        1.5940     2.0710    -0.1000 C.ar  1 <1>  -0.1440 
  4 C       -0.1420     3.2810     1.0680 C.ar  1 <1>  -0.1500 
  5 C        1.9320     3.2380    -0.7690 C.ar  1 <1>  -0.1500 
  6 C        2.3680     0.7970    -0.3910 C.3   1 <1>   0.2840 
  7 C        0.2010     4.4370     0.3890 C.ar  1 <1>  -0.1500 
  8 C        1.2390     4.4130    -0.5270 C.ar  1 <1>  -0.1500 
  9 N        3.6210     0.8220     0.3850 N.am  1 <1>  -0.7300 
 10 C        4.8310     1.0780    -0.1510 C.2   1 <1>   0.6900 
 11 O        4.9610     1.2200    -1.3510 O.2   1 <1>  -0.5700 
 12 N        5.8730     1.1740     0.7070 N.am  1 <1>  -0.7300 
 13 C        7.2890     1.4570     0.3950 C.3   1 <1>   0.2200 
 14 C        7.4210     2.8270    -0.2900 C.3   1 <1>  -0.1600 
 15 C        7.8690     0.3040    -0.4260 C.3   1 <1>  -0.2400 
 16 C        8.8720     3.3210    -0.3780 C.3   1 <1>  -0.2400 
 17 H       -0.9430     3.2820     1.7850 H     1 <1>   0.1500 
 18 H        2.7430     3.2310    -1.4800 H     1 <1>   0.1500 
 19 H        2.5820     0.7360    -1.4450 H     1 <1>   0.0800 
 20 H        1.8000    -0.0770    -0.1260 H     1 <1>   0.0800 
 21 H       -0.3350     5.3520     0.5730 H     1 <1>   0.1500 
 22 H        1.5120     5.3120    -1.0550 H     1 <1>   0.1500 
 23 H        3.4950     0.9800     1.3800 H     1 <1>   0.3700 
 24 H        5.7050     0.8850     1.6650 H     1 <1>   0.3700 
 25 H        7.8200     1.5030     1.3310 H     1 <1>   0.0800 
 26 H        6.8500     3.5480     0.2690 H     1 <1>   0.0800 
 27 H        7.0100     2.7770    -1.2840 H     1 <1>   0.0800 
 28 H        7.4200     0.2740    -1.4020 H     1 <1>   0.0800 
 29 H        7.6920    -0.6310     0.0730 H     1 <1>   0.0800 
 30 H        8.9290     0.4270    -0.5450 H     1 <1>   0.0800 
 31 H        9.3180     3.3630     0.6000 H     1 <1>   0.0800 
 32 H        8.8940     4.3080    -0.8050 H     1 <1>   0.0800 
 33 H        9.4600     2.6730    -1.0030 H     1 <1>   0.0800 
@<TRIPOS>BOND
  1   1   2  1   
  2   2   3  ar  
  3   2   4  ar  
  4   3   5  ar  
  5   3   6  1   
  6   4   7  ar  
  7   4  17  1   
  8   5   8  ar  
  9   5  18  1   
 10   6   9  1   
 11   6  19  1   
 12   6  20  1   
 13   7   8  ar  
 14   7  21  1   
 15   8  22  1   
 16   9  10  am  
 17   9  23  1   
 18  10  11  2   
 19  10  12  am  
 20  12  13  1   
 21  12  24  1   
 22  13  14  1   
 23  13  15  1   
 24  13  25  1   
 25  14  16  1   
 26  14  26  1   
 27  14  27  1   
 28  15  28  1   
 29  15  29  1   
 30  15  30  1   
 31  16  31  1   
 32  16  32  1   
 33  16  33  1   
@<TRIPOS>SUBSTRUCTURE
  1 ****   9 GROUP 4 **** **** 0

# MOE 2024.06 (io_trps.svl 2023.06)
