@<TRIPOS>MOLECULE
NONAME
37 37 1 0 0 
SMALL
USER_CHARGES


@<TRIPOS>ATOM
  1 O        0.1040     1.6770     2.4540 O.2   1 <1>  -0.5700 
  2 C       -0.6340     1.8200     1.5080 C.2   1 <1>   0.5690 
  3 N       -0.3320     1.3380     0.2740 N.am  1 <1>  -0.7300 
  4 C       -1.9490     2.5600     1.7110 C.3   1 <1>   0.1810 
  5 C        0.9410     0.7290    -0.1200 C.3   1 <1>   0.2200 
  6 O       -2.2570     3.3740     0.5840 O.3   1 <1>  -0.3630 
  7 C        1.6180     1.6550    -1.1240 C.3   1 <1>  -0.2400 
  8 C        0.6580    -0.6380    -0.7310 C.3   1 <1>  -0.2400 
  9 C       -3.5330     3.3780     0.1330 C.ar  1 <1>   0.0820 
 10 C       -4.1480     2.2330    -0.3790 C.ar  1 <1>   0.0820 
 11 C       -4.2220     4.5770     0.1770 C.ar  1 <1>  -0.1500 
 12 O       -3.4270     1.0780    -0.4390 O.3   1 <1>  -0.3630 
 13 C       -5.4650     2.3140    -0.8190 C.ar  1 <1>  -0.1500 
 14 C       -5.5310     4.6420    -0.2650 C.ar  1 <1>  -0.1500 
 15 C       -4.0630    -0.1720    -0.5750 C.3   1 <1>   0.1200 
 16 C       -6.1700     3.5120    -0.7640 C.ar  1 <1>   0.0730 
 17 C       -3.0110    -1.2590    -0.3860 C.3   1 <1>  -0.2400 
 18 C       -7.5300     3.5810    -1.2170 C.1   1 <1>   0.4840 
 19 N       -8.6120     3.6260    -1.5740 N.1   1 <1>  -0.5570 
 20 H       -1.0120     1.4950    -0.4750 H     1 <1>   0.3700 
 21 H       -1.8700     3.2030     2.5670 H     1 <1>   0.0800 
 22 H       -2.7360     1.8490     1.8780 H     1 <1>   0.0800 
 23 H        1.5720     0.6130     0.7470 H     1 <1>   0.0800 
 24 H        1.0040     1.7870    -1.9970 H     1 <1>   0.0800 
 25 H        2.5620     1.2400    -1.4260 H     1 <1>   0.0800 
 26 H        1.8010     2.6130    -0.6700 H     1 <1>   0.0800 
 27 H        0.0470    -0.5430    -1.6090 H     1 <1>   0.0800 
 28 H        0.1620    -1.2630    -0.0100 H     1 <1>   0.0800 
 29 H        1.5830    -1.1110    -1.0060 H     1 <1>   0.0800 
 30 H       -3.7290     5.4540     0.5590 H     1 <1>   0.1500 
 31 H       -5.9650     1.4520    -1.2210 H     1 <1>   0.1500 
 32 H       -6.0590     5.5800    -0.2210 H     1 <1>   0.1500 
 33 H       -4.4980    -0.2340    -1.5570 H     1 <1>   0.0800 
 34 H       -4.8280    -0.2510     0.1800 H     1 <1>   0.0800 
 35 H       -2.2750    -1.1970    -1.1660 H     1 <1>   0.0800 
 36 H       -3.4750    -2.2280    -0.4330 H     1 <1>   0.0800 
 37 H       -2.5320    -1.1530     0.5710 H     1 <1>   0.0800 
@<TRIPOS>BOND
  1   1   2  2   
  2   2   3  am  
  3   2   4  1   
  4   3   5  1   
  5   3  20  1   
  6   4   6  1   
  7   4  21  1   
  8   4  22  1   
  9   5   7  1   
 10   5   8  1   
 11   5  23  1   
 12   6   9  1   
 13   7  24  1   
 14   7  25  1   
 15   7  26  1   
 16   8  27  1   
 17   8  28  1   
 18   8  29  1   
 19   9  10  ar  
 20   9  11  ar  
 21  10  12  1   
 22  10  13  ar  
 23  11  14  ar  
 24  11  30  1   
 25  12  15  1   
 26  13  16  ar  
 27  13  31  1   
 28  14  16  ar  
 29  14  32  1   
 30  15  17  1   
 31  15  33  1   
 32  15  34  1   
 33  16  18  1   
 34  17  35  1   
 35  17  36  1   
 36  17  37  1   
 37  18  19  3   
@<TRIPOS>SUBSTRUCTURE
  1 ****  12 GROUP 4 **** **** 0

# MOE 2024.06 (io_trps.svl 2023.06)
