@<TRIPOS>MOLECULE
NONAME
51 52 1 0 0 
SMALL
USER_CHARGES


@<TRIPOS>ATOM
  1 O        0.5840     0.3210    -0.2170 O.2   1 <1>  -0.5700 
  2 C        0.3150     1.4830    -0.0590 C.2   1 <1>   0.6590 
  3 O       -0.8840     1.8950     0.3180 O.3   1 <1>  -0.4300 
  4 C        1.3470     2.5730    -0.2890 C.3   1 <1>  -0.0190 
  5 C       -1.9330     0.9870     0.5710 C.3   1 <1>   0.1200 
  6 C        2.5400     1.9910    -1.0730 C.3   1 <1>   0.3430 
  7 C        1.7960     3.2330     1.0300 C.3   1 <1>  -0.1600 
  8 C       -3.1600     1.7890     0.9900 C.3   1 <1>  -0.2400 
  9 N        3.8450     2.6490    -0.7280 N.4   1 <1>  -0.9590 
 10 C        2.8440     4.3350     0.7720 C.3   1 <1>  -0.1600 
 11 C        3.7070     4.1120    -0.4780 C.3   1 <1>   0.3430 
 12 C        4.9040     2.3330    -1.7240 C.3   1 <1>   0.4860 
 13 C        6.2350     2.7820    -1.1540 C.ar  1 <1>  -0.1430 
 14 C        6.7930     2.1070    -0.0790 C.ar  1 <1>  -0.1500 
 15 C        6.8960     3.8810    -1.6850 C.ar  1 <1>  -0.1500 
 16 C        7.9860     2.5380     0.4750 C.ar  1 <1>   0.0830 
 17 C        8.0900     4.3160    -1.1340 C.ar  1 <1>  -0.1500 
 18 O        8.4780     1.8720     1.5470 O.3   1 <1>  -0.3630 
 19 C        8.6440     3.6560    -0.0410 C.ar  1 <1>   0.0830 
 20 C        9.1220     0.6380     1.3150 C.3   1 <1>   0.1200 
 21 O        9.8050     4.0500     0.5520 O.3   1 <1>  -0.3630 
 22 C       10.5500     0.8850     0.8270 C.3   1 <1>  -0.2400 
 23 C       10.5410     5.1590     0.0870 C.3   1 <1>   0.0400 
 24 H        0.8780     3.3190    -0.9040 H     1 <1>   0.0800 
 25 H       -1.6240     0.3160     1.3550 H     1 <1>   0.0800 
 26 H       -2.1270     0.4270    -0.3290 H     1 <1>   0.0800 
 27 H        2.3380     2.0940    -2.1270 H     1 <1>   0.0800 
 28 H        2.6270     0.9360    -0.8630 H     1 <1>   0.0800 
 29 H        2.2190     2.4790     1.6730 H     1 <1>   0.0800 
 30 H        0.9470     3.6540     1.5450 H     1 <1>   0.0800 
 31 H       -2.9520     2.3490     1.8840 H     1 <1>   0.0800 
 32 H       -3.9780     1.1200     1.1900 H     1 <1>   0.0800 
 33 H       -3.4540     2.4600     0.2040 H     1 <1>   0.0800 
 34 H        4.1710     2.2540     0.1640 H     1 <1>   0.4500 
 35 H        3.4850     4.4220     1.6330 H     1 <1>   0.0800 
 36 H        2.3470     5.2840     0.6630 H     1 <1>   0.0800 
 37 H        3.2380     4.5790    -1.3300 H     1 <1>   0.0800 
 38 H        4.6730     4.5690    -0.3300 H     1 <1>   0.0800 
 39 H        4.7080     2.8380    -2.6560 H     1 <1>   0.0800 
 40 H        4.9380     1.2710    -1.9080 H     1 <1>   0.0800 
 41 H        6.3160     1.2460     0.3540 H     1 <1>   0.1500 
 42 H        6.4930     4.4140    -2.5300 H     1 <1>   0.1500 
 43 H        8.5750     5.1710    -1.5660 H     1 <1>   0.1500 
 44 H        8.5570     0.0720     0.5960 H     1 <1>   0.0800 
 45 H        9.1390     0.1060     2.2500 H     1 <1>   0.0800 
 46 H       10.5410     1.3740    -0.1310 H     1 <1>   0.0800 
 47 H       11.0680    -0.0510     0.7260 H     1 <1>   0.0800 
 48 H       11.0790     1.4980     1.5350 H     1 <1>   0.0800 
 49 H       11.4100     5.2660     0.7110 H     1 <1>   0.0800 
 50 H        9.9300     6.0410     0.1610 H     1 <1>   0.0800 
 51 H       10.8420     4.9780    -0.9300 H     1 <1>   0.0800 
@<TRIPOS>BOND
  1   1   2  2   
  2   2   3  1   
  3   2   4  1   
  4   3   5  1   
  5   4   6  1   
  6   4   7  1   
  7   4  24  1   
  8   5   8  1   
  9   5  25  1   
 10   5  26  1   
 11   6   9  1   
 12   6  27  1   
 13   6  28  1   
 14   7  10  1   
 15   7  29  1   
 16   7  30  1   
 17   8  31  1   
 18   8  32  1   
 19   8  33  1   
 20   9  11  1   
 21   9  12  1   
 22   9  34  1   
 23  10  11  1   
 24  10  35  1   
 25  10  36  1   
 26  11  37  1   
 27  11  38  1   
 28  12  13  1   
 29  12  39  1   
 30  12  40  1   
 31  13  14  ar  
 32  13  15  ar  
 33  14  16  ar  
 34  14  41  1   
 35  15  17  ar  
 36  15  42  1   
 37  16  18  1   
 38  16  19  ar  
 39  17  19  ar  
 40  17  43  1   
 41  18  20  1   
 42  19  21  1   
 43  20  22  1   
 44  20  44  1   
 45  20  45  1   
 46  21  23  1   
 47  22  46  1   
 48  22  47  1   
 49  22  48  1   
 50  23  49  1   
 51  23  50  1   
 52  23  51  1   
@<TRIPOS>SUBSTRUCTURE
  1 ****   9 GROUP 4 **** **** 0

# MOE 2024.06 (io_trps.svl 2023.06)
