@<TRIPOS>MOLECULE
NONAME
42 43 1 0 0 
SMALL
USER_CHARGES


@<TRIPOS>ATOM
  1 O        0.7480     2.8120    -3.1740 O.2   1 <1>  -0.5700 
  2 C        0.0850     2.2520    -2.3360 C.2   1 <1>   0.5690 
  3 N        0.6370     1.4230    -1.4120 N.am  1 <1>  -0.7300 
  4 C       -1.4170     2.4890    -2.3220 C.3   1 <1>   0.0440 
  5 C        2.0770     1.1000    -1.2800 C.3   1 <1>   0.1400 
  6 C       -2.1220     1.8010    -1.1550 C.ar  1 <1>  -0.1430 
  7 C        2.5800     1.5260     0.1010 C.3   1 <1>  -0.0220 
  8 C       -2.2320     2.4390     0.0700 C.ar  1 <1>  -0.1500 
  9 C       -2.6420     0.5250    -1.3040 C.ar  1 <1>  -0.1500 
 10 C        4.0500     1.1970     0.3610 C.2   1 <1>  -0.2760 
 11 C       -2.8540     1.8080     1.1330 C.ar  1 <1>  -0.1500 
 12 C       -3.2630    -0.1050    -0.2400 C.ar  1 <1>  -0.1500 
 13 C        4.8760     0.5860    -0.4990 C.2   1 <1>  -0.2880 
 14 C        4.5120     1.6530     1.7430 C.3   1 <1>  -0.0220 
 15 C       -3.3730     0.5330     0.9840 C.ar  1 <1>  -0.1440 
 16 C        6.3440     0.2970    -0.2260 C.3   1 <1>  -0.0220 
 17 C        5.8560     1.0270     2.1420 C.3   1 <1>  -0.1600 
 18 C       -4.0550    -0.1600     2.1500 C.3   1 <1>  -0.0970 
 19 C        6.8590     1.0870     0.9840 C.3   1 <1>  -0.1600 
 20 H        0.0070     0.9850    -0.7310 H     1 <1>   0.3700 
 21 H       -1.8210     2.1370    -3.2520 H     1 <1>   0.0800 
 22 H       -1.5900     3.5480    -2.2750 H     1 <1>   0.0800 
 23 H        2.6390     1.6120    -2.0430 H     1 <1>   0.0800 
 24 H        2.2110     0.0400    -1.4080 H     1 <1>   0.0800 
 25 H        1.9810     1.0380     0.8490 H     1 <1>   0.0800 
 26 H        2.4440     2.5890     0.1960 H     1 <1>   0.0800 
 27 H       -1.8320     3.4290     0.2040 H     1 <1>   0.1500 
 28 H       -2.5650     0.0120    -2.2480 H     1 <1>   0.1500 
 29 H       -2.9310     2.3160     2.0790 H     1 <1>   0.1500 
 30 H       -3.6620    -1.0960    -0.3690 H     1 <1>   0.1500 
 31 H        4.5790     0.2390    -1.4730 H     1 <1>   0.1500 
 32 H        3.7790     1.3870     2.4840 H     1 <1>   0.0800 
 33 H        4.6040     2.7260     1.7370 H     1 <1>   0.0800 
 34 H        6.9300     0.5600    -1.0900 H     1 <1>   0.0800 
 35 H        6.4620    -0.7570    -0.0500 H     1 <1>   0.0800 
 36 H        5.6960    -0.0030     2.4140 H     1 <1>   0.0800 
 37 H        6.2520     1.5400     3.0000 H     1 <1>   0.0800 
 38 H       -4.4910     0.5640     2.8160 H     1 <1>   0.0800 
 39 H       -3.3380    -0.7460     2.6950 H     1 <1>   0.0800 
 40 H       -4.8380    -0.8070     1.7960 H     1 <1>   0.0800 
 41 H        7.0020     2.1150     0.6980 H     1 <1>   0.0800 
 42 H        7.8090     0.6920     1.2960 H     1 <1>   0.0800 
@<TRIPOS>BOND
  1   1   2  2   
  2   2   3  am  
  3   2   4  1   
  4   3   5  1   
  5   3  20  1   
  6   4   6  1   
  7   4  21  1   
  8   4  22  1   
  9   5   7  1   
 10   5  23  1   
 11   5  24  1   
 12   6   8  ar  
 13   6   9  ar  
 14   7  10  1   
 15   7  25  1   
 16   7  26  1   
 17   8  11  ar  
 18   8  27  1   
 19   9  12  ar  
 20   9  28  1   
 21  10  13  2   
 22  10  14  1   
 23  11  15  ar  
 24  11  29  1   
 25  12  15  ar  
 26  12  30  1   
 27  13  16  1   
 28  13  31  1   
 29  14  17  1   
 30  14  32  1   
 31  14  33  1   
 32  15  18  1   
 33  16  19  1   
 34  16  34  1   
 35  16  35  1   
 36  17  19  1   
 37  17  36  1   
 38  17  37  1   
 39  18  38  1   
 40  18  39  1   
 41  18  40  1   
 42  19  41  1   
 43  19  42  1   
@<TRIPOS>SUBSTRUCTURE
  1 ****   3 GROUP 4 **** **** 0

# MOE 2024.06 (io_trps.svl 2023.06)
