@<TRIPOS>MOLECULE
NONAME
47 50 1 0 0 
SMALL
USER_CHARGES


@<TRIPOS>ATOM
  1 O        0.7080     1.3740     1.7200 O.2   1 <1>  -0.5700 
  2 C        1.4400     1.4080     0.7450 C.2   1 <1>   0.5440 
  3 N        1.9880     0.2260     0.2970 N.am  1 <1>  -0.6600 
  4 C        1.6720     2.6630     0.0610 C.ar  1 <1>   0.0860 
  5 C        1.9780    -1.0230     1.1170 C.3   1 <1>   0.1400 
  6 C        2.3640    -0.0200    -1.1280 C.3   1 <1>   0.1400 
  7 C        0.5990     3.4910    -0.3120 C.ar  1 <1>   0.1170 
  8 C        2.9690     3.0690    -0.2570 C.ar  1 <1>  -0.1500 
  9 C        1.1630    -2.1200     0.4140 C.3   1 <1>   0.1200 
 10 C        1.5270    -1.1730    -1.7090 C.3   1 <1>   0.1200 
 11 N       -0.7060     3.1180     0.0340 N.am  1 <1>  -0.5470 
 12 C        0.8590     4.6740    -0.9990 C.ar  1 <1>  -0.1500 
 13 C        3.2110     4.2450    -0.9380 C.ar  1 <1>  -0.1500 
 14 O        1.6130    -2.3110    -0.8980 O.3   1 <1>  -0.5600 
 15 C       -1.9180     3.2980    -0.5920 C.2   1 <1>   0.7160 
 16 C        2.1490     5.0490    -1.3130 C.ar  1 <1>  -0.1500 
 17 O       -1.9720     3.9370    -1.6270 O.2   1 <1>  -0.5700 
 18 C       -3.0910     2.6720    -0.0160 C.2   1 <1>   0.2030 
 19 N       -4.1850     3.2680     0.3630 N.2   1 <1>  -0.4100 
 20 C       -3.2260     1.3140     0.2530 C.2   1 <1>  -0.1810 
 21 O       -5.0320     2.4000     0.8660 O.3   1 <1>  -0.0190 
 22 C       -4.4420     1.2290     0.7870 C.2   1 <1>  -0.0400 
 23 C       -2.3120     0.1230     0.0210 C.3   1 <1>   0.0210 
 24 C       -5.1160    -0.0410     1.2620 C.3   1 <1>   0.0200 
 25 C       -2.8120    -1.0860     0.8360 C.3   1 <1>  -0.1600 
 26 C       -4.3420    -1.2680     0.7380 C.3   1 <1>  -0.1600 
 27 H        1.5650    -0.8370     2.0930 H     1 <1>   0.0800 
 28 H        2.9890    -1.3660     1.2490 H     1 <1>   0.0800 
 29 H        3.4070    -0.2780    -1.1820 H     1 <1>   0.0800 
 30 H        2.2050     0.8600    -1.7260 H     1 <1>   0.0800 
 31 H        3.7970     2.4470     0.0400 H     1 <1>   0.1500 
 32 H        0.1220    -1.8550     0.3870 H     1 <1>   0.0800 
 33 H        1.2690    -3.0530     0.9370 H     1 <1>   0.0800 
 34 H        1.8890    -1.4390    -2.6860 H     1 <1>   0.0800 
 35 H        0.4930    -0.8860    -1.7900 H     1 <1>   0.0800 
 36 H       -0.7510     2.5240     0.8720 H     1 <1>   0.3700 
 37 H        0.0430     5.3140    -1.2860 H     1 <1>   0.1500 
 38 H        4.2190     4.5400    -1.1760 H     1 <1>   0.1500 
 39 H        2.3290     5.9670    -1.8460 H     1 <1>   0.1500 
 40 H       -1.3040     0.3550     0.3110 H     1 <1>   0.0800 
 41 H       -2.3170    -0.1170    -1.0270 H     1 <1>   0.0800 
 42 H       -6.1310    -0.0710     0.9090 H     1 <1>   0.0800 
 43 H       -5.1280    -0.0410     2.3370 H     1 <1>   0.0800 
 44 H       -2.5450    -0.9420     1.8700 H     1 <1>   0.0800 
 45 H       -2.3180    -1.9780     0.4910 H     1 <1>   0.0800 
 46 H       -4.6040    -1.4270    -0.2940 H     1 <1>   0.0800 
 47 H       -4.6440    -2.1420     1.2900 H     1 <1>   0.0800 
@<TRIPOS>BOND
  1   1   2  2   
  2   2   3  am  
  3   2   4  1   
  4   3   5  1   
  5   3   6  1   
  6   4   7  ar  
  7   4   8  ar  
  8   5   9  1   
  9   5  27  1   
 10   5  28  1   
 11   6  10  1   
 12   6  29  1   
 13   6  30  1   
 14   7  11  1   
 15   7  12  ar  
 16   8  13  ar  
 17   8  31  1   
 18   9  14  1   
 19   9  32  1   
 20   9  33  1   
 21  10  14  1   
 22  10  34  1   
 23  10  35  1   
 24  11  15  am  
 25  11  36  1   
 26  12  16  ar  
 27  12  37  1   
 28  13  16  ar  
 29  13  38  1   
 30  15  17  2   
 31  15  18  1   
 32  16  39  1   
 33  18  19  2   
 34  18  20  1   
 35  19  21  1   
 36  20  22  2   
 37  20  23  1   
 38  21  22  1   
 39  22  24  1   
 40  23  25  1   
 41  23  40  1   
 42  23  41  1   
 43  24  26  1   
 44  24  42  1   
 45  24  43  1   
 46  25  26  1   
 47  25  44  1   
 48  25  45  1   
 49  26  46  1   
 50  26  47  1   
@<TRIPOS>SUBSTRUCTURE
  1 ****  11 GROUP 4 **** **** 0

# MOE 2024.06 (io_trps.svl 2023.06)
