@<TRIPOS>MOLECULE
NONAME
35 36 1 0 0 
SMALL
USER_CHARGES


@<TRIPOS>ATOM
  1 CL       0.6000    -0.3340     1.2970 Cl    1 <1>  -0.1770 
  2 C        0.6190    -1.9860     0.7110 C.ar  1 <1>   0.1770 
  3 C        1.8220    -2.6780     0.5470 C.ar  1 <1>   0.1170 
  4 C       -0.5990    -2.5840     0.4490 C.ar  1 <1>  -0.1500 
  5 N        3.0830    -2.1190     0.7770 N.am  1 <1>  -0.5470 
  6 C        1.7700    -4.0060     0.1350 C.ar  1 <1>  -0.1500 
  7 C       -0.6150    -3.9000     0.0290 C.ar  1 <1>   0.1770 
  8 C        3.6920    -1.1190     0.0880 C.2   1 <1>   0.5690 
  9 C        0.5570    -4.6190    -0.1270 C.ar  1 <1>  -0.1500 
 10 CL      -2.1450    -4.6720    -0.3060 Cl    1 <1>  -0.1770 
 11 O        3.1140    -0.4130    -0.7050 O.2   1 <1>  -0.5700 
 12 C        5.1800    -0.9140     0.3140 C.3   1 <1>  -0.0990 
 13 C        6.0520    -1.9930    -0.3850 C.3   1 <1>  -0.1860 
 14 C        5.8610    -3.4010     0.1500 C.2   1 <1>   0.9060 
 15 C        7.5530    -1.6680    -0.3810 C.3   1 <1>   0.2000 
 16 O        5.2860    -3.5930     1.2310 O.co2 1 <1>  -0.9000 
 17 O        6.2220    -4.3410    -0.5620 O.co2 1 <1>  -0.9000 
 18 O        7.9450    -1.0640     0.8100 O.3   1 <1>  -0.5600 
 19 C        7.9810    -0.6680    -1.4510 C.3   1 <1>  -0.1600 
 20 C        9.1650    -0.4350     0.6270 C.3   1 <1>   0.1200 
 21 C        9.1650     0.0510    -0.8190 C.3   1 <1>  -0.1600 
 22 H       -1.5140    -2.0370     0.5740 H     1 <1>   0.1500 
 23 H        3.7790    -2.7610     1.2120 H     1 <1>   0.3700 
 24 H        2.6960    -4.5500     0.0190 H     1 <1>   0.1500 
 25 H        0.5220    -5.6440    -0.4500 H     1 <1>   0.1500 
 26 H        5.3740    -0.9240     1.3710 H     1 <1>   0.0800 
 27 H        5.4420     0.0600    -0.0530 H     1 <1>   0.0800 
 28 H        5.7430    -2.0490    -1.4110 H     1 <1>   0.0800 
 29 H        8.1300    -2.5740    -0.4900 H     1 <1>   0.0800 
 30 H        7.1860     0.0280    -1.6520 H     1 <1>   0.0800 
 31 H        8.2420    -1.1740    -2.3630 H     1 <1>   0.0800 
 32 H        9.9400    -1.1630     0.7960 H     1 <1>   0.0800 
 33 H        9.2500     0.3710     1.3360 H     1 <1>   0.0800 
 34 H        9.0330     1.1170    -0.8580 H     1 <1>   0.0800 
 35 H       10.0920    -0.2110    -1.2980 H     1 <1>   0.0800 
@<TRIPOS>BOND
  1   1   2  1   
  2   2   3  ar  
  3   2   4  ar  
  4   3   5  1   
  5   3   6  ar  
  6   4   7  ar  
  7   4  22  1   
  8   5   8  am  
  9   5  23  1   
 10   6   9  ar  
 11   6  24  1   
 12   7   9  ar  
 13   7  10  1   
 14   8  11  2   
 15   8  12  1   
 16   9  25  1   
 17  12  13  1   
 18  12  26  1   
 19  12  27  1   
 20  13  14  1   
 21  13  15  1   
 22  13  28  1   
 23  14  16  ar  
 24  14  17  ar  
 25  15  18  1   
 26  15  19  1   
 27  15  29  1   
 28  18  20  1   
 29  19  21  1   
 30  19  30  1   
 31  19  31  1   
 32  20  21  1   
 33  20  32  1   
 34  20  33  1   
 35  21  34  1   
 36  21  35  1   
@<TRIPOS>SUBSTRUCTURE
  1 ****   5 GROUP 4 **** **** 0

# MOE 2024.06 (io_trps.svl 2023.06)
