@<TRIPOS>MOLECULE
NONAME
37 37 1 0 0 
SMALL
USER_CHARGES


@<TRIPOS>ATOM
  1 O       -0.6030    -0.2490     0.2930 O.2   1 <1>  -0.5700 
  2 C       -1.5720    -0.9740     0.4020 C.2   1 <1>   0.5440 
  3 N       -2.7780    -0.3500     0.4870 N.am  1 <1>  -0.7300 
  4 C       -1.4160    -2.4170     0.4300 C.ar  1 <1>   0.0860 
  5 C       -4.1170    -0.9200     0.2150 C.3   1 <1>   0.1400 
  6 C       -2.1670    -3.2310     1.2790 C.ar  1 <1>  -0.1500 
  7 C       -0.4840    -3.0470    -0.3970 C.ar  1 <1>  -0.1500 
  8 C       -4.8920     0.0400    -0.6700 C.3   1 <1>  -0.2660 
  9 C       -2.0080    -4.6040     1.2890 C.ar  1 <1>  -0.1500 
 10 C       -0.3160    -4.4190    -0.3940 C.ar  1 <1>  -0.1500 
 11 C       -6.2690    -0.5190    -0.8740 C.2   1 <1>   0.9060 
 12 C       -1.0860    -5.2110     0.4530 C.ar  1 <1>   0.0820 
 13 O       -6.4000    -1.4920    -1.6200 O.co2 1 <1>  -0.9000 
 14 O       -7.2070    -0.0090    -0.2580 O.co2 1 <1>  -0.9000 
 15 O       -0.9950    -6.5580     0.5160 O.3   1 <1>  -0.3630 
 16 C       -0.1480    -7.2870    -0.3470 C.3   1 <1>   0.1200 
 17 C       -0.3320    -8.7910    -0.0930 C.3   1 <1>  -0.0800 
 18 C        0.6400    -9.5970    -0.9630 C.3   1 <1>  -0.2400 
 19 C       -1.7740    -9.2420    -0.3730 C.3   1 <1>  -0.2400 
 20 H       -2.7410     0.6700     0.4530 H     1 <1>   0.3700 
 21 H       -4.6460    -1.0590     1.1430 H     1 <1>   0.0800 
 22 H       -4.0320    -1.8740    -0.2810 H     1 <1>   0.0800 
 23 H       -2.8840    -2.7770     1.9400 H     1 <1>   0.1500 
 24 H        0.1150    -2.4350    -1.0510 H     1 <1>   0.1500 
 25 H       -4.4230     0.1340    -1.6300 H     1 <1>   0.0800 
 26 H       -4.9830     1.0020    -0.2060 H     1 <1>   0.0800 
 27 H       -2.6000    -5.2170     1.9440 H     1 <1>   0.1500 
 28 H        0.4140    -4.8510    -1.0510 H     1 <1>   0.1500 
 29 H        0.8670    -6.9920    -0.1450 H     1 <1>   0.0800 
 30 H       -0.4090    -7.0430    -1.3620 H     1 <1>   0.0800 
 31 H       -0.0990    -8.9860     0.9410 H     1 <1>   0.0800 
 32 H        0.4430    -9.4310    -2.0080 H     1 <1>   0.0800 
 33 H        0.5370   -10.6490    -0.7580 H     1 <1>   0.0800 
 34 H        1.6560    -9.3120    -0.7530 H     1 <1>   0.0800 
 35 H       -2.0420    -9.0440    -1.3950 H     1 <1>   0.0800 
 36 H       -2.4610    -8.7170     0.2670 H     1 <1>   0.0800 
 37 H       -1.8800   -10.2960    -0.1850 H     1 <1>   0.0800 
@<TRIPOS>BOND
  1   1   2  2   
  2   2   3  am  
  3   2   4  1   
  4   3   5  1   
  5   3  20  1   
  6   4   6  ar  
  7   4   7  ar  
  8   5   8  1   
  9   5  21  1   
 10   5  22  1   
 11   6   9  ar  
 12   6  23  1   
 13   7  10  ar  
 14   7  24  1   
 15   8  11  1   
 16   8  25  1   
 17   8  26  1   
 18   9  12  ar  
 19   9  27  1   
 20  10  12  ar  
 21  10  28  1   
 22  11  13  ar  
 23  11  14  ar  
 24  12  15  1   
 25  15  16  1   
 26  16  17  1   
 27  16  29  1   
 28  16  30  1   
 29  17  18  1   
 30  17  19  1   
 31  17  31  1   
 32  18  32  1   
 33  18  33  1   
 34  18  34  1   
 35  19  35  1   
 36  19  36  1   
 37  19  37  1   
@<TRIPOS>SUBSTRUCTURE
  1 ****   6 GROUP 4 **** **** 0

# MOE 2024.06 (io_trps.svl 2023.06)
