@<TRIPOS>MOLECULE
NONAME
54 56 1 0 0 
SMALL
USER_CHARGES


@<TRIPOS>ATOM
  1 O       -0.9170    -0.8620    -2.7670 O.2   1 <1>  -0.5700 
  2 C       -1.2290    -1.6290    -1.8900 C.2   1 <1>   0.6900 
  3 N       -0.7400    -2.8930    -1.9030 N.am  1 <1>  -0.5390 
  4 N       -2.0590    -1.2650    -0.9030 N.am  1 <1>  -0.7300 
  5 C       -1.0530    -3.8540    -0.9510 C.2   1 <1>  -0.0290 
  6 C       -2.6740    -2.2160     0.0400 C.3   1 <1>   0.5020 
  7 C       -1.9550    -3.5740     0.0350 C.2   1 <1>  -0.1240 
  8 C       -0.3110    -5.1850    -1.1090 C.3   1 <1>   0.4810 
  9 C       -4.1500    -2.3460    -0.3420 C.ar  1 <1>  -0.1440 
 10 C       -2.3190    -4.4300     1.1240 C.2   1 <1>   0.7060 
 11 N        1.0980    -5.0170    -0.6570 N.4   1 <1>  -0.9590 
 12 C       -5.1720    -1.8010     0.4340 C.ar  1 <1>  -0.1430 
 13 C       -4.4820    -3.0280    -1.5070 C.ar  1 <1>  -0.1500 
 14 O       -1.7910    -5.5120     1.3010 O.2   1 <1>  -0.5700 
 15 O       -3.2270    -4.0170     2.0110 O.3   1 <1>  -0.4300 
 16 C        1.9720    -6.0970    -1.1950 C.3   1 <1>   0.3430 
 17 C        1.1660    -4.9490     0.8330 C.3   1 <1>   0.3430 
 18 C       -6.4920    -1.9680     0.0410 C.ar  1 <1>  -0.1500 
 19 C       -4.9040    -1.0110     1.7100 C.3   1 <1>  -0.0970 
 20 C       -5.8010    -3.1860    -1.8890 C.ar  1 <1>  -0.1500 
 21 C       -3.6720    -4.8350     3.0770 C.3   1 <1>   0.0400 
 22 C        3.4260    -5.8260    -0.8040 C.3   1 <1>  -0.1600 
 23 C        2.6010    -4.6580     1.2730 C.3   1 <1>  -0.1600 
 24 C       -6.8150    -2.6600    -1.1120 C.ar  1 <1>  -0.1430 
 25 C        3.5880    -5.6920     0.7160 C.3   1 <1>  -0.1600 
 26 C       -8.2670    -2.8290    -1.5220 C.3   1 <1>  -0.0970 
 27 H       -0.1710    -3.0610    -2.7350 H     1 <1>   0.3700 
 28 H       -2.5830    -0.4040    -1.0560 H     1 <1>   0.3700 
 29 H       -2.5750    -1.7910     1.0230 H     1 <1>   0.0800 
 30 H       -0.3330    -5.4650    -2.1490 H     1 <1>   0.0800 
 31 H       -0.7880    -5.9730    -0.5520 H     1 <1>   0.0800 
 32 H        1.4320    -4.1140    -1.0150 H     1 <1>   0.4500 
 33 H       -3.7150    -3.4400    -2.1380 H     1 <1>   0.1500 
 34 H        1.8930    -6.1410    -2.2700 H     1 <1>   0.0800 
 35 H        1.6650    -7.0500    -0.7920 H     1 <1>   0.0800 
 36 H        0.8380    -5.8860     1.2580 H     1 <1>   0.0800 
 37 H        0.5160    -4.1710     1.2000 H     1 <1>   0.0800 
 38 H       -7.2860    -1.5540     0.6370 H     1 <1>   0.1500 
 39 H       -4.4770    -1.6500     2.4610 H     1 <1>   0.0800 
 40 H       -5.8140    -0.5970     2.1050 H     1 <1>   0.0800 
 41 H       -4.2320    -0.1960     1.5100 H     1 <1>   0.0800 
 42 H       -6.0350    -3.7170    -2.7950 H     1 <1>   0.1500 
 43 H       -4.4180    -4.2950     3.6330 H     1 <1>   0.0800 
 44 H       -2.8360    -5.0710     3.7130 H     1 <1>   0.0800 
 45 H       -4.0990    -5.7360     2.6720 H     1 <1>   0.0800 
 46 H        3.7660    -4.9280    -1.2900 H     1 <1>   0.0800 
 47 H        4.0420    -6.6350    -1.1560 H     1 <1>   0.0800 
 48 H        2.6470    -4.6660     2.3480 H     1 <1>   0.0800 
 49 H        2.8810    -3.6700     0.9480 H     1 <1>   0.0800 
 50 H        4.5980    -5.4000     0.9530 H     1 <1>   0.0800 
 51 H        3.4070    -6.6470     1.1820 H     1 <1>   0.0800 
 52 H       -8.5910    -1.9660    -2.0750 H     1 <1>   0.0800 
 53 H       -8.8900    -2.9400    -0.6530 H     1 <1>   0.0800 
 54 H       -8.3870    -3.7020    -2.1390 H     1 <1>   0.0800 
@<TRIPOS>BOND
  1   1   2  2   
  2   2   3  am  
  3   2   4  am  
  4   3   5  1   
  5   3  27  1   
  6   4   6  1   
  7   4  28  1   
  8   5   7  2   
  9   5   8  1   
 10   6   7  1   
 11   6   9  1   
 12   6  29  1   
 13   7  10  1   
 14   8  11  1   
 15   8  30  1   
 16   8  31  1   
 17   9  12  ar  
 18   9  13  ar  
 19  10  14  2   
 20  10  15  1   
 21  11  16  1   
 22  11  17  1   
 23  11  32  1   
 24  12  18  ar  
 25  12  19  1   
 26  13  20  ar  
 27  13  33  1   
 28  15  21  1   
 29  16  22  1   
 30  16  34  1   
 31  16  35  1   
 32  17  23  1   
 33  17  36  1   
 34  17  37  1   
 35  18  24  ar  
 36  18  38  1   
 37  19  39  1   
 38  19  40  1   
 39  19  41  1   
 40  20  24  ar  
 41  20  42  1   
 42  21  43  1   
 43  21  44  1   
 44  21  45  1   
 45  22  25  1   
 46  22  46  1   
 47  22  47  1   
 48  23  25  1   
 49  23  48  1   
 50  23  49  1   
 51  24  26  1   
 52  25  50  1   
 53  25  51  1   
 54  26  52  1   
 55  26  53  1   
 56  26  54  1   
@<TRIPOS>SUBSTRUCTURE
  1 ****   7 GROUP 4 **** **** 0

# MOE 2024.06 (io_trps.svl 2023.06)
