@<TRIPOS>MOLECULE
NONAME
30 30 1 0 0 
SMALL
USER_CHARGES


@<TRIPOS>ATOM
  1 CL       0.9520    -0.2520    -2.0160 Cl    1 <1>  -0.1770 
  2 C        0.4020    -1.6190    -1.0580 C.ar  1 <1>   0.1770 
  3 C       -0.9530    -1.8430    -0.8870 C.ar  1 <1>   0.1770 
  4 C        1.3500    -2.4650    -0.4840 C.ar  1 <1>   0.1170 
  5 CL      -2.1330    -0.7730    -1.6080 Cl    1 <1>  -0.1770 
  6 C       -1.4020    -2.9190    -0.1440 C.ar  1 <1>  -0.1500 
  7 N        2.7200    -2.2070    -0.6820 N.am  1 <1>  -0.5470 
  8 C        0.8820    -3.5510     0.2550 C.ar  1 <1>  -0.1500 
  9 C       -0.4750    -3.7760     0.4270 C.ar  1 <1>  -0.1500 
 10 C        3.8210    -2.5790     0.0300 C.2   1 <1>   0.6900 
 11 O        3.7230    -3.1830     1.0790 O.2   1 <1>  -0.5700 
 12 N        5.0280    -2.2300    -0.4840 N.am  1 <1>  -0.7300 
 13 C        6.3650    -2.4600     0.0720 C.3   1 <1>   0.3000 
 14 C        6.4930    -1.7700     1.4310 C.3   1 <1>  -0.2400 
 15 C        6.6330    -3.9620     0.1780 C.3   1 <1>  -0.2400 
 16 C        7.3530    -1.8350    -0.9110 C.3   1 <1>  -0.2400 
 17 H       -2.4580    -3.0820    -0.0180 H     1 <1>   0.1500 
 18 H        2.9140    -1.4920    -1.3790 H     1 <1>   0.3700 
 19 H        1.5810    -4.2340     0.7040 H     1 <1>   0.1500 
 20 H       -0.8070    -4.6210     1.0070 H     1 <1>   0.1500 
 21 H        5.0530    -1.8540    -1.4250 H     1 <1>   0.3700 
 22 H        5.8360    -2.2220     2.1510 H     1 <1>   0.0800 
 23 H        6.2530    -0.7260     1.3470 H     1 <1>   0.0800 
 24 H        7.4980    -1.8620     1.8000 H     1 <1>   0.0800 
 25 H        6.4970    -4.4390    -0.7750 H     1 <1>   0.0800 
 26 H        5.9710    -4.4160     0.8930 H     1 <1>   0.0800 
 27 H        7.6410    -4.1360     0.5070 H     1 <1>   0.0800 
 28 H        7.1720    -0.7790    -1.0100 H     1 <1>   0.0800 
 29 H        7.2770    -2.3020    -1.8760 H     1 <1>   0.0800 
 30 H        8.3590    -1.9670    -0.5550 H     1 <1>   0.0800 
@<TRIPOS>BOND
  1   1   2  1   
  2   2   3  ar  
  3   2   4  ar  
  4   3   5  1   
  5   3   6  ar  
  6   4   7  1   
  7   4   8  ar  
  8   6   9  ar  
  9   6  17  1   
 10   7  10  am  
 11   7  18  1   
 12   8   9  ar  
 13   8  19  1   
 14   9  20  1   
 15  10  11  2   
 16  10  12  am  
 17  12  13  1   
 18  12  21  1   
 19  13  14  1   
 20  13  15  1   
 21  13  16  1   
 22  14  22  1   
 23  14  23  1   
 24  14  24  1   
 25  15  25  1   
 26  15  26  1   
 27  15  27  1   
 28  16  28  1   
 29  16  29  1   
 30  16  30  1   
@<TRIPOS>SUBSTRUCTURE
  1 ****   7 GROUP 4 **** **** 0

# MOE 2024.06 (io_trps.svl 2023.06)
