@<TRIPOS>MOLECULE
NONAME
45 46 1 0 0 
SMALL
USER_CHARGES


@<TRIPOS>ATOM
  1 O        0.9790     0.2570     2.1990 O.2   1 <1>  -0.5700 
  2 C        1.3760     0.7980     1.2020 C.2   1 <1>   0.5690 
  3 N        1.8910     0.0930     0.1440 N.am  1 <1>  -0.5470 
  4 C        1.3270     2.3100     1.1020 C.3   1 <1>  -0.0990 
  5 C        2.0180    -1.2780     0.0340 C.ar  1 <1>   0.1170 
  6 C        0.2540     2.7920     0.1120 C.3   1 <1>  -0.1600 
  7 C        0.8940    -2.1620     0.1780 C.ar  1 <1>   0.0000 
  8 C        3.2560    -1.8180    -0.2060 C.ar  1 <1>  -0.1500 
  9 C        0.2150     4.3240     0.0350 C.3   1 <1>  -0.1600 
 10 C        1.1360    -3.5470     0.1480 C.ar  1 <1>   0.3610 
 11 C       -0.4390    -1.7430     0.3260 C.ar  1 <1>  -0.1500 
 12 C        3.4850    -3.2010    -0.2490 C.ar  1 <1>   0.4610 
 13 C       -0.8590     4.7990    -0.9500 C.3   1 <1>  -0.1600 
 14 N        2.4260    -3.9960    -0.0520 N.ar  1 <1>  -0.1790 
 15 C        0.0820    -4.4550     0.2990 C.ar  1 <1>  -0.1500 
 16 C       -1.4670    -2.6440     0.4650 C.ar  1 <1>  -0.1500 
 17 N        4.7040    -3.7670    -0.4610 N.pl3 1 <1>  -0.8380 
 18 C       -0.8990     6.3280    -1.0250 C.3   1 <1>  -0.2400 
 19 C       -1.2080    -4.0100     0.4560 C.ar  1 <1>  -0.1500 
 20 C        4.9590    -5.2000    -0.8230 C.3   1 <1>   0.1290 
 21 C        5.9820    -2.9850    -0.3860 C.3   1 <1>   0.1290 
 22 H        2.3460     0.6720    -0.5640 H     1 <1>   0.3700 
 23 H        2.2940     2.6740     0.8070 H     1 <1>   0.0800 
 24 H        1.1130     2.7070     2.0790 H     1 <1>   0.0800 
 25 H       -0.7080     2.4270     0.4320 H     1 <1>   0.0800 
 26 H        0.4530     2.3920    -0.8670 H     1 <1>   0.0800 
 27 H        4.0870    -1.1560    -0.3530 H     1 <1>   0.1500 
 28 H        1.1750     4.6960    -0.2790 H     1 <1>   0.0800 
 29 H        0.0040     4.7270     1.0120 H     1 <1>   0.0800 
 30 H       -0.6700    -0.6920     0.3380 H     1 <1>   0.1500 
 31 H       -1.8240     4.4370    -0.6370 H     1 <1>   0.0800 
 32 H       -0.6560     4.4030    -1.9300 H     1 <1>   0.0800 
 33 H        2.6090    -4.9920    -0.0210 H     1 <1>   0.4570 
 34 H        0.2710    -5.5130     0.2890 H     1 <1>   0.1500 
 35 H       -2.4810    -2.2970     0.5860 H     1 <1>   0.1500 
 36 H       -1.1250     6.7460    -0.0590 H     1 <1>   0.0800 
 37 H       -1.6580     6.6420    -1.7190 H     1 <1>   0.0800 
 38 H        0.0490     6.7140    -1.3570 H     1 <1>   0.0800 
 39 H       -2.0260    -4.7030     0.5720 H     1 <1>   0.1500 
 40 H        4.0730    -5.6810    -1.1980 H     1 <1>   0.0800 
 41 H        5.3210    -5.7380     0.0380 H     1 <1>   0.0800 
 42 H        5.7080    -5.2530    -1.5960 H     1 <1>   0.0800 
 43 H        5.8980    -2.1730     0.3150 H     1 <1>   0.0800 
 44 H        6.2310    -2.5930    -1.3580 H     1 <1>   0.0800 
 45 H        6.7880    -3.6170    -0.0530 H     1 <1>   0.0800 
@<TRIPOS>BOND
  1   1   2  2   
  2   2   3  am  
  3   2   4  1   
  4   3   5  1   
  5   3  22  1   
  6   4   6  1   
  7   4  23  1   
  8   4  24  1   
  9   5   7  ar  
 10   5   8  ar  
 11   6   9  1   
 12   6  25  1   
 13   6  26  1   
 14   7  10  ar  
 15   7  11  ar  
 16   8  12  ar  
 17   8  27  1   
 18   9  13  1   
 19   9  28  1   
 20   9  29  1   
 21  10  14  ar  
 22  10  15  ar  
 23  11  16  ar  
 24  11  30  1   
 25  12  14  ar  
 26  12  17  1   
 27  13  18  1   
 28  13  31  1   
 29  13  32  1   
 30  14  33  1   
 31  15  19  ar  
 32  15  34  1   
 33  16  19  ar  
 34  16  35  1   
 35  17  20  1   
 36  17  21  1   
 37  18  36  1   
 38  18  37  1   
 39  18  38  1   
 40  19  39  1   
 41  20  40  1   
 42  20  41  1   
 43  20  42  1   
 44  21  43  1   
 45  21  44  1   
 46  21  45  1   
@<TRIPOS>SUBSTRUCTURE
  1 ****   5 GROUP 4 **** **** 0

# MOE 2024.06 (io_trps.svl 2023.06)
