@<TRIPOS>MOLECULE
NONAME
48 49 1 0 0 
SMALL
USER_CHARGES


@<TRIPOS>ATOM
  1 O        9.3580    -3.8400     1.9930 O.2   1 <1>  -0.5700 
  2 C        9.3320    -3.2450     0.9470 C.2   1 <1>   0.6590 
  3 O       10.4160    -3.0520     0.2110 O.3   1 <1>  -0.4300 
  4 C        8.0380    -2.6770     0.3680 C.3   1 <1>  -0.0190 
  5 C       11.6750    -3.5340     0.6200 C.3   1 <1>   0.1200 
  6 C        6.9550    -2.4570     1.4450 C.3   1 <1>  -0.1600 
  7 C        7.4930    -3.5920    -0.7440 C.3   1 <1>  -0.1600 
  8 C       12.6970    -3.1510    -0.4460 C.3   1 <1>  -0.2400 
  9 C        5.6430    -1.9600     0.8460 C.3   1 <1>   0.3430 
 10 C        6.1690    -3.0810    -1.3100 C.3   1 <1>   0.3430 
 11 N        5.1880    -2.9120    -0.2050 N.4   1 <1>  -0.9590 
 12 C        3.8050    -2.6170    -0.6950 C.3   1 <1>   0.3430 
 13 C        2.7580    -3.1510     0.3080 C.3   1 <1>   0.2000 
 14 O        3.2340    -4.3410     0.8640 O.3   1 <1>  -0.6800 
 15 C        1.3940    -3.4140    -0.3410 C.3   1 <1>   0.1200 
 16 O        0.5650    -4.0480     0.6100 O.3   1 <1>  -0.3630 
 17 C       -0.7150    -4.3880     0.3150 C.ar  1 <1>   0.0820 
 18 C       -1.4600    -4.9550     1.3370 C.ar  1 <1>  -0.1500 
 19 C       -1.3000    -4.1980    -0.9350 C.ar  1 <1>  -0.1500 
 20 C       -2.7740    -5.3310     1.1220 C.ar  1 <1>  -0.1500 
 21 C       -2.6150    -4.5740    -1.1470 C.ar  1 <1>  -0.1500 
 22 C       -3.3520    -5.1400    -0.1210 C.ar  1 <1>  -0.1500 
 23 H        8.2820    -1.7220    -0.0630 H     1 <1>   0.0800 
 24 H       11.6130    -4.6040     0.7310 H     1 <1>   0.0800 
 25 H       11.9210    -3.0870     1.5690 H     1 <1>   0.0800 
 26 H        7.3090    -1.7400     2.1650 H     1 <1>   0.0800 
 27 H        6.7690    -3.3760     1.9770 H     1 <1>   0.0800 
 28 H        7.3540    -4.5890    -0.3620 H     1 <1>   0.0800 
 29 H        8.2130    -3.6530    -1.5420 H     1 <1>   0.0800 
 30 H       12.4370    -3.5980    -1.3890 H     1 <1>   0.0800 
 31 H       13.6700    -3.5070    -0.1570 H     1 <1>   0.0800 
 32 H       12.7430    -2.0820    -0.5510 H     1 <1>   0.0800 
 33 H        5.7870    -0.9810     0.4170 H     1 <1>   0.0800 
 34 H        4.9010    -1.8880     1.6260 H     1 <1>   0.0800 
 35 H        5.7930    -3.7880    -2.0330 H     1 <1>   0.0800 
 36 H        6.3280    -2.1370    -1.8070 H     1 <1>   0.0800 
 37 H        5.0680    -3.8300     0.2700 H     1 <1>   0.4500 
 38 H        3.6480    -3.1200    -1.6350 H     1 <1>   0.0800 
 39 H        3.6690    -1.5610    -0.8570 H     1 <1>   0.0800 
 40 H        2.6310    -2.4430     1.1090 H     1 <1>   0.0800 
 41 H        2.4820    -4.7950     1.3140 H     1 <1>   0.4000 
 42 H        1.4940    -4.0670    -1.1910 H     1 <1>   0.0800 
 43 H        0.9260    -2.4920    -0.6370 H     1 <1>   0.0800 
 44 H       -1.0090    -5.1020     2.3020 H     1 <1>   0.1500 
 45 H       -0.7590    -3.7650    -1.7530 H     1 <1>   0.1500 
 46 H       -3.3470    -5.7700     1.9210 H     1 <1>   0.1500 
 47 H       -3.0690    -4.4280    -2.1120 H     1 <1>   0.1500 
 48 H       -4.3750    -5.4310    -0.2890 H     1 <1>   0.1500 
@<TRIPOS>BOND
  1   1   2  2   
  2   2   3  1   
  3   2   4  1   
  4   3   5  1   
  5   4   6  1   
  6   4   7  1   
  7   4  23  1   
  8   5   8  1   
  9   5  24  1   
 10   5  25  1   
 11   6   9  1   
 12   6  26  1   
 13   6  27  1   
 14   7  10  1   
 15   7  28  1   
 16   7  29  1   
 17   8  30  1   
 18   8  31  1   
 19   8  32  1   
 20   9  11  1   
 21   9  33  1   
 22   9  34  1   
 23  10  11  1   
 24  10  35  1   
 25  10  36  1   
 26  11  12  1   
 27  11  37  1   
 28  12  13  1   
 29  12  38  1   
 30  12  39  1   
 31  13  14  1   
 32  13  15  1   
 33  13  40  1   
 34  14  41  1   
 35  15  16  1   
 36  15  42  1   
 37  15  43  1   
 38  16  17  1   
 39  17  18  ar  
 40  17  19  ar  
 41  18  20  ar  
 42  18  44  1   
 43  19  21  ar  
 44  19  45  1   
 45  20  22  ar  
 46  20  46  1   
 47  21  22  ar  
 48  21  47  1   
 49  22  48  1   
@<TRIPOS>SUBSTRUCTURE
  1 ****  11 GROUP 4 **** **** 0

# MOE 2024.06 (io_trps.svl 2023.06)
