@<TRIPOS>MOLECULE
NONAME
35 36 1 0 0 
SMALL
USER_CHARGES


@<TRIPOS>ATOM
  1 S        0.2130    -0.8550     1.5060 S.o2  1 <1>   1.4470 
  2 O        1.1900    -1.6500     2.2180 O.2   1 <1>  -0.6500 
  3 O       -0.1160     0.4660     1.9920 O.2   1 <1>  -0.6500 
  4 N        0.7900    -0.6670    -0.0760 N.am  1 <1>  -0.8490 
  5 C       -1.3180    -1.8060     1.2870 C.ar  1 <1>  -0.0090 
  6 C        1.8470     0.3530    -0.1420 C.3   1 <1>   0.1960 
  7 C        1.2920    -1.9260    -0.6540 C.3   1 <1>   0.1960 
  8 C       -2.2130    -1.5030     0.2730 C.ar  1 <1>  -0.1500 
  9 C       -1.6400    -2.8550     2.1370 C.ar  1 <1>  -0.1500 
 10 C        2.3770     0.5140    -1.5790 C.3   1 <1>   0.1200 
 11 C        1.8220    -1.7030    -2.0820 C.3   1 <1>   0.1200 
 12 C       -3.3990    -2.2070     0.0720 C.ar  1 <1>   0.0860 
 13 C       -2.8040    -3.5810     1.9630 C.ar  1 <1>  -0.1500 
 14 O        2.8140    -0.7150    -2.0870 O.3   1 <1>  -0.5600 
 15 C       -3.6810    -3.2730     0.9370 C.ar  1 <1>  -0.1440 
 16 C       -4.2710    -1.8070    -1.0160 C.2   1 <1>   0.5440 
 17 C       -4.9330    -4.1250     0.7680 C.3   1 <1>  -0.0960 
 18 O       -3.8720    -1.7620    -2.1580 O.2   1 <1>  -0.5700 
 19 N       -5.5530    -1.4320    -0.8050 N.am  1 <1>  -0.8000 
 20 H        2.6640     0.0820     0.5080 H     1 <1>   0.0800 
 21 H        1.4570     1.3000     0.1910 H     1 <1>   0.0800 
 22 H        0.4980    -2.6530    -0.6870 H     1 <1>   0.0800 
 23 H        2.0880    -2.3260    -0.0490 H     1 <1>   0.0800 
 24 H       -1.9860    -0.6880    -0.3960 H     1 <1>   0.1500 
 25 H       -0.9690    -3.1110     2.9410 H     1 <1>   0.1500 
 26 H        3.2110     1.1920    -1.5950 H     1 <1>   0.0800 
 27 H        1.6050     0.8980    -2.2230 H     1 <1>   0.0800 
 28 H        1.0250    -1.3970    -2.7380 H     1 <1>   0.0800 
 29 H        2.2590    -2.6080    -2.4640 H     1 <1>   0.0800 
 30 H       -3.0180    -4.3940     2.6360 H     1 <1>   0.1500 
 31 H       -5.0860    -4.3650    -0.2700 H     1 <1>   0.0800 
 32 H       -5.7940    -3.5970     1.1340 H     1 <1>   0.0800 
 33 H       -4.8450    -5.0500     1.3100 H     1 <1>   0.0800 
 34 H       -6.1070    -1.1050    -1.5980 H     1 <1>   0.3700 
 35 H       -5.9590    -1.3200     0.1230 H     1 <1>   0.3700 
@<TRIPOS>BOND
  1   1   2  2   
  2   1   3  2   
  3   1   4  am  
  4   1   5  1   
  5   4   6  1   
  6   4   7  1   
  7   5   8  ar  
  8   5   9  ar  
  9   6  10  1   
 10   6  20  1   
 11   6  21  1   
 12   7  11  1   
 13   7  22  1   
 14   7  23  1   
 15   8  12  ar  
 16   8  24  1   
 17   9  13  ar  
 18   9  25  1   
 19  10  14  1   
 20  10  26  1   
 21  10  27  1   
 22  11  14  1   
 23  11  28  1   
 24  11  29  1   
 25  12  15  ar  
 26  12  16  1   
 27  13  15  ar  
 28  13  30  1   
 29  15  17  1   
 30  16  18  2   
 31  16  19  am  
 32  17  31  1   
 33  17  32  1   
 34  17  33  1   
 35  19  34  1   
 36  19  35  1   
@<TRIPOS>SUBSTRUCTURE
  1 ****   8 GROUP 4 **** **** 0

# MOE 2024.06 (io_trps.svl 2023.06)
