@<TRIPOS>MOLECULE
NONAME
26 26 1 0 0 
SMALL
USER_CHARGES


@<TRIPOS>ATOM
  1 CL      -1.1240     1.0300    -2.0490 Cl    1 <1>  -0.1770 
  2 C       -0.6470     2.2160    -0.8560 C.ar  1 <1>   0.1770 
  3 C       -1.5190     2.6240     0.1640 C.ar  1 <1>   0.0860 
  4 C        0.6370     2.7140    -0.9730 C.ar  1 <1>  -0.1500 
  5 C       -2.8790     2.1390     0.3190 C.2   1 <1>   0.5440 
  6 C       -1.0240     3.5610     1.0810 C.ar  1 <1>  -0.1500 
  7 C        1.0680     3.6390    -0.0470 C.ar  1 <1>   0.1900 
  8 O       -3.3550     2.0210     1.4300 O.2   1 <1>  -0.5700 
  9 N       -3.6750     1.8490    -0.7530 N.am  1 <1>  -0.7300 
 10 C        0.2580     4.0720     0.9840 C.ar  1 <1>  -0.1500 
 11 F        2.2750     4.1180    -0.1470 F     1 <1>  -0.1900 
 12 C       -5.0520     1.2940    -0.6690 C.3   1 <1>   0.1400 
 13 C       -6.0470     2.3840    -0.2740 C.3   1 <1>   0.1200 
 14 O       -7.3380     1.8790    -0.4200 O.3   1 <1>  -0.5600 
 15 C       -8.3330     2.7580    -0.0060 C.3   1 <1>   0.0400 
 16 H        1.2880     2.3880    -1.7640 H     1 <1>   0.1500 
 17 H       -1.6630     3.8890     1.8850 H     1 <1>   0.1500 
 18 H       -3.2570     1.8350    -1.6870 H     1 <1>   0.3700 
 19 H        0.6280     4.7920     1.6940 H     1 <1>   0.1500 
 20 H       -5.0760     0.5080     0.0670 H     1 <1>   0.0800 
 21 H       -5.3260     0.8870    -1.6260 H     1 <1>   0.0800 
 22 H       -5.9430     3.2390    -0.9170 H     1 <1>   0.0800 
 23 H       -5.8950     2.6650     0.7550 H     1 <1>   0.0800 
 24 H       -9.2850     2.2830    -0.1630 H     1 <1>   0.0800 
 25 H       -8.2750     3.6610    -0.5880 H     1 <1>   0.0800 
 26 H       -8.2030     2.9720     1.0410 H     1 <1>   0.0800 
@<TRIPOS>BOND
  1   1   2  1   
  2   2   3  ar  
  3   2   4  ar  
  4   3   5  1   
  5   3   6  ar  
  6   4   7  ar  
  7   4  16  1   
  8   5   8  2   
  9   5   9  am  
 10   6  10  ar  
 11   6  17  1   
 12   7  10  ar  
 13   7  11  1   
 14   9  12  1   
 15   9  18  1   
 16  10  19  1   
 17  12  13  1   
 18  12  20  1   
 19  12  21  1   
 20  13  14  1   
 21  13  22  1   
 22  13  23  1   
 23  14  15  1   
 24  15  24  1   
 25  15  25  1   
 26  15  26  1   
@<TRIPOS>SUBSTRUCTURE
  1 ****   5 GROUP 4 **** **** 0

# MOE 2024.06 (io_trps.svl 2023.06)
