@<TRIPOS>MOLECULE
NONAME
39 40 1 0 0 
SMALL
USER_CHARGES


@<TRIPOS>ATOM
  1 F      -17.2050     3.6950     0.3700 F     1 <1>  -0.1900 
  2 C      -15.9100     3.8000     0.2420 C.ar  1 <1>   0.1900 
  3 C      -15.3650     5.0360    -0.0430 C.ar  1 <1>  -0.1500 
  4 C      -15.1280     2.6730     0.3950 C.ar  1 <1>  -0.1500 
  5 C      -13.9910     5.1390    -0.1780 C.ar  1 <1>  -0.1500 
  6 C      -13.7570     2.7960     0.2570 C.ar  1 <1>  -0.1500 
  7 C      -13.1570     4.0260    -0.0310 C.ar  1 <1>   0.0530 
  8 C      -11.7220     4.1440    -0.1740 C.2   1 <1>   0.0870 
  9 O      -10.9410     3.0850     0.0030 O.3   1 <1>  -0.2800 
 10 C      -10.9340     5.2110    -0.4800 C.2   1 <1>  -0.1500 
 11 C       -9.6860     3.4400    -0.1780 C.2   1 <1>  -0.0400 
 12 C       -9.6160     4.7530    -0.4830 C.2   1 <1>  -0.1500 
 13 C       -8.6120     2.3790    -0.0230 C.3   1 <1>   0.2900 
 14 N       -7.2790     2.9990    -0.0100 N.3   1 <1>  -0.9000 
 15 C       -6.2110     2.0310     0.2320 C.3   1 <1>   0.1100 
 16 C       -4.8470     2.6920    -0.0350 C.3   1 <1>   0.3430 
 17 N       -3.6940     1.7450     0.1350 N.4   1 <1>  -0.9590 
 18 C       -2.4060     2.5040     0.1300 C.3   1 <1>   0.2630 
 19 C       -3.6740     0.6920    -0.9300 C.3   1 <1>   0.2630 
 20 H      -16.0050     5.8930    -0.1560 H     1 <1>   0.1500 
 21 H      -15.5850     1.7260     0.6170 H     1 <1>   0.1500 
 22 H      -13.5610     6.0980    -0.3990 H     1 <1>   0.1500 
 23 H      -13.1390     1.9230     0.3740 H     1 <1>   0.1500 
 24 H      -11.2310     6.2220    -0.6870 H     1 <1>   0.1500 
 25 H       -8.7450     5.3470    -0.6950 H     1 <1>   0.1500 
 26 H       -8.6890     1.6810    -0.8390 H     1 <1>   0.0800 
 27 H       -8.7810     1.8530     0.9010 H     1 <1>   0.0800 
 28 H       -7.3070     3.7110     0.7340 H     1 <1>   0.3600 
 29 H       -6.3430     1.1990    -0.4390 H     1 <1>   0.0800 
 30 H       -6.2660     1.6810     1.2490 H     1 <1>   0.0800 
 31 H       -4.7350     3.5180     0.6490 H     1 <1>   0.0800 
 32 H       -4.8460     3.0860    -1.0380 H     1 <1>   0.0800 
 33 H       -3.7880     1.2840     1.0540 H     1 <1>   0.4500 
 34 H       -2.2710     3.0080    -0.8140 H     1 <1>   0.0800 
 35 H       -1.5750     1.8350     0.2850 H     1 <1>   0.0800 
 36 H       -2.4010     3.2420     0.9170 H     1 <1>   0.0800 
 37 H       -3.6010     1.1470    -1.9050 H     1 <1>   0.0800 
 38 H       -4.5730     0.0990    -0.8940 H     1 <1>   0.0800 
 39 H       -2.8280     0.0370    -0.7930 H     1 <1>   0.0800 
@<TRIPOS>BOND
  1   1   2  1   
  2   2   3  ar  
  3   2   4  ar  
  4   3   5  ar  
  5   3  20  1   
  6   4   6  ar  
  7   4  21  1   
  8   5   7  ar  
  9   5  22  1   
 10   6   7  ar  
 11   6  23  1   
 12   7   8  1   
 13   8   9  1   
 14   8  10  2   
 15   9  11  1   
 16  10  12  1   
 17  10  24  1   
 18  11  12  2   
 19  11  13  1   
 20  12  25  1   
 21  13  14  1   
 22  13  26  1   
 23  13  27  1   
 24  14  15  1   
 25  14  28  1   
 26  15  16  1   
 27  15  29  1   
 28  15  30  1   
 29  16  17  1   
 30  16  31  1   
 31  16  32  1   
 32  17  18  1   
 33  17  19  1   
 34  17  33  1   
 35  18  34  1   
 36  18  35  1   
 37  18  36  1   
 38  19  37  1   
 39  19  38  1   
 40  19  39  1   
@<TRIPOS>SUBSTRUCTURE
  1 ****  11 GROUP 4 **** **** 0

# MOE 2024.06 (io_trps.svl 2023.06)
