@<TRIPOS>MOLECULE
NONAME
40 43 1 0 0 
SMALL
USER_CHARGES


@<TRIPOS>ATOM
  1 S        1.8930     2.6350    -1.4840 S.3   1 <1>  -0.0800 
  2 C        1.4010     1.9390     0.0530 C.2   1 <1>  -0.1400 
  3 C        1.0040     1.4130    -2.3730 C.2   1 <1>  -0.1100 
  4 C        0.6160     0.8640    -0.1480 C.2   1 <1>  -0.1500 
  5 C        1.9070     2.6090     1.3260 C.3   1 <1>   0.0810 
  6 C        0.3910     0.5630    -1.5290 C.2   1 <1>  -0.1500 
  7 C        3.3810     2.3580     1.6060 C.2   1 <1>   0.5690 
  8 O        3.8860     2.8940     2.5630 O.2   1 <1>  -0.5700 
  9 N        4.0850     1.5360     0.7870 N.am  1 <1>  -0.7300 
 10 C        5.5160     1.1990     0.8950 C.3   1 <1>   0.2200 
 11 C        6.2820     1.7440    -0.3300 C.3   1 <1>  -0.0800 
 12 C        5.6940    -0.3330     0.9710 C.3   1 <1>  -0.0800 
 13 C        7.7820     1.4320    -0.1470 C.3   1 <1>  -0.1600 
 14 C        5.7940     1.0670    -1.6320 C.3   1 <1>  -0.1600 
 15 C        7.1950    -0.6420     1.1520 C.3   1 <1>  -0.1600 
 16 C        5.2060    -1.0090    -0.3320 C.3   1 <1>  -0.1600 
 17 C        7.9960    -0.0910    -0.0450 C.3   1 <1>  -0.0800 
 18 C        5.9920    -0.4590    -1.5380 C.3   1 <1>  -0.0800 
 19 C        7.4900    -0.7580    -1.3380 C.3   1 <1>  -0.1600 
 20 H        1.0330     1.4620    -3.4480 H     1 <1>   0.1500 
 21 H        0.1780     0.2540     0.6240 H     1 <1>   0.1500 
 22 H        1.3480     2.2410     2.1650 H     1 <1>   0.0800 
 23 H        1.7460     3.6680     1.2620 H     1 <1>   0.0800 
 24 H       -0.2190    -0.2750    -1.8190 H     1 <1>   0.1500 
 25 H        3.6180     1.1450    -0.0330 H     1 <1>   0.3700 
 26 H        5.9140     1.6470     1.7900 H     1 <1>   0.0800 
 27 H        6.1450     2.8100    -0.3900 H     1 <1>   0.0800 
 28 H        5.1490    -0.7130     1.8170 H     1 <1>   0.0800 
 29 H        8.1470     1.9120     0.7450 H     1 <1>   0.0800 
 30 H        8.3400     1.8240    -0.9790 H     1 <1>   0.0800 
 31 H        6.3490     1.4530    -2.4690 H     1 <1>   0.0800 
 32 H        4.7580     1.2920    -1.8060 H     1 <1>   0.0800 
 33 H        7.3420    -1.7050     1.2310 H     1 <1>   0.0800 
 34 H        7.5510    -0.1960     2.0650 H     1 <1>   0.0800 
 35 H        4.1530    -0.8380    -0.4710 H     1 <1>   0.0800 
 36 H        5.3500    -2.0730    -0.2610 H     1 <1>   0.0800 
 37 H        9.0430    -0.3040     0.0880 H     1 <1>   0.0800 
 38 H        5.6460    -0.9280    -2.4430 H     1 <1>   0.0800 
 39 H        7.6450    -1.8220    -1.2840 H     1 <1>   0.0800 
 40 H        8.0500    -0.3910    -2.1800 H     1 <1>   0.0800 
@<TRIPOS>BOND
  1   1   2  1   
  2   1   3  1   
  3   2   4  2   
  4   2   5  1   
  5   3   6  2   
  6   3  20  1   
  7   4   6  1   
  8   4  21  1   
  9   5   7  1   
 10   5  22  1   
 11   5  23  1   
 12   6  24  1   
 13   7   8  2   
 14   7   9  am  
 15   9  10  1   
 16   9  25  1   
 17  10  11  1   
 18  10  12  1   
 19  10  26  1   
 20  11  13  1   
 21  11  14  1   
 22  11  27  1   
 23  12  15  1   
 24  12  16  1   
 25  12  28  1   
 26  13  17  1   
 27  13  29  1   
 28  13  30  1   
 29  14  18  1   
 30  14  31  1   
 31  14  32  1   
 32  15  17  1   
 33  15  33  1   
 34  15  34  1   
 35  16  18  1   
 36  16  35  1   
 37  16  36  1   
 38  17  19  1   
 39  17  37  1   
 40  18  19  1   
 41  18  38  1   
 42  19  39  1   
 43  19  40  1   
@<TRIPOS>SUBSTRUCTURE
  1 ****   9 GROUP 4 **** **** 0

# MOE 2024.06 (io_trps.svl 2023.06)
