@<TRIPOS>MOLECULE
NONAME
48 50 1 0 0 
SMALL
USER_CHARGES


@<TRIPOS>ATOM
  1 O       -0.1170     0.2120    -0.0660 O.2   1 <1>  -0.5700 
  2 C       -0.8540     1.1650    -0.2250 C.2   1 <1>   0.5440 
  3 N       -2.2120     1.0140    -0.1150 N.am  1 <1>  -0.5470 
  4 C       -0.3100     2.4830    -0.5070 C.ar  1 <1>   0.0860 
  5 C       -3.0730    -0.0670     0.1310 C.ar  1 <1>   0.1170 
  6 C        0.9700     2.8360    -0.0770 C.ar  1 <1>  -0.1500 
  7 C       -1.0360     3.4490    -1.2090 C.ar  1 <1>  -0.1500 
  8 C       -4.4160     0.2580     0.3690 C.ar  1 <1>   0.1000 
  9 C       -2.6760    -1.3970     0.1410 C.ar  1 <1>  -0.1500 
 10 C        1.5040     4.0900    -0.3170 C.ar  1 <1>  -0.1440 
 11 C       -0.5130     4.7060    -1.4530 C.ar  1 <1>  -0.1500 
 12 N       -4.8240     1.6060     0.3540 N.pl3 1 <1>  -0.8380 
 13 C       -5.3230    -0.7630     0.6250 C.ar  1 <1>  -0.1500 
 14 C       -3.5920    -2.4030     0.3930 C.ar  1 <1>  -0.1500 
 15 C        0.7550     5.0270    -1.0060 C.ar  1 <1>  -0.1500 
 16 C        2.8990     4.4420     0.1680 C.3   1 <1>  -0.0970 
 17 C       -5.9240     1.9590    -0.5930 C.3   1 <1>   0.2090 
 18 C       -5.0300     2.2160     1.7040 C.3   1 <1>   0.2090 
 19 C       -4.9170    -2.0860     0.6370 C.ar  1 <1>  -0.1500 
 20 C       -6.0720     3.4870    -0.7200 C.3   1 <1>   0.1400 
 21 C       -5.1680     3.7440     1.6020 C.3   1 <1>   0.1400 
 22 N       -6.2350     4.1320     0.6230 N.am  1 <1>  -0.6600 
 23 C       -7.2630     4.9600     0.9900 C.2   1 <1>   0.5690 
 24 O       -7.3650     5.3950     2.1110 O.2   1 <1>  -0.5700 
 25 C       -8.3220     5.3630    -0.0080 C.3   1 <1>  -0.1790 
 26 H       -2.7640     1.8740    -0.1150 H     1 <1>   0.3700 
 27 H        1.5480     2.1020     0.4580 H     1 <1>   0.1500 
 28 H       -2.0180     3.2160    -1.5780 H     1 <1>   0.1500 
 29 H       -1.6500    -1.6550    -0.0480 H     1 <1>   0.1500 
 30 H       -1.0900     5.4360    -1.9950 H     1 <1>   0.1500 
 31 H       -6.3510    -0.5230     0.8220 H     1 <1>   0.1500 
 32 H       -3.2710    -3.4300     0.3990 H     1 <1>   0.1500 
 33 H        1.1580     6.0070    -1.1980 H     1 <1>   0.1500 
 34 H        3.4490     3.5550     0.4260 H     1 <1>   0.0800 
 35 H        2.8340     5.0730     1.0360 H     1 <1>   0.0800 
 36 H        3.4390     4.9630    -0.6020 H     1 <1>   0.0800 
 37 H       -6.8530     1.5440    -0.2430 H     1 <1>   0.0800 
 38 H       -5.7090     1.5360    -1.5590 H     1 <1>   0.0800 
 39 H       -4.1940     1.9730     2.3380 H     1 <1>   0.0800 
 40 H       -5.9180     1.8090     2.1550 H     1 <1>   0.0800 
 41 H       -5.6290    -2.8680     0.8360 H     1 <1>   0.1500 
 42 H       -6.9090     3.7000    -1.3580 H     1 <1>   0.0800 
 43 H       -5.1900     3.8820    -1.1920 H     1 <1>   0.0800 
 44 H       -4.2300     4.1610     1.2830 H     1 <1>   0.0800 
 45 H       -5.3860     4.1400     2.5790 H     1 <1>   0.0800 
 46 H       -8.8820     4.5000    -0.3150 H     1 <1>   0.0800 
 47 H       -7.8660     5.8300    -0.8600 H     1 <1>   0.0800 
 48 H       -8.9970     6.0650     0.4470 H     1 <1>   0.0800 
@<TRIPOS>BOND
  1   1   2  2   
  2   2   3  am  
  3   2   4  1   
  4   3   5  1   
  5   3  26  1   
  6   4   6  ar  
  7   4   7  ar  
  8   5   8  ar  
  9   5   9  ar  
 10   6  10  ar  
 11   6  27  1   
 12   7  11  ar  
 13   7  28  1   
 14   8  12  1   
 15   8  13  ar  
 16   9  14  ar  
 17   9  29  1   
 18  10  15  ar  
 19  10  16  1   
 20  11  15  ar  
 21  11  30  1   
 22  12  17  1   
 23  12  18  1   
 24  13  19  ar  
 25  13  31  1   
 26  14  19  ar  
 27  14  32  1   
 28  15  33  1   
 29  16  34  1   
 30  16  35  1   
 31  16  36  1   
 32  17  20  1   
 33  17  37  1   
 34  17  38  1   
 35  18  21  1   
 36  18  39  1   
 37  18  40  1   
 38  19  41  1   
 39  20  22  1   
 40  20  42  1   
 41  20  43  1   
 42  21  22  1   
 43  21  44  1   
 44  21  45  1   
 45  22  23  am  
 46  23  24  2   
 47  23  25  1   
 48  25  46  1   
 49  25  47  1   
 50  25  48  1   
@<TRIPOS>SUBSTRUCTURE
  1 ****   3 GROUP 4 **** **** 0

# MOE 2024.06 (io_trps.svl 2023.06)
