@<TRIPOS>MOLECULE
NONAME
34 35 1 0 0 
SMALL
USER_CHARGES


@<TRIPOS>ATOM
  1 BR       0.2720    -0.9100     1.3590 Br    1 <1>  -0.1110 
  2 C       -1.2240    -1.4090     0.2430 C.ar  1 <1>   0.1110 
  3 C       -1.1890    -2.6200    -0.4480 C.ar  1 <1>   0.1990 
  4 C       -2.2950    -0.5400     0.1790 C.ar  1 <1>  -0.1500 
  5 N       -0.0950    -3.4800    -0.3830 N.am  1 <1>  -0.6930 
  6 C       -2.3010    -2.9430    -1.2180 C.ar  1 <1>  -0.1500 
  7 C       -3.3870    -0.8850    -0.6000 C.ar  1 <1>  -0.1500 
  8 S       -0.1840    -4.9830     0.4650 S.o2  1 <1>   1.3330 
  9 C        0.9510    -3.3620    -1.4480 C.3   1 <1>   0.2570 
 10 C       -3.3880    -2.0860    -1.2940 C.ar  1 <1>  -0.1500 
 11 O       -1.2870    -5.7210    -0.0970 O.2   1 <1>  -0.6500 
 12 O        1.1510    -5.5330     0.4550 O.2   1 <1>  -0.6500 
 13 C       -0.5640    -4.4660     2.1250 C.3   1 <1>  -0.1350 
 14 C        2.2840    -2.7970    -0.9520 C.2   1 <1>   0.5690 
 15 O        2.6690    -1.7420    -1.4020 O.2   1 <1>  -0.5700 
 16 N        3.0020    -3.5020    -0.0360 N.am  1 <1>  -0.5790 
 17 C        4.2710    -3.0940     0.5750 C.3   1 <1>   0.0490 
 18 C        5.2440    -4.1630     0.9440 C.3   1 <1>  -0.2000 
 19 C        4.4900    -3.4300     2.0120 C.3   1 <1>  -0.2000 
 20 H       -2.2760     0.3860     0.7260 H     1 <1>   0.1500 
 21 H       -2.3150    -3.8740    -1.7580 H     1 <1>   0.1500 
 22 H       -4.2350    -0.2230    -0.6650 H     1 <1>   0.1500 
 23 H        0.5880    -2.7150    -2.2270 H     1 <1>   0.0800 
 24 H        1.1270    -4.3270    -1.8870 H     1 <1>   0.0800 
 25 H       -4.2390    -2.3550    -1.8960 H     1 <1>   0.1500 
 26 H        0.2000    -3.8100     2.4920 H     1 <1>   0.0800 
 27 H       -0.6260    -5.3190     2.7700 H     1 <1>   0.0800 
 28 H       -1.5040    -3.9490     2.1470 H     1 <1>   0.0800 
 29 H        2.6210    -4.4020     0.2920 H     1 <1>   0.3700 
 30 H        4.6450    -2.1540     0.1990 H     1 <1>   0.1000 
 31 H        6.2950    -3.9630     0.8340 H     1 <1>   0.1000 
 32 H        4.9920    -5.1880     0.7340 H     1 <1>   0.1000 
 33 H        3.7110    -3.9430     2.5490 H     1 <1>   0.1000 
 34 H        5.0280    -2.7300     2.6280 H     1 <1>   0.1000 
@<TRIPOS>BOND
  1   1   2  1   
  2   2   3  ar  
  3   2   4  ar  
  4   3   5  1   
  5   3   6  ar  
  6   4   7  ar  
  7   4  20  1   
  8   5   8  am  
  9   5   9  1   
 10   6  10  ar  
 11   6  21  1   
 12   7  10  ar  
 13   7  22  1   
 14   8  11  2   
 15   8  12  2   
 16   8  13  1   
 17   9  14  1   
 18   9  23  1   
 19   9  24  1   
 20  10  25  1   
 21  13  26  1   
 22  13  27  1   
 23  13  28  1   
 24  14  15  2   
 25  14  16  am  
 26  16  17  1   
 27  16  29  1   
 28  17  18  1   
 29  17  19  1   
 30  17  30  1   
 31  18  19  1   
 32  18  31  1   
 33  18  32  1   
 34  19  33  1   
 35  19  34  1   
@<TRIPOS>SUBSTRUCTURE
  1 ****   5 GROUP 4 **** **** 0

# MOE 2024.06 (io_trps.svl 2023.06)
