@<TRIPOS>MOLECULE
NONAME
33 34 1 0 0 
SMALL
USER_CHARGES


@<TRIPOS>ATOM
  1 CL       0.0440    -0.3910    -0.3830 Cl    1 <1>  -0.1770 
  2 C        1.7750    -0.2270    -0.2720 C.ar  1 <1>   0.1770 
  3 C        2.3340     1.0310    -0.1530 C.ar  1 <1>  -0.1500 
  4 C        2.5700    -1.3560    -0.3050 C.ar  1 <1>  -0.1500 
  5 C        3.7100     1.1530    -0.0640 C.ar  1 <1>  -0.1500 
  6 C        3.9450    -1.2210    -0.2150 C.ar  1 <1>  -0.1500 
  7 C        4.5500     0.0350    -0.0880 C.ar  1 <1>   0.0860 
  8 C        5.9930     0.1890     0.0150 C.2   1 <1>   0.5440 
  9 O        6.5320     1.2450    -0.2530 O.2   1 <1>  -0.5700 
 10 N        6.7860    -0.8410     0.4210 N.am  1 <1>  -0.7300 
 11 C        8.2760    -0.8200     0.4520 C.3   1 <1>   0.2010 
 12 C        8.8890    -2.2260     0.4650 C.2   1 <1>   0.5690 
 13 O        8.1680    -3.1690     0.7160 O.2   1 <1>  -0.5700 
 14 N       10.2210    -2.3970     0.2030 N.am  1 <1>  -0.6600 
 15 C       11.1980    -1.3300    -0.1090 C.3   1 <1>   0.1400 
 16 C       10.8620    -3.7290     0.1880 C.3   1 <1>   0.1400 
 17 C       12.5540    -2.0260    -0.0730 C.3   1 <1>  -0.1600 
 18 C       12.2490    -3.4860    -0.3970 C.3   1 <1>  -0.1600 
 19 H        1.6990     1.8980    -0.1320 H     1 <1>   0.1500 
 20 H        2.1140    -2.3250    -0.4010 H     1 <1>   0.1500 
 21 H        4.1510     2.1320     0.0270 H     1 <1>   0.1500 
 22 H        4.5550    -2.1070    -0.2520 H     1 <1>   0.1500 
 23 H        6.3980    -1.7570     0.6680 H     1 <1>   0.3700 
 24 H        8.5960    -0.2970     1.3350 H     1 <1>   0.0800 
 25 H        8.6340    -0.2850    -0.4090 H     1 <1>   0.0800 
 26 H       11.1490    -0.5310     0.6110 H     1 <1>   0.0800 
 27 H       11.0020    -0.9490    -1.0970 H     1 <1>   0.0800 
 28 H       10.2920    -4.4240    -0.4070 H     1 <1>   0.0800 
 29 H       10.9330    -4.0950     1.1980 H     1 <1>   0.0800 
 30 H       12.9600    -1.9510     0.9210 H     1 <1>   0.0800 
 31 H       13.2480    -1.5880    -0.7680 H     1 <1>   0.0800 
 32 H       12.2060    -3.6240    -1.4630 H     1 <1>   0.0800 
 33 H       12.9790    -4.1610     0.0150 H     1 <1>   0.0800 
@<TRIPOS>BOND
  1   1   2  1   
  2   2   3  ar  
  3   2   4  ar  
  4   3   5  ar  
  5   3  19  1   
  6   4   6  ar  
  7   4  20  1   
  8   5   7  ar  
  9   5  21  1   
 10   6   7  ar  
 11   6  22  1   
 12   7   8  1   
 13   8   9  2   
 14   8  10  am  
 15  10  11  1   
 16  10  23  1   
 17  11  12  1   
 18  11  24  1   
 19  11  25  1   
 20  12  13  2   
 21  12  14  am  
 22  14  15  1   
 23  14  16  1   
 24  15  17  1   
 25  15  26  1   
 26  15  27  1   
 27  16  18  1   
 28  16  28  1   
 29  16  29  1   
 30  17  18  1   
 31  17  30  1   
 32  17  31  1   
 33  18  32  1   
 34  18  33  1   
@<TRIPOS>SUBSTRUCTURE
  1 ****  10 GROUP 4 **** **** 0

# MOE 2024.06 (io_trps.svl 2023.06)
