@<TRIPOS>MOLECULE
NONAME
47 49 1 0 0 
SMALL
USER_CHARGES


@<TRIPOS>ATOM
  1 S       -0.0230     0.2180     1.0440 S.3   1 <1>  -0.3310 
  2 C        1.0670    -1.0980     0.4900 C.ar  1 <1>   0.1020 
  3 C        0.0560     1.5240    -0.2860 C.3   1 <1>   0.3550 
  4 C        0.7240    -2.3950     0.8240 C.ar  1 <1>  -0.1500 
  5 C        2.2100    -0.8260    -0.2440 C.ar  1 <1>  -0.1500 
  6 C        1.1510     2.5350     0.0710 C.ar  1 <1>  -0.1440 
  7 C       -1.3560     2.1010    -0.5060 C.2   1 <1>   0.5690 
  8 C        1.5250    -3.4410     0.3980 C.ar  1 <1>  -0.1500 
  9 C        3.0060    -1.8760    -0.6680 C.ar  1 <1>  -0.1500 
 10 C        2.0900     2.9030    -0.8840 C.ar  1 <1>  -0.1500 
 11 C        1.2280     3.0970     1.3390 C.ar  1 <1>  -0.1500 
 12 O       -1.6040     3.2110    -0.0880 O.2   1 <1>  -0.5700 
 13 N       -2.3280     1.3720    -1.1670 N.am  1 <1>  -0.6600 
 14 C        2.6620    -3.1810    -0.3500 C.ar  1 <1>  -0.1500 
 15 C        3.0940     3.8040    -0.5740 C.ar  1 <1>  -0.1500 
 16 C        2.2310     3.9980     1.6500 C.ar  1 <1>  -0.1500 
 17 C       -2.2020    -0.0480    -1.6030 C.3   1 <1>   0.1400 
 18 C       -3.7040     1.9130    -1.3430 C.3   1 <1>   0.1400 
 19 C        3.1670     4.3510     0.6950 C.ar  1 <1>  -0.1500 
 20 C       -3.1340    -0.9110    -0.7490 C.3   1 <1>  -0.1600 
 21 C       -4.6690     1.0960    -0.4810 C.3   1 <1>  -0.1600 
 22 C       -4.5900    -0.4090    -0.8100 C.3   1 <1>  -0.0190 
 23 C       -5.5040    -1.2370     0.0880 C.2   1 <1>   0.5690 
 24 O       -6.3660    -1.9170    -0.4040 O.2   1 <1>  -0.5700 
 25 N       -5.3470    -1.2120     1.4240 N.am  1 <1>  -0.8000 
 26 H        0.3460     1.0130    -1.1820 H     1 <1>   0.0800 
 27 H       -0.1590    -2.5830     1.4080 H     1 <1>   0.1500 
 28 H        2.4950     0.1830    -0.4720 H     1 <1>   0.1500 
 29 H        1.2660    -4.4550     0.6490 H     1 <1>   0.1500 
 30 H        3.8970    -1.6800    -1.2390 H     1 <1>   0.1500 
 31 H        2.0480     2.4940    -1.8780 H     1 <1>   0.1500 
 32 H        0.5000     2.8380     2.0890 H     1 <1>   0.1500 
 33 H        3.2840    -3.9950    -0.6800 H     1 <1>   0.1500 
 34 H        3.8180     4.0830    -1.3190 H     1 <1>   0.1500 
 35 H        2.2800     4.4250     2.6360 H     1 <1>   0.1500 
 36 H       -1.1950    -0.4100    -1.5110 H     1 <1>   0.0800 
 37 H       -2.4840    -0.1220    -2.6400 H     1 <1>   0.0800 
 38 H       -3.9830     1.8440    -2.3800 H     1 <1>   0.0800 
 39 H       -3.7520     2.9510    -1.0570 H     1 <1>   0.0800 
 40 H        3.9460     5.0510     0.9380 H     1 <1>   0.1500 
 41 H       -2.7800    -0.8990     0.2670 H     1 <1>   0.0800 
 42 H       -3.0920    -1.9290    -1.0970 H     1 <1>   0.0800 
 43 H       -5.6730     1.4470    -0.6430 H     1 <1>   0.0800 
 44 H       -4.4250     1.2680     0.5530 H     1 <1>   0.0800 
 45 H       -4.9390    -0.5400    -1.8200 H     1 <1>   0.0800 
 46 H       -5.9680    -1.7700     2.0110 H     1 <1>   0.3700 
 47 H       -4.6380    -0.6550     1.9000 H     1 <1>   0.3700 
@<TRIPOS>BOND
  1   1   2  1   
  2   1   3  1   
  3   2   4  ar  
  4   2   5  ar  
  5   3   6  1   
  6   3   7  1   
  7   3  26  1   
  8   4   8  ar  
  9   4  27  1   
 10   5   9  ar  
 11   5  28  1   
 12   6  10  ar  
 13   6  11  ar  
 14   7  12  2   
 15   7  13  am  
 16   8  14  ar  
 17   8  29  1   
 18   9  14  ar  
 19   9  30  1   
 20  10  15  ar  
 21  10  31  1   
 22  11  16  ar  
 23  11  32  1   
 24  13  17  1   
 25  13  18  1   
 26  14  33  1   
 27  15  19  ar  
 28  15  34  1   
 29  16  19  ar  
 30  16  35  1   
 31  17  20  1   
 32  17  36  1   
 33  17  37  1   
 34  18  21  1   
 35  18  38  1   
 36  18  39  1   
 37  19  40  1   
 38  20  22  1   
 39  20  41  1   
 40  20  42  1   
 41  21  22  1   
 42  21  43  1   
 43  21  44  1   
 44  22  23  1   
 45  22  45  1   
 46  23  24  2   
 47  23  25  am  
 48  25  46  1   
 49  25  47  1   
@<TRIPOS>SUBSTRUCTURE
  1 ****   3 GROUP 4 **** **** 0

# MOE 2024.06 (io_trps.svl 2023.06)
