@<TRIPOS>MOLECULE
NONAME
35 36 1 0 0 
SMALL
USER_CHARGES


@<TRIPOS>ATOM
  1 S       -0.0950    -0.3220    -2.0230 S.o2  1 <1>   1.3330 
  2 O       -0.8980    -0.8600    -3.0920 O.2   1 <1>  -0.6500 
  3 O        0.5680     0.9490    -2.1720 O.2   1 <1>  -0.6500 
  4 N        1.1050    -1.5140    -1.7790 N.am  1 <1>  -0.7040 
  5 C       -1.0480    -0.3760    -0.5020 C.3   1 <1>  -0.0550 
  6 C        2.2580    -1.3880    -1.0810 C.2   1 <1>   0.5240 
  7 C       -2.2560     0.5760    -0.5010 C.3   1 <1>  -0.1600 
  8 S        2.4410    -0.1470     0.1620 S.3   1 <1>  -0.0800 
  9 N        3.2840    -2.1430    -1.2210 N.2   1 <1>  -0.5650 
 10 C       -3.0300     0.4910     0.8200 C.3   1 <1>  -0.1600 
 11 C        4.0450    -0.7400     0.4680 C.2   1 <1>  -0.1400 
 12 C        4.2900    -1.7650    -0.3530 C.2   1 <1>   0.0460 
 13 C       -4.2300     1.4410     0.8130 C.3   1 <1>  -0.2400 
 14 C        4.9540    -0.1320     1.5120 C.3   1 <1>   0.0200 
 15 C        5.6180    -2.4980    -0.3440 C.3   1 <1>   0.0210 
 16 C        6.1420    -1.0870     1.7450 C.3   1 <1>  -0.1600 
 17 C        6.6850    -1.6870     0.4270 C.3   1 <1>  -0.1600 
 18 H        1.1410    -2.1580    -2.5580 H     1 <1>   0.4200 
 19 H       -0.4130    -0.1200     0.3230 H     1 <1>   0.0800 
 20 H       -1.3980    -1.3780    -0.3470 H     1 <1>   0.0800 
 21 H       -2.9080     0.3210    -1.3200 H     1 <1>   0.0800 
 22 H       -1.9110     1.5850    -0.6540 H     1 <1>   0.0800 
 23 H       -2.3820     0.7490     1.6400 H     1 <1>   0.0800 
 24 H       -3.3800    -0.5170     0.9740 H     1 <1>   0.0800 
 25 H       -3.9050     2.4580     0.6830 H     1 <1>   0.0800 
 26 H       -4.7630     1.3700     1.7450 H     1 <1>   0.0800 
 27 H       -4.9060     1.1890     0.0140 H     1 <1>   0.0800 
 28 H        4.4180     0.0210     2.4320 H     1 <1>   0.0800 
 29 H        5.3060     0.8200     1.1550 H     1 <1>   0.0800 
 30 H        5.9470    -2.6580    -1.3550 H     1 <1>   0.0800 
 31 H        5.4740    -3.4570     0.1210 H     1 <1>   0.0800 
 32 H        5.8170    -1.8940     2.3800 H     1 <1>   0.0800 
 33 H        6.9280    -0.5610     2.2590 H     1 <1>   0.0800 
 34 H        7.0250    -0.8820    -0.2020 H     1 <1>   0.0800 
 35 H        7.5300    -2.3200     0.6350 H     1 <1>   0.0800 
@<TRIPOS>BOND
  1   1   2  2   
  2   1   3  2   
  3   1   4  am  
  4   1   5  1   
  5   4   6  1   
  6   4  18  1   
  7   5   7  1   
  8   5  19  1   
  9   5  20  1   
 10   6   8  1   
 11   6   9  2   
 12   7  10  1   
 13   7  21  1   
 14   7  22  1   
 15   8  11  1   
 16   9  12  1   
 17  10  13  1   
 18  10  23  1   
 19  10  24  1   
 20  11  12  2   
 21  11  14  1   
 22  12  15  1   
 23  13  25  1   
 24  13  26  1   
 25  13  27  1   
 26  14  16  1   
 27  14  28  1   
 28  14  29  1   
 29  15  17  1   
 30  15  30  1   
 31  15  31  1   
 32  16  17  1   
 33  16  32  1   
 34  16  33  1   
 35  17  34  1   
 36  17  35  1   
@<TRIPOS>SUBSTRUCTURE
  1 ****   8 GROUP 4 **** **** 0

# MOE 2024.06 (io_trps.svl 2023.06)
