@<TRIPOS>MOLECULE
NONAME
35 36 1 0 0 
SMALL
USER_CHARGES


@<TRIPOS>ATOM
  1 O        0.7890    -0.4540    -1.2760 O.3   1 <1>  -0.5600 
  2 C        1.4880     0.5370    -0.5680 C.3   1 <1>   0.1200 
  3 C        0.2830    -1.4860    -0.4750 C.3   1 <1>   0.1200 
  4 C        2.6170    -0.0700     0.2970 C.3   1 <1>   0.3430 
  5 C        1.4260    -2.2410     0.2430 C.3   1 <1>   0.3430 
  6 N        2.7450    -1.5490     0.0630 N.4   1 <1>  -0.9590 
  7 C        3.8620    -2.1790     0.8160 C.3   1 <1>   0.4860 
  8 C        5.1510    -1.4690     0.4540 C.ar  1 <1>  -0.1440 
  9 C        5.7270    -1.6520    -0.7950 C.ar  1 <1>  -0.1500 
 10 C        5.7600    -0.6210     1.3670 C.ar  1 <1>  -0.1500 
 11 C        6.8900    -0.9830    -1.1290 C.ar  1 <1>  -0.1500 
 12 C        6.9230     0.0460     1.0280 C.ar  1 <1>  -0.1500 
 13 C        7.4930    -0.1270    -0.2220 C.ar  1 <1>  -0.1440 
 14 C        8.7730     0.6060    -0.5920 C.3   1 <1>  -0.0170 
 15 C        9.9980    -0.2270    -0.2090 C.3   1 <1>  -0.2400 
 16 H        0.7900     1.0810     0.0450 H     1 <1>   0.0800 
 17 H        1.9040     1.2200    -1.2890 H     1 <1>   0.0800 
 18 H       -0.2660    -2.1590    -1.1110 H     1 <1>   0.0800 
 19 H       -0.4040    -1.0630     0.2380 H     1 <1>   0.0800 
 20 H        2.4060     0.1220     1.3360 H     1 <1>   0.0800 
 21 H        3.5450     0.4270     0.0580 H     1 <1>   0.0800 
 22 H        1.4820    -3.2430    -0.1510 H     1 <1>   0.0800 
 23 H        1.1850    -2.3180     1.2910 H     1 <1>   0.0800 
 24 H        2.9660    -1.6200    -0.9400 H     1 <1>   0.4500 
 25 H        3.9440    -3.2220     0.5580 H     1 <1>   0.0800 
 26 H        3.6880    -2.1000     1.8770 H     1 <1>   0.0800 
 27 H        5.2870    -2.3150    -1.5210 H     1 <1>   0.1500 
 28 H        5.3450    -0.4690     2.3490 H     1 <1>   0.1500 
 29 H        7.3320    -1.1310    -2.1000 H     1 <1>   0.1500 
 30 H        7.3930     0.7010     1.7430 H     1 <1>   0.1500 
 31 H        8.8100     1.5540    -0.0840 H     1 <1>   0.0800 
 32 H        8.7880     0.8030    -1.6500 H     1 <1>   0.0800 
 33 H       10.0050    -0.4150     0.8500 H     1 <1>   0.0800 
 34 H       10.8990     0.2960    -0.4740 H     1 <1>   0.0800 
 35 H        9.9820    -1.1710    -0.7260 H     1 <1>   0.0800 
@<TRIPOS>BOND
  1   1   2  1   
  2   1   3  1   
  3   2   4  1   
  4   2  16  1   
  5   2  17  1   
  6   3   5  1   
  7   3  18  1   
  8   3  19  1   
  9   4   6  1   
 10   4  20  1   
 11   4  21  1   
 12   5   6  1   
 13   5  22  1   
 14   5  23  1   
 15   6   7  1   
 16   6  24  1   
 17   7   8  1   
 18   7  25  1   
 19   7  26  1   
 20   8   9  ar  
 21   8  10  ar  
 22   9  11  ar  
 23   9  27  1   
 24  10  12  ar  
 25  10  28  1   
 26  11  13  ar  
 27  11  29  1   
 28  12  13  ar  
 29  12  30  1   
 30  13  14  1   
 31  14  15  1   
 32  14  31  1   
 33  14  32  1   
 34  15  33  1   
 35  15  34  1   
 36  15  35  1   
@<TRIPOS>SUBSTRUCTURE
  1 ****   8 GROUP 4 **** **** 0

# MOE 2024.06 (io_trps.svl 2023.06)
