@<TRIPOS>MOLECULE
NONAME
35 35 1 0 0 
SMALL
USER_CHARGES


@<TRIPOS>ATOM
  1 S      -12.2370     1.7280    -0.4750 S.3   1 <1>  -0.3320 
  2 C      -10.4810     1.6450    -0.0860 C.ar  1 <1>   0.1020 
  3 C      -12.9470     3.1030     0.5330 C.3   1 <1>  -0.0100 
  4 C       -9.8760     2.5220     0.7990 C.ar  1 <1>  -0.1500 
  5 C       -9.7470     0.6560    -0.7140 C.ar  1 <1>  -0.1500 
  6 C       -8.5200     2.4040     1.0520 C.ar  1 <1>  -0.1500 
  7 C       -8.3920     0.5400    -0.4590 C.ar  1 <1>  -0.1500 
  8 C       -7.7720     1.4160     0.4230 C.ar  1 <1>  -0.1430 
  9 C       -6.2880     1.2990     0.6860 C.3   1 <1>   0.4860 
 10 N       -5.6240     2.2320    -0.2390 N.4   1 <1>  -0.9060 
 11 C       -4.1500     2.2610    -0.1690 C.3   1 <1>   0.4230 
 12 C       -3.6750     3.6880    -0.5310 C.3   1 <1>   0.1200 
 13 C       -3.5740     1.1790    -1.0930 C.3   1 <1>  -0.1600 
 14 O       -4.5930     4.6270    -0.0460 O.3   1 <1>  -0.6800 
 15 C       -2.0440     1.0740    -1.0020 C.3   1 <1>  -0.2400 
 16 H      -14.0000     3.1490     0.3210 H     1 <1>   0.0800 
 17 H      -12.4610     4.0160     0.2410 H     1 <1>   0.0800 
 18 H      -12.7770     2.8780     1.5710 H     1 <1>   0.0800 
 19 H      -10.4420     3.2890     1.2920 H     1 <1>   0.1500 
 20 H      -10.2420    -0.0150    -1.3940 H     1 <1>   0.1500 
 21 H       -8.0610     3.0900     1.7450 H     1 <1>   0.1500 
 22 H       -7.8390    -0.2400    -0.9560 H     1 <1>   0.1500 
 23 H       -5.9620     0.2880     0.5040 H     1 <1>   0.0800 
 24 H       -6.0710     1.5610     1.7090 H     1 <1>   0.0800 
 25 H       -5.9070     3.2000    -0.0030 H     1 <1>   0.4500 
 26 H       -5.9570     2.0790    -1.1940 H     1 <1>   0.4500 
 27 H       -3.8380     2.0610     0.8440 H     1 <1>   0.0800 
 28 H       -3.6050     3.8090    -1.5990 H     1 <1>   0.0800 
 29 H       -2.7110     3.8860    -0.0940 H     1 <1>   0.0800 
 30 H       -3.8440     1.3860    -2.1150 H     1 <1>   0.0800 
 31 H       -3.9850     0.2220    -0.8240 H     1 <1>   0.0800 
 32 H       -4.2690     5.5440    -0.1940 H     1 <1>   0.4000 
 33 H       -1.5650     1.9770    -1.3410 H     1 <1>   0.0800 
 34 H       -1.6970     0.2660    -1.6230 H     1 <1>   0.0800 
 35 H       -1.7310     0.8730     0.0090 H     1 <1>   0.0800 
@<TRIPOS>BOND
  1   1   2  1   
  2   1   3  1   
  3   2   4  ar  
  4   2   5  ar  
  5   3  16  1   
  6   3  17  1   
  7   3  18  1   
  8   4   6  ar  
  9   4  19  1   
 10   5   7  ar  
 11   5  20  1   
 12   6   8  ar  
 13   6  21  1   
 14   7   8  ar  
 15   7  22  1   
 16   8   9  1   
 17   9  10  1   
 18   9  23  1   
 19   9  24  1   
 20  10  11  1   
 21  10  25  1   
 22  10  26  1   
 23  11  12  1   
 24  11  13  1   
 25  11  27  1   
 26  12  14  1   
 27  12  28  1   
 28  12  29  1   
 29  13  15  1   
 30  13  30  1   
 31  13  31  1   
 32  14  32  1   
 33  15  33  1   
 34  15  34  1   
 35  15  35  1   
@<TRIPOS>SUBSTRUCTURE
  1 ****   8 GROUP 4 **** **** 0

# MOE 2024.06 (io_trps.svl 2023.06)
