@<TRIPOS>MOLECULE
NONAME
44 45 1 0 0 
SMALL
USER_CHARGES


@<TRIPOS>ATOM
  1 S       -0.1130    -0.5500    -0.0070 S.3   1 <1>  -0.2860 
  2 C        1.5520    -1.0400    -0.4680 C.2   1 <1>   0.2420 
  3 C       -1.1710    -1.6500    -1.0730 C.3   1 <1>   0.1310 
  4 N        1.8100    -1.9320    -1.3570 N.2   1 <1>  -0.3380 
  5 N        2.6410    -0.5060     0.0830 N.pl3 1 <1>   0.0480 
  6 C       -2.6520    -1.3480    -0.9010 C.2   1 <1>   0.5690 
  7 N        3.1430    -2.0080    -1.4170 N.2   1 <1>  -0.3380 
  8 C        3.6170    -1.1620    -0.5630 C.2   1 <1>   0.0060 
  9 C        2.7330     0.5360     1.1290 C.3   1 <1>   0.0960 
 10 O       -3.4530    -2.1800    -1.2550 O.2   1 <1>  -0.5700 
 11 N       -3.0400    -0.1600    -0.3670 N.am  1 <1>  -0.7300 
 12 C        5.0990    -0.9440    -0.3270 C.3   1 <1>  -0.0600 
 13 C        2.7480     1.9340     0.4990 C.3   1 <1>  -0.1600 
 14 C       -4.4270     0.2690    -0.1370 C.3   1 <1>   0.2200 
 15 C        2.8540     3.0240     1.5700 C.3   1 <1>  -0.2400 
 16 C       -4.6720     1.5760    -0.8970 C.3   1 <1>  -0.1600 
 17 C       -4.6430     0.4510     1.3690 C.3   1 <1>  -0.1600 
 18 C       -6.0730     2.1340    -0.6040 C.3   1 <1>  -0.1600 
 19 C       -6.0440     1.0070     1.6660 C.3   1 <1>  -0.1600 
 20 C       -6.2940     2.3160     0.9040 C.3   1 <1>  -0.1600 
 21 H       -0.9600    -2.6650    -0.7900 H     1 <1>   0.0800 
 22 H       -0.8750    -1.4900    -2.0930 H     1 <1>   0.0800 
 23 H        3.6300     0.3770     1.7000 H     1 <1>   0.0800 
 24 H        1.8920     0.4380     1.7920 H     1 <1>   0.0800 
 25 H       -2.3200     0.4900    -0.0480 H     1 <1>   0.3700 
 26 H        5.3580     0.0810    -0.5170 H     1 <1>   0.0800 
 27 H        5.6680    -1.5700    -0.9910 H     1 <1>   0.0800 
 28 H        5.3540    -1.1980     0.6850 H     1 <1>   0.0800 
 29 H        1.8420     2.0830    -0.0640 H     1 <1>   0.0800 
 30 H        3.5840     2.0200    -0.1740 H     1 <1>   0.0800 
 31 H       -5.1060    -0.4840    -0.5020 H     1 <1>   0.0800 
 32 H        2.0160     2.9770     2.2430 H     1 <1>   0.0800 
 33 H        2.8610     3.9960     1.1060 H     1 <1>   0.0800 
 34 H        3.7620     2.9130     2.1370 H     1 <1>   0.0800 
 35 H       -4.5760     1.3950    -1.9530 H     1 <1>   0.0800 
 36 H       -3.9380     2.3060    -0.6060 H     1 <1>   0.0800 
 37 H       -3.9070     1.1300     1.7600 H     1 <1>   0.0800 
 38 H       -4.5270    -0.5000     1.8600 H     1 <1>   0.0800 
 39 H       -6.8140     1.4570    -0.9930 H     1 <1>   0.0800 
 40 H       -6.1970     3.0800    -1.1040 H     1 <1>   0.0800 
 41 H       -6.1480     1.1780     2.7240 H     1 <1>   0.0800 
 42 H       -6.7840     0.2800     1.3760 H     1 <1>   0.0800 
 43 H       -7.3020     2.6490     1.0830 H     1 <1>   0.0800 
 44 H       -5.6260     3.0760     1.2730 H     1 <1>   0.0800 
@<TRIPOS>BOND
  1   1   2  1   
  2   1   3  1   
  3   2   4  2   
  4   2   5  1   
  5   3   6  1   
  6   3  21  1   
  7   3  22  1   
  8   4   7  1   
  9   5   8  1   
 10   5   9  1   
 11   6  10  2   
 12   6  11  am  
 13   7   8  2   
 14   8  12  1   
 15   9  13  1   
 16   9  23  1   
 17   9  24  1   
 18  11  14  1   
 19  11  25  1   
 20  12  26  1   
 21  12  27  1   
 22  12  28  1   
 23  13  15  1   
 24  13  29  1   
 25  13  30  1   
 26  14  16  1   
 27  14  17  1   
 28  14  31  1   
 29  15  32  1   
 30  15  33  1   
 31  15  34  1   
 32  16  18  1   
 33  16  35  1   
 34  16  36  1   
 35  17  19  1   
 36  17  37  1   
 37  17  38  1   
 38  18  20  1   
 39  18  39  1   
 40  18  40  1   
 41  19  20  1   
 42  19  41  1   
 43  19  42  1   
 44  20  43  1   
 45  20  44  1   
@<TRIPOS>SUBSTRUCTURE
  1 ****   1 GROUP 4 **** **** 0

# MOE 2024.06 (io_trps.svl 2023.06)
