@<TRIPOS>MOLECULE
NONAME
53 54 1 0 0 
SMALL
USER_CHARGES


@<TRIPOS>ATOM
  1 O       -6.3410     3.1740    -0.0890 O.3   1 <1>  -0.3630 
  2 C       -7.3460     2.2760     0.0620 C.ar  1 <1>   0.0830 
  3 C       -5.2400     3.1800     0.8060 C.3   1 <1>   0.1200 
  4 C       -8.6860     2.6880     0.0120 C.ar  1 <1>  -0.1440 
  5 C       -7.0160     0.9350     0.2430 C.ar  1 <1>  -0.1500 
  6 C       -3.9300     3.1240     0.0080 C.3   1 <1>   0.2000 
  7 C       -9.6570     1.6980     0.1790 C.ar  1 <1>  -0.1500 
  8 C       -9.0950     4.1720    -0.2210 C.3   1 <1>   0.1440 
  9 C       -8.0010    -0.0160     0.4040 C.ar  1 <1>  -0.1500 
 10 O       -4.0300     2.0880    -0.9160 O.3   1 <1>  -0.6800 
 11 C       -2.7060     2.9090     0.9250 C.3   1 <1>   0.1100 
 12 C       -9.3240     0.3700     0.3750 C.ar  1 <1>  -0.1500 
 13 C       -8.5630     5.0660     0.9120 C.3   1 <1>  -0.2400 
 14 C       -8.5680     4.6730    -1.5770 C.3   1 <1>  -0.2400 
 15 C      -10.6220     4.3840    -0.2520 C.3   1 <1>  -0.2400 
 16 N       -1.3960     3.2910     0.3310 N.3   1 <1>  -0.8100 
 17 C       -1.0590     2.4850    -0.8670 C.3   1 <1>   0.1100 
 18 C       -0.3310     3.2090     1.3510 C.3   1 <1>   0.1100 
 19 C        0.3200     2.8520    -1.4480 C.3   1 <1>   0.3430 
 20 C        1.0470     3.6020     0.7800 C.3   1 <1>   0.3430 
 21 N        1.4080     2.7640    -0.4150 N.4   1 <1>  -0.9590 
 22 C        2.7300     3.1630    -0.9820 C.3   1 <1>   0.2630 
 23 H       -5.3120     2.3540     1.4910 H     1 <1>   0.0800 
 24 H       -5.2880     4.0920     1.3740 H     1 <1>   0.0800 
 25 H       -5.9890     0.6210     0.2500 H     1 <1>   0.1500 
 26 H       -3.8150     4.0480    -0.5320 H     1 <1>   0.0800 
 27 H      -10.7050     1.9240     0.1620 H     1 <1>   0.1500 
 28 H       -7.7410    -1.0510     0.5470 H     1 <1>   0.1500 
 29 H       -4.9210     2.1430    -1.3280 H     1 <1>   0.4000 
 30 H       -2.6850     1.8820     1.2480 H     1 <1>   0.0800 
 31 H       -2.8540     3.5190     1.8000 H     1 <1>   0.0800 
 32 H      -10.1010    -0.3650     0.5010 H     1 <1>   0.1500 
 33 H       -7.4930     5.1130     0.9070 H     1 <1>   0.0800 
 34 H       -8.8810     4.6790     1.8640 H     1 <1>   0.0800 
 35 H       -8.9310     6.0710     0.8100 H     1 <1>   0.0800 
 36 H       -7.4960     4.7010    -1.6000 H     1 <1>   0.0800 
 37 H       -8.9220     5.6670    -1.7810 H     1 <1>   0.0800 
 38 H       -8.9040     4.0200    -2.3630 H     1 <1>   0.0800 
 39 H      -11.0650     4.0950     0.6850 H     1 <1>   0.0800 
 40 H      -11.0680     3.8120    -1.0460 H     1 <1>   0.0800 
 41 H      -10.8600     5.4200    -0.4210 H     1 <1>   0.0800 
 42 H       -1.7850     2.6690    -1.6380 H     1 <1>   0.0800 
 43 H       -1.0910     1.4360    -0.6280 H     1 <1>   0.0800 
 44 H       -0.2820     2.2110     1.7520 H     1 <1>   0.0800 
 45 H       -0.5680     3.8780     2.1610 H     1 <1>   0.0800 
 46 H        0.2650     3.8580    -1.8310 H     1 <1>   0.0800 
 47 H        0.5400     2.1950    -2.2730 H     1 <1>   0.0800 
 48 H        1.7940     3.4890     1.5480 H     1 <1>   0.0800 
 49 H        1.0130     4.6410     0.4980 H     1 <1>   0.0800 
 50 H        1.4500     1.7850    -0.1030 H     1 <1>   0.4500 
 51 H        2.6990     4.1880    -1.3170 H     1 <1>   0.0800 
 52 H        2.9820     2.5340    -1.8210 H     1 <1>   0.0800 
 53 H        3.5030     3.0660    -0.2370 H     1 <1>   0.0800 
@<TRIPOS>BOND
  1   1   2  1   
  2   1   3  1   
  3   2   4  ar  
  4   2   5  ar  
  5   3   6  1   
  6   3  23  1   
  7   3  24  1   
  8   4   7  ar  
  9   4   8  1   
 10   5   9  ar  
 11   5  25  1   
 12   6  10  1   
 13   6  11  1   
 14   6  26  1   
 15   7  12  ar  
 16   7  27  1   
 17   8  13  1   
 18   8  14  1   
 19   8  15  1   
 20   9  12  ar  
 21   9  28  1   
 22  10  29  1   
 23  11  16  1   
 24  11  30  1   
 25  11  31  1   
 26  12  32  1   
 27  13  33  1   
 28  13  34  1   
 29  13  35  1   
 30  14  36  1   
 31  14  37  1   
 32  14  38  1   
 33  15  39  1   
 34  15  40  1   
 35  15  41  1   
 36  16  17  1   
 37  16  18  1   
 38  17  19  1   
 39  17  42  1   
 40  17  43  1   
 41  18  20  1   
 42  18  44  1   
 43  18  45  1   
 44  19  21  1   
 45  19  46  1   
 46  19  47  1   
 47  20  21  1   
 48  20  48  1   
 49  20  49  1   
 50  21  22  1   
 51  21  50  1   
 52  22  51  1   
 53  22  52  1   
 54  22  53  1   
@<TRIPOS>SUBSTRUCTURE
  1 ****   6 GROUP 4 **** **** 0

# MOE 2024.06 (io_trps.svl 2023.06)
