@<TRIPOS>MOLECULE
NONAME
33 34 1 0 0 
SMALL
USER_CHARGES


@<TRIPOS>ATOM
  1 BR       0.0140     0.1000    -0.2380 Br    1 <1>  -0.1110 
  2 C        1.6190    -0.9560    -0.3280 C.ar  1 <1>   0.1110 
  3 C        1.6190    -2.2220     0.2100 C.ar  1 <1>  -0.1500 
  4 C        2.7370    -0.4100    -0.9360 C.ar  1 <1>  -0.1500 
  5 C        2.7820    -2.9960     0.1490 C.ar  1 <1>   0.0860 
  6 C        3.8860    -1.1710    -0.9990 C.ar  1 <1>  -0.1500 
  7 C        2.8760    -4.3260     0.6830 C.2   1 <1>   0.5440 
  8 C        3.9240    -2.4580    -0.4640 C.ar  1 <1>   0.1790 
  9 O        1.9220    -4.8560     1.2290 O.2   1 <1>  -0.5700 
 10 N        4.0730    -4.9990     0.5660 N.am  1 <1>  -0.4200 
 11 N        5.0960    -3.1760    -0.5520 N.2   1 <1>  -0.6290 
 12 C        5.1200    -4.3570    -0.0590 C.2   1 <1>   0.6510 
 13 C        4.2260    -6.3860     1.1040 C.3   1 <1>   0.0600 
 14 S        6.6540    -5.2620    -0.1900 S.3   1 <1>  -0.3710 
 15 C        7.7920    -4.0880    -1.0760 C.3   1 <1>   0.1310 
 16 C        9.1740    -4.6920    -1.2310 C.2   1 <1>   0.6590 
 17 O        9.6080    -5.0130    -2.3080 O.2   1 <1>  -0.5700 
 18 O        9.8840    -4.8250    -0.1170 O.3   1 <1>  -0.4300 
 19 C       11.1800    -5.3750    -0.1320 C.3   1 <1>   0.1200 
 20 C       11.7030    -5.3920     1.3010 C.3   1 <1>  -0.2400 
 21 H        0.7320    -2.6160     0.6760 H     1 <1>   0.1500 
 22 H        2.6980     0.5840    -1.3460 H     1 <1>   0.1500 
 23 H        4.7730    -0.7790    -1.4640 H     1 <1>   0.1500 
 24 H        3.3160    -6.7340     1.5590 H     1 <1>   0.0800 
 25 H        5.0040    -6.4040     1.8470 H     1 <1>   0.0800 
 26 H        4.4830    -7.0590     0.3050 H     1 <1>   0.0800 
 27 H        7.8400    -3.1850    -0.4970 H     1 <1>   0.0800 
 28 H        7.3590    -3.8890    -2.0390 H     1 <1>   0.0800 
 29 H       11.8030    -4.7640    -0.7640 H     1 <1>   0.0800 
 30 H       11.1230    -6.3720    -0.5350 H     1 <1>   0.0800 
 31 H       11.7450    -4.3920     1.6930 H     1 <1>   0.0800 
 32 H       12.6930    -5.8100     1.3210 H     1 <1>   0.0800 
 33 H       11.0640    -5.9960     1.9210 H     1 <1>   0.0800 
@<TRIPOS>BOND
  1   1   2  1   
  2   2   3  ar  
  3   2   4  ar  
  4   3   5  ar  
  5   3  21  1   
  6   4   6  ar  
  7   4  22  1   
  8   5   7  1   
  9   5   8  ar  
 10   6   8  ar  
 11   6  23  1   
 12   7   9  2   
 13   7  10  am  
 14   8  11  1   
 15  10  12  1   
 16  10  13  1   
 17  11  12  2   
 18  12  14  1   
 19  13  24  1   
 20  13  25  1   
 21  13  26  1   
 22  14  15  1   
 23  15  16  1   
 24  15  27  1   
 25  15  28  1   
 26  16  17  2   
 27  16  18  1   
 28  18  19  1   
 29  19  20  1   
 30  19  29  1   
 31  19  30  1   
 32  20  31  1   
 33  20  32  1   
 34  20  33  1   
@<TRIPOS>SUBSTRUCTURE
  1 ****  11 GROUP 4 **** **** 0

# MOE 2024.06 (io_trps.svl 2023.06)
