@<TRIPOS>MOLECULE
NONAME
39 42 1 0 0 
SMALL
USER_CHARGES


@<TRIPOS>ATOM
  1 S        0.0210    -0.1710    -0.3680 S.3   1 <1>  -0.0800 
  2 C        1.2860     1.0290    -0.2930 C.2   1 <1>   0.1660 
  3 C       -1.2060     1.0800    -0.4970 C.2   1 <1>  -0.1400 
  4 N        2.5900     0.6840    -0.1760 N.2   1 <1>  -0.5760 
  5 C        0.7910     2.2850    -0.3660 C.2   1 <1>  -0.0860 
  6 C       -0.6510     2.3080    -0.4820 C.2   1 <1>  -0.1810 
  7 C       -2.6460     0.6190    -0.6050 C.3   1 <1>   0.0200 
  8 C        3.4440     1.6550    -0.1290 C.2   1 <1>   0.5140 
  9 C        1.7820     3.3110    -0.3170 C.2   1 <1>   0.8060 
 10 C       -1.4710     3.5880    -0.5880 C.3   1 <1>   0.0210 
 11 C       -3.5340     1.2750     0.4590 C.3   1 <1>  -0.1600 
 12 O        3.0520     2.9350    -0.1970 O.3   1 <1>  -0.3000 
 13 C        4.8760     1.4450    -0.0020 C.ar  1 <1>   0.0860 
 14 O        1.5690     4.5060    -0.3780 O.2   1 <1>  -0.5700 
 15 C       -2.5630     3.6750     0.4880 C.3   1 <1>  -0.1600 
 16 C       -3.7850     2.7750     0.2330 C.3   1 <1>  -0.1600 
 17 C        5.4130     0.1570     0.0880 C.ar  1 <1>  -0.1500 
 18 C        5.7850     2.5080     0.0360 C.ar  1 <1>  -0.1500 
 19 C        6.7730    -0.0690     0.2100 C.ar  1 <1>  -0.1430 
 20 C        7.1450     2.2950     0.1570 C.ar  1 <1>  -0.1500 
 21 C        7.6410     1.0080     0.2440 C.ar  1 <1>  -0.1500 
 22 C        7.3230    -1.4810     0.3050 C.3   1 <1>  -0.0970 
 23 H       -2.6820    -0.4480    -0.4720 H     1 <1>   0.0800 
 24 H       -3.0190     0.8380    -1.5890 H     1 <1>   0.0800 
 25 H       -1.9130     3.6470    -1.5660 H     1 <1>   0.0800 
 26 H       -0.8400     4.4480    -0.4780 H     1 <1>   0.0800 
 27 H       -3.1000     1.1200     1.4320 H     1 <1>   0.0800 
 28 H       -4.4860     0.7730     0.4490 H     1 <1>   0.0800 
 29 H       -2.9080     4.6930     0.5190 H     1 <1>   0.0800 
 30 H       -2.1370     3.4540     1.4510 H     1 <1>   0.0800 
 31 H       -4.5610     3.0800     0.9140 H     1 <1>   0.0800 
 32 H       -4.1580     2.9380    -0.7640 H     1 <1>   0.0800 
 33 H        4.7450    -0.6870     0.0610 H     1 <1>   0.1500 
 34 H        5.4330     3.5230    -0.0290 H     1 <1>   0.1500 
 35 H        7.8230     3.1320     0.1850 H     1 <1>   0.1500 
 36 H        8.7010     0.8480     0.3380 H     1 <1>   0.1500 
 37 H        6.5280    -2.2040     0.3320 H     1 <1>   0.0800 
 38 H        7.9110    -1.5860     1.1990 H     1 <1>   0.0800 
 39 H        7.9460    -1.6890    -0.5470 H     1 <1>   0.0800 
@<TRIPOS>BOND
  1   1   2  1   
  2   1   3  1   
  3   2   4  1   
  4   2   5  2   
  5   3   6  2   
  6   3   7  1   
  7   4   8  2   
  8   5   6  1   
  9   5   9  1   
 10   6  10  1   
 11   7  11  1   
 12   7  23  1   
 13   7  24  1   
 14   8  12  1   
 15   8  13  1   
 16   9  12  1   
 17   9  14  2   
 18  10  15  1   
 19  10  25  1   
 20  10  26  1   
 21  11  16  1   
 22  11  27  1   
 23  11  28  1   
 24  13  17  ar  
 25  13  18  ar  
 26  15  16  1   
 27  15  29  1   
 28  15  30  1   
 29  16  31  1   
 30  16  32  1   
 31  17  19  ar  
 32  17  33  1   
 33  18  20  ar  
 34  18  34  1   
 35  19  21  ar  
 36  19  22  1   
 37  20  21  ar  
 38  20  35  1   
 39  21  36  1   
 40  22  37  1   
 41  22  38  1   
 42  22  39  1   
@<TRIPOS>SUBSTRUCTURE
  1 ****   2 GROUP 4 **** **** 0

# MOE 2024.06 (io_trps.svl 2023.06)
