@<TRIPOS>MOLECULE
NONAME
35 35 1 0 0 
SMALL
USER_CHARGES


@<TRIPOS>ATOM
  1 O        0.8550    -0.5220    -0.0050 O.3   1 <1>  -0.3630 
  2 C       -0.4490    -0.8480    -0.1140 C.ar  1 <1>   0.0830 
  3 C        1.2960    -0.2040     1.3000 C.3   1 <1>   0.1200 
  4 C       -0.8620    -2.1800    -0.0990 C.ar  1 <1>  -0.1440 
  5 C       -1.3670     0.1820    -0.2450 C.ar  1 <1>  -0.1500 
  6 C        2.7230     0.3490     1.2040 C.3   1 <1>   0.3430 
  7 C       -2.2230    -2.4610    -0.1880 C.ar  1 <1>  -0.1440 
  8 C        0.1490    -3.3200     0.0120 C.3   1 <1>  -0.0970 
  9 C       -2.7130    -0.1070    -0.3410 C.ar  1 <1>  -0.1500 
 10 N        3.4870    -0.3930     0.1580 N.4   1 <1>  -0.9060 
 11 C       -3.1350    -1.4230    -0.3090 C.ar  1 <1>  -0.1500 
 12 C       -2.7560    -3.8880    -0.1590 C.3   1 <1>  -0.0970 
 13 C        4.7220     0.3180    -0.2810 C.3   1 <1>   0.3430 
 14 C        5.4270    -0.4240    -1.4230 C.3   1 <1>   0.1200 
 15 O        6.5690     0.2880    -1.7370 O.3   1 <1>  -0.6800 
 16 H        1.2650    -1.1010     1.8940 H     1 <1>   0.0800 
 17 H        0.6320     0.5260     1.7300 H     1 <1>   0.0800 
 18 H       -1.0350     1.2030    -0.2760 H     1 <1>   0.1500 
 19 H        3.2140     0.2830     2.1610 H     1 <1>   0.0800 
 20 H        2.6600     1.3900     0.9320 H     1 <1>   0.0800 
 21 H        1.1520    -2.9850    -0.1710 H     1 <1>   0.0800 
 22 H       -0.0700    -4.0830    -0.7120 H     1 <1>   0.0800 
 23 H        0.1020    -3.7520     0.9960 H     1 <1>   0.0800 
 24 H       -3.4330     0.6870    -0.4420 H     1 <1>   0.1500 
 25 H        2.8290    -0.5050    -0.6330 H     1 <1>   0.4500 
 26 H        3.7030    -1.3410     0.4860 H     1 <1>   0.4500 
 27 H       -4.1880    -1.6320    -0.3820 H     1 <1>   0.1500 
 28 H       -2.3660    -4.4170     0.6910 H     1 <1>   0.0800 
 29 H       -2.4720    -4.4050    -1.0580 H     1 <1>   0.0800 
 30 H       -3.8290    -3.8980    -0.0910 H     1 <1>   0.0800 
 31 H        5.4050     0.4060     0.5470 H     1 <1>   0.0800 
 32 H        4.4680     1.3090    -0.6230 H     1 <1>   0.0800 
 33 H        4.8080    -0.4670    -2.3020 H     1 <1>   0.0800 
 34 H        5.7260    -1.4140    -1.1210 H     1 <1>   0.0800 
 35 H        7.0690    -0.1270    -2.4730 H     1 <1>   0.4000 
@<TRIPOS>BOND
  1   1   2  1   
  2   1   3  1   
  3   2   4  ar  
  4   2   5  ar  
  5   3   6  1   
  6   3  16  1   
  7   3  17  1   
  8   4   7  ar  
  9   4   8  1   
 10   5   9  ar  
 11   5  18  1   
 12   6  10  1   
 13   6  19  1   
 14   6  20  1   
 15   7  11  ar  
 16   7  12  1   
 17   8  21  1   
 18   8  22  1   
 19   8  23  1   
 20   9  11  ar  
 21   9  24  1   
 22  10  13  1   
 23  10  25  1   
 24  10  26  1   
 25  11  27  1   
 26  12  28  1   
 27  12  29  1   
 28  12  30  1   
 29  13  14  1   
 30  13  31  1   
 31  13  32  1   
 32  14  15  1   
 33  14  33  1   
 34  14  34  1   
 35  15  35  1   
@<TRIPOS>SUBSTRUCTURE
  1 ****   1 GROUP 4 **** **** 0

# MOE 2024.06 (io_trps.svl 2023.06)
