@<TRIPOS>MOLECULE
NONAME
49 51 1 0 0 
SMALL
USER_CHARGES


@<TRIPOS>ATOM
  1 O       -0.0470     1.4380    -2.0310 O.2   1 <1>  -0.5700 
  2 C        0.2410     2.1820    -1.1230 C.2   1 <1>   0.5690 
  3 N       -0.6520     2.8030    -0.2930 N.am  1 <1>  -0.2370 
  4 C        1.6830     2.6120    -0.8140 C.3   1 <1>   0.2510 
  5 C       -2.0240     2.4930    -0.2040 C.ar  1 <1>   0.1170 
  6 C        0.0010     3.7630     0.4310 C.2   1 <1>   0.5690 
  7 N        2.5300     1.6170    -0.0900 N.3   1 <1>  -0.8100 
  8 C        1.4680     3.8300     0.0940 C.3   1 <1>  -0.0990 
  9 C       -2.9930     3.4910    -0.1670 C.ar  1 <1>  -0.1500 
 10 C       -2.4540     1.1720    -0.1500 C.ar  1 <1>  -0.1500 
 11 O       -0.4930     4.5140     1.2330 O.2   1 <1>  -0.5700 
 12 C        2.3970     0.2450    -0.6310 C.3   1 <1>   0.1100 
 13 C        3.9480     2.0300    -0.1020 C.3   1 <1>   0.1100 
 14 C       -4.3350     3.1770    -0.0800 C.ar  1 <1>  -0.1500 
 15 C       -3.7970     0.8600    -0.0630 C.ar  1 <1>  -0.1500 
 16 C        3.1950    -0.7610     0.2150 C.3   1 <1>  -0.0800 
 17 C        4.7820     1.0990     0.7810 C.3   1 <1>  -0.1600 
 18 C       -4.7800     1.8540    -0.0250 C.ar  1 <1>   0.0860 
 19 C        4.6720    -0.3530     0.3060 C.3   1 <1>  -0.1600 
 20 C        3.0660    -2.1770    -0.3610 C.3   1 <1>  -0.2400 
 21 C       -6.1930     1.5410     0.0650 C.2   1 <1>   0.6340 
 22 O       -7.0630     2.3880     0.0810 O.2   1 <1>  -0.5700 
 23 O       -6.5490     0.2540     0.1350 O.3   1 <1>  -0.4300 
 24 C       -7.9010    -0.1340     0.2250 C.3   1 <1>   0.1200 
 25 C       -7.9530    -1.6570     0.2880 C.3   1 <1>  -0.2400 
 26 H        2.1600     2.8960    -1.7360 H     1 <1>   0.0800 
 27 H        1.6640     4.7430    -0.4360 H     1 <1>   0.0800 
 28 H        2.0470     3.7940     0.9980 H     1 <1>   0.0800 
 29 H       -2.6930     4.5250    -0.2020 H     1 <1>   0.1500 
 30 H       -1.7290     0.3770    -0.1800 H     1 <1>   0.1500 
 31 H        2.7360     0.2200    -1.6530 H     1 <1>   0.0800 
 32 H        1.3670    -0.0630    -0.6080 H     1 <1>   0.0800 
 33 H        4.0500     3.0340     0.2710 H     1 <1>   0.0800 
 34 H        4.3270     2.0060    -1.1110 H     1 <1>   0.0800 
 35 H       -5.0620     3.9720    -0.0510 H     1 <1>   0.1500 
 36 H       -4.0910    -0.1750    -0.0260 H     1 <1>   0.1500 
 37 H        2.7740    -0.7610     1.2060 H     1 <1>   0.0800 
 38 H        4.4350     1.1790     1.7970 H     1 <1>   0.0800 
 39 H        5.8110     1.4090     0.7570 H     1 <1>   0.0800 
 40 H        5.1340    -0.4460    -0.6620 H     1 <1>   0.0800 
 41 H        5.1910    -1.0000     0.9910 H     1 <1>   0.0800 
 42 H        3.4660    -2.2190    -1.3590 H     1 <1>   0.0800 
 43 H        2.0320    -2.4730    -0.3920 H     1 <1>   0.0800 
 44 H        3.6010    -2.8790     0.2540 H     1 <1>   0.0800 
 45 H       -8.4200     0.2360    -0.6440 H     1 <1>   0.0800 
 46 H       -8.3240     0.3060     1.1130 H     1 <1>   0.0800 
 47 H       -7.5190    -2.0800    -0.6000 H     1 <1>   0.0800 
 48 H       -8.9760    -1.9820     0.3580 H     1 <1>   0.0800 
 49 H       -7.4220    -2.0100     1.1540 H     1 <1>   0.0800 
@<TRIPOS>BOND
  1   1   2  2   
  2   2   3  am  
  3   2   4  1   
  4   3   5  1   
  5   3   6  am  
  6   4   7  1   
  7   4   8  1   
  8   4  26  1   
  9   5   9  ar  
 10   5  10  ar  
 11   6   8  1   
 12   6  11  2   
 13   7  12  1   
 14   7  13  1   
 15   8  27  1   
 16   8  28  1   
 17   9  14  ar  
 18   9  29  1   
 19  10  15  ar  
 20  10  30  1   
 21  12  16  1   
 22  12  31  1   
 23  12  32  1   
 24  13  17  1   
 25  13  33  1   
 26  13  34  1   
 27  14  18  ar  
 28  14  35  1   
 29  15  18  ar  
 30  15  36  1   
 31  16  19  1   
 32  16  20  1   
 33  16  37  1   
 34  17  19  1   
 35  17  38  1   
 36  17  39  1   
 37  18  21  1   
 38  19  40  1   
 39  19  41  1   
 40  20  42  1   
 41  20  43  1   
 42  20  44  1   
 43  21  22  2   
 44  21  23  1   
 45  23  24  1   
 46  24  25  1   
 47  24  45  1   
 48  24  46  1   
 49  25  47  1   
 50  25  48  1   
 51  25  49  1   
@<TRIPOS>SUBSTRUCTURE
  1 ****   5 GROUP 4 **** **** 0

# MOE 2024.06 (io_trps.svl 2023.06)
