@<TRIPOS>MOLECULE
NONAME
58 60 1 0 0 
SMALL
USER_CHARGES


@<TRIPOS>ATOM
  1 O       -1.9210    -0.2250    -1.1620 O.3   1 <1>  -0.3630 
  2 C       -2.4020     0.6530    -0.2360 C.ar  1 <1>   0.0830 
  3 C       -0.6500    -0.7950    -0.9140 C.3   1 <1>   0.0400 
  4 C       -3.6000     0.3880     0.4500 C.ar  1 <1>   0.0830 
  5 C       -1.7230     1.8500     0.0200 C.ar  1 <1>   0.0820 
  6 O       -4.3810    -0.7250     0.2770 O.3   1 <1>  -0.3630 
  7 C       -4.0770     1.3110     1.3810 C.ar  1 <1>  -0.1430 
  8 O       -0.5900     2.2080    -0.6320 O.3   1 <1>  -0.3630 
  9 C       -2.1970     2.7380     0.9680 C.ar  1 <1>  -0.1500 
 10 C       -3.8460    -1.9660    -0.1400 C.3   1 <1>   0.0400 
 11 C       -3.3710     2.4730     1.6460 C.ar  1 <1>  -0.1500 
 12 C       -5.3810     1.0530     2.1130 C.3   1 <1>   0.4860 
 13 C       -0.7370     2.5970    -1.9800 C.3   1 <1>   0.0400 
 14 N       -6.4720     0.9630     1.1120 N.4   1 <1>  -0.9590 
 15 C       -6.6570     2.2430     0.3380 C.3   1 <1>   0.3430 
 16 C       -7.7650     0.4680     1.6980 C.3   1 <1>   0.3430 
 17 C       -7.7600     2.1370    -0.7360 C.3   1 <1>   0.2090 
 18 C       -8.8680     0.3050     0.6330 C.3   1 <1>   0.2090 
 19 N       -9.0150     1.5380    -0.1920 N.pl3 1 <1>  -0.8380 
 20 C      -10.0990     2.3710     0.0900 C.ar  1 <1>   0.1000 
 21 C      -11.3280     2.2160    -0.5620 C.ar  1 <1>  -0.1430 
 22 C       -9.9620     3.3630     1.0550 C.ar  1 <1>  -0.1500 
 23 C      -12.3980     3.0400    -0.2220 C.ar  1 <1>  -0.1430 
 24 C      -11.4920     1.1440    -1.6400 C.3   1 <1>  -0.0970 
 25 C      -11.0200     4.1860     1.3800 C.ar  1 <1>  -0.1500 
 26 C      -12.2350     4.0220     0.7440 C.ar  1 <1>  -0.1500 
 27 C      -13.7670     2.9040    -0.8770 C.3   1 <1>  -0.0970 
 28 H       -0.5390    -1.6560    -1.5480 H     1 <1>   0.0800 
 29 H       -0.5890    -1.0870     0.1190 H     1 <1>   0.0800 
 30 H        0.1170    -0.0790    -1.1450 H     1 <1>   0.0800 
 31 H       -1.6400     3.6380     1.1650 H     1 <1>   0.1500 
 32 H       -3.6690    -1.9340    -1.2000 H     1 <1>   0.0800 
 33 H       -4.5620    -2.7370     0.0810 H     1 <1>   0.0800 
 34 H       -2.9310    -2.1540     0.3950 H     1 <1>   0.0800 
 35 H       -3.7190     3.1850     2.3760 H     1 <1>   0.1500 
 36 H       -5.5810     1.8450     2.8150 H     1 <1>   0.0800 
 37 H       -5.2990     0.1230     2.6520 H     1 <1>   0.0800 
 38 H        0.2300     2.8760    -2.3560 H     1 <1>   0.0800 
 39 H       -1.4080     3.4360    -2.0290 H     1 <1>   0.0800 
 40 H       -1.1270     1.7710    -2.5490 H     1 <1>   0.0800 
 41 H       -6.1260     0.2570     0.4380 H     1 <1>   0.4500 
 42 H       -5.7330     2.5200    -0.1420 H     1 <1>   0.0800 
 43 H       -6.9240     3.0360     1.0150 H     1 <1>   0.0800 
 44 H       -8.1170     1.1680     2.4370 H     1 <1>   0.0800 
 45 H       -7.6090    -0.4800     2.1860 H     1 <1>   0.0800 
 46 H       -7.4100     1.5300    -1.5530 H     1 <1>   0.0800 
 47 H       -7.9740     3.1170    -1.1300 H     1 <1>   0.0800 
 48 H       -9.8050     0.0870     1.1190 H     1 <1>   0.0800 
 49 H       -8.6350    -0.5240    -0.0120 H     1 <1>   0.0800 
 50 H       -9.0280     3.4940     1.5600 H     1 <1>   0.1500 
 51 H      -10.5520     0.9000    -2.0980 H     1 <1>   0.0800 
 52 H      -12.1420     1.4800    -2.4260 H     1 <1>   0.0800 
 53 H      -11.9040     0.2530    -1.2040 H     1 <1>   0.0800 
 54 H      -10.9070     4.9530     2.1260 H     1 <1>   0.1500 
 55 H      -13.0550     4.6670     1.0070 H     1 <1>   0.1500 
 56 H      -14.0890     1.8790    -0.8590 H     1 <1>   0.0800 
 57 H      -13.7200     3.2420    -1.8960 H     1 <1>   0.0800 
 58 H      -14.5030     3.4920    -0.3590 H     1 <1>   0.0800 
@<TRIPOS>BOND
  1   1   2  1   
  2   1   3  1   
  3   2   4  ar  
  4   2   5  ar  
  5   3  28  1   
  6   3  29  1   
  7   3  30  1   
  8   4   6  1   
  9   4   7  ar  
 10   5   8  1   
 11   5   9  ar  
 12   6  10  1   
 13   7  11  ar  
 14   7  12  1   
 15   8  13  1   
 16   9  11  ar  
 17   9  31  1   
 18  10  32  1   
 19  10  33  1   
 20  10  34  1   
 21  11  35  1   
 22  12  14  1   
 23  12  36  1   
 24  12  37  1   
 25  13  38  1   
 26  13  39  1   
 27  13  40  1   
 28  14  15  1   
 29  14  16  1   
 30  14  41  1   
 31  15  17  1   
 32  15  42  1   
 33  15  43  1   
 34  16  18  1   
 35  16  44  1   
 36  16  45  1   
 37  17  19  1   
 38  17  46  1   
 39  17  47  1   
 40  18  19  1   
 41  18  48  1   
 42  18  49  1   
 43  19  20  1   
 44  20  21  ar  
 45  20  22  ar  
 46  21  23  ar  
 47  21  24  1   
 48  22  25  ar  
 49  22  50  1   
 50  23  26  ar  
 51  23  27  1   
 52  24  51  1   
 53  24  52  1   
 54  24  53  1   
 55  25  26  ar  
 56  25  54  1   
 57  26  55  1   
 58  27  56  1   
 59  27  57  1   
 60  27  58  1   
@<TRIPOS>SUBSTRUCTURE
  1 ****  15 GROUP 4 **** **** 0

# MOE 2024.06 (io_trps.svl 2023.06)
