@<TRIPOS>MOLECULE
NONAME
38 40 1 0 0 
SMALL
USER_CHARGES


@<TRIPOS>ATOM
  1 O        0.0440    -1.0220    -1.5860 O.2   1 <1>  -0.5700 
  2 C       -0.5080    -1.8260    -0.8760 C.2   1 <1>   0.5690 
  3 N       -0.0570    -3.0700    -0.5360 N.am  1 <1>  -0.6600 
  4 C       -1.8260    -1.5960    -0.2030 C.3   1 <1>  -0.0190 
  5 C       -1.1370    -3.8620     0.1370 C.3   1 <1>   0.1400 
  6 C        1.2030    -3.6900    -1.0110 C.3   1 <1>   0.1400 
  7 C       -2.3480    -3.0150    -0.2530 C.3   1 <1>   0.4180 
  8 C       -3.0880    -0.8000    -0.5940 C.3   1 <1>  -0.0190 
  9 C        2.3690    -3.3880    -0.0540 C.3   1 <1>  -0.0800 
 10 O       -3.5100    -2.8180     0.4620 O.3   1 <1>  -0.5600 
 11 C       -2.9440    -3.3760    -1.6070 C.2   1 <1>  -0.2880 
 12 C       -3.3560     0.3830     0.3120 C.2   1 <1>   0.6590 
 13 C       -4.1530    -1.9110    -0.4110 C.3   1 <1>   0.3380 
 14 C        3.6740    -3.9570    -0.6260 C.3   1 <1>  -0.2400 
 15 C        2.1390    -3.9520     1.3570 C.3   1 <1>  -0.2400 
 16 C       -4.0910    -2.7190    -1.6820 C.2   1 <1>  -0.2880 
 17 O       -4.4650     0.6570     0.6910 O.2   1 <1>  -0.5700 
 18 O       -2.3020     1.1200     0.6400 O.3   1 <1>  -0.4300 
 19 C       -2.4170     2.2680     1.4540 C.3   1 <1>   0.0400 
 20 H       -1.5860    -1.3730     0.8220 H     1 <1>   0.0800 
 21 H       -0.9890    -3.8690     1.2020 H     1 <1>   0.0800 
 22 H       -1.2040    -4.8580    -0.2620 H     1 <1>   0.0800 
 23 H        1.4340    -3.2890    -1.9840 H     1 <1>   0.0800 
 24 H        1.0690    -4.7530    -1.1110 H     1 <1>   0.0800 
 25 H       -3.0460    -0.4570    -1.6110 H     1 <1>   0.0800 
 26 H        2.4760    -2.3170     0.0120 H     1 <1>   0.0800 
 27 H       -2.4440    -4.0440    -2.2860 H     1 <1>   0.1500 
 28 H       -5.1360    -1.6450    -0.0590 H     1 <1>   0.0800 
 29 H        3.6180    -5.0280    -0.7110 H     1 <1>   0.0800 
 30 H        4.5020    -3.7060     0.0140 H     1 <1>   0.0800 
 31 H        3.8670    -3.5420    -1.6000 H     1 <1>   0.0800 
 32 H        1.9650    -5.0120     1.3190 H     1 <1>   0.0800 
 33 H        1.2930    -3.4760     1.8180 H     1 <1>   0.0800 
 34 H        2.9990    -3.7650     1.9760 H     1 <1>   0.0800 
 35 H       -4.8600    -2.6590    -2.4330 H     1 <1>   0.1500 
 36 H       -1.4380     2.6950     1.5810 H     1 <1>   0.0800 
 37 H       -2.8250     1.9800     2.4070 H     1 <1>   0.0800 
 38 H       -3.0690     2.9740     0.9690 H     1 <1>   0.0800 
@<TRIPOS>BOND
  1   1   2  2   
  2   2   3  am  
  3   2   4  1   
  4   3   5  1   
  5   3   6  1   
  6   4   7  1   
  7   4   8  1   
  8   4  20  1   
  9   5   7  1   
 10   5  21  1   
 11   5  22  1   
 12   6   9  1   
 13   6  23  1   
 14   6  24  1   
 15   7  10  1   
 16   7  11  1   
 17   8  12  1   
 18   8  13  1   
 19   8  25  1   
 20   9  14  1   
 21   9  15  1   
 22   9  26  1   
 23  10  13  1   
 24  11  16  2   
 25  11  27  1   
 26  12  17  2   
 27  12  18  1   
 28  13  16  1   
 29  13  28  1   
 30  14  29  1   
 31  14  30  1   
 32  14  31  1   
 33  15  32  1   
 34  15  33  1   
 35  15  34  1   
 36  16  35  1   
 37  18  19  1   
 38  19  36  1   
 39  19  37  1   
 40  19  38  1   
@<TRIPOS>SUBSTRUCTURE
  1 ****   4 GROUP 4 **** **** 0

# MOE 2024.06 (io_trps.svl 2023.06)
