@<TRIPOS>MOLECULE
NONAME
54 54 1 0 0 
SMALL
USER_CHARGES


@<TRIPOS>ATOM
  1 P       -0.0150    -0.2680     0.2070 P.3   1 <1>   0.9710 
  2 O       -0.7780    -0.8150    -0.9130 O.2   1 <1>  -0.7000 
  3 O        1.4200    -0.9540     0.4280 O.3   1 <1>  -0.5510 
  4 C        0.3650     1.4840     0.0640 C.3   1 <1>   0.1100 
  5 C       -0.8340    -0.4300     1.7680 C.3   1 <1>  -0.2400 
  6 C        1.7910    -2.2580     0.1210 C.3   1 <1>   0.2000 
  7 N       -0.7520     2.4630     0.1970 N.3   1 <1>  -0.8100 
  8 C        1.9220    -2.4190    -1.3930 C.3   1 <1>  -0.2400 
  9 C        0.8330    -3.2720     0.7470 C.3   1 <1>  -0.2400 
 10 C       -0.2560     3.8590     0.2910 C.3   1 <1>   0.1100 
 11 C       -1.7650     2.3210    -0.8690 C.3   1 <1>   0.1100 
 12 C       -1.2060     4.9270    -0.2990 C.3   1 <1>   0.1100 
 13 C       -2.9680     3.2680    -0.6550 C.3   1 <1>   0.1100 
 14 N       -2.6260     4.5900    -0.0730 N.3   1 <1>  -0.8100 
 15 C       -3.5530     5.6600    -0.5380 C.3   1 <1>   0.1100 
 16 P       -3.4690     7.2640     0.2710 P.3   1 <1>   0.9710 
 17 O       -2.2660     8.0430    -0.0150 O.2   1 <1>  -0.7000 
 18 O       -4.8170     8.0050    -0.1710 O.3   1 <1>  -0.5510 
 19 C       -3.7050     6.9370     1.9940 C.3   1 <1>  -0.2400 
 20 C       -4.9950     9.3580     0.0390 C.3   1 <1>   0.2000 
 21 C       -6.4750     9.5730     0.3330 C.3   1 <1>  -0.2400 
 22 C       -4.5640    10.1000    -1.2250 C.3   1 <1>  -0.2400 
 23 H        0.8530     1.6670    -0.8760 H     1 <1>   0.0800 
 24 H        1.0800     1.7320     0.8260 H     1 <1>   0.0800 
 25 H       -1.0860    -1.4500     1.9780 H     1 <1>   0.0800 
 26 H       -1.7470     0.1350     1.7770 H     1 <1>   0.0800 
 27 H       -0.2220    -0.0680     2.5710 H     1 <1>   0.0800 
 28 H        2.7660    -2.3970     0.5570 H     1 <1>   0.0800 
 29 H        0.9630    -2.3710    -1.8750 H     1 <1>   0.0800 
 30 H        2.3570    -3.3760    -1.6170 H     1 <1>   0.0800 
 31 H        2.5620    -1.6530    -1.7920 H     1 <1>   0.0800 
 32 H       -0.1430    -3.2100     0.2990 H     1 <1>   0.0800 
 33 H        0.7630    -3.1130     1.8070 H     1 <1>   0.0800 
 34 H        1.2080    -4.2660     0.5810 H     1 <1>   0.0800 
 35 H        0.6930     3.9520    -0.2080 H     1 <1>   0.0800 
 36 H       -0.0960     4.0850     1.3310 H     1 <1>   0.0800 
 37 H       -2.1360     1.3130    -0.9030 H     1 <1>   0.0800 
 38 H       -1.3130     2.5340    -1.8220 H     1 <1>   0.0800 
 39 H       -1.0240     5.0160    -1.3570 H     1 <1>   0.0800 
 40 H       -0.9670     5.8730     0.1520 H     1 <1>   0.0800 
 41 H       -3.6670     2.7850     0.0050 H     1 <1>   0.0800 
 42 H       -3.4590     3.3960    -1.6050 H     1 <1>   0.0800 
 43 H       -4.5500     5.2770    -0.4150 H     1 <1>   0.0800 
 44 H       -3.4090     5.7850    -1.5950 H     1 <1>   0.0800 
 45 H       -4.6170     6.4000     2.1690 H     1 <1>   0.0800 
 46 H       -3.7430     7.8460     2.5620 H     1 <1>   0.0800 
 47 H       -2.8990     6.3430     2.3820 H     1 <1>   0.0800 
 48 H       -4.4010     9.6680     0.8840 H     1 <1>   0.0800 
 49 H       -7.0740     9.2430    -0.4970 H     1 <1>   0.0800 
 50 H       -6.6670    10.6170     0.5020 H     1 <1>   0.0800 
 51 H       -6.7570     9.0290     1.2160 H     1 <1>   0.0800 
 52 H       -5.1280     9.7570    -2.0730 H     1 <1>   0.0800 
 53 H       -3.5160     9.9460    -1.4080 H     1 <1>   0.0800 
 54 H       -4.7300    11.1550    -1.1050 H     1 <1>   0.0800 
@<TRIPOS>BOND
  1   1   2  2   
  2   1   3  1   
  3   1   4  1   
  4   1   5  1   
  5   3   6  1   
  6   4   7  1   
  7   4  23  1   
  8   4  24  1   
  9   5  25  1   
 10   5  26  1   
 11   5  27  1   
 12   6   8  1   
 13   6   9  1   
 14   6  28  1   
 15   7  10  1   
 16   7  11  1   
 17   8  29  1   
 18   8  30  1   
 19   8  31  1   
 20   9  32  1   
 21   9  33  1   
 22   9  34  1   
 23  10  12  1   
 24  10  35  1   
 25  10  36  1   
 26  11  13  1   
 27  11  37  1   
 28  11  38  1   
 29  12  14  1   
 30  12  39  1   
 31  12  40  1   
 32  13  14  1   
 33  13  41  1   
 34  13  42  1   
 35  14  15  1   
 36  15  16  1   
 37  15  43  1   
 38  15  44  1   
 39  16  17  2   
 40  16  18  1   
 41  16  19  1   
 42  18  20  1   
 43  19  45  1   
 44  19  46  1   
 45  19  47  1   
 46  20  21  1   
 47  20  22  1   
 48  20  48  1   
 49  21  49  1   
 50  21  50  1   
 51  21  51  1   
 52  22  52  1   
 53  22  53  1   
 54  22  54  1   
@<TRIPOS>SUBSTRUCTURE
  1 ****  14 GROUP 4 **** **** 0

# MOE 2024.06 (io_trps.svl 2023.06)
