@<TRIPOS>MOLECULE
NONAME
40 40 1 0 0 
SMALL
USER_CHARGES


@<TRIPOS>ATOM
  1 O        0.3000    -1.3620     1.6870 O.2   1 <1>  -0.5700 
  2 C        0.3930    -2.2800     0.9060 C.2   1 <1>   0.4950 
  3 C        1.6190    -2.6380     0.2580 C.2   1 <1>   0.0290 
  4 C       -0.8920    -3.0500     0.6540 C.3   1 <1>  -0.0990 
  5 C        1.6170    -3.7810    -0.6130 C.2   1 <1>   0.4950 
  6 C        2.7470    -1.8770     0.4910 C.2   1 <1>  -0.0500 
  7 C       -0.9350    -3.7020    -0.7340 C.3   1 <1>   0.0000 
  8 O        2.6020    -4.2310    -1.1540 O.2   1 <1>  -0.5700 
  9 C        0.3350    -4.5460    -0.9040 C.3   1 <1>  -0.0990 
 10 N        3.9720    -2.0540    -0.0690 N.pl3 1 <1>  -0.8690 
 11 C       -1.0230    -2.6280    -1.8360 C.3   1 <1>  -0.2400 
 12 C       -2.1730    -4.6050    -0.8410 C.3   1 <1>  -0.2400 
 13 C        5.2400    -1.2600     0.0840 C.3   1 <1>   0.3690 
 14 C        4.9100     0.2130     0.4250 C.3   1 <1>   0.1200 
 15 C        6.0870    -1.8870     1.2180 C.3   1 <1>   0.1200 
 16 C        6.0150    -1.3230    -1.2560 C.3   1 <1>   0.1200 
 17 O        6.0500     1.0200     0.3820 O.3   1 <1>  -0.6800 
 18 O        5.2890    -2.1670     2.3220 O.3   1 <1>  -0.6800 
 19 O        6.1160    -2.6240    -1.7660 O.3   1 <1>  -0.6800 
 20 H       -0.9800    -3.8000     1.4190 H     1 <1>   0.0800 
 21 H       -1.7270    -2.3790     0.7650 H     1 <1>   0.0800 
 22 H        2.6550    -1.0530     1.1840 H     1 <1>   0.1500 
 23 H        0.3820    -4.9290    -1.9080 H     1 <1>   0.0800 
 24 H        0.3070    -5.3920    -0.2410 H     1 <1>   0.0800 
 25 H        4.0960    -2.8160    -0.7700 H     1 <1>   0.4000 
 26 H       -0.1780    -1.9630    -1.8210 H     1 <1>   0.0800 
 27 H       -1.9130    -2.0360    -1.7140 H     1 <1>   0.0800 
 28 H       -1.0620    -3.0900    -2.8070 H     1 <1>   0.0800 
 29 H       -3.0740    -4.0310    -0.7140 H     1 <1>   0.0800 
 30 H       -2.1550    -5.3730    -0.0870 H     1 <1>   0.0800 
 31 H       -2.2110    -5.0820    -1.8050 H     1 <1>   0.0800 
 32 H        4.4970     0.2780     1.4160 H     1 <1>   0.0800 
 33 H        4.2030     0.6030    -0.2870 H     1 <1>   0.0800 
 34 H        6.8790    -1.2270     1.5270 H     1 <1>   0.0800 
 35 H        6.5180    -2.8150     0.8910 H     1 <1>   0.0800 
 36 H        7.0090    -0.9280    -1.1360 H     1 <1>   0.0800 
 37 H        5.5050    -0.7280    -1.9940 H     1 <1>   0.0800 
 38 H        5.8350     1.9300     0.6730 H     1 <1>   0.4000 
 39 H        4.4330    -2.5000     1.9680 H     1 <1>   0.4000 
 40 H        6.5770    -3.2210    -1.1460 H     1 <1>   0.4000 
@<TRIPOS>BOND
  1   1   2  2   
  2   2   3  1   
  3   2   4  1   
  4   3   5  1   
  5   3   6  2   
  6   4   7  1   
  7   4  20  1   
  8   4  21  1   
  9   5   8  2   
 10   5   9  1   
 11   6  10  1   
 12   6  22  1   
 13   7   9  1   
 14   7  11  1   
 15   7  12  1   
 16   9  23  1   
 17   9  24  1   
 18  10  13  1   
 19  10  25  1   
 20  11  26  1   
 21  11  27  1   
 22  11  28  1   
 23  12  29  1   
 24  12  30  1   
 25  12  31  1   
 26  13  14  1   
 27  13  15  1   
 28  13  16  1   
 29  14  17  1   
 30  14  32  1   
 31  14  33  1   
 32  15  18  1   
 33  15  34  1   
 34  15  35  1   
 35  16  19  1   
 36  16  36  1   
 37  16  37  1   
 38  17  38  1   
 39  18  39  1   
 40  19  40  1   
@<TRIPOS>SUBSTRUCTURE
  1 ****   6 GROUP 4 **** **** 0

# MOE 2024.06 (io_trps.svl 2023.06)
