@<TRIPOS>MOLECULE
NONAME
42 44 1 0 0 
SMALL
USER_CHARGES


@<TRIPOS>ATOM
  1 O       -0.4980     1.4950     2.5380 O.2   1 <1>  -0.5700 
  2 C       -1.3670     1.8550     1.7560 C.2   1 <1>   0.6160 
  3 N       -2.6660     1.5030     1.9370 N.am  1 <1>  -0.5470 
  4 C       -1.2480     2.6550     0.5760 C.2   1 <1>  -0.0140 
  5 C       -3.4270     2.0390     0.9170 C.ar  1 <1>   0.1170 
  6 C       -2.5890     2.7500     0.0680 C.ar  1 <1>   0.0280 
  7 C       -0.1220     3.2120     0.0380 C.2   1 <1>  -0.0500 
  8 C       -4.7900     1.9480     0.6840 C.ar  1 <1>  -0.1500 
  9 C       -3.1300     3.3870    -1.0440 C.ar  1 <1>  -0.1500 
 10 N        1.1250     3.0870     0.5670 N.pl3 1 <1>  -0.8690 
 11 C       -5.3190     2.5850    -0.4250 C.ar  1 <1>  -0.1500 
 12 C       -4.4910     3.3010    -1.2840 C.ar  1 <1>  -0.1500 
 13 C        2.3710     3.6620     0.0340 C.3   1 <1>   0.2890 
 14 C        3.2880     2.4830    -0.3100 C.3   1 <1>  -0.1600 
 15 C        2.9230     4.6270     1.0900 C.3   1 <1>  -0.1600 
 16 C        4.6000     2.8540    -1.0200 C.3   1 <1>  -0.1600 
 17 C        3.8180     5.7460     0.5180 C.3   1 <1>  -0.1600 
 18 C        5.7490     3.2320    -0.0660 C.3   1 <1>  -0.1600 
 19 C        5.3050     5.6060     0.8710 C.3   1 <1>  -0.1600 
 20 C        6.1190     4.7220    -0.0840 C.3   1 <1>  -0.1600 
 21 H       -2.9680     0.9300     2.7220 H     1 <1>   0.3700 
 22 H       -0.2050     3.7940    -0.8660 H     1 <1>   0.1500 
 23 H       -5.4180     1.3920     1.3560 H     1 <1>   0.1500 
 24 H       -2.4910     3.9410    -1.7090 H     1 <1>   0.1500 
 25 H        1.2460     2.5380     1.4350 H     1 <1>   0.4000 
 26 H       -6.3750     2.5280    -0.6260 H     1 <1>   0.1500 
 27 H       -4.9160     3.7920    -2.1430 H     1 <1>   0.1500 
 28 H        2.1340     4.2060    -0.8650 H     1 <1>   0.0800 
 29 H        3.4960     1.9110     0.5760 H     1 <1>   0.0800 
 30 H        2.7350     1.8450    -0.9770 H     1 <1>   0.0800 
 31 H        2.0810     5.1120     1.5530 H     1 <1>   0.0800 
 32 H        3.4310     4.0760     1.8610 H     1 <1>   0.0800 
 33 H        4.9170     1.9820    -1.5660 H     1 <1>   0.0800 
 34 H        4.4250     3.6240    -1.7510 H     1 <1>   0.0800 
 35 H        3.6940     5.8430    -0.5470 H     1 <1>   0.0800 
 36 H        3.4790     6.6720     0.9490 H     1 <1>   0.0800 
 37 H        5.5490     2.9080     0.9410 H     1 <1>   0.0800 
 38 H        6.6210     2.6900    -0.3920 H     1 <1>   0.0800 
 39 H        5.7400     6.5900     0.8370 H     1 <1>   0.0800 
 40 H        5.4170     5.2560     1.8830 H     1 <1>   0.0800 
 41 H        6.0610     5.1110    -1.0860 H     1 <1>   0.0800 
 42 H        7.1490     4.8030     0.2170 H     1 <1>   0.0800 
@<TRIPOS>BOND
  1   1   2  2   
  2   2   3  am  
  3   2   4  1   
  4   3   5  1   
  5   3  21  1   
  6   4   6  1   
  7   4   7  2   
  8   5   6  ar  
  9   5   8  ar  
 10   6   9  ar  
 11   7  10  1   
 12   7  22  1   
 13   8  11  ar  
 14   8  23  1   
 15   9  12  ar  
 16   9  24  1   
 17  10  13  1   
 18  10  25  1   
 19  11  12  ar  
 20  11  26  1   
 21  12  27  1   
 22  13  14  1   
 23  13  15  1   
 24  13  28  1   
 25  14  16  1   
 26  14  29  1   
 27  14  30  1   
 28  15  17  1   
 29  15  31  1   
 30  15  32  1   
 31  16  18  1   
 32  16  33  1   
 33  16  34  1   
 34  17  19  1   
 35  17  35  1   
 36  17  36  1   
 37  18  20  1   
 38  18  37  1   
 39  18  38  1   
 40  19  20  1   
 41  19  39  1   
 42  19  40  1   
 43  20  41  1   
 44  20  42  1   
@<TRIPOS>SUBSTRUCTURE
  1 ****   7 GROUP 4 **** **** 0

# MOE 2024.06 (io_trps.svl 2023.06)
