@<TRIPOS>MOLECULE
NONAME
55 57 1 0 0 
SMALL
USER_CHARGES


@<TRIPOS>ATOM
  1 BR       0.6250     1.0890     1.9190 Br    1 <1>  -0.1110 
  2 C        1.6970     2.5510     1.2720 C.ar  1 <1>   0.1110 
  3 C        2.6260     2.3020     0.2810 C.ar  1 <1>  -0.1500 
  4 C        1.5110     3.8060     1.8170 C.ar  1 <1>  -0.1500 
  5 C        3.4040     3.3520    -0.1850 C.ar  1 <1>  -0.1440 
  6 C        2.2860     4.8530     1.3500 C.ar  1 <1>  -0.1500 
  7 C        3.2340     4.6310     0.3500 C.ar  1 <1>   0.0830 
  8 C        4.4390     3.1110    -1.2680 C.3   1 <1>   0.4870 
  9 O        4.0300     5.6210    -0.1380 O.3   1 <1>  -0.3630 
 10 N        5.7590     3.4870    -0.7230 N.4   1 <1>  -0.9590 
 11 C        4.0260     6.9250     0.4120 C.3   1 <1>   0.0400 
 12 C        6.8180     3.8410    -1.7110 C.3   1 <1>   0.3430 
 13 C        6.2850     2.6420     0.3980 C.3   1 <1>   0.3430 
 14 C        7.9550     4.6150    -0.9980 C.3   1 <1>   0.1100 
 15 C        7.5570     3.2820     1.0130 C.3   1 <1>   0.1100 
 16 N        7.7740     4.6430     0.4780 N.3   1 <1>  -0.8100 
 17 C        8.8460     5.3930     1.1520 C.3   1 <1>   0.2530 
 18 C        8.6850     6.8690     0.8180 C.ar  1 <1>  -0.1430 
 19 C        9.6330     7.5650     0.0740 C.ar  1 <1>   0.0830 
 20 C        7.5470     7.5250     1.2580 C.ar  1 <1>  -0.1500 
 21 O       10.7310     6.8830    -0.3540 O.3   1 <1>  -0.3630 
 22 C        9.4250     8.9130    -0.2120 C.ar  1 <1>  -0.1500 
 23 C        7.3300     8.8600     0.9670 C.ar  1 <1>   0.0830 
 24 C       11.8300     7.5530    -0.9320 C.3   1 <1>   0.0400 
 25 C        8.2820     9.5570     0.2300 C.ar  1 <1>  -0.1500 
 26 O        6.1740     9.4050     1.4280 O.3   1 <1>  -0.3620 
 27 C        5.9400    10.7920     1.3240 C.3   1 <1>   0.0400 
 28 H        2.7220     1.3030    -0.1070 H     1 <1>   0.1500 
 29 H        0.7750     3.9580     2.5870 H     1 <1>   0.1500 
 30 H        2.1350     5.8290     1.7740 H     1 <1>   0.1500 
 31 H        4.2030     3.7320    -2.1170 H     1 <1>   0.0800 
 32 H        4.4380     2.0790    -1.5780 H     1 <1>   0.0800 
 33 H        5.5850     4.3980    -0.2520 H     1 <1>   0.4500 
 34 H        4.7690     7.5110    -0.1000 H     1 <1>   0.0800 
 35 H        4.2710     6.8710     1.4590 H     1 <1>   0.0800 
 36 H        3.0550     7.3660     0.2680 H     1 <1>   0.0800 
 37 H        6.4090     4.4640    -2.4900 H     1 <1>   0.0800 
 38 H        7.2160     2.9500    -2.1660 H     1 <1>   0.0800 
 39 H        6.5130     1.6500     0.0470 H     1 <1>   0.0800 
 40 H        5.5350     2.5580     1.1670 H     1 <1>   0.0800 
 41 H        7.9670     5.6240    -1.3750 H     1 <1>   0.0800 
 42 H        8.9040     4.1700    -1.2470 H     1 <1>   0.0800 
 43 H        8.4140     2.6650     0.8000 H     1 <1>   0.0800 
 44 H        7.4400     3.3260     2.0830 H     1 <1>   0.0800 
 45 H        9.8100     5.0160     0.8580 H     1 <1>   0.0800 
 46 H        8.7550     5.2770     2.2190 H     1 <1>   0.0800 
 47 H        6.8100     6.9930     1.8320 H     1 <1>   0.1500 
 48 H       10.1370     9.4790    -0.7810 H     1 <1>   0.1500 
 49 H       12.6080     6.8320    -1.1090 H     1 <1>   0.0800 
 50 H       12.1810     8.3050    -0.2470 H     1 <1>   0.0800 
 51 H       11.5230     7.9930    -1.8640 H     1 <1>   0.0800 
 52 H        8.1490    10.5950    -0.0110 H     1 <1>   0.1500 
 53 H        5.0050    11.0110     1.8080 H     1 <1>   0.0800 
 54 H        5.8850    11.0620     0.2840 H     1 <1>   0.0800 
 55 H        6.7380    11.3190     1.8180 H     1 <1>   0.0800 
@<TRIPOS>BOND
  1   1   2  1   
  2   2   3  ar  
  3   2   4  ar  
  4   3   5  ar  
  5   3  28  1   
  6   4   6  ar  
  7   4  29  1   
  8   5   7  ar  
  9   5   8  1   
 10   6   7  ar  
 11   6  30  1   
 12   7   9  1   
 13   8  10  1   
 14   8  31  1   
 15   8  32  1   
 16   9  11  1   
 17  10  12  1   
 18  10  13  1   
 19  10  33  1   
 20  11  34  1   
 21  11  35  1   
 22  11  36  1   
 23  12  14  1   
 24  12  37  1   
 25  12  38  1   
 26  13  15  1   
 27  13  39  1   
 28  13  40  1   
 29  14  16  1   
 30  14  41  1   
 31  14  42  1   
 32  15  16  1   
 33  15  43  1   
 34  15  44  1   
 35  16  17  1   
 36  17  18  1   
 37  17  45  1   
 38  17  46  1   
 39  18  19  ar  
 40  18  20  ar  
 41  19  21  1   
 42  19  22  ar  
 43  20  23  ar  
 44  20  47  1   
 45  21  24  1   
 46  22  25  ar  
 47  22  48  1   
 48  23  25  ar  
 49  23  26  1   
 50  24  49  1   
 51  24  50  1   
 52  24  51  1   
 53  25  52  1   
 54  26  27  1   
 55  27  53  1   
 56  27  54  1   
 57  27  55  1   
@<TRIPOS>SUBSTRUCTURE
  1 ****  16 GROUP 4 **** **** 0

# MOE 2024.06 (io_trps.svl 2023.06)
