@<TRIPOS>MOLECULE
NONAME
26 26 1 0 0 
SMALL
USER_CHARGES


@<TRIPOS>ATOM
  1 S       -0.7620     0.0800     0.9340 S.3   1 <1>  -0.0800 
  2 C       -1.3020     1.5220     0.0650 C.2   1 <1>  -0.0450 
  3 C        0.8740     0.6830     1.0730 C.2   1 <1>  -0.1100 
  4 C       -2.6800     1.6060    -0.3520 C.2   1 <1>   0.7150 
  5 C       -0.2430     2.3640    -0.0700 C.2   1 <1>  -0.1500 
  6 C        0.9790     1.8930     0.4950 C.2   1 <1>  -0.1500 
  7 O       -3.5080     0.7700    -0.0240 O.2   1 <1>  -0.5700 
  8 N       -3.0860     2.6370    -1.1540 N.am  1 <1>  -0.4300 
  9 N       -4.4870     2.9610    -1.4700 N.am  1 <1>  -0.4300 
 10 C       -5.2580     3.8470    -0.7650 C.2   1 <1>   0.5690 
 11 O       -4.7340     4.6160     0.0190 O.2   1 <1>  -0.5700 
 12 C       -6.7850     3.8870    -0.9860 C.3   1 <1>   0.7410 
 13 F       -7.0990     4.9870    -1.6780 F     1 <1>  -0.3400 
 14 F       -7.1210     2.8980    -1.8250 F     1 <1>  -0.3400 
 15 C       -7.5940     3.7980     0.3180 C.3   1 <1>   0.6800 
 16 F       -7.1490     2.7680     1.0550 F     1 <1>  -0.3400 
 17 F       -7.3600     4.8650     1.0970 F     1 <1>  -0.3400 
 18 C       -9.1190     3.6540     0.0680 C.3   1 <1>   1.0200 
 19 F       -9.6350     4.6240    -0.6840 F     1 <1>  -0.3400 
 20 F       -9.8310     3.6720     1.1950 F     1 <1>  -0.3400 
 21 F       -9.4600     2.5170    -0.5350 F     1 <1>  -0.3400 
 22 H        1.5920     0.0620     1.5780 H     1 <1>   0.1500 
 23 H       -0.2700     3.3260    -0.5520 H     1 <1>   0.1500 
 24 H        1.8800     2.4800     0.4450 H     1 <1>   0.1500 
 25 H       -2.3860     3.3280    -1.4370 H     1 <1>   0.3700 
 26 H       -4.9420     2.3310    -2.1450 H     1 <1>   0.3700 
@<TRIPOS>BOND
  1   1   2  1   
  2   1   3  1   
  3   2   4  1   
  4   2   5  2   
  5   3   6  2   
  6   3  22  1   
  7   4   7  2   
  8   4   8  am  
  9   5   6  1   
 10   5  23  1   
 11   6  24  1   
 12   8   9  1   
 13   8  25  1   
 14   9  10  am  
 15   9  26  1   
 16  10  11  2   
 17  10  12  1   
 18  12  13  1   
 19  12  14  1   
 20  12  15  1   
 21  15  16  1   
 22  15  17  1   
 23  15  18  1   
 24  18  19  1   
 25  18  20  1   
 26  18  21  1   
@<TRIPOS>SUBSTRUCTURE
  1 ****  10 GROUP 4 **** **** 0

# MOE 2024.06 (io_trps.svl 2023.06)
