@<TRIPOS>MOLECULE
NONAME
31 31 1 0 0 
SMALL
USER_CHARGES


@<TRIPOS>ATOM
  1 O       -4.7990    -2.2810    -1.0790 O.2   1 <1>  -0.5700 
  2 C       -4.1960    -1.6380    -0.2740 C.2   1 <1>   0.4480 
  3 C       -4.8710    -0.5730     0.5700 C.3   1 <1>  -0.0990 
  4 C       -2.7170    -1.8660    -0.0540 C.3   1 <1>  -0.1790 
  5 C       -5.3460     0.6420    -0.2420 C.3   1 <1>   0.3690 
  6 N       -6.3360     0.2070    -1.2440 N.pl3 1 <1>  -0.8690 
  7 C       -4.1990     1.2790    -1.0290 C.3   1 <1>  -0.2400 
  8 C       -5.9370     1.6970     0.7000 C.3   1 <1>  -0.2400 
  9 C       -7.6740     0.0210    -0.9130 C.ar  1 <1>   0.1000 
 10 C       -8.5760     1.0770    -0.9500 C.ar  1 <1>  -0.1500 
 11 C       -8.1370    -1.2410    -0.5630 C.ar  1 <1>  -0.1500 
 12 C       -9.9050     0.8850    -0.6170 C.ar  1 <1>  -0.1500 
 13 C       -9.4650    -1.4390    -0.2300 C.ar  1 <1>  -0.1500 
 14 C      -10.3510    -0.3740    -0.2530 C.ar  1 <1>  -0.1500 
 15 H       -4.1890    -0.2430     1.3310 H     1 <1>   0.0800 
 16 H       -5.7140    -1.0140     1.0680 H     1 <1>   0.0800 
 17 H       -2.1720    -0.9600    -0.2390 H     1 <1>   0.0800 
 18 H       -2.3650    -2.6260    -0.7270 H     1 <1>   0.0800 
 19 H       -2.5420    -2.1910     0.9550 H     1 <1>   0.0800 
 20 H       -5.9580    -0.6480    -1.6820 H     1 <1>   0.4000 
 21 H       -3.7980     0.5930    -1.7520 H     1 <1>   0.0800 
 22 H       -3.4110     1.5860    -0.3670 H     1 <1>   0.0800 
 23 H       -4.5570     2.1470    -1.5540 H     1 <1>   0.0800 
 24 H       -6.7420     1.2840     1.2800 H     1 <1>   0.0800 
 25 H       -6.3030     2.5360     0.1370 H     1 <1>   0.0800 
 26 H       -5.1850     2.0540     1.3800 H     1 <1>   0.0800 
 27 H       -8.2240     2.0470    -1.2470 H     1 <1>   0.1500 
 28 H       -7.4520    -2.0690    -0.5550 H     1 <1>   0.1500 
 29 H      -10.5900     1.7130    -0.6450 H     1 <1>   0.1500 
 30 H       -9.8100    -2.4200     0.0440 H     1 <1>   0.1500 
 31 H      -11.3840    -0.5260     0.0070 H     1 <1>   0.1500 
@<TRIPOS>BOND
  1   1   2  2   
  2   2   3  1   
  3   2   4  1   
  4   3   5  1   
  5   3  15  1   
  6   3  16  1   
  7   4  17  1   
  8   4  18  1   
  9   4  19  1   
 10   5   6  1   
 11   5   7  1   
 12   5   8  1   
 13   6   9  1   
 14   6  20  1   
 15   7  21  1   
 16   7  22  1   
 17   7  23  1   
 18   8  24  1   
 19   8  25  1   
 20   8  26  1   
 21   9  10  ar  
 22   9  11  ar  
 23  10  12  ar  
 24  10  27  1   
 25  11  13  ar  
 26  11  28  1   
 27  12  14  ar  
 28  12  29  1   
 29  13  14  ar  
 30  13  30  1   
 31  14  31  1   
@<TRIPOS>SUBSTRUCTURE
  1 ****   6 GROUP 4 **** **** 0

# MOE 2024.06 (io_trps.svl 2023.06)
