@<TRIPOS>MOLECULE
NONAME
41 42 1 0 0 
SMALL
USER_CHARGES


@<TRIPOS>ATOM
  1 F        0.3800     1.7150    -1.4400 F     1 <1>  -0.1900 
  2 C        1.6030     1.6640    -0.9840 C.ar  1 <1>   0.1900 
  3 C        2.6250     1.3350    -1.8550 C.ar  1 <1>  -0.1500 
  4 C        1.8290     1.9420     0.3510 C.ar  1 <1>  -0.1500 
  5 C        3.9220     1.2810    -1.3710 C.ar  1 <1>  -0.1500 
  6 C        3.1290     1.8850     0.8250 C.ar  1 <1>  -0.1500 
  7 C        4.1760     1.5570    -0.0260 C.ar  1 <1>   0.0830 
  8 O        5.4150     1.5270     0.5260 O.3   1 <1>  -0.3630 
  9 C        6.5530     1.2070    -0.2400 C.3   1 <1>   0.1200 
 10 C        7.7770     1.2610     0.6720 C.3   1 <1>  -0.1600 
 11 C        9.0440     0.9220    -0.1100 C.3   1 <1>   0.1200 
 12 O       10.1350     0.9850     0.7700 O.3   1 <1>  -0.3630 
 13 C       11.3420     0.7050     0.2070 C.ar  1 <1>   0.0830 
 14 C       12.1070     1.7370    -0.3360 C.ar  1 <1>   0.0830 
 15 C       11.8110    -0.6090     0.1960 C.ar  1 <1>   0.0830 
 16 O       11.5960     3.0030    -0.3120 O.3   1 <1>  -0.3630 
 17 C       13.3530     1.4440    -0.8850 C.ar  1 <1>  -0.1500 
 18 O       11.0160    -1.5830     0.7280 O.3   1 <1>  -0.3630 
 19 C       13.0590    -0.8810    -0.3580 C.ar  1 <1>  -0.1500 
 20 C       12.4070     4.1250    -0.5780 C.3   1 <1>   0.0400 
 21 C       13.8220     0.1420    -0.8930 C.ar  1 <1>  -0.1500 
 22 C       11.5230    -2.8690     1.0090 C.3   1 <1>   0.0400 
 23 H        2.4050     1.1270    -2.8860 H     1 <1>   0.1500 
 24 H        1.0080     2.1940     0.9970 H     1 <1>   0.1500 
 25 H        4.7140     1.0250    -2.0490 H     1 <1>   0.1500 
 26 H        3.3420     2.0950     1.8580 H     1 <1>   0.1500 
 27 H        6.6400     1.9280    -1.0340 H     1 <1>   0.0800 
 28 H        6.4240     0.2180    -0.6430 H     1 <1>   0.0800 
 29 H        7.6570     0.5510     1.4710 H     1 <1>   0.0800 
 30 H        7.8720     2.2510     1.0820 H     1 <1>   0.0800 
 31 H        9.2120     1.6310    -0.9030 H     1 <1>   0.0800 
 32 H        8.9960    -0.0750    -0.5130 H     1 <1>   0.0800 
 33 H       13.9670     2.2110    -1.3140 H     1 <1>   0.1500 
 34 H       13.4500    -1.8800    -0.3860 H     1 <1>   0.1500 
 35 H       11.8250     5.0080    -0.3880 H     1 <1>   0.0800 
 36 H       12.7090     4.1020    -1.6100 H     1 <1>   0.0800 
 37 H       13.2600     4.1020     0.0770 H     1 <1>   0.0800 
 38 H       14.7860    -0.0770    -1.3190 H     1 <1>   0.1500 
 39 H       10.7590    -3.4220     1.5250 H     1 <1>   0.0800 
 40 H       12.3910    -2.7720     1.6360 H     1 <1>   0.0800 
 41 H       11.7660    -3.3590     0.0830 H     1 <1>   0.0800 
@<TRIPOS>BOND
  1   1   2  1   
  2   2   3  ar  
  3   2   4  ar  
  4   3   5  ar  
  5   3  23  1   
  6   4   6  ar  
  7   4  24  1   
  8   5   7  ar  
  9   5  25  1   
 10   6   7  ar  
 11   6  26  1   
 12   7   8  1   
 13   8   9  1   
 14   9  10  1   
 15   9  27  1   
 16   9  28  1   
 17  10  11  1   
 18  10  29  1   
 19  10  30  1   
 20  11  12  1   
 21  11  31  1   
 22  11  32  1   
 23  12  13  1   
 24  13  14  ar  
 25  13  15  ar  
 26  14  16  1   
 27  14  17  ar  
 28  15  18  1   
 29  15  19  ar  
 30  16  20  1   
 31  17  21  ar  
 32  17  33  1   
 33  18  22  1   
 34  19  21  ar  
 35  19  34  1   
 36  20  35  1   
 37  20  36  1   
 38  20  37  1   
 39  21  38  1   
 40  22  39  1   
 41  22  40  1   
 42  22  41  1   
@<TRIPOS>SUBSTRUCTURE
  1 ****  11 GROUP 4 **** **** 0

# MOE 2024.06 (io_trps.svl 2023.06)
