@<TRIPOS>MOLECULE
NONAME
38 40 1 0 0 
SMALL
USER_CHARGES


@<TRIPOS>ATOM
  1 O        1.1320    -1.1040    -1.5380 O.3   1 <1>  -0.6800 
  2 C        1.9000    -1.0530    -0.4010 C.3   1 <1>   0.2000 
  3 C        3.2240    -0.3760    -0.7520 C.3   1 <1>  -0.1600 
  4 C        2.1060    -2.4950     0.0610 C.3   1 <1>  -0.1600 
  5 C        4.2200    -0.4950     0.3980 C.3   1 <1>   0.3430 
  6 C        3.1210    -2.5700     1.1960 C.3   1 <1>   0.3430 
  7 N        4.3950    -1.9320     0.7620 N.4   1 <1>  -0.9590 
  8 C        5.4870    -2.1270     1.7560 C.3   1 <1>   0.4860 
  9 C        6.7900    -1.7080     1.1070 C.ar  1 <1>  -0.1440 
 10 C        7.3470    -2.4920     0.0640 C.ar  1 <1>   0.0000 
 11 C        7.3980    -0.5510     1.5220 C.ar  1 <1>  -0.1500 
 12 C        8.5070    -2.0100    -0.5850 C.ar  1 <1>   0.0000 
 13 C        6.8180    -3.7320    -0.3720 C.ar  1 <1>  -0.1500 
 14 C        8.5650    -0.1020     0.8980 C.ar  1 <1>  -0.1500 
 15 C        9.0990    -0.8140    -0.1370 C.ar  1 <1>  -0.1500 
 16 C        9.0460    -2.7380    -1.6640 C.ar  1 <1>  -0.1500 
 17 C        7.3680    -4.4210    -1.4170 C.ar  1 <1>  -0.1500 
 18 C        8.4900    -3.9150    -2.0770 C.ar  1 <1>  -0.1500 
 19 H        0.8840    -0.2100    -1.8470 H     1 <1>   0.4000 
 20 H        1.3630    -0.4900     0.3450 H     1 <1>   0.0800 
 21 H        3.0540     0.6650    -0.9590 H     1 <1>   0.0800 
 22 H        3.6500    -0.8290    -1.6310 H     1 <1>   0.0800 
 23 H        2.4470    -3.1000    -0.7600 H     1 <1>   0.0800 
 24 H        1.1670    -2.8940     0.4020 H     1 <1>   0.0800 
 25 H        3.8610     0.0590     1.2500 H     1 <1>   0.0800 
 26 H        5.1650    -0.0720     0.0910 H     1 <1>   0.0800 
 27 H        3.2910    -3.6030     1.4540 H     1 <1>   0.0800 
 28 H        2.7330    -2.0610     2.0630 H     1 <1>   0.0800 
 29 H        4.7160    -2.4010    -0.0980 H     1 <1>   0.4500 
 30 H        5.5520    -3.1630     2.0480 H     1 <1>   0.0800 
 31 H        5.3020    -1.5340     2.6360 H     1 <1>   0.0800 
 32 H        7.0020     0.0460     2.3260 H     1 <1>   0.1500 
 33 H        5.9730    -4.1670     0.1250 H     1 <1>   0.1500 
 34 H        9.0320     0.8070     1.2400 H     1 <1>   0.1500 
 35 H        9.9930    -0.4690    -0.6270 H     1 <1>   0.1500 
 36 H        9.9170    -2.3500    -2.1620 H     1 <1>   0.1500 
 37 H        6.9570    -5.3610    -1.7460 H     1 <1>   0.1500 
 38 H        8.9090    -4.4670    -2.9020 H     1 <1>   0.1500 
@<TRIPOS>BOND
  1   1   2  1   
  2   1  19  1   
  3   2   3  1   
  4   2   4  1   
  5   2  20  1   
  6   3   5  1   
  7   3  21  1   
  8   3  22  1   
  9   4   6  1   
 10   4  23  1   
 11   4  24  1   
 12   5   7  1   
 13   5  25  1   
 14   5  26  1   
 15   6   7  1   
 16   6  27  1   
 17   6  28  1   
 18   7   8  1   
 19   7  29  1   
 20   8   9  1   
 21   8  30  1   
 22   8  31  1   
 23   9  10  ar  
 24   9  11  ar  
 25  10  12  ar  
 26  10  13  ar  
 27  11  14  ar  
 28  11  32  1   
 29  12  15  ar  
 30  12  16  ar  
 31  13  17  ar  
 32  13  33  1   
 33  14  15  ar  
 34  14  34  1   
 35  15  35  1   
 36  16  18  ar  
 37  16  36  1   
 38  17  18  ar  
 39  17  37  1   
 40  18  38  1   
@<TRIPOS>SUBSTRUCTURE
  1 ****   9 GROUP 4 **** **** 0

# MOE 2024.06 (io_trps.svl 2023.06)
