@<TRIPOS>MOLECULE
NONAME
40 42 1 0 0 
SMALL
USER_CHARGES


@<TRIPOS>ATOM
  1 CL      -2.2060     0.9370     1.6030 Cl    1 <1>  -0.1770 
  2 C       -1.1690     2.1530     0.8950 C.ar  1 <1>   0.1770 
  3 C       -1.4570     2.6540    -0.3650 C.ar  1 <1>  -0.1440 
  4 C       -0.0810     2.6000     1.6210 C.ar  1 <1>  -0.1500 
  5 C       -0.6240     3.6270    -0.9020 C.ar  1 <1>  -0.1500 
  6 C       -2.6580     2.1480    -1.1390 C.3   1 <1>   0.4870 
  7 C        0.7390     3.5730     1.0780 C.ar  1 <1>  -0.1500 
  8 C        0.4670     4.0830    -0.1800 C.ar  1 <1>  -0.1500 
  9 N       -3.9020     2.5860    -0.4520 N.4   1 <1>  -0.9590 
 10 C       -5.1320     1.9690    -1.0710 C.3   1 <1>   0.3430 
 11 C       -4.0170     4.0930    -0.3840 C.3   1 <1>   0.3430 
 12 C       -6.4340     2.4200    -0.3740 C.3   1 <1>   0.2090 
 13 C       -5.3130     4.5560     0.3150 C.3   1 <1>   0.2090 
 14 N       -6.5070     3.9090    -0.3040 N.pl3 1 <1>  -0.8380 
 15 C       -7.7420     4.4480     0.0310 C.ar  1 <1>   0.1000 
 16 C       -8.2650     4.3260     1.3170 C.ar  1 <1>  -0.1500 
 17 C       -8.4760     5.1250    -0.9360 C.ar  1 <1>  -0.1500 
 18 C       -9.4980     4.8700     1.6300 C.ar  1 <1>  -0.1500 
 19 C       -9.7100     5.6730    -0.6330 C.ar  1 <1>  -0.1500 
 20 C      -10.2090     5.5390     0.6500 C.ar  1 <1>   0.1770 
 21 CL     -11.7670     6.2280     1.0410 Cl    1 <1>  -0.1770 
 22 H        0.1220     2.1940     2.5970 H     1 <1>   0.1500 
 23 H       -0.8060     4.0380    -1.8820 H     1 <1>   0.1500 
 24 H       -2.6190     1.0710    -1.1820 H     1 <1>   0.0800 
 25 H       -2.6340     2.5300    -2.1470 H     1 <1>   0.0800 
 26 H        1.5920     3.9310     1.6330 H     1 <1>   0.1500 
 27 H        1.1140     4.8370    -0.5990 H     1 <1>   0.1500 
 28 H       -3.8320     2.2420     0.5160 H     1 <1>   0.4500 
 29 H       -5.0670     0.8950    -1.0280 H     1 <1>   0.0800 
 30 H       -5.1960     2.2560    -2.1080 H     1 <1>   0.0800 
 31 H       -4.0140     4.5000    -1.3810 H     1 <1>   0.0800 
 32 H       -3.1710     4.5030     0.1430 H     1 <1>   0.0800 
 33 H       -6.4820     2.0060     0.6180 H     1 <1>   0.0800 
 34 H       -7.2820     2.0520    -0.9270 H     1 <1>   0.0800 
 35 H       -5.4040     5.6260     0.2250 H     1 <1>   0.0800 
 36 H       -5.2700     4.3150     1.3630 H     1 <1>   0.0800 
 37 H       -7.7070     3.8050     2.0720 H     1 <1>   0.1500 
 38 H       -8.0730     5.2200    -1.9280 H     1 <1>   0.1500 
 39 H       -9.9100     4.7820     2.6190 H     1 <1>   0.1500 
 40 H      -10.2830     6.1980    -1.3760 H     1 <1>   0.1500 
@<TRIPOS>BOND
  1   1   2  1   
  2   2   3  ar  
  3   2   4  ar  
  4   3   5  ar  
  5   3   6  1   
  6   4   7  ar  
  7   4  22  1   
  8   5   8  ar  
  9   5  23  1   
 10   6   9  1   
 11   6  24  1   
 12   6  25  1   
 13   7   8  ar  
 14   7  26  1   
 15   8  27  1   
 16   9  10  1   
 17   9  11  1   
 18   9  28  1   
 19  10  12  1   
 20  10  29  1   
 21  10  30  1   
 22  11  13  1   
 23  11  31  1   
 24  11  32  1   
 25  12  14  1   
 26  12  33  1   
 27  12  34  1   
 28  13  14  1   
 29  13  35  1   
 30  13  36  1   
 31  14  15  1   
 32  15  16  ar  
 33  15  17  ar  
 34  16  18  ar  
 35  16  37  1   
 36  17  19  ar  
 37  17  38  1   
 38  18  20  ar  
 39  18  39  1   
 40  19  20  ar  
 41  19  40  1   
 42  20  21  1   
@<TRIPOS>SUBSTRUCTURE
  1 ****  13 GROUP 4 **** **** 0

# MOE 2024.06 (io_trps.svl 2023.06)
