@<TRIPOS>MOLECULE
NONAME
12 11 1 0 0 
SMALL
USER_CHARGES


@<TRIPOS>ATOM
  1 P       -0.0440    -0.1800     0.6900 P.3   1 <1>   0.8600 
  2 O       -0.7210    -1.0230    -0.3660 O.co2 1 <1>  -0.9500 
  3 O        0.4280    -0.9180     1.9210 O.co2 1 <1>  -0.9500 
  4 C       -1.0380     1.3970     1.1160 C.2   1 <1>   0.8400 
  5 C        1.3960     0.5820    -0.0680 C.3   1 <1>  -0.2660 
  6 O       -2.1630     1.4220     1.6800 O.co2 1 <1>  -0.9000 
  7 O       -0.6320     2.5610     0.8590 O.co2 1 <1>  -0.9000 
  8 C        2.5130    -0.2760    -0.5890 C.2   1 <1>   0.9060 
  9 O        3.5180    -0.4770     0.1150 O.co2 1 <1>  -0.9000 
 10 O        2.5570    -0.5650    -1.7980 O.co2 1 <1>  -0.9000 
 11 H        1.8480     1.2530     0.6310 H     1 <1>   0.0800 
 12 H        1.0810     1.1830    -0.8950 H     1 <1>   0.0800 
@<TRIPOS>BOND
  1   1   2  ar  
  2   1   3  ar  
  3   1   4  1   
  4   1   5  1   
  5   4   6  ar  
  6   4   7  ar  
  7   5   8  1   
  8   5  11  1   
  9   5  12  1   
 10   8   9  ar  
 11   8  10  ar  
@<TRIPOS>SUBSTRUCTURE
  1 ****   1 GROUP 4 **** **** 0

# MOE 2024.06 (io_trps.svl 2023.06)
