@<TRIPOS>MOLECULE
NONAME
43 45 1 0 0 
SMALL
USER_CHARGES


@<TRIPOS>ATOM
  1 O       -0.8450     1.3190    -2.4320 O.2   1 <1>  -0.5700 
  2 C       -1.1610     2.0610    -1.5200 C.2   1 <1>   0.5440 
  3 N       -2.4020     1.9040    -0.9360 N.am  1 <1>  -0.6600 
  4 C       -0.2320     3.0870    -1.1000 C.ar  1 <1>   0.0860 
  5 C       -3.3540     0.8220    -1.3520 C.3   1 <1>   0.1400 
  6 C       -2.9400     2.7900     0.1480 C.3   1 <1>   0.1400 
  7 C        0.3540     3.1350     0.1770 C.ar  1 <1>   0.0820 
  8 C        0.0920     4.1020    -2.0000 C.ar  1 <1>  -0.1500 
  9 C       -4.7290     1.4030    -1.7160 C.3   1 <1>   0.2090 
 10 C       -4.3340     3.3410    -0.2010 C.3   1 <1>   0.2090 
 11 O        0.1360     2.1740     1.1080 O.3   1 <1>  -0.3630 
 12 C        1.1820     4.1940     0.5410 C.ar  1 <1>  -0.1440 
 13 C        0.9270     5.1430    -1.6470 C.ar  1 <1>  -0.1500 
 14 N       -5.2640     2.2350    -0.5930 N.pl3 1 <1>  -0.8380 
 15 C        0.3710     0.8190     0.7810 C.3   1 <1>   0.0400 
 16 C        1.4650     5.1920    -0.3750 C.ar  1 <1>  -0.1500 
 17 C        1.7890     4.2610     1.9360 C.3   1 <1>  -0.0970 
 18 C       -6.2920     1.8160     0.2240 C.ar  1 <1>   0.7200 
 19 N       -6.7060     0.5560     0.0880 N.ar  1 <1>  -0.6200 
 20 N       -6.7850     2.7070     1.0840 N.ar  1 <1>  -0.6200 
 21 C       -7.6880     0.1760     0.8670 C.ar  1 <1>   0.1600 
 22 C       -7.7680     2.3000     1.8490 C.ar  1 <1>   0.1600 
 23 C       -8.2660     1.0230     1.7790 C.ar  1 <1>  -0.1500 
 24 H       -3.4750     0.1280    -0.5390 H     1 <1>   0.0800 
 25 H       -2.9700     0.2780    -2.1960 H     1 <1>   0.0800 
 26 H       -2.2810     3.6190     0.3300 H     1 <1>   0.0800 
 27 H       -3.0100     2.2220     1.0590 H     1 <1>   0.0800 
 28 H       -0.3270     4.0650    -2.9910 H     1 <1>   0.1500 
 29 H       -5.4030     0.6030    -1.9670 H     1 <1>   0.0800 
 30 H       -4.6270     2.0200    -2.5920 H     1 <1>   0.0800 
 31 H       -4.2470     4.0300    -1.0230 H     1 <1>   0.0800 
 32 H       -4.7120     3.8920     0.6420 H     1 <1>   0.0800 
 33 H        1.1600     5.9160    -2.3600 H     1 <1>   0.1500 
 34 H       -0.5380     0.3840     0.4060 H     1 <1>   0.0800 
 35 H        0.6720     0.3060     1.6760 H     1 <1>   0.0800 
 36 H        1.1510     0.7590     0.0420 H     1 <1>   0.0800 
 37 H        2.1100     6.0120    -0.1070 H     1 <1>   0.1500 
 38 H        1.0080     4.2370     2.6750 H     1 <1>   0.0800 
 39 H        2.3600     5.1620     2.0710 H     1 <1>   0.0800 
 40 H        2.4360     3.4170     2.0910 H     1 <1>   0.0800 
 41 H       -8.0420    -0.8370     0.7740 H     1 <1>   0.1500 
 42 H       -8.1860     3.0030     2.5490 H     1 <1>   0.1500 
 43 H       -9.0720     0.7010     2.4110 H     1 <1>   0.1500 
@<TRIPOS>BOND
  1   1   2  2   
  2   2   3  am  
  3   2   4  1   
  4   3   5  1   
  5   3   6  1   
  6   4   7  ar  
  7   4   8  ar  
  8   5   9  1   
  9   5  24  1   
 10   5  25  1   
 11   6  10  1   
 12   6  26  1   
 13   6  27  1   
 14   7  11  1   
 15   7  12  ar  
 16   8  13  ar  
 17   8  28  1   
 18   9  14  1   
 19   9  29  1   
 20   9  30  1   
 21  10  14  1   
 22  10  31  1   
 23  10  32  1   
 24  11  15  1   
 25  12  16  ar  
 26  12  17  1   
 27  13  16  ar  
 28  13  33  1   
 29  14  18  1   
 30  15  34  1   
 31  15  35  1   
 32  15  36  1   
 33  16  37  1   
 34  17  38  1   
 35  17  39  1   
 36  17  40  1   
 37  18  19  ar  
 38  18  20  ar  
 39  19  21  ar  
 40  20  22  ar  
 41  21  23  ar  
 42  21  41  1   
 43  22  23  ar  
 44  22  42  1   
 45  23  43  1   
@<TRIPOS>SUBSTRUCTURE
  1 ****   6 GROUP 4 **** **** 0

# MOE 2024.06 (io_trps.svl 2023.06)
