@<TRIPOS>MOLECULE
NONAME
60 63 1 0 0 
SMALL
USER_CHARGES


@<TRIPOS>ATOM
  1 O       -1.3810    -0.6050    -0.6360 O.3   1 <1>  -0.6800 
  2 C       -1.6470     0.1530     0.5110 C.3   1 <1>   0.3410 
  3 C       -0.6260     1.3240     0.5610 C.2   1 <1>   0.3280 
  4 C       -3.1680     0.5570     0.5670 C.3   1 <1>   0.0000 
  5 C       -1.5070    -0.8510     1.6660 C.3   1 <1>  -0.1600 
  6 N        0.1490     1.4940     1.5600 N.2   1 <1>  -0.5030 
  7 C       -0.6080     2.2400    -0.6660 C.3   1 <1>  -0.1790 
  8 C       -3.8730    -0.6540     1.2580 C.3   1 <1>  -0.0800 
  9 C       -3.7950     0.8920    -0.8150 C.3   1 <1>  -0.1600 
 10 C       -3.3700     1.8020     1.4720 C.3   1 <1>  -0.2400 
 11 C       -2.7880    -1.6800     1.6150 C.3   1 <1>  -0.1600 
 12 N        1.0460     2.5300     1.6350 N.pl3 1 <1>  -0.5690 
 13 C       -5.1210    -1.2210     0.5400 C.3   1 <1>  -0.0800 
 14 C       -5.3360     0.9120    -0.8590 C.3   1 <1>  -0.1600 
 15 C       -6.0520    -0.0590     0.1240 C.3   1 <1>  -0.0800 
 16 C       -4.8510    -2.1970    -0.6350 C.3   1 <1>  -0.1600 
 17 C       -7.4590    -0.6040    -0.3180 C.3   1 <1>   0.1380 
 18 C       -6.0220    -2.2830    -1.6290 C.3   1 <1>  -0.0220 
 19 C       -7.3330    -2.0160    -0.9040 C.2   1 <1>  -0.2760 
 20 C       -8.3690    -0.7070     0.9340 C.3   1 <1>  -0.1600 
 21 C       -8.1610     0.2940    -1.3590 C.3   1 <1>  -0.2400 
 22 C       -8.2850    -2.9570    -0.7440 C.2   1 <1>  -0.1360 
 23 C       -9.6950    -1.4610     0.6970 C.3   1 <1>  -0.0990 
 24 C       -9.5140    -2.7970    -0.0120 C.2   1 <1>   0.3750 
 25 N      -10.4650    -3.6500     0.1120 N.2   1 <1>  -0.5030 
 26 N      -10.4030    -4.8700    -0.4960 N.pl3 1 <1>  -0.5690 
 27 H       -0.4920    -0.9960    -0.5480 H     1 <1>   0.4000 
 28 H       -0.6180    -1.4520     1.5880 H     1 <1>   0.0800 
 29 H       -1.4760    -0.3220     2.6020 H     1 <1>   0.0800 
 30 H       -1.2240     3.1000    -0.4860 H     1 <1>   0.0800 
 31 H       -0.9740     1.7310    -1.5380 H     1 <1>   0.0800 
 32 H        0.3900     2.5700    -0.8830 H     1 <1>   0.0800 
 33 H       -4.2390    -0.3070     2.2100 H     1 <1>   0.0800 
 34 H       -3.4250     1.8370    -1.1690 H     1 <1>   0.0800 
 35 H       -3.4810     0.1680    -1.5410 H     1 <1>   0.0800 
 36 H       -4.4150     1.9910     1.6360 H     1 <1>   0.0800 
 37 H       -2.9490     2.6850     1.0270 H     1 <1>   0.0800 
 38 H       -2.9020     1.6600     2.4310 H     1 <1>   0.0800 
 39 H       -2.9880    -2.1680     2.5530 H     1 <1>   0.0800 
 40 H       -2.6840    -2.4270     0.8490 H     1 <1>   0.0800 
 41 H        1.3390     3.0180     0.7800 H     1 <1>   0.3110 
 42 H        1.7620     2.5000     2.3720 H     1 <1>   0.3110 
 43 H       -5.6470    -1.7990     1.2810 H     1 <1>   0.0800 
 44 H       -5.5950     0.6910    -1.8750 H     1 <1>   0.0800 
 45 H       -5.6810     1.9120    -0.6570 H     1 <1>   0.0800 
 46 H       -6.2150     0.5260     1.0130 H     1 <1>   0.0800 
 47 H       -3.9590    -1.9300    -1.1700 H     1 <1>   0.0800 
 48 H       -4.6860    -3.1760    -0.2210 H     1 <1>   0.0800 
 49 H       -6.0290    -3.2540    -2.0920 H     1 <1>   0.0800 
 50 H       -5.8940    -1.5560    -2.4110 H     1 <1>   0.0800 
 51 H       -7.8370    -1.2350     1.7060 H     1 <1>   0.0800 
 52 H       -8.5850     0.2770     1.3120 H     1 <1>   0.0800 
 53 H       -9.1540    -0.0570    -1.5670 H     1 <1>   0.0800 
 54 H       -8.2260     1.3060    -1.0030 H     1 <1>   0.0800 
 55 H       -7.6420     0.2840    -2.2980 H     1 <1>   0.0800 
 56 H       -8.1390    -3.9280    -1.1720 H     1 <1>   0.1500 
 57 H      -10.3680    -0.8600     0.1140 H     1 <1>   0.0800 
 58 H      -10.1710    -1.6370     1.6450 H     1 <1>   0.0800 
 59 H       -9.6720    -5.1210    -1.1710 H     1 <1>   0.3110 
 60 H      -11.1880    -5.5300    -0.4270 H     1 <1>   0.3110 
@<TRIPOS>BOND
  1   1   2  1   
  2   1  27  1   
  3   2   3  1   
  4   2   4  1   
  5   2   5  1   
  6   3   6  2   
  7   3   7  1   
  8   4   8  1   
  9   4   9  1   
 10   4  10  1   
 11   5  11  1   
 12   5  28  1   
 13   5  29  1   
 14   6  12  1   
 15   7  30  1   
 16   7  31  1   
 17   7  32  1   
 18   8  11  1   
 19   8  13  1   
 20   8  33  1   
 21   9  14  1   
 22   9  34  1   
 23   9  35  1   
 24  10  36  1   
 25  10  37  1   
 26  10  38  1   
 27  11  39  1   
 28  11  40  1   
 29  12  41  1   
 30  12  42  1   
 31  13  15  1   
 32  13  16  1   
 33  13  43  1   
 34  14  15  1   
 35  14  44  1   
 36  14  45  1   
 37  15  17  1   
 38  15  46  1   
 39  16  18  1   
 40  16  47  1   
 41  16  48  1   
 42  17  19  1   
 43  17  20  1   
 44  17  21  1   
 45  18  19  1   
 46  18  49  1   
 47  18  50  1   
 48  19  22  2   
 49  20  23  1   
 50  20  51  1   
 51  20  52  1   
 52  21  53  1   
 53  21  54  1   
 54  21  55  1   
 55  22  24  1   
 56  22  56  1   
 57  23  24  1   
 58  23  57  1   
 59  23  58  1   
 60  24  25  2   
 61  25  26  1   
 62  26  59  1   
 63  26  60  1   
@<TRIPOS>SUBSTRUCTURE
  1 ****  13 GROUP 4 **** **** 0

# MOE 2024.06 (io_trps.svl 2023.06)
