@<TRIPOS>MOLECULE
NONAME
40 41 1 0 0 
SMALL
USER_CHARGES


@<TRIPOS>ATOM
  1 S       -0.1280    -0.0310     0.0420 S.o2  1 <1>   1.3830 
  2 O        0.1700     1.0710     0.9330 O.2   1 <1>  -0.6500 
  3 O       -0.0880     0.2010    -1.3850 O.2   1 <1>  -0.6500 
  4 N        0.9890    -1.2280     0.3620 N.2   1 <1>  -0.6380 
  5 C       -1.6800    -0.8160     0.5010 C.3   1 <1>   0.0890 
  6 C        2.1990    -0.8900     0.2550 C.2   1 <1>   0.6410 
  7 C       -2.9050     0.0690     0.3070 C.ar  1 <1>  -0.1440 
  8 S        3.4800    -2.0600     0.5020 S.3   1 <1>  -0.2820 
  9 N        2.8310     0.2970    -0.0360 N.pl3 1 <1>  -0.4080 
 10 C       -3.4380     0.2510    -0.9600 C.ar  1 <1>  -0.1500 
 11 C       -3.4910     0.7040     1.3920 C.ar  1 <1>  -0.1500 
 12 C        4.7180    -0.8230     0.1770 C.2   1 <1>   0.5300 
 13 N        4.2180     0.3210    -0.0750 N.2   1 <1>  -0.4920 
 14 C       -4.5520     1.0520    -1.1400 C.ar  1 <1>  -0.1500 
 15 C       -4.6060     1.5050     1.2110 C.ar  1 <1>  -0.1500 
 16 C        6.2020    -1.2600     0.2370 C.3   1 <1>   0.0610 
 17 C       -5.1380     1.6790    -0.0540 C.ar  1 <1>  -0.1500 
 18 C        7.1060    -0.0340    -0.0750 C.3   1 <1>  -0.1600 
 19 C        6.5260    -1.8050     1.6440 C.3   1 <1>  -0.2400 
 20 C        6.4570    -2.3770    -0.7970 C.3   1 <1>  -0.2400 
 21 C        8.6280    -0.2650    -0.0640 C.3   1 <1>  -0.2400 
 22 H       -1.6280    -1.1170     1.5290 H     1 <1>   0.0800 
 23 H       -1.8070    -1.7050    -0.0850 H     1 <1>   0.0800 
 24 H        2.2790     1.1600    -0.1490 H     1 <1>   0.4000 
 25 H       -2.9890    -0.2250    -1.8160 H     1 <1>   0.1500 
 26 H       -3.0870     0.5850     2.3820 H     1 <1>   0.1500 
 27 H       -4.9620     1.1890    -2.1250 H     1 <1>   0.1500 
 28 H       -5.0580     1.9960     2.0550 H     1 <1>   0.1500 
 29 H       -6.0040     2.3020    -0.1940 H     1 <1>   0.1500 
 30 H        6.8860     0.7450     0.6360 H     1 <1>   0.0800 
 31 H        6.8390     0.3510    -1.0450 H     1 <1>   0.0800 
 32 H        6.3890    -1.0350     2.3830 H     1 <1>   0.0800 
 33 H        7.5390    -2.1570     1.7010 H     1 <1>   0.0800 
 34 H        5.8850    -2.6310     1.8950 H     1 <1>   0.0800 
 35 H        5.8140    -3.2200    -0.6200 H     1 <1>   0.0800 
 36 H        6.2710    -2.0130    -1.7920 H     1 <1>   0.0800 
 37 H        7.4700    -2.7300    -0.7450 H     1 <1>   0.0800 
 38 H        8.9680    -0.5900     0.9020 H     1 <1>   0.0800 
 39 H        9.1300     0.6580    -0.2950 H     1 <1>   0.0800 
 40 H        8.9200    -0.9890    -0.8030 H     1 <1>   0.0800 
@<TRIPOS>BOND
  1   1   2  2   
  2   1   3  2   
  3   1   4  1   
  4   1   5  1   
  5   4   6  2   
  6   5   7  1   
  7   5  22  1   
  8   5  23  1   
  9   6   8  1   
 10   6   9  1   
 11   7  10  ar  
 12   7  11  ar  
 13   8  12  1   
 14   9  13  1   
 15   9  24  1   
 16  10  14  ar  
 17  10  25  1   
 18  11  15  ar  
 19  11  26  1   
 20  12  13  2   
 21  12  16  1   
 22  14  17  ar  
 23  14  27  1   
 24  15  17  ar  
 25  15  28  1   
 26  16  18  1   
 27  16  19  1   
 28  16  20  1   
 29  17  29  1   
 30  18  21  1   
 31  18  30  1   
 32  18  31  1   
 33  19  32  1   
 34  19  33  1   
 35  19  34  1   
 36  20  35  1   
 37  20  36  1   
 38  20  37  1   
 39  21  38  1   
 40  21  39  1   
 41  21  40  1   
@<TRIPOS>SUBSTRUCTURE
  1 ****   4 GROUP 4 **** **** 0

# MOE 2024.06 (io_trps.svl 2023.06)
