@<TRIPOS>MOLECULE
NONAME
41 43 1 0 0 
SMALL
USER_CHARGES


@<TRIPOS>ATOM
  1 O       -5.8410    -5.9080    -1.0040 O.2   1 <1>  -0.5700 
  2 C       -5.0970    -5.2780    -0.2900 C.2   1 <1>   0.5690 
  3 N       -5.4150    -4.0580     0.2520 N.am  1 <1>  -0.5470 
  4 C       -3.7290    -5.9170     0.0100 C.3   1 <1>   0.4040 
  5 C       -6.6190    -3.3350     0.1690 C.ar  1 <1>   0.1170 
  6 N       -3.7130    -7.4150    -0.1970 N.4   1 <1>  -0.9590 
  7 C       -7.8580    -3.9500     0.0120 C.ar  1 <1>  -0.1500 
  8 C       -6.5700    -1.9480     0.2720 C.ar  1 <1>  -0.1500 
  9 C       -4.5520    -8.1230     0.8160 C.3   1 <1>   0.3430 
 10 C       -2.3370    -7.9740    -0.3040 C.3   1 <1>   0.3430 
 11 C       -9.0160    -3.1970    -0.0440 C.ar  1 <1>   0.0830 
 12 C       -7.7260    -1.1870     0.2210 C.ar  1 <1>  -0.1500 
 13 C       -4.6560    -9.6040     0.4520 C.3   1 <1>  -0.1600 
 14 C       -2.4110    -9.4540    -0.6840 C.3   1 <1>  -0.1600 
 15 O      -10.2030    -3.8330    -0.2100 O.3   1 <1>  -0.3630 
 16 C       -8.9520    -1.8070     0.0690 C.ar  1 <1>   0.0830 
 17 C       -3.2740   -10.2540     0.3000 C.3   1 <1>  -0.1600 
 18 C      -11.3080    -3.0330    -0.5890 C.3   1 <1>   0.1200 
 19 O      -10.0760    -1.0430     0.0370 O.3   1 <1>  -0.3630 
 20 C      -11.3090    -1.7190     0.2040 C.3   1 <1>   0.1200 
 21 H       -4.6840    -3.5500     0.7480 H     1 <1>   0.3700 
 22 H       -3.4480    -5.6880     1.0230 H     1 <1>   0.0800 
 23 H       -3.0100    -5.4610    -0.6500 H     1 <1>   0.0800 
 24 H       -4.2010    -7.5670    -1.0980 H     1 <1>   0.4500 
 25 H       -7.9430    -5.0160    -0.0690 H     1 <1>   0.1500 
 26 H       -5.6260    -1.4480     0.3890 H     1 <1>   0.1500 
 27 H       -5.5430    -7.6950     0.8420 H     1 <1>   0.0800 
 28 H       -4.1100    -8.0230     1.7950 H     1 <1>   0.0800 
 29 H       -1.8260    -7.8730     0.6410 H     1 <1>   0.0800 
 30 H       -1.7750    -7.4420    -1.0550 H     1 <1>   0.0800 
 31 H       -7.6860    -0.1150     0.3000 H     1 <1>   0.1500 
 32 H       -5.2130    -9.7060    -0.4630 H     1 <1>   0.0800 
 33 H       -5.2090   -10.1170     1.2200 H     1 <1>   0.0800 
 34 H       -1.4160    -9.8650    -0.6990 H     1 <1>   0.0800 
 35 H       -2.8100    -9.5470    -1.6800 H     1 <1>   0.0800 
 36 H       -3.3840   -11.2680    -0.0500 H     1 <1>   0.0800 
 37 H       -2.7860   -10.2920     1.2600 H     1 <1>   0.0800 
 38 H      -12.2040    -3.5950    -0.3990 H     1 <1>   0.0800 
 39 H      -11.2310    -2.8340    -1.6430 H     1 <1>   0.0800 
 40 H      -11.4430    -1.9160     1.2530 H     1 <1>   0.0800 
 41 H      -12.0920    -1.0670    -0.1370 H     1 <1>   0.0800 
@<TRIPOS>BOND
  1   1   2  2   
  2   2   3  am  
  3   2   4  1   
  4   3   5  1   
  5   3  21  1   
  6   4   6  1   
  7   4  22  1   
  8   4  23  1   
  9   5   7  ar  
 10   5   8  ar  
 11   6   9  1   
 12   6  10  1   
 13   6  24  1   
 14   7  11  ar  
 15   7  25  1   
 16   8  12  ar  
 17   8  26  1   
 18   9  13  1   
 19   9  27  1   
 20   9  28  1   
 21  10  14  1   
 22  10  29  1   
 23  10  30  1   
 24  11  15  1   
 25  11  16  ar  
 26  12  16  ar  
 27  12  31  1   
 28  13  17  1   
 29  13  32  1   
 30  13  33  1   
 31  14  17  1   
 32  14  34  1   
 33  14  35  1   
 34  15  18  1   
 35  16  19  1   
 36  17  36  1   
 37  17  37  1   
 38  18  20  1   
 39  18  38  1   
 40  18  39  1   
 41  19  20  1   
 42  20  40  1   
 43  20  41  1   
@<TRIPOS>SUBSTRUCTURE
  1 ****   3 GROUP 4 **** **** 0

# MOE 2024.06 (io_trps.svl 2023.06)
