@<TRIPOS>MOLECULE
NONAME
42 43 1 0 0 
SMALL
USER_CHARGES


@<TRIPOS>ATOM
  1 S        0.0010     0.1390     2.0890 S.o2  1 <1>   1.4470 
  2 O        0.1010     0.8350     3.3510 O.2   1 <1>  -0.6500 
  3 O       -0.0850    -1.3050     2.1420 O.2   1 <1>  -0.6500 
  4 N       -1.4960     0.6230     1.5010 N.am  1 <1>  -0.9140 
  5 C        1.2540     0.7860     0.9000 C.ar  1 <1>  -0.0090 
  6 C       -2.1810    -0.3140     0.6250 C.3   1 <1>   0.2760 
  7 C        1.1740     2.1040     0.4140 C.ar  1 <1>  -0.1430 
  8 C        2.3100    -0.0220     0.4400 C.ar  1 <1>  -0.1430 
  9 C       -1.5360    -0.3800    -0.7590 C.3   1 <1>  -0.1600 
 10 C       -3.5580     0.2630     0.3160 C.3   1 <1>  -0.1600 
 11 C        2.0350     2.5460    -0.5880 C.ar  1 <1>  -0.1430 
 12 C        0.1480     3.1020     0.9670 C.3   1 <1>  -0.0970 
 13 C        3.1690     0.4290    -0.5590 C.ar  1 <1>  -0.1430 
 14 C        2.5460    -1.4150     1.0350 C.3   1 <1>  -0.0970 
 15 C       -2.0540     0.8390    -1.5290 C.3   1 <1>  -0.1600 
 16 C       -3.3400     1.2750    -0.8150 C.3   1 <1>  -0.1600 
 17 C        3.0140     1.7020    -1.0650 C.ar  1 <1>  -0.1500 
 18 C        1.9520     3.9380    -1.2060 C.3   1 <1>  -0.0970 
 19 C        4.2930    -0.4200    -1.1460 C.3   1 <1>  -0.0970 
 20 H       -2.0490     0.7040     2.3480 H     1 <1>   0.4200 
 21 H       -2.2640    -1.2870     1.0850 H     1 <1>   0.0800 
 22 H       -1.8950    -1.2680    -1.2490 H     1 <1>   0.0800 
 23 H       -0.4640    -0.4290    -0.7390 H     1 <1>   0.0800 
 24 H       -4.0290     0.7030     1.1770 H     1 <1>   0.0800 
 25 H       -4.1850    -0.5320    -0.0480 H     1 <1>   0.0800 
 26 H       -0.0570     2.9310     2.0050 H     1 <1>   0.0800 
 27 H       -0.7710     3.0330     0.4150 H     1 <1>   0.0800 
 28 H        0.5030     4.1130     0.9110 H     1 <1>   0.0800 
 29 H        2.4250    -1.3950     2.1030 H     1 <1>   0.0800 
 30 H        3.5390    -1.7800     0.8640 H     1 <1>   0.0800 
 31 H        1.8530    -2.1200     0.6120 H     1 <1>   0.0800 
 32 H       -2.2390     0.5910    -2.5600 H     1 <1>   0.0800 
 33 H       -1.3270     1.6310    -1.4880 H     1 <1>   0.0800 
 34 H       -3.1990     2.2570    -0.3980 H     1 <1>   0.0800 
 35 H       -4.1800     1.2970    -1.4870 H     1 <1>   0.0800 
 36 H        3.6750     2.0460    -1.8400 H     1 <1>   0.1500 
 37 H        0.9370     4.1670    -1.4780 H     1 <1>   0.0800 
 38 H        2.5520     4.0040    -2.0960 H     1 <1>   0.0800 
 39 H        2.3070     4.6720    -0.5060 H     1 <1>   0.0800 
 40 H        3.9170    -1.3830    -1.4410 H     1 <1>   0.0800 
 41 H        5.0740    -0.5480    -0.4190 H     1 <1>   0.0800 
 42 H        4.7180     0.0450    -2.0170 H     1 <1>   0.0800 
@<TRIPOS>BOND
  1   1   2  2   
  2   1   3  2   
  3   1   4  am  
  4   1   5  1   
  5   4   6  1   
  6   4  20  1   
  7   5   7  ar  
  8   5   8  ar  
  9   6   9  1   
 10   6  10  1   
 11   6  21  1   
 12   7  11  ar  
 13   7  12  1   
 14   8  13  ar  
 15   8  14  1   
 16   9  15  1   
 17   9  22  1   
 18   9  23  1   
 19  10  16  1   
 20  10  24  1   
 21  10  25  1   
 22  11  17  ar  
 23  11  18  1   
 24  12  26  1   
 25  12  27  1   
 26  12  28  1   
 27  13  17  ar  
 28  13  19  1   
 29  14  29  1   
 30  14  30  1   
 31  14  31  1   
 32  15  16  1   
 33  15  32  1   
 34  15  33  1   
 35  16  34  1   
 36  16  35  1   
 37  17  36  1   
 38  18  37  1   
 39  18  38  1   
 40  18  39  1   
 41  19  40  1   
 42  19  41  1   
 43  19  42  1   
@<TRIPOS>SUBSTRUCTURE
  1 ****   5 GROUP 4 **** **** 0

# MOE 2024.06 (io_trps.svl 2023.06)
