@<TRIPOS>MOLECULE
NONAME
27 28 1 0 0 
SMALL
USER_CHARGES


@<TRIPOS>ATOM
  1 S       -0.1180    -0.1790     0.1620 S.o2  1 <1>   1.2570 
  2 O       -0.5770    -0.7060     1.4300 O.2   1 <1>  -0.6500 
  3 O       -0.5250    -0.8680    -1.0450 O.2   1 <1>  -0.6500 
  4 C        1.7010    -0.0760     0.1930 C.2   1 <1>   0.1240 
  5 C       -0.6180     1.5450     0.0380 C.3   1 <1>  -0.0550 
  6 N        2.4220     1.0040     0.1380 N.2   1 <1>  -0.5650 
  7 N        2.4550    -1.2100     0.2830 N.pl3 1 <1>   0.0480 
  8 C       -2.1410     1.7650    -0.0080 C.3   1 <1>  -0.2400 
  9 C        3.7090     0.5710     0.1930 C.ar  1 <1>   0.2270 
 10 C        3.7520    -0.8050     0.2840 C.ar  1 <1>  -0.1520 
 11 C        1.9660    -2.6030     0.3630 C.3   1 <1>   0.0160 
 12 C        4.8900     1.3110     0.1690 C.ar  1 <1>  -0.1500 
 13 C        4.9750    -1.4810     0.3530 C.ar  1 <1>  -0.1500 
 14 C        6.0970     0.6520     0.2380 C.ar  1 <1>  -0.1500 
 15 C        6.1380    -0.7440     0.3300 C.ar  1 <1>  -0.1500 
 16 H       -0.1830     1.9700    -0.8470 H     1 <1>   0.0800 
 17 H       -0.2200     2.0820     0.8780 H     1 <1>   0.0800 
 18 H       -2.5620     1.2600    -0.8600 H     1 <1>   0.0800 
 19 H       -2.3630     2.8150    -0.0810 H     1 <1>   0.0800 
 20 H       -2.5990     1.3740     0.8840 H     1 <1>   0.0800 
 21 H        1.3510    -2.7170     1.2380 H     1 <1>   0.0800 
 22 H        2.7970    -3.2810     0.4250 H     1 <1>   0.0800 
 23 H        1.3870    -2.8310    -0.5140 H     1 <1>   0.0800 
 24 H        4.8280     2.3810     0.0980 H     1 <1>   0.1500 
 25 H        5.0040    -2.5530     0.4240 H     1 <1>   0.1500 
 26 H        7.0200     1.2060     0.2210 H     1 <1>   0.1500 
 27 H        7.0940    -1.2370     0.3820 H     1 <1>   0.1500 
@<TRIPOS>BOND
  1   1   2  2   
  2   1   3  2   
  3   1   4  1   
  4   1   5  1   
  5   4   6  2   
  6   4   7  1   
  7   5   8  1   
  8   5  16  1   
  9   5  17  1   
 10   6   9  1   
 11   7  10  1   
 12   7  11  1   
 13   8  18  1   
 14   8  19  1   
 15   8  20  1   
 16   9  10  ar  
 17   9  12  ar  
 18  10  13  ar  
 19  11  21  1   
 20  11  22  1   
 21  11  23  1   
 22  12  14  ar  
 23  12  24  1   
 24  13  15  ar  
 25  13  25  1   
 26  14  15  ar  
 27  14  26  1   
 28  15  27  1   
@<TRIPOS>SUBSTRUCTURE
  1 ****   4 GROUP 4 **** **** 0

# MOE 2024.06 (io_trps.svl 2023.06)
