@<TRIPOS>MOLECULE
NONAME
42 43 1 0 0 
SMALL
USER_CHARGES


@<TRIPOS>ATOM
  1 O        3.1350    -3.0550     0.1400 O.3   1 <1>  -0.3630 
  2 C        1.9200    -3.6550     0.0750 C.ar  1 <1>   0.0830 
  3 C        4.3190    -3.8130     0.2570 C.3   1 <1>   0.1200 
  4 C        0.8150    -2.8240     0.0080 C.ar  1 <1>  -0.1500 
  5 C        1.7350    -5.0340     0.0720 C.ar  1 <1>  -0.1500 
  6 C        5.5080    -2.8460     0.3140 C.3   1 <1>   0.2000 
  7 C       -0.4690    -3.3420    -0.0600 C.ar  1 <1>  -0.1440 
  8 C        0.4560    -5.5550     0.0040 C.ar  1 <1>  -0.1500 
  9 O        5.4270    -1.9640    -0.7660 O.3   1 <1>  -0.6800 
 10 C        6.8680    -3.5730     0.2670 C.3   1 <1>   0.3430 
 11 C       -0.6500    -4.7210    -0.0630 C.ar  1 <1>  -0.1440 
 12 C       -1.6500    -2.3850    -0.1320 C.3   1 <1>  -0.0970 
 13 N        7.9380    -2.6430    -0.2070 N.4   1 <1>  -0.9590 
 14 C       -2.0380    -5.3400    -0.1370 C.3   1 <1>  -0.0970 
 15 C        9.1230    -3.2930    -0.8070 C.3   1 <1>   0.3430 
 16 C        8.4320    -1.6880     0.8090 C.3   1 <1>   0.3430 
 17 C       10.1880    -2.2040    -0.8060 C.3   1 <1>  -0.1600 
 18 C        9.7330    -1.1610     0.2200 C.3   1 <1>  -0.1600 
 19 H        4.3940    -4.4600    -0.6000 H     1 <1>   0.0800 
 20 H        4.2590    -4.3990     1.1580 H     1 <1>   0.0800 
 21 H        0.9710    -1.7610     0.0120 H     1 <1>   0.1500 
 22 H        2.5600    -5.7160     0.1210 H     1 <1>   0.1500 
 23 H        5.4400    -2.2640     1.2170 H     1 <1>   0.0800 
 24 H        0.3260    -6.6230     0.0020 H     1 <1>   0.1500 
 25 H        4.4830    -1.6950    -0.8740 H     1 <1>   0.4000 
 26 H        6.7820    -4.3940    -0.4260 H     1 <1>   0.0800 
 27 H        7.1120    -3.9790     1.2340 H     1 <1>   0.0800 
 28 H       -1.3200    -1.3620    -0.1170 H     1 <1>   0.0800 
 29 H       -2.3010    -2.5410     0.7090 H     1 <1>   0.0800 
 30 H       -2.2010    -2.5470    -1.0400 H     1 <1>   0.0800 
 31 H        7.4640    -2.0730    -0.9350 H     1 <1>   0.4500 
 32 H       -2.5290    -5.0340    -1.0430 H     1 <1>   0.0800 
 33 H       -2.6270    -5.0260     0.7050 H     1 <1>   0.0800 
 34 H       -1.9850    -6.4140    -0.1290 H     1 <1>   0.0800 
 35 H        8.9190    -3.6510    -1.8040 H     1 <1>   0.0800 
 36 H        9.4460    -4.1130    -0.1870 H     1 <1>   0.0800 
 37 H        8.6380    -2.2070     1.7320 H     1 <1>   0.0800 
 38 H        7.7230    -0.8950     0.9880 H     1 <1>   0.0800 
 39 H       10.2580    -1.7620    -1.7860 H     1 <1>   0.0800 
 40 H       11.1480    -2.6210    -0.5530 H     1 <1>   0.0800 
 41 H       10.4660    -1.0130     0.9940 H     1 <1>   0.0800 
 42 H        9.5530    -0.2150    -0.2630 H     1 <1>   0.0800 
@<TRIPOS>BOND
  1   1   2  1   
  2   1   3  1   
  3   2   4  ar  
  4   2   5  ar  
  5   3   6  1   
  6   3  19  1   
  7   3  20  1   
  8   4   7  ar  
  9   4  21  1   
 10   5   8  ar  
 11   5  22  1   
 12   6   9  1   
 13   6  10  1   
 14   6  23  1   
 15   7  11  ar  
 16   7  12  1   
 17   8  11  ar  
 18   8  24  1   
 19   9  25  1   
 20  10  13  1   
 21  10  26  1   
 22  10  27  1   
 23  11  14  1   
 24  12  28  1   
 25  12  29  1   
 26  12  30  1   
 27  13  15  1   
 28  13  16  1   
 29  13  31  1   
 30  14  32  1   
 31  14  33  1   
 32  14  34  1   
 33  15  17  1   
 34  15  35  1   
 35  15  36  1   
 36  16  18  1   
 37  16  37  1   
 38  16  38  1   
 39  17  18  1   
 40  17  39  1   
 41  17  40  1   
 42  18  41  1   
 43  18  42  1   
@<TRIPOS>SUBSTRUCTURE
  1 ****   3 GROUP 4 **** **** 0

# MOE 2024.06 (io_trps.svl 2023.06)
