@<TRIPOS>MOLECULE
NONAME
56 57 1 0 0 
SMALL
USER_CHARGES


@<TRIPOS>ATOM
  1 S        0.0270     0.3870     0.8210 S.o2  1 <1>   1.4470 
  2 O       -0.4580     0.5720     2.1700 O.2   1 <1>  -0.6500 
  3 O       -0.0830    -0.9020     0.1770 O.2   1 <1>  -0.6500 
  4 N       -0.8740     1.3960    -0.1680 N.am  1 <1>  -0.9140 
  5 C        1.7070     1.0470     0.6650 C.ar  1 <1>  -0.0090 
  6 C       -2.2930     1.3640     0.1450 C.3   1 <1>   0.1960 
  7 C        2.7600     0.2460     0.2370 C.ar  1 <1>  -0.1500 
  8 C        1.9800     2.3730     0.9790 C.ar  1 <1>  -0.1500 
  9 C       -3.0900     2.1290    -0.9240 C.3   1 <1>  -0.0800 
 10 C        4.0510     0.7370     0.1150 C.ar  1 <1>  -0.1440 
 11 C        3.2580     2.8850     0.8610 C.ar  1 <1>  -0.1500 
 12 C       -4.5760     2.1660    -0.5420 C.3   1 <1>  -0.2400 
 13 C       -2.9360     1.5090    -2.3230 C.3   1 <1>  -0.2400 
 14 C        4.2900     2.0740     0.4200 C.ar  1 <1>   0.0830 
 15 C        5.1590    -0.2030    -0.3390 C.3   1 <1>  -0.0970 
 16 O        5.5180     2.6170     0.3110 O.3   1 <1>  -0.3620 
 17 C        5.9770     2.9180    -1.0000 C.3   1 <1>   0.1810 
 18 C        7.2970     2.2110    -1.3060 C.2   1 <1>   0.5690 
 19 O        7.3790     1.6380    -2.3670 O.2   1 <1>  -0.5700 
 20 N        8.3650     2.2160    -0.4330 N.am  1 <1>  -0.6600 
 21 C        9.5470     1.3260    -0.6770 C.3   1 <1>   0.1400 
 22 C        8.4230     3.0030     0.8400 C.3   1 <1>   0.1400 
 23 C       10.8720     2.0910    -0.5110 C.3   1 <1>   0.3430 
 24 C        9.7800     3.7190     1.0060 C.3   1 <1>   0.3430 
 25 N       10.9510     2.7910     0.8210 N.4   1 <1>  -0.9590 
 26 C       12.2480     3.5210     0.9660 C.3   1 <1>   0.2630 
 27 H       -0.7790     0.9690    -1.0860 H     1 <1>   0.4200 
 28 H       -2.4540     1.8180     1.1100 H     1 <1>   0.0800 
 29 H       -2.6360     0.3420     0.1920 H     1 <1>   0.0800 
 30 H        2.5600    -0.7860    -0.0020 H     1 <1>   0.1500 
 31 H        1.1780     3.0070     1.3210 H     1 <1>   0.1500 
 32 H       -2.7290     3.1440    -0.9490 H     1 <1>   0.0800 
 33 H        3.4560     3.9120     1.1090 H     1 <1>   0.1500 
 34 H       -4.9850     1.1710    -0.5060 H     1 <1>   0.0800 
 35 H       -5.1320     2.7390    -1.2630 H     1 <1>   0.0800 
 36 H       -4.7030     2.6260     0.4220 H     1 <1>   0.0800 
 37 H       -3.2350     0.4750    -2.3160 H     1 <1>   0.0800 
 38 H       -1.9180     1.5740    -2.6620 H     1 <1>   0.0800 
 39 H       -3.5500     2.0370    -3.0320 H     1 <1>   0.0800 
 40 H        4.8840    -1.2280    -0.1650 H     1 <1>   0.0800 
 41 H        6.0640    -0.0060     0.2050 H     1 <1>   0.0800 
 42 H        5.3450    -0.0740    -1.3900 H     1 <1>   0.0800 
 43 H        6.1050     3.9810    -1.0710 H     1 <1>   0.0800 
 44 H        5.2320     2.6110    -1.7140 H     1 <1>   0.0800 
 45 H        9.5140     0.9130    -1.6710 H     1 <1>   0.0800 
 46 H        9.5140     0.5010     0.0120 H     1 <1>   0.0800 
 47 H        8.2570     2.3400     1.6720 H     1 <1>   0.0800 
 48 H        7.6490     3.7490     0.8600 H     1 <1>   0.0800 
 49 H       10.9500     2.8120    -1.3080 H     1 <1>   0.0800 
 50 H       11.6910     1.3970    -0.6110 H     1 <1>   0.0800 
 51 H        9.8200     4.1690     1.9850 H     1 <1>   0.0800 
 52 H        9.8330     4.5130     0.2790 H     1 <1>   0.0800 
 53 H       10.8930     2.0680     1.5530 H     1 <1>   0.4500 
 54 H       12.3370     4.2830     0.2090 H     1 <1>   0.0800 
 55 H       13.0760     2.8380     0.8650 H     1 <1>   0.0800 
 56 H       12.3080     3.9890     1.9350 H     1 <1>   0.0800 
@<TRIPOS>BOND
  1   1   2  2   
  2   1   3  2   
  3   1   4  am  
  4   1   5  1   
  5   4   6  1   
  6   4  27  1   
  7   5   7  ar  
  8   5   8  ar  
  9   6   9  1   
 10   6  28  1   
 11   6  29  1   
 12   7  10  ar  
 13   7  30  1   
 14   8  11  ar  
 15   8  31  1   
 16   9  12  1   
 17   9  13  1   
 18   9  32  1   
 19  10  14  ar  
 20  10  15  1   
 21  11  14  ar  
 22  11  33  1   
 23  12  34  1   
 24  12  35  1   
 25  12  36  1   
 26  13  37  1   
 27  13  38  1   
 28  13  39  1   
 29  14  16  1   
 30  15  40  1   
 31  15  41  1   
 32  15  42  1   
 33  16  17  1   
 34  17  18  1   
 35  17  43  1   
 36  17  44  1   
 37  18  19  2   
 38  18  20  am  
 39  20  21  1   
 40  20  22  1   
 41  21  23  1   
 42  21  45  1   
 43  21  46  1   
 44  22  24  1   
 45  22  47  1   
 46  22  48  1   
 47  23  25  1   
 48  23  49  1   
 49  23  50  1   
 50  24  25  1   
 51  24  51  1   
 52  24  52  1   
 53  25  26  1   
 54  25  53  1   
 55  26  54  1   
 56  26  55  1   
 57  26  56  1   
@<TRIPOS>SUBSTRUCTURE
  1 ****  14 GROUP 4 **** **** 0

# MOE 2024.06 (io_trps.svl 2023.06)
