@<TRIPOS>MOLECULE
ka-07652
28 28 1 0 0 
SMALL
USER_CHARGES


@<TRIPOS>ATOM
  1 O       -0.1100    -0.4600    -0.8290 O.3   1 <1>  -0.3630 
  2 C       -1.2760    -0.9580    -0.3600 C.ar  1 <1>   0.0820 
  3 C        0.9270    -0.3750     0.1110 C.3   1 <1>   0.1200 
  4 C       -2.2290    -0.0920     0.1740 C.ar  1 <1>  -0.1440 
  5 C       -1.5110    -2.3300    -0.4170 C.ar  1 <1>  -0.1440 
  6 C        2.1440     0.2060    -0.6110 C.3   1 <1>   0.3430 
  7 C       -3.4000    -0.6180     0.6920 C.ar  1 <1>  -0.1500 
  8 C       -2.0270     1.4170     0.1940 C.3   1 <1>  -0.0970 
  9 C       -2.6900    -2.8330     0.1070 C.ar  1 <1>  -0.1500 
 10 C       -0.5160    -3.2940    -1.0500 C.3   1 <1>  -0.0960 
 11 N        3.3180     0.3410     0.3010 N.4   1 <1>  -0.8530 
 12 C       -3.6280    -1.9820     0.6640 C.ar  1 <1>  -0.1500 
 13 H        1.1220    -1.3670     0.4800 H     1 <1>   0.0800 
 14 H        0.5990     0.2640     0.9110 H     1 <1>   0.0800 
 15 H        1.8790     1.1730    -1.0080 H     1 <1>   0.0800 
 16 H        2.3970    -0.4420    -1.4350 H     1 <1>   0.0800 
 17 H       -4.1470     0.0290     1.1180 H     1 <1>   0.1500 
 18 H       -1.4240     1.6980     1.0380 H     1 <1>   0.0800 
 19 H       -2.9740     1.9220     0.2670 H     1 <1>   0.0800 
 20 H       -1.5490     1.7430    -0.7110 H     1 <1>   0.0800 
 21 H       -2.8900    -3.8900     0.0830 H     1 <1>   0.1500 
 22 H       -1.0100    -4.2010    -1.3500 H     1 <1>   0.0800 
 23 H       -0.0740    -2.8540    -1.9250 H     1 <1>   0.0800 
 24 H        0.2560    -3.5420    -0.3460 H     1 <1>   0.0800 
 25 H        3.1100     0.9680     1.0880 H     1 <1>   0.4500 
 26 H        4.1230     0.7330    -0.2040 H     1 <1>   0.4500 
 27 H        3.6030    -0.5700     0.6810 H     1 <1>   0.4500 
 28 H       -4.5410    -2.3820     1.0700 H     1 <1>   0.1500 
@<TRIPOS>BOND
  1   1   2  1   
  2   1   3  1   
  3   2   4  ar  
  4   2   5  ar  
  5   3   6  1   
  6   3  13  1   
  7   3  14  1   
  8   4   7  ar  
  9   4   8  1   
 10   5   9  ar  
 11   5  10  1   
 12   6  11  1   
 13   6  15  1   
 14   6  16  1   
 15   7  12  ar  
 16   7  17  1   
 17   8  18  1   
 18   8  19  1   
 19   8  20  1   
 20   9  12  ar  
 21   9  21  1   
 22  10  22  1   
 23  10  23  1   
 24  10  24  1   
 25  11  25  1   
 26  11  26  1   
 27  11  27  1   
 28  12  28  1   
@<TRIPOS>SUBSTRUCTURE
  1 ****   2 GROUP 4 **** **** 0

# MOE 2024.06 (io_trps.svl 2023.06)
