@<TRIPOS>MOLECULE
NONAME
44 45 1 0 0 
SMALL
USER_CHARGES


@<TRIPOS>ATOM
  1 S       -0.4680    -0.6830     1.7390 S.3   1 <1>  -0.0800 
  2 C        0.3240     0.6620     0.9330 C.2   1 <1>   0.1040 
  3 C       -2.0410    -0.2220     1.1100 C.2   1 <1>  -0.1400 
  4 N        1.6870     0.8570     1.0790 N.am  1 <1>  -0.4940 
  5 C       -0.5840     1.3990     0.2240 C.2   1 <1>  -0.0860 
  6 C       -1.9220     0.8780     0.3450 C.2   1 <1>  -0.1500 
  7 C       -3.2090    -1.1020     1.5170 C.3   1 <1>   0.0200 
  8 C        2.7110     0.1000     1.5780 C.2   1 <1>   0.5690 
  9 C       -0.2650     2.5550    -0.5650 C.2   1 <1>   0.8060 
 10 C       -4.5330    -0.6190     0.9200 C.3   1 <1>  -0.2400 
 11 O        2.5880    -1.0120     2.0300 O.2   1 <1>  -0.5700 
 12 C        4.1030     0.7360     1.5330 C.3   1 <1>   0.1710 
 13 O        0.8720     2.9640    -0.7270 O.2   1 <1>  -0.5700 
 14 O       -1.2700     3.2110    -1.1550 O.3   1 <1>  -0.4300 
 15 N        4.1820     1.9550     0.6730 N.3   1 <1>  -0.8100 
 16 C       -1.0420     4.3580    -1.9430 C.3   1 <1>   0.1200 
 17 C        5.3690     2.7680     0.9960 C.3   1 <1>   0.1100 
 18 C        4.2010     1.6200    -0.7700 C.3   1 <1>   0.1100 
 19 C       -2.3890     4.8530    -2.4580 C.3   1 <1>  -0.2400 
 20 C        5.4520     4.0070     0.0850 C.3   1 <1>   0.1200 
 21 C        4.3090     2.8950    -1.6250 C.3   1 <1>   0.1200 
 22 O        5.4460     3.6270    -1.2620 O.3   1 <1>  -0.5600 
 23 H        2.0550     1.7350     0.6820 H     1 <1>   0.3700 
 24 H       -2.7420     1.3630    -0.1570 H     1 <1>   0.1500 
 25 H       -3.2820    -1.1080     2.5910 H     1 <1>   0.0800 
 26 H       -3.0160    -2.1090     1.1920 H     1 <1>   0.0800 
 27 H       -4.7490     0.3810     1.2530 H     1 <1>   0.0800 
 28 H       -5.3340    -1.2660     1.2310 H     1 <1>   0.0800 
 29 H       -4.4810    -0.6270    -0.1540 H     1 <1>   0.0800 
 30 H        4.8130     0.0000     1.1970 H     1 <1>   0.0800 
 31 H        4.3550     0.9990     2.5440 H     1 <1>   0.0800 
 32 H       -0.3920     4.0890    -2.7600 H     1 <1>   0.0800 
 33 H       -0.5650     5.1050    -1.3310 H     1 <1>   0.0800 
 34 H        6.2650     2.1830     0.8730 H     1 <1>   0.0800 
 35 H        5.3150     3.0920     2.0210 H     1 <1>   0.0800 
 36 H        3.3010     1.0980    -1.0430 H     1 <1>   0.0800 
 37 H        5.0390     0.9810    -0.9920 H     1 <1>   0.0800 
 38 H       -2.8590     4.0950    -3.0590 H     1 <1>   0.0800 
 39 H       -2.2460     5.7290    -3.0640 H     1 <1>   0.0800 
 40 H       -3.0310     5.1090    -1.6340 H     1 <1>   0.0800 
 41 H        6.3620     4.5480     0.2690 H     1 <1>   0.0800 
 42 H        4.6150     4.6610     0.2620 H     1 <1>   0.0800 
 43 H        3.4390     3.5150    -1.4910 H     1 <1>   0.0800 
 44 H        4.4000     2.6410    -2.6650 H     1 <1>   0.0800 
@<TRIPOS>BOND
  1   1   2  1   
  2   1   3  1   
  3   2   4  1   
  4   2   5  2   
  5   3   6  2   
  6   3   7  1   
  7   4   8  am  
  8   4  23  1   
  9   5   6  1   
 10   5   9  1   
 11   6  24  1   
 12   7  10  1   
 13   7  25  1   
 14   7  26  1   
 15   8  11  2   
 16   8  12  1   
 17   9  13  2   
 18   9  14  1   
 19  10  27  1   
 20  10  28  1   
 21  10  29  1   
 22  12  15  1   
 23  12  30  1   
 24  12  31  1   
 25  14  16  1   
 26  15  17  1   
 27  15  18  1   
 28  16  19  1   
 29  16  32  1   
 30  16  33  1   
 31  17  20  1   
 32  17  34  1   
 33  17  35  1   
 34  18  21  1   
 35  18  36  1   
 36  18  37  1   
 37  19  38  1   
 38  19  39  1   
 39  19  40  1   
 40  20  22  1   
 41  20  41  1   
 42  20  42  1   
 43  21  22  1   
 44  21  43  1   
 45  21  44  1   
@<TRIPOS>SUBSTRUCTURE
  1 ****   4 GROUP 4 **** **** 0

# MOE 2024.06 (io_trps.svl 2023.06)
