@<TRIPOS>MOLECULE
NONAME
41 41 1 0 0 
SMALL
USER_CHARGES


@<TRIPOS>ATOM
  1 CL      -0.1730     0.2890     0.4250 Cl    1 <1>  -0.1770 
  2 C       -1.7600     1.0130     0.3510 C.ar  1 <1>   0.1770 
  3 C       -1.8750     2.3900     0.2940 C.ar  1 <1>  -0.1500 
  4 C       -2.8770     0.1980     0.3500 C.ar  1 <1>  -0.1500 
  5 C       -3.1350     2.9590     0.2350 C.ar  1 <1>  -0.1500 
  6 C       -4.1370     0.7700     0.2910 C.ar  1 <1>  -0.1500 
  7 C       -4.2690     2.1580     0.2330 C.ar  1 <1>   0.0830 
  8 O       -5.4630     2.7990     0.1740 O.3   1 <1>  -0.3630 
  9 C       -6.6790     2.0840     0.1660 C.3   1 <1>   0.1200 
 10 C       -7.8200     3.0940     0.0940 C.3   1 <1>   0.1200 
 11 O       -9.0340     2.4020     0.0860 O.3   1 <1>  -0.5600 
 12 C      -10.1550     3.2170     0.0210 C.3   1 <1>   0.1200 
 13 C      -11.3830     2.3010     0.0210 C.3   1 <1>   0.3430 
 14 N      -12.6600     3.0820    -0.0460 N.4   1 <1>  -0.9060 
 15 C      -13.8990     2.2990    -0.0510 C.3   1 <1>   0.5030 
 16 C      -15.0400     3.3080    -0.1230 C.3   1 <1>  -0.2400 
 17 C      -14.0050     1.4870     1.2390 C.3   1 <1>  -0.2400 
 18 C      -13.9320     1.3900    -1.2790 C.3   1 <1>  -0.2400 
 19 H       -0.9910     3.0020     0.2950 H     1 <1>   0.1500 
 20 H       -2.7560    -0.8690     0.3950 H     1 <1>   0.1500 
 21 H       -3.2470     4.0270     0.1900 H     1 <1>   0.1500 
 22 H       -4.9940     0.1240     0.2920 H     1 <1>   0.1500 
 23 H       -6.7410     1.5110     1.0750 H     1 <1>   0.0800 
 24 H       -6.6900     1.4420    -0.6970 H     1 <1>   0.0800 
 25 H       -7.7410     3.6710    -0.8120 H     1 <1>   0.0800 
 26 H       -7.7930     3.7400     0.9550 H     1 <1>   0.0800 
 27 H      -10.1040     3.7930    -0.8870 H     1 <1>   0.0800 
 28 H      -10.1550     3.8620     0.8840 H     1 <1>   0.0800 
 29 H      -11.3640     1.7070     0.9210 H     1 <1>   0.0800 
 30 H      -11.3140     1.6400    -0.8260 H     1 <1>   0.0800 
 31 H      -12.6660     3.6570    -0.8930 H     1 <1>   0.4500 
 32 H      -12.7140     3.7210     0.7530 H     1 <1>   0.4500 
 33 H      -14.9860     3.8960    -1.0230 H     1 <1>   0.0800 
 34 H      -15.0360     3.9640     0.7300 H     1 <1>   0.0800 
 35 H      -15.9840     2.7920    -0.1300 H     1 <1>   0.0800 
 36 H      -13.9300     2.1210     2.1050 H     1 <1>   0.0800 
 37 H      -13.2520     0.7220     1.2910 H     1 <1>   0.0800 
 38 H      -14.9610     0.9930     1.2780 H     1 <1>   0.0800 
 39 H      -14.8850     0.8920    -1.3330 H     1 <1>   0.0800 
 40 H      -13.8060     1.9540    -2.1850 H     1 <1>   0.0800 
 41 H      -13.1790     0.6240    -1.2270 H     1 <1>   0.0800 
@<TRIPOS>BOND
  1   1   2  1   
  2   2   3  ar  
  3   2   4  ar  
  4   3   5  ar  
  5   3  19  1   
  6   4   6  ar  
  7   4  20  1   
  8   5   7  ar  
  9   5  21  1   
 10   6   7  ar  
 11   6  22  1   
 12   7   8  1   
 13   8   9  1   
 14   9  10  1   
 15   9  23  1   
 16   9  24  1   
 17  10  11  1   
 18  10  25  1   
 19  10  26  1   
 20  11  12  1   
 21  12  13  1   
 22  12  27  1   
 23  12  28  1   
 24  13  14  1   
 25  13  29  1   
 26  13  30  1   
 27  14  15  1   
 28  14  31  1   
 29  14  32  1   
 30  15  16  1   
 31  15  17  1   
 32  15  18  1   
 33  16  33  1   
 34  16  34  1   
 35  16  35  1   
 36  17  36  1   
 37  17  37  1   
 38  17  38  1   
 39  18  39  1   
 40  18  40  1   
 41  18  41  1   
@<TRIPOS>SUBSTRUCTURE
  1 ****   9 GROUP 4 **** **** 0

# MOE 2024.06 (io_trps.svl 2023.06)
