@<TRIPOS>MOLECULE
NONAME
49 51 1 0 0 
SMALL
USER_CHARGES


@<TRIPOS>ATOM
  1 S       -0.0360     0.1280     0.0770 S.o2  1 <1>   1.5010 
  2 O        0.2970     0.9770    -1.0460 O.2   1 <1>  -0.6500 
  3 O       -0.1500     0.7060     1.3990 O.2   1 <1>  -0.6500 
  4 N        1.1530    -1.0740     0.1610 N.am  1 <1>  -0.8490 
  5 C       -1.5220    -0.8100    -0.2980 C.2   1 <1>  -0.0630 
  6 C        2.3970    -0.5560     0.7660 C.3   1 <1>   0.1960 
  7 C        1.4550    -1.6670    -1.1600 C.3   1 <1>   0.1960 
  8 C       -2.3460    -0.5600    -1.3860 C.2   1 <1>   0.1390 
  9 C       -2.1120    -1.8660     0.3170 C.2   1 <1>  -0.3020 
 10 C        3.4920    -1.6350     0.8780 C.3   1 <1>   0.2090 
 11 C        2.5240    -2.7730    -1.0730 C.3   1 <1>   0.2090 
 12 N       -3.3500    -1.3810    -1.4560 N.2   1 <1>  -0.7070 
 13 N       -3.2060    -2.1910    -0.3940 N.pl3 1 <1>   0.3140 
 14 N        3.7750    -2.2510    -0.4520 N.pl3 1 <1>  -0.8380 
 15 C       -4.1610    -3.2800    -0.1010 C.3   1 <1>   0.0960 
 16 C        4.8780    -3.1160    -0.4970 C.ar  1 <1>   0.1000 
 17 C       -3.5940    -4.6410    -0.5250 C.3   1 <1>  -0.2400 
 18 C        4.9540    -4.3450     0.1850 C.ar  1 <1>   0.0830 
 19 C        5.9590    -2.7170    -1.2700 C.ar  1 <1>  -0.1500 
 20 O        3.8860    -4.7330     0.9490 O.3   1 <1>  -0.3630 
 21 C        6.0990    -5.1280     0.0680 C.ar  1 <1>  -0.1500 
 22 C        7.0940    -3.4990    -1.3800 C.ar  1 <1>  -0.1500 
 23 C        3.9730    -5.8260     1.8320 C.3   1 <1>   0.1200 
 24 C        7.1640    -4.7060    -0.7100 C.ar  1 <1>  -0.1500 
 25 C        2.6700    -5.8930     2.6230 C.3   1 <1>  -0.2400 
 26 H        2.1880    -0.1830     1.7540 H     1 <1>   0.0800 
 27 H        2.7770     0.2620     0.1770 H     1 <1>   0.0800 
 28 H        1.8110    -0.9050    -1.8340 H     1 <1>   0.0800 
 29 H        0.5590    -2.0900    -1.5790 H     1 <1>   0.0800 
 30 H       -2.1740     0.2280    -2.1020 H     1 <1>   0.1500 
 31 H       -1.8050    -2.3870     1.2060 H     1 <1>   0.1500 
 32 H        3.1690    -2.3920     1.5700 H     1 <1>   0.0800 
 33 H        4.3950    -1.1930     1.2620 H     1 <1>   0.0800 
 34 H        2.7460    -3.1380    -2.0610 H     1 <1>   0.0800 
 35 H        2.1400    -3.5910    -0.4910 H     1 <1>   0.0800 
 36 H       -5.0730    -3.0790    -0.6350 H     1 <1>   0.0800 
 37 H       -4.3720    -3.2740     0.9520 H     1 <1>   0.0800 
 38 H       -3.3900    -4.6420    -1.5810 H     1 <1>   0.0800 
 39 H       -4.3110    -5.4140    -0.3150 H     1 <1>   0.0800 
 40 H       -2.6890    -4.8570     0.0140 H     1 <1>   0.0800 
 41 H        5.8980    -1.7780    -1.7880 H     1 <1>   0.1500 
 42 H        6.1870    -6.0730     0.5680 H     1 <1>   0.1500 
 43 H        7.9190    -3.1670    -1.9850 H     1 <1>   0.1500 
 44 H        4.8100    -5.6680     2.4890 H     1 <1>   0.0800 
 45 H        4.1130    -6.7220     1.2530 H     1 <1>   0.0800 
 46 H        8.0450    -5.3170    -0.7960 H     1 <1>   0.1500 
 47 H        2.5300    -4.9850     3.1810 H     1 <1>   0.0800 
 48 H        2.7050    -6.7180     3.3110 H     1 <1>   0.0800 
 49 H        1.8400    -6.0370     1.9550 H     1 <1>   0.0800 
@<TRIPOS>BOND
  1   1   2  2   
  2   1   3  2   
  3   1   4  am  
  4   1   5  1   
  5   4   6  1   
  6   4   7  1   
  7   5   8  1   
  8   5   9  2   
  9   6  10  1   
 10   6  26  1   
 11   6  27  1   
 12   7  11  1   
 13   7  28  1   
 14   7  29  1   
 15   8  12  2   
 16   8  30  1   
 17   9  13  1   
 18   9  31  1   
 19  10  14  1   
 20  10  32  1   
 21  10  33  1   
 22  11  14  1   
 23  11  34  1   
 24  11  35  1   
 25  12  13  1   
 26  13  15  1   
 27  14  16  1   
 28  15  17  1   
 29  15  36  1   
 30  15  37  1   
 31  16  18  ar  
 32  16  19  ar  
 33  17  38  1   
 34  17  39  1   
 35  17  40  1   
 36  18  20  1   
 37  18  21  ar  
 38  19  22  ar  
 39  19  41  1   
 40  20  23  1   
 41  21  24  ar  
 42  21  42  1   
 43  22  24  ar  
 44  22  43  1   
 45  23  25  1   
 46  23  44  1   
 47  23  45  1   
 48  24  46  1   
 49  25  47  1   
 50  25  48  1   
 51  25  49  1   
@<TRIPOS>SUBSTRUCTURE
  1 ****  11 GROUP 4 **** **** 0

# MOE 2024.06 (io_trps.svl 2023.06)
