@<TRIPOS>MOLECULE
NONAME
48 50 1 0 0 
SMALL
USER_CHARGES


@<TRIPOS>ATOM
  1 O        0.5300    -0.6460     0.5380 O.3   1 <1>  -0.5600 
  2 C        1.7380     0.0320     0.7510 C.3   1 <1>   0.1200 
  3 C        0.6680    -2.0400     0.5000 C.3   1 <1>   0.1200 
  4 C        2.7530    -0.2750    -0.3660 C.3   1 <1>   0.2090 
  5 C        1.6130    -2.4720    -0.6340 C.3   1 <1>   0.2090 
  6 N        2.9230    -1.7520    -0.5300 N.pl3 1 <1>  -0.8380 
  7 C        4.1440    -2.3880    -0.4750 C.ar  1 <1>   0.7200 
  8 N        4.1390    -3.6930    -0.3790 N.ar  1 <1>  -0.6200 
  9 N        5.2160    -1.6410    -0.5220 N.ar  1 <1>  -0.6200 
 10 C        5.3240    -4.2240    -0.3260 C.ar  1 <1>   0.7030 
 11 C        6.3470    -2.2920    -0.4620 C.ar  1 <1>   0.7200 
 12 O        5.3350    -5.5630    -0.2270 O.3   1 <1>  -0.3630 
 13 N        6.4670    -3.5920    -0.3590 N.ar  1 <1>  -0.6200 
 14 N        7.5090    -1.5540    -0.5100 N.pl3 1 <1>  -0.8380 
 15 C        6.5380    -6.2990    -0.1770 C.3   1 <1>   0.1200 
 16 C        7.5590    -0.1160    -0.9230 C.3   1 <1>   0.2090 
 17 C        8.8620    -2.1230    -0.2220 C.3   1 <1>   0.2090 
 18 C        6.1890    -7.7850    -0.0710 C.3   1 <1>  -0.1600 
 19 C        8.4320     0.6990     0.0480 C.3   1 <1>   0.1200 
 20 C        9.6640    -1.1860     0.7000 C.3   1 <1>   0.1200 
 21 C        7.4550    -8.6490    -0.0100 C.3   1 <1>  -0.1600 
 22 O        9.7000     0.1200     0.1910 O.3   1 <1>  -0.5600 
 23 C        7.1030   -10.1350     0.0970 C.3   1 <1>  -0.2400 
 24 H        2.1360    -0.2650     1.7060 H     1 <1>   0.0800 
 25 H        1.5240     1.0850     0.7770 H     1 <1>   0.0800 
 26 H       -0.3080    -2.4640     0.3490 H     1 <1>   0.0800 
 27 H        1.0490    -2.3760     1.4490 H     1 <1>   0.0800 
 28 H        3.6850     0.2030    -0.1230 H     1 <1>   0.0800 
 29 H        2.3990     0.1440    -1.2910 H     1 <1>   0.0800 
 30 H        1.1580    -2.2360    -1.5800 H     1 <1>   0.0800 
 31 H        1.7410    -3.5390    -0.5950 H     1 <1>   0.0800 
 32 H        7.0980    -5.9740     0.6830 H     1 <1>   0.0800 
 33 H        7.0960    -6.0990    -1.0760 H     1 <1>   0.0800 
 34 H        6.5770     0.3200    -0.9540 H     1 <1>   0.0800 
 35 H        7.9770    -0.0490    -1.9120 H     1 <1>   0.0800 
 36 H        9.3960    -2.2520    -1.1470 H     1 <1>   0.0800 
 37 H        8.7850    -3.0840     0.2540 H     1 <1>   0.0800 
 38 H        5.6020    -8.0690    -0.9280 H     1 <1>   0.0800 
 39 H        5.6020    -7.9440     0.8170 H     1 <1>   0.0800 
 40 H        7.9650     0.7510     1.0150 H     1 <1>   0.0800 
 41 H        8.5680     1.6970    -0.3260 H     1 <1>   0.0800 
 42 H       10.6780    -1.5320     0.7870 H     1 <1>   0.0800 
 43 H        9.2220    -1.1600     1.6800 H     1 <1>   0.0800 
 44 H        8.0470    -8.3640     0.8440 H     1 <1>   0.0800 
 45 H        8.0460    -8.4880    -0.8960 H     1 <1>   0.0800 
 46 H        6.5290   -10.3240     0.9880 H     1 <1>   0.0800 
 47 H        8.0010   -10.7250     0.1390 H     1 <1>   0.0800 
 48 H        6.5280   -10.4490    -0.7570 H     1 <1>   0.0800 
@<TRIPOS>BOND
  1   1   2  1   
  2   1   3  1   
  3   2   4  1   
  4   2  24  1   
  5   2  25  1   
  6   3   5  1   
  7   3  26  1   
  8   3  27  1   
  9   4   6  1   
 10   4  28  1   
 11   4  29  1   
 12   5   6  1   
 13   5  30  1   
 14   5  31  1   
 15   6   7  1   
 16   7   8  ar  
 17   7   9  ar  
 18   8  10  ar  
 19   9  11  ar  
 20  10  12  1   
 21  10  13  ar  
 22  11  13  ar  
 23  11  14  1   
 24  12  15  1   
 25  14  16  1   
 26  14  17  1   
 27  15  18  1   
 28  15  32  1   
 29  15  33  1   
 30  16  19  1   
 31  16  34  1   
 32  16  35  1   
 33  17  20  1   
 34  17  36  1   
 35  17  37  1   
 36  18  21  1   
 37  18  38  1   
 38  18  39  1   
 39  19  22  1   
 40  19  40  1   
 41  19  41  1   
 42  20  22  1   
 43  20  42  1   
 44  20  43  1   
 45  21  23  1   
 46  21  44  1   
 47  21  45  1   
 48  23  46  1   
 49  23  47  1   
 50  23  48  1   
@<TRIPOS>SUBSTRUCTURE
  1 ****  11 GROUP 4 **** **** 0

# MOE 2024.06 (io_trps.svl 2023.06)
