@<TRIPOS>MOLECULE
NONAME
42 44 1 0 0 
SMALL
USER_CHARGES


@<TRIPOS>ATOM
  1 S       -7.2680    -4.6080     0.4480 S.3   1 <1>  -0.0800 
  2 C       -6.4490    -3.2160    -0.1980 C.2   1 <1>  -0.1120 
  3 C       -5.7020    -5.1410     1.0890 C.2   1 <1>   0.1980 
  4 N       -6.7980    -2.1110    -0.9000 N.pl3 1 <1>   0.0480 
  5 C       -5.1460    -3.2630     0.1150 C.2   1 <1>   0.2270 
  6 N       -4.7220    -4.3600     0.8480 N.2   1 <1>  -0.5650 
  7 C       -5.6820    -6.4480     1.8470 C.3   1 <1>  -0.0600 
  8 C       -5.6260    -1.3810    -1.0400 C.ar  1 <1>  -0.1520 
  9 C       -8.1740    -1.6930    -1.1930 C.3   1 <1>   0.0960 
 10 C       -4.5760    -2.0830    -0.4190 C.ar  1 <1>   0.0000 
 11 C       -5.3880    -0.1500    -1.6650 C.ar  1 <1>  -0.1500 
 12 C       -8.7930    -1.1680     0.1070 C.3   1 <1>   0.3430 
 13 C       -3.2820    -1.5570    -0.4190 C.ar  1 <1>  -0.1500 
 14 C       -4.1100     0.3650    -1.6620 C.ar  1 <1>  -0.1500 
 15 N      -10.2470    -0.8110    -0.0350 N.4   1 <1>  -0.9590 
 16 C       -3.0840    -0.3490    -1.0390 C.ar  1 <1>   0.1900 
 17 C      -10.6980     0.0290     1.1120 C.3   1 <1>   0.3430 
 18 C      -11.0970    -2.0310    -0.1570 C.3   1 <1>   0.3430 
 19 F       -1.8820     0.1680    -1.0540 F     1 <1>  -0.1900 
 20 C      -10.1770     1.4510     0.9390 C.3   1 <1>  -0.2400 
 21 C      -12.4230    -1.6620    -0.8110 C.3   1 <1>  -0.2400 
 22 H       -6.0070    -7.2470     1.2070 H     1 <1>   0.0800 
 23 H       -6.3310    -6.3870     2.7010 H     1 <1>   0.0800 
 24 H       -4.6820    -6.6550     2.1840 H     1 <1>   0.0800 
 25 H       -8.7080    -2.5480    -1.5620 H     1 <1>   0.0800 
 26 H       -8.1560    -0.9270    -1.9450 H     1 <1>   0.0800 
 27 H       -6.1840     0.3880    -2.1490 H     1 <1>   0.1500 
 28 H       -8.2340    -0.2980     0.4110 H     1 <1>   0.0800 
 29 H       -8.6830    -1.9160     0.8770 H     1 <1>   0.0800 
 30 H       -2.4790    -2.0930     0.0540 H     1 <1>   0.1500 
 31 H       -3.8790     1.3050    -2.1310 H     1 <1>   0.1500 
 32 H      -10.3790    -0.2490    -0.8870 H     1 <1>   0.4500 
 33 H      -10.3490    -0.3870     2.0440 H     1 <1>   0.0800 
 34 H      -11.7760     0.0610     1.1440 H     1 <1>   0.0800 
 35 H      -11.2680    -2.4680     0.8150 H     1 <1>   0.0800 
 36 H      -10.6060    -2.7680    -0.7710 H     1 <1>   0.0800 
 37 H       -9.1050     1.4940     0.9910 H     1 <1>   0.0800 
 38 H      -10.5630     2.0630     1.7360 H     1 <1>   0.0800 
 39 H      -10.5150     1.8740     0.0100 H     1 <1>   0.0800 
 40 H      -12.9930    -0.9830    -0.2020 H     1 <1>   0.0800 
 41 H      -13.0110    -2.5540    -0.9380 H     1 <1>   0.0800 
 42 H      -12.2650    -1.2320    -1.7840 H     1 <1>   0.0800 
@<TRIPOS>BOND
  1   1   2  1   
  2   1   3  1   
  3   2   4  1   
  4   2   5  2   
  5   3   6  2   
  6   3   7  1   
  7   4   8  1   
  8   4   9  1   
  9   5   6  1   
 10   5  10  1   
 11   7  22  1   
 12   7  23  1   
 13   7  24  1   
 14   8  10  ar  
 15   8  11  ar  
 16   9  12  1   
 17   9  25  1   
 18   9  26  1   
 19  10  13  ar  
 20  11  14  ar  
 21  11  27  1   
 22  12  15  1   
 23  12  28  1   
 24  12  29  1   
 25  13  16  ar  
 26  13  30  1   
 27  14  16  ar  
 28  14  31  1   
 29  15  17  1   
 30  15  18  1   
 31  15  32  1   
 32  16  19  1   
 33  17  20  1   
 34  17  33  1   
 35  17  34  1   
 36  18  21  1   
 37  18  35  1   
 38  18  36  1   
 39  20  37  1   
 40  20  38  1   
 41  20  39  1   
 42  21  40  1   
 43  21  41  1   
 44  21  42  1   
@<TRIPOS>SUBSTRUCTURE
  1 ****   4 GROUP 4 **** **** 0

# MOE 2024.06 (io_trps.svl 2023.06)
