@<TRIPOS>MOLECULE
NONAME
37 40 1 0 0 
SMALL
USER_CHARGES


@<TRIPOS>ATOM
  1 F       -0.7020     1.1770    -0.3050 F     1 <1>  -0.3400 
  2 C        0.5480     1.0640     0.1240 C.3   1 <1>   1.1640 
  3 F        0.5860     1.6680     1.3090 F     1 <1>  -0.3400 
  4 F        0.7330    -0.2270     0.3740 F     1 <1>  -0.3400 
  5 C        1.5590     1.6430    -0.8740 C.ar  1 <1>  -0.1440 
  6 C        1.7190     3.0270    -1.0230 C.ar  1 <1>   0.1170 
  7 C        2.3210     0.7800    -1.6580 C.ar  1 <1>  -0.1500 
  8 N        0.9790     3.9430    -0.2500 N.am  1 <1>  -0.5470 
  9 C        2.6510     3.4940    -1.9480 C.ar  1 <1>  -0.1500 
 10 C        3.2370     1.2650    -2.5730 C.ar  1 <1>  -0.1500 
 11 C        0.5690     5.2220    -0.5070 C.2   1 <1>   0.6300 
 12 C        3.4020     2.6280    -2.7170 C.ar  1 <1>  -0.1500 
 13 O        0.7960     5.8130    -1.5330 O.2   1 <1>  -0.5700 
 14 C       -0.1620     5.9270     0.6250 C.3   1 <1>  -0.1000 
 15 C       -1.3630     5.3510     1.3210 C.3   1 <1>  -0.1950 
 16 C       -1.4710     6.6610     0.5660 C.3   1 <1>  -0.1950 
 17 C       -2.5950     4.5560     0.8330 C.3   1 <1>   0.0150 
 18 C       -2.7610     6.4950    -0.2640 C.3   1 <1>   0.0150 
 19 C       -3.6070     5.6830     0.7040 C.3   1 <1>  -0.1600 
 20 C       -2.4600     4.1390    -0.6420 C.3   1 <1>  -0.1600 
 21 C       -2.5600     5.4780    -1.3960 C.3   1 <1>  -0.1600 
 22 H        2.2130    -0.2890    -1.5710 H     1 <1>   0.1500 
 23 H        0.6550     3.6070     0.6580 H     1 <1>   0.3700 
 24 H        2.8000     4.5510    -2.0730 H     1 <1>   0.1500 
 25 H        3.8190     0.5860    -3.1730 H     1 <1>   0.1500 
 26 H        4.1120     3.0160    -3.4270 H     1 <1>   0.1500 
 27 H        0.5750     6.3900     1.2550 H     1 <1>   0.1000 
 28 H       -1.3510     5.4120     2.3970 H     1 <1>   0.1000 
 29 H       -1.5150     7.5630     1.1520 H     1 <1>   0.1000 
 30 H       -2.8940     3.7590     1.4920 H     1 <1>   0.0800 
 31 H       -3.2000     7.4250    -0.5790 H     1 <1>   0.0800 
 32 H       -3.7820     6.1960     1.6350 H     1 <1>   0.0800 
 33 H       -4.5420     5.3630     0.2770 H     1 <1>   0.0800 
 34 H       -3.2830     3.5030    -0.9180 H     1 <1>   0.0800 
 35 H       -1.5490     3.6160    -0.8500 H     1 <1>   0.0800 
 36 H       -1.6890     5.6980    -1.9850 H     1 <1>   0.0800 
 37 H       -3.4190     5.4730    -2.0440 H     1 <1>   0.0800 
@<TRIPOS>BOND
  1   1   2  1   
  2   2   3  1   
  3   2   4  1   
  4   2   5  1   
  5   5   6  ar  
  6   5   7  ar  
  7   6   8  1   
  8   6   9  ar  
  9   7  10  ar  
 10   7  22  1   
 11   8  11  am  
 12   8  23  1   
 13   9  12  ar  
 14   9  24  1   
 15  10  12  ar  
 16  10  25  1   
 17  11  13  2   
 18  11  14  1   
 19  12  26  1   
 20  14  15  1   
 21  14  16  1   
 22  14  27  1   
 23  15  16  1   
 24  15  17  1   
 25  15  28  1   
 26  16  18  1   
 27  16  29  1   
 28  17  19  1   
 29  17  20  1   
 30  17  30  1   
 31  18  19  1   
 32  18  21  1   
 33  18  31  1   
 34  19  32  1   
 35  19  33  1   
 36  20  21  1   
 37  20  34  1   
 38  20  35  1   
 39  21  36  1   
 40  21  37  1   
@<TRIPOS>SUBSTRUCTURE
  1 ****   8 GROUP 4 **** **** 0

# MOE 2024.06 (io_trps.svl 2023.06)
