@<TRIPOS>MOLECULE
NONAME
46 48 1 0 0 
SMALL
USER_CHARGES


@<TRIPOS>ATOM
  1 O       -1.3170    -0.1430    -1.9940 O.2   1 <1>  -0.5700 
  2 C       -2.2250    -0.4100    -1.2430 C.2   1 <1>   0.5690 
  3 N       -3.3010     0.4250    -1.2430 N.am  1 <1>  -0.7300 
  4 C       -2.1050    -1.6410    -0.3090 C.3   1 <1>   0.1990 
  5 C       -4.5810     0.3330    -0.5140 C.3   1 <1>   0.1400 
  6 C       -2.9910    -2.8580    -0.6280 C.2   1 <1>  -0.2760 
  7 C       -0.7380    -2.3190    -0.3130 C.3   1 <1>  -0.1600 
  8 C       -2.2550    -1.3250     1.1990 C.3   1 <1>  -0.1600 
  9 C       -4.6320     1.4390     0.5440 C.3   1 <1>  -0.1600 
 10 C       -4.0710    -2.9150    -1.4190 C.2   1 <1>  -0.3000 
 11 C       -2.3540    -4.0410     0.1010 C.3   1 <1>   0.1380 
 12 C       -1.0970    -3.3750     0.7290 C.3   1 <1>  -0.0800 
 13 C       -1.4740    -2.4510     1.9000 C.3   1 <1>  -0.1600 
 14 C       -5.8510     1.3060     1.4680 C.3   1 <1>   0.0960 
 15 C       -1.9460    -5.1310    -0.9040 C.3   1 <1>  -0.2400 
 16 C       -3.3340    -4.6590     1.1120 C.3   1 <1>  -0.2400 
 17 N       -7.1110     1.2880     0.6980 N.pl3 1 <1>   0.0480 
 18 C       -7.7280     2.3270     0.0920 C.2   1 <1>   0.0360 
 19 C       -7.8790     0.2220     0.4140 C.2   1 <1>  -0.3020 
 20 N       -8.8070     2.0000    -0.5430 N.2   1 <1>  -0.5650 
 21 C       -8.9050     0.6730    -0.3400 C.2   1 <1>   0.0770 
 22 H       -3.2290     1.1950    -1.9120 H     1 <1>   0.3700 
 23 H       -4.6810    -0.6320    -0.0510 H     1 <1>   0.0800 
 24 H       -5.3910     0.4480    -1.2160 H     1 <1>   0.0800 
 25 H       -0.4900    -2.7210    -1.2790 H     1 <1>   0.0800 
 26 H        0.0490    -1.6570     0.0080 H     1 <1>   0.0800 
 27 H       -3.2860    -1.3320     1.4990 H     1 <1>   0.0800 
 28 H       -1.8170    -0.3700     1.4300 H     1 <1>   0.0800 
 29 H       -4.6540     2.3990     0.0600 H     1 <1>   0.0800 
 30 H       -3.7440     1.3910     1.1490 H     1 <1>   0.0800 
 31 H       -4.6280    -3.8160    -1.6050 H     1 <1>   0.1500 
 32 H       -4.4830    -2.0800    -1.9560 H     1 <1>   0.1500 
 33 H       -0.3050    -4.0640     0.9640 H     1 <1>   0.0800 
 34 H       -2.0400    -2.9390     2.6710 H     1 <1>   0.0800 
 35 H       -0.5790    -2.0520     2.3460 H     1 <1>   0.0800 
 36 H       -5.8820     2.1310     2.1570 H     1 <1>   0.0800 
 37 H       -5.7840     0.3950     2.0360 H     1 <1>   0.0800 
 38 H       -1.3220    -4.7350    -1.6830 H     1 <1>   0.0800 
 39 H       -2.8160    -5.5580    -1.3690 H     1 <1>   0.0800 
 40 H       -1.4100    -5.9170    -0.4030 H     1 <1>   0.0800 
 41 H       -3.8060    -3.9030     1.7100 H     1 <1>   0.0800 
 42 H       -2.8190    -5.3490     1.7560 H     1 <1>   0.0800 
 43 H       -4.1140    -5.1900     0.5960 H     1 <1>   0.0800 
 44 H       -7.3410     3.3290     0.1410 H     1 <1>   0.1500 
 45 H       -7.6660    -0.7760     0.7510 H     1 <1>   0.1500 
 46 H       -9.7230     0.1060    -0.7540 H     1 <1>   0.1500 
@<TRIPOS>BOND
  1   1   2  2   
  2   2   3  am  
  3   2   4  1   
  4   3   5  1   
  5   3  22  1   
  6   4   6  1   
  7   4   7  1   
  8   4   8  1   
  9   5   9  1   
 10   5  23  1   
 11   5  24  1   
 12   6  10  2   
 13   6  11  1   
 14   7  12  1   
 15   7  25  1   
 16   7  26  1   
 17   8  13  1   
 18   8  27  1   
 19   8  28  1   
 20   9  14  1   
 21   9  29  1   
 22   9  30  1   
 23  10  31  1   
 24  10  32  1   
 25  11  12  1   
 26  11  15  1   
 27  11  16  1   
 28  12  13  1   
 29  12  33  1   
 30  13  34  1   
 31  13  35  1   
 32  14  17  1   
 33  14  36  1   
 34  14  37  1   
 35  15  38  1   
 36  15  39  1   
 37  15  40  1   
 38  16  41  1   
 39  16  42  1   
 40  16  43  1   
 41  17  18  1   
 42  17  19  1   
 43  18  20  2   
 44  18  44  1   
 45  19  21  2   
 46  19  45  1   
 47  20  21  1   
 48  21  46  1   
@<TRIPOS>SUBSTRUCTURE
  1 ****   5 GROUP 4 **** **** 0

# MOE 2024.06 (io_trps.svl 2023.06)
