@<TRIPOS>MOLECULE
NONAME
38 40 1 0 0 
SMALL
USER_CHARGES


@<TRIPOS>ATOM
  1 O        0.5900     0.8920     0.4350 O.2   1 <1>  -0.5700 
  2 C        0.0520     1.9430     0.2010 C.2   1 <1>   0.5940 
  3 C       -1.3630     2.1280     0.1880 C.2   1 <1>  -0.2370 
  4 C        0.8890     3.1740    -0.1260 C.3   1 <1>  -0.0990 
  5 N       -2.3060     1.1580     0.3990 N.pl3 1 <1>   0.0330 
  6 C       -2.0020     3.3060    -0.0440 C.2   1 <1>  -0.1810 
  7 C        0.1800     4.5010     0.2460 C.3   1 <1>  -0.1600 
  8 C       -3.5490     1.7270     0.2920 C.ar  1 <1>  -0.1520 
  9 C       -3.3880     3.0820     0.0110 C.ar  1 <1>   0.0000 
 10 C       -1.2560     4.5990    -0.3120 C.3   1 <1>   0.0210 
 11 C       -4.8240     1.1680     0.4170 C.ar  1 <1>  -0.1500 
 12 C       -4.5180     3.8920    -0.1480 C.ar  1 <1>  -0.1500 
 13 C       -5.9270     1.9750     0.2580 C.ar  1 <1>  -0.1500 
 14 C       -5.7760     3.3480    -0.0270 C.ar  1 <1>   0.0830 
 15 O       -6.8290     4.1950    -0.1950 O.3   1 <1>  -0.3630 
 16 C       -8.1600     3.7350    -0.0870 C.3   1 <1>   0.1200 
 17 C       -9.1270     4.9070    -0.3150 C.3   1 <1>  -0.0800 
 18 C       -8.9430     6.0110     0.7360 C.3   1 <1>  -0.2400 
 19 C      -10.5770     4.4080    -0.2920 C.3   1 <1>  -0.2400 
 20 H        1.0960     3.1590    -1.1800 H     1 <1>   0.0800 
 21 H        1.8250     3.1050     0.3980 H     1 <1>   0.0800 
 22 H       -2.0980     0.1740     0.6000 H     1 <1>   0.2700 
 23 H        0.7610     5.3370    -0.1020 H     1 <1>   0.0800 
 24 H        0.1260     4.5640     1.3190 H     1 <1>   0.0800 
 25 H       -1.7720     5.4220     0.1510 H     1 <1>   0.0800 
 26 H       -1.2300     4.7710    -1.3740 H     1 <1>   0.0800 
 27 H       -4.9290     0.1210     0.6350 H     1 <1>   0.1500 
 28 H       -4.3970     4.9350    -0.3660 H     1 <1>   0.1500 
 29 H       -6.9020     1.5400     0.3550 H     1 <1>   0.1500 
 30 H       -8.2960     3.3210     0.8970 H     1 <1>   0.0800 
 31 H       -8.3110     2.9740    -0.8330 H     1 <1>   0.0800 
 32 H       -8.9290     5.3170    -1.2920 H     1 <1>   0.0800 
 33 H       -9.1160     5.6270     1.7250 H     1 <1>   0.0800 
 34 H       -9.6270     6.8200     0.5540 H     1 <1>   0.0800 
 35 H       -7.9420     6.4040     0.6930 H     1 <1>   0.0800 
 36 H      -10.8190     3.9860     0.6690 H     1 <1>   0.0800 
 37 H      -10.7270     3.6560    -1.0460 H     1 <1>   0.0800 
 38 H      -11.2540     5.2210    -0.4890 H     1 <1>   0.0800 
@<TRIPOS>BOND
  1   1   2  2   
  2   2   3  1   
  3   2   4  1   
  4   3   5  1   
  5   3   6  2   
  6   4   7  1   
  7   4  20  1   
  8   4  21  1   
  9   5   8  1   
 10   5  22  1   
 11   6   9  1   
 12   6  10  1   
 13   7  10  1   
 14   7  23  1   
 15   7  24  1   
 16   8   9  ar  
 17   8  11  ar  
 18   9  12  ar  
 19  10  25  1   
 20  10  26  1   
 21  11  13  ar  
 22  11  27  1   
 23  12  14  ar  
 24  12  28  1   
 25  13  14  ar  
 26  13  29  1   
 27  14  15  1   
 28  15  16  1   
 29  16  17  1   
 30  16  30  1   
 31  16  31  1   
 32  17  18  1   
 33  17  19  1   
 34  17  32  1   
 35  18  33  1   
 36  18  34  1   
 37  18  35  1   
 38  19  36  1   
 39  19  37  1   
 40  19  38  1   
@<TRIPOS>SUBSTRUCTURE
  1 ****   9 GROUP 4 **** **** 0

# MOE 2024.06 (io_trps.svl 2023.06)
