@<TRIPOS>MOLECULE
NONAME
40 42 1 0 0 
SMALL
USER_CHARGES


@<TRIPOS>ATOM
  1 O        0.1750    -0.2760     1.3610 O.co2 1 <1>  -0.9000 
  2 C        0.5590    -1.0810     0.5060 C.2   1 <1>   0.9060 
  3 O        0.0370    -1.1460    -0.6060 O.co2 1 <1>  -0.9000 
  4 C        1.7800    -1.9110     0.8560 C.3   1 <1>  -0.1860 
  5 C        3.2750    -1.1160     0.6400 C.3   1 <1>  -0.0190 
  6 C        1.8790    -3.3610     0.0690 C.3   1 <1>   0.0580 
  7 C        3.3000     0.3550     0.1800 C.2   1 <1>   0.5690 
  8 C        4.2050    -2.1270    -0.2900 C.3   1 <1>   0.0580 
  9 C        2.9810    -4.2950    -0.6740 C.2   1 <1>  -0.2880 
 10 C        3.0220    -2.7050    -0.1060 C.3   1 <1>  -0.1600 
 11 O        4.2240     0.7240    -0.5100 O.2   1 <1>  -0.5700 
 12 N        2.3510     1.2290     0.6280 N.am  1 <1>  -0.5470 
 13 C        4.2040    -3.6470    -0.8610 C.2   1 <1>  -0.2880 
 14 C        2.1190     2.5520     0.2290 C.ar  1 <1>   0.1170 
 15 C        3.0270     3.5970     0.4280 C.ar  1 <1>  -0.1430 
 16 C        0.8990     2.8240    -0.3760 C.ar  1 <1>  -0.1500 
 17 C        2.7070     4.8760    -0.0040 C.ar  1 <1>  -0.1500 
 18 C        4.3650     3.3730     1.1190 C.3   1 <1>  -0.0970 
 19 C        0.5840     4.1010    -0.7990 C.ar  1 <1>  -0.1500 
 20 C        1.4860     5.1360    -0.6210 C.ar  1 <1>   0.0820 
 21 O        1.1070     6.3640    -1.0690 O.3   1 <1>  -0.3630 
 22 C        1.9820     7.4650    -0.9830 C.3   1 <1>   0.0400 
 23 H        1.6670    -2.1180     1.9070 H     1 <1>   0.0800 
 24 H        3.7380    -1.0720     1.6130 H     1 <1>   0.0800 
 25 H        1.0960    -3.3200    -0.6760 H     1 <1>   0.0800 
 26 H        4.3950    -1.5690    -1.1960 H     1 <1>   0.0800 
 27 H        2.6940    -5.2940    -0.9570 H     1 <1>   0.1500 
 28 H        2.6120    -2.2200    -1.0840 H     1 <1>   0.0800 
 29 H        3.4190    -3.1480     0.9580 H     1 <1>   0.0800 
 30 H        1.5110     0.7810     1.0430 H     1 <1>   0.3700 
 31 H        5.1010    -4.0200    -1.3250 H     1 <1>   0.1500 
 32 H        0.1980     2.0150    -0.5140 H     1 <1>   0.1500 
 33 H        3.4190     5.6620     0.1490 H     1 <1>   0.1500 
 34 H        4.2660     2.6400     1.8990 H     1 <1>   0.0800 
 35 H        4.7280     4.2830     1.5570 H     1 <1>   0.0800 
 36 H        5.0860     3.0200     0.4030 H     1 <1>   0.0800 
 37 H       -0.3620     4.2960    -1.2690 H     1 <1>   0.1500 
 38 H        1.4900     8.3170    -1.4160 H     1 <1>   0.0800 
 39 H        2.8790     7.2410    -1.5330 H     1 <1>   0.0800 
 40 H        2.2010     7.6560     0.0530 H     1 <1>   0.0800 
@<TRIPOS>BOND
  1   1   2  ar  
  2   2   3  ar  
  3   2   4  1   
  4   4   5  1   
  5   4   6  1   
  6   4  23  1   
  7   5   7  1   
  8   5   8  1   
  9   5  24  1   
 10   6   9  1   
 11   6  10  1   
 12   6  25  1   
 13   7  11  2   
 14   7  12  am  
 15   8  10  1   
 16   8  13  1   
 17   8  26  1   
 18   9  13  2   
 19   9  27  1   
 20  10  28  1   
 21  10  29  1   
 22  12  14  1   
 23  12  30  1   
 24  13  31  1   
 25  14  15  ar  
 26  14  16  ar  
 27  15  17  ar  
 28  15  18  1   
 29  16  19  ar  
 30  16  32  1   
 31  17  20  ar  
 32  17  33  1   
 33  18  34  1   
 34  18  35  1   
 35  18  36  1   
 36  19  20  ar  
 37  19  37  1   
 38  20  21  1   
 39  21  22  1   
 40  22  38  1   
 41  22  39  1   
 42  22  40  1   
@<TRIPOS>SUBSTRUCTURE
  1 ****  12 GROUP 4 **** **** 0

# MOE 2024.06 (io_trps.svl 2023.06)
