@<TRIPOS>MOLECULE
NONAME
31 31 1 0 0 
SMALL
USER_CHARGES


@<TRIPOS>ATOM
  1 CL       0.3370     0.0600    -0.2720 Cl    1 <1>  -0.1770 
  2 C        2.0800    -0.0270    -0.2390 C.ar  1 <1>   0.1770 
  3 C        2.6930    -1.0420     0.4690 C.ar  1 <1>  -0.1500 
  4 C        2.8200     0.9160    -0.9180 C.ar  1 <1>  -0.1500 
  5 C        4.0840    -1.1280     0.5090 C.ar  1 <1>  -0.1440 
  6 C        4.1990     0.8360    -0.8830 C.ar  1 <1>  -0.1500 
  7 C        4.8490    -0.1760    -0.1790 C.ar  1 <1>   0.1170 
  8 C        4.7660    -2.2610     1.2840 C.3   1 <1>   1.1640 
  9 N        6.2550    -0.2130    -0.1560 N.am  1 <1>  -0.5470 
 10 F        3.9270    -2.9730     2.0260 F     1 <1>  -0.3400 
 11 F        5.3770    -3.1250     0.4840 F     1 <1>  -0.3400 
 12 F        5.6980    -1.8090     2.1200 F     1 <1>  -0.3400 
 13 C        7.1520     0.0860    -1.1440 C.2   1 <1>   0.5690 
 14 O        6.8280     0.4260    -2.2540 O.2   1 <1>  -0.5700 
 15 C        8.6300    -0.0390    -0.8220 C.3   1 <1>  -0.0990 
 16 C        9.2570     1.2650    -0.2960 C.3   1 <1>  -0.1600 
 17 C        8.6900     1.7010     1.0630 C.3   1 <1>  -0.1600 
 18 C        9.4100     2.9480     1.5790 C.3   1 <1>  -0.2400 
 19 H        2.0660    -1.7540     0.9790 H     1 <1>   0.1500 
 20 H        2.3250     1.6980    -1.4660 H     1 <1>   0.1500 
 21 H        4.7780     1.5730    -1.4120 H     1 <1>   0.1500 
 22 H        6.6830    -0.5060     0.7250 H     1 <1>   0.3700 
 23 H        9.1380    -0.3220    -1.7270 H     1 <1>   0.0800 
 24 H        8.7800    -0.8310    -0.1120 H     1 <1>   0.0800 
 25 H        9.0960     2.0470    -1.0200 H     1 <1>   0.0800 
 26 H       10.3200     1.1200    -0.2040 H     1 <1>   0.0800 
 27 H        8.8060     0.9060     1.7800 H     1 <1>   0.0800 
 28 H        7.6400     1.9250     0.9710 H     1 <1>   0.0800 
 29 H       10.4600     2.7520     1.7090 H     1 <1>   0.0800 
 30 H        9.0000     3.2450     2.5280 H     1 <1>   0.0800 
 31 H        9.2930     3.7640     0.8870 H     1 <1>   0.0800 
@<TRIPOS>BOND
  1   1   2  1   
  2   2   3  ar  
  3   2   4  ar  
  4   3   5  ar  
  5   3  19  1   
  6   4   6  ar  
  7   4  20  1   
  8   5   7  ar  
  9   5   8  1   
 10   6   7  ar  
 11   6  21  1   
 12   7   9  1   
 13   8  10  1   
 14   8  11  1   
 15   8  12  1   
 16   9  13  am  
 17   9  22  1   
 18  13  14  2   
 19  13  15  1   
 20  15  16  1   
 21  15  23  1   
 22  15  24  1   
 23  16  17  1   
 24  16  25  1   
 25  16  26  1   
 26  17  18  1   
 27  17  27  1   
 28  17  28  1   
 29  18  29  1   
 30  18  30  1   
 31  18  31  1   
@<TRIPOS>SUBSTRUCTURE
  1 ****   7 GROUP 4 **** **** 0

# MOE 2024.06 (io_trps.svl 2023.06)
