@<TRIPOS>MOLECULE
NONAME
48 49 1 0 0 
SMALL
USER_CHARGES


@<TRIPOS>ATOM
  1 O        0.9430     0.5600    -1.5110 O.2   1 <1>  -0.5700 
  2 C        1.9630     1.2040    -1.6240 C.2   1 <1>   0.5440 
  3 N        2.9310     0.6500    -2.4040 N.am  1 <1>  -0.7300 
  4 C        2.1290     2.4620    -0.9210 C.ar  1 <1>   0.0860 
  5 C        4.3980     0.8790    -2.3210 C.3   1 <1>   0.1400 
  6 C        2.6660     3.5860    -1.5420 C.ar  1 <1>  -0.1500 
  7 C        1.7470     2.5800     0.4130 C.ar  1 <1>  -0.1500 
  8 C        4.9870     0.1140    -1.1380 C.3   1 <1>   0.1200 
  9 C        2.8490     4.7770    -0.8660 C.ar  1 <1>   0.0830 
 10 C        1.9020     3.7700     1.1150 C.ar  1 <1>   0.0830 
 11 O        6.3790     0.3360    -1.1170 O.3   1 <1>  -0.3630 
 12 O        3.4140     5.7840    -1.5870 O.3   1 <1>  -0.3630 
 13 C        2.4500     4.8830     0.4720 C.ar  1 <1>   0.0830 
 14 O        1.5340     3.8980     2.4240 O.3   1 <1>  -0.3630 
 15 C        7.1620    -0.2090    -0.1530 C.ar  1 <1>   0.0830 
 16 C        4.4060     6.5930    -0.9930 C.3   1 <1>   0.0400 
 17 O        2.5810     6.0540     1.1460 O.3   1 <1>  -0.3630 
 18 C        0.9750     2.8230     3.1480 C.3   1 <1>   0.0400 
 19 C        8.5140     0.0890    -0.2030 C.ar  1 <1>  -0.1500 
 20 C        6.6830    -1.0350     0.8610 C.ar  1 <1>  -0.1500 
 21 C        1.4080     6.8230     1.2710 C.3   1 <1>   0.0400 
 22 C        9.3830    -0.4260     0.7430 C.ar  1 <1>  -0.1500 
 23 C        7.5560    -1.5490     1.8050 C.ar  1 <1>  -0.1500 
 24 C        8.9080    -1.2470     1.7530 C.ar  1 <1>  -0.1430 
 25 C        9.8610    -1.8140     2.7890 C.3   1 <1>  -0.0970 
 26 H        2.6460    -0.2220    -2.8560 H     1 <1>   0.3700 
 27 H        4.6050     1.9280    -2.2030 H     1 <1>   0.0800 
 28 H        4.8560     0.5400    -3.2340 H     1 <1>   0.0800 
 29 H        2.9480     3.5330    -2.5780 H     1 <1>   0.1500 
 30 H        1.3210     1.7110     0.8780 H     1 <1>   0.1500 
 31 H        4.8160    -0.9420    -1.2470 H     1 <1>   0.0800 
 32 H        4.5740     0.4760    -0.2130 H     1 <1>   0.0800 
 33 H        5.0100     7.0130    -1.7760 H     1 <1>   0.0800 
 34 H        5.0130     5.9890    -0.3410 H     1 <1>   0.0800 
 35 H        3.9280     7.3820    -0.4410 H     1 <1>   0.0800 
 36 H        0.7700     3.1660     4.1460 H     1 <1>   0.0800 
 37 H        0.0600     2.5180     2.6720 H     1 <1>   0.0800 
 38 H        1.6840     2.0160     3.1790 H     1 <1>   0.0800 
 39 H        8.8810     0.7260    -0.9860 H     1 <1>   0.1500 
 40 H        5.6440    -1.2900     0.9330 H     1 <1>   0.1500 
 41 H        1.0340     7.0460     0.2870 H     1 <1>   0.0800 
 42 H        0.6800     6.2660     1.8330 H     1 <1>   0.0800 
 43 H        1.6550     7.7320     1.7890 H     1 <1>   0.0800 
 44 H       10.4300    -0.1860     0.6880 H     1 <1>   0.1500 
 45 H        7.1780    -2.1880     2.5840 H     1 <1>   0.1500 
 46 H       10.6780    -1.1350     2.9590 H     1 <1>   0.0800 
 47 H       10.2550    -2.7530     2.4450 H     1 <1>   0.0800 
 48 H        9.3520    -1.9710     3.7230 H     1 <1>   0.0800 
@<TRIPOS>BOND
  1   1   2  2   
  2   2   3  am  
  3   2   4  1   
  4   3   5  1   
  5   3  26  1   
  6   4   6  ar  
  7   4   7  ar  
  8   5   8  1   
  9   5  27  1   
 10   5  28  1   
 11   6   9  ar  
 12   6  29  1   
 13   7  10  ar  
 14   7  30  1   
 15   8  11  1   
 16   8  31  1   
 17   8  32  1   
 18   9  12  1   
 19   9  13  ar  
 20  10  13  ar  
 21  10  14  1   
 22  11  15  1   
 23  12  16  1   
 24  13  17  1   
 25  14  18  1   
 26  15  19  ar  
 27  15  20  ar  
 28  16  33  1   
 29  16  34  1   
 30  16  35  1   
 31  17  21  1   
 32  18  36  1   
 33  18  37  1   
 34  18  38  1   
 35  19  22  ar  
 36  19  39  1   
 37  20  23  ar  
 38  20  40  1   
 39  21  41  1   
 40  21  42  1   
 41  21  43  1   
 42  22  24  ar  
 43  22  44  1   
 44  23  24  ar  
 45  23  45  1   
 46  24  25  1   
 47  25  46  1   
 48  25  47  1   
 49  25  48  1   
@<TRIPOS>SUBSTRUCTURE
  1 ****   8 GROUP 4 **** **** 0

# MOE 2024.06 (io_trps.svl 2023.06)
