@<TRIPOS>MOLECULE
NONAME
35 36 1 0 0 
SMALL
USER_CHARGES


@<TRIPOS>ATOM
  1 O       -1.3340    -3.5250    -1.7810 O.2   1 <1>  -0.5700 
  2 C       -1.9650    -2.7470    -1.1220 C.2   1 <1>   0.6590 
  3 O       -3.0580    -3.0640    -0.4580 O.3   1 <1>  -0.4300 
  4 C       -1.5860    -1.3110    -0.9000 C.3   1 <1>  -0.0990 
  5 C       -3.5650    -2.0060     0.3070 C.3   1 <1>   0.2800 
  6 C       -2.8480    -0.7450    -0.2340 C.3   1 <1>  -0.0190 
  7 C       -3.1640    -2.2930     1.7590 C.3   1 <1>  -0.2400 
  8 C       -5.0930    -2.0400     0.1750 C.3   1 <1>  -0.2400 
  9 C       -3.6980     0.0520    -1.2230 C.2   1 <1>   0.5690 
 10 O       -3.7880    -0.3160    -2.3650 O.2   1 <1>  -0.5700 
 11 N       -4.3510     1.1740    -0.8450 N.am  1 <1>  -0.7300 
 12 C       -4.5290     1.7660     0.4930 C.3   1 <1>   0.2840 
 13 C       -5.8340     2.5380     0.5050 C.ar  1 <1>  -0.1440 
 14 C       -5.8320     3.9220     0.6070 C.ar  1 <1>  -0.1500 
 15 C       -7.0440     1.8660     0.4120 C.ar  1 <1>  -0.1500 
 16 C       -7.0250     4.6240     0.6200 C.ar  1 <1>  -0.1500 
 17 C       -8.2370     2.5680     0.4250 C.ar  1 <1>  -0.1500 
 18 C       -8.2280     3.9470     0.5300 C.ar  1 <1>  -0.1500 
 19 H       -1.3380    -0.8320    -1.8300 H     1 <1>   0.0800 
 20 H       -0.7440    -1.2770    -0.2350 H     1 <1>   0.0800 
 21 H       -2.5620    -0.0940     0.5690 H     1 <1>   0.0800 
 22 H       -2.0940    -2.3310     1.8630 H     1 <1>   0.0800 
 23 H       -3.5750    -3.2350     2.0780 H     1 <1>   0.0800 
 24 H       -3.5420    -1.5250     2.4090 H     1 <1>   0.0800 
 25 H       -5.5370    -1.2270     0.7180 H     1 <1>   0.0800 
 26 H       -5.4780    -2.9610     0.5760 H     1 <1>   0.0800 
 27 H       -5.3910    -1.9740    -0.8570 H     1 <1>   0.0800 
 28 H       -4.9000     1.6360    -1.5750 H     1 <1>   0.3700 
 29 H       -3.7030     2.4240     0.7040 H     1 <1>   0.0800 
 30 H       -4.5590     0.9950     1.2430 H     1 <1>   0.0800 
 31 H       -4.9050     4.4640     0.6750 H     1 <1>   0.1500 
 32 H       -7.0640     0.7940     0.3240 H     1 <1>   0.1500 
 33 H       -7.0180     5.6970     0.7000 H     1 <1>   0.1500 
 34 H       -9.1730     2.0410     0.3530 H     1 <1>   0.1500 
 35 H       -9.1560     4.4930     0.5410 H     1 <1>   0.1500 
@<TRIPOS>BOND
  1   1   2  2   
  2   2   3  1   
  3   2   4  1   
  4   3   5  1   
  5   4   6  1   
  6   4  19  1   
  7   4  20  1   
  8   5   6  1   
  9   5   7  1   
 10   5   8  1   
 11   6   9  1   
 12   6  21  1   
 13   7  22  1   
 14   7  23  1   
 15   7  24  1   
 16   8  25  1   
 17   8  26  1   
 18   8  27  1   
 19   9  10  2   
 20   9  11  am  
 21  11  12  1   
 22  11  28  1   
 23  12  13  1   
 24  12  29  1   
 25  12  30  1   
 26  13  14  ar  
 27  13  15  ar  
 28  14  16  ar  
 29  14  31  1   
 30  15  17  ar  
 31  15  32  1   
 32  16  18  ar  
 33  16  33  1   
 34  17  18  ar  
 35  17  34  1   
 36  18  35  1   
@<TRIPOS>SUBSTRUCTURE
  1 ****  11 GROUP 4 **** **** 0

# MOE 2024.06 (io_trps.svl 2023.06)
