@<TRIPOS>MOLECULE
NONAME
38 40 1 0 0 
SMALL
USER_CHARGES


@<TRIPOS>ATOM
  1 O        0.2500     0.4720    -0.4930 O.2   1 <1>  -0.5700 
  2 C        0.1340     1.6230    -0.1120 C.2   1 <1>   0.5440 
  3 N        1.2080     2.2450     0.4970 N.am  1 <1>  -0.6600 
  4 C       -1.1360     2.2930    -0.3080 C.ar  1 <1>   0.0860 
  5 C        1.0770     3.5070     1.2830 C.3   1 <1>   0.1400 
  6 C        2.5520     1.6060     0.4960 C.3   1 <1>   0.1400 
  7 C       -2.2920     1.8390     0.2850 C.ar  1 <1>  -0.1500 
  8 C       -1.2250     3.4380    -1.1260 C.ar  1 <1>  -0.1500 
  9 C        2.2460     4.4850     1.0830 C.3   1 <1>  -0.1600 
 10 C        3.3370     2.0710    -0.7350 C.3   1 <1>  -0.1600 
 11 C       -3.5310     2.4850     0.1210 C.ar  1 <1>   0.0000 
 12 C       -2.4120     4.0890    -1.3080 C.ar  1 <1>  -0.1500 
 13 C        2.7870     4.5750    -0.3550 C.3   1 <1>  -0.1600 
 14 C        3.8600     3.5150    -0.6530 C.3   1 <1>  -0.1600 
 15 C       -3.5950     3.6380    -0.6900 C.ar  1 <1>   0.0000 
 16 C       -4.7140     2.0250     0.7360 C.ar  1 <1>  -0.1500 
 17 C       -4.8340     4.2890    -0.8500 C.ar  1 <1>  -0.1500 
 18 C       -5.9040     2.6760     0.5630 C.ar  1 <1>  -0.1500 
 19 C       -5.9650     3.8210    -0.2390 C.ar  1 <1>  -0.1500 
 20 H        1.0020     3.2560     2.3270 H     1 <1>   0.0800 
 21 H        0.1690     4.0140     1.0140 H     1 <1>   0.0800 
 22 H        2.4430     0.5350     0.4600 H     1 <1>   0.0800 
 23 H        3.0840     1.8440     1.4000 H     1 <1>   0.0800 
 24 H       -2.2520     0.9550     0.8960 H     1 <1>   0.1500 
 25 H       -0.3270     3.7830    -1.6070 H     1 <1>   0.1500 
 26 H        3.0430     4.2300     1.7580 H     1 <1>   0.0800 
 27 H        1.8990     5.4580     1.3800 H     1 <1>   0.0800 
 28 H        2.7160     1.9540    -1.6060 H     1 <1>   0.0800 
 29 H        4.1810     1.4170    -0.8590 H     1 <1>   0.0800 
 30 H       -2.4640     4.9620    -1.9350 H     1 <1>   0.1500 
 31 H        3.2420     5.5430    -0.4800 H     1 <1>   0.0800 
 32 H        1.9830     4.5050    -1.0670 H     1 <1>   0.0800 
 33 H        4.3220     3.7550    -1.5940 H     1 <1>   0.0800 
 34 H        4.6290     3.5690     0.0980 H     1 <1>   0.0800 
 35 H       -4.6620     1.1440     1.3490 H     1 <1>   0.1500 
 36 H       -4.8760     5.1670    -1.4680 H     1 <1>   0.1500 
 37 H       -6.8030     2.3200     1.0350 H     1 <1>   0.1500 
 38 H       -6.9100     4.3220    -0.3650 H     1 <1>   0.1500 
@<TRIPOS>BOND
  1   1   2  2   
  2   2   3  am  
  3   2   4  1   
  4   3   5  1   
  5   3   6  1   
  6   4   7  ar  
  7   4   8  ar  
  8   5   9  1   
  9   5  20  1   
 10   5  21  1   
 11   6  10  1   
 12   6  22  1   
 13   6  23  1   
 14   7  11  ar  
 15   7  24  1   
 16   8  12  ar  
 17   8  25  1   
 18   9  13  1   
 19   9  26  1   
 20   9  27  1   
 21  10  14  1   
 22  10  28  1   
 23  10  29  1   
 24  11  15  ar  
 25  11  16  ar  
 26  12  15  ar  
 27  12  30  1   
 28  13  14  1   
 29  13  31  1   
 30  13  32  1   
 31  14  33  1   
 32  14  34  1   
 33  15  17  ar  
 34  16  18  ar  
 35  16  35  1   
 36  17  19  ar  
 37  17  36  1   
 38  18  19  ar  
 39  18  37  1   
 40  19  38  1   
@<TRIPOS>SUBSTRUCTURE
  1 ****   4 GROUP 4 **** **** 0

# MOE 2024.06 (io_trps.svl 2023.06)
