@<TRIPOS>MOLECULE
NONAME
31 31 1 0 0 
SMALL
USER_CHARGES


@<TRIPOS>ATOM
  1 F       -5.2120    -2.4740    -1.9240 F     1 <1>  -0.1900 
  2 C       -4.6050    -2.2170    -0.7980 C.ar  1 <1>   0.1900 
  3 C       -3.3550    -2.7580    -0.5830 C.ar  1 <1>  -0.1500 
  4 C       -5.2380    -1.4150     0.1310 C.ar  1 <1>  -0.1500 
  5 C       -2.6760    -2.4870     0.6060 C.ar  1 <1>   0.0860 
  6 C       -4.5850    -1.1530     1.3220 C.ar  1 <1>  -0.1500 
  7 C       -1.3450    -3.0140     0.8600 C.2   1 <1>   0.5440 
  8 C       -3.3250    -1.6860     1.5500 C.ar  1 <1>  -0.1500 
  9 O       -0.9440    -3.2160     1.9840 O.2   1 <1>  -0.5700 
 10 N       -0.4360    -3.2370    -0.1290 N.am  1 <1>  -0.7300 
 11 C       -0.0750    -2.2530    -1.1860 C.3   1 <1>   0.1400 
 12 C        0.5100    -0.9350    -0.6220 C.3   1 <1>   0.3430 
 13 N        1.7920    -1.0930     0.1560 N.4   1 <1>  -0.9590 
 14 C        1.5610    -1.5740     1.5600 C.3   1 <1>   0.2630 
 15 C        2.5350     0.2050     0.1970 C.3   1 <1>   0.2630 
 16 H       -2.9200    -3.3920    -1.3340 H     1 <1>   0.1500 
 17 H       -6.2150    -1.0140    -0.0740 H     1 <1>   0.1500 
 18 H       -5.0580    -0.5390     2.0700 H     1 <1>   0.1500 
 19 H       -2.8340    -1.4830     2.4870 H     1 <1>   0.1500 
 20 H        0.2990    -3.9020     0.1280 H     1 <1>   0.3700 
 21 H       -0.9560    -2.0170    -1.7570 H     1 <1>   0.0800 
 22 H        0.6300    -2.7020    -1.8630 H     1 <1>   0.0800 
 23 H       -0.2340    -0.4580    -0.0050 H     1 <1>   0.0800 
 24 H        0.6920    -0.2830    -1.4610 H     1 <1>   0.0800 
 25 H        2.3850    -1.7870    -0.3230 H     1 <1>   0.4500 
 26 H        0.8200    -0.9670     2.0530 H     1 <1>   0.0800 
 27 H        2.4760    -1.5320     2.1280 H     1 <1>   0.0800 
 28 H        1.2180    -2.5950     1.5600 H     1 <1>   0.0800 
 29 H        1.9500     0.9560     0.7010 H     1 <1>   0.0800 
 30 H        2.7500     0.5470    -0.8030 H     1 <1>   0.0800 
 31 H        3.4680     0.0850     0.7250 H     1 <1>   0.0800 
@<TRIPOS>BOND
  1   1   2  1   
  2   2   3  ar  
  3   2   4  ar  
  4   3   5  ar  
  5   3  16  1   
  6   4   6  ar  
  7   4  17  1   
  8   5   7  1   
  9   5   8  ar  
 10   6   8  ar  
 11   6  18  1   
 12   7   9  2   
 13   7  10  am  
 14   8  19  1   
 15  10  11  1   
 16  10  20  1   
 17  11  12  1   
 18  11  21  1   
 19  11  22  1   
 20  12  13  1   
 21  12  23  1   
 22  12  24  1   
 23  13  14  1   
 24  13  15  1   
 25  13  25  1   
 26  14  26  1   
 27  14  27  1   
 28  14  28  1   
 29  15  29  1   
 30  15  30  1   
 31  15  31  1   
@<TRIPOS>SUBSTRUCTURE
  1 ****   5 GROUP 4 **** **** 0

# MOE 2024.06 (io_trps.svl 2023.06)
