@<TRIPOS>MOLECULE
NONAME
42 44 1 0 0 
SMALL
USER_CHARGES


@<TRIPOS>ATOM
  1 O       -0.9040    -0.1050     1.6190 O.2   1 <1>  -0.5700 
  2 C       -1.5760     0.6710     0.9550 C.2   1 <1>   0.7060 
  3 O       -2.6920     0.1720     0.4160 O.3   1 <1>  -0.2320 
  4 C       -1.2850     2.0670     0.7910 C.2   1 <1>   0.1230 
  5 C       -3.5840     0.9320    -0.2510 C.ar  1 <1>   0.0830 
  6 N       -0.0850     2.6120     1.3310 N.am  1 <1>  -0.5390 
  7 C       -2.1760     2.8890     0.1480 C.2   1 <1>   0.0720 
  8 C       -3.3630     2.3050    -0.4220 C.ar  1 <1>   0.0280 
  9 C       -4.7130     0.3120    -0.7660 C.ar  1 <1>  -0.1500 
 10 C        1.1700     2.2850     0.9440 C.2   1 <1>   0.6900 
 11 N       -1.9420     4.2610     0.0230 N.pl3 1 <1>  -0.8690 
 12 C       -4.3120     3.0150    -1.1660 C.ar  1 <1>  -0.1500 
 13 C       -5.6430     1.0430    -1.4770 C.ar  1 <1>  -0.1500 
 14 O        1.3620     1.6120    -0.0480 O.2   1 <1>  -0.5700 
 15 N        2.2030     2.7700     1.6740 N.am  1 <1>  -0.7300 
 16 C       -2.8010     5.2560     0.7160 C.3   1 <1>   0.1290 
 17 C       -5.4360     2.3990    -1.6800 C.ar  1 <1>  -0.1500 
 18 C        3.6340     2.4540     1.3960 C.3   1 <1>   0.1400 
 19 C        4.1140     3.0140     0.0470 C.3   1 <1>   0.2000 
 20 O        5.5010     2.9350    -0.0140 O.3   1 <1>  -0.5600 
 21 C        3.8250     4.4930    -0.1840 C.3   1 <1>  -0.1600 
 22 C        5.9760     3.7930    -0.9990 C.3   1 <1>   0.1200 
 23 C        4.9670     4.9360    -1.0860 C.3   1 <1>  -0.1600 
 24 H       -0.1810     3.4770     1.8520 H     1 <1>   0.3700 
 25 H       -4.8540    -0.7430    -0.6090 H     1 <1>   0.1500 
 26 H       -0.9580     4.5450    -0.0740 H     1 <1>   0.4000 
 27 H       -4.1600     4.0620    -1.3490 H     1 <1>   0.1500 
 28 H       -6.5200     0.5650    -1.8770 H     1 <1>   0.1500 
 29 H        2.0070     3.0140     2.6430 H     1 <1>   0.3700 
 30 H       -3.6910     4.7820     1.0950 H     1 <1>   0.0800 
 31 H       -3.0870     6.0310     0.0260 H     1 <1>   0.0800 
 32 H       -2.2640     5.6970     1.5380 H     1 <1>   0.0800 
 33 H       -6.1540     2.9690    -2.2440 H     1 <1>   0.1500 
 34 H        3.7650     1.3860     1.3940 H     1 <1>   0.0800 
 35 H        4.2400     2.8750     2.1790 H     1 <1>   0.0800 
 36 H        3.7220     2.4220    -0.7630 H     1 <1>   0.0800 
 37 H        3.8630     5.0220     0.7520 H     1 <1>   0.0800 
 38 H        2.8590     4.6350    -0.6350 H     1 <1>   0.0800 
 39 H        6.0250     3.2450    -1.9240 H     1 <1>   0.0800 
 40 H        6.9580     4.1330    -0.7160 H     1 <1>   0.0800 
 41 H        5.4010     5.8590    -0.7460 H     1 <1>   0.0800 
 42 H        4.6390     5.0550    -2.1040 H     1 <1>   0.0800 
@<TRIPOS>BOND
  1   1   2  2   
  2   2   3  1   
  3   2   4  1   
  4   3   5  1   
  5   4   6  1   
  6   4   7  2   
  7   5   8  ar  
  8   5   9  ar  
  9   6  10  am  
 10   6  24  1   
 11   7   8  1   
 12   7  11  1   
 13   8  12  ar  
 14   9  13  ar  
 15   9  25  1   
 16  10  14  2   
 17  10  15  am  
 18  11  16  1   
 19  11  26  1   
 20  12  17  ar  
 21  12  27  1   
 22  13  17  ar  
 23  13  28  1   
 24  15  18  1   
 25  15  29  1   
 26  16  30  1   
 27  16  31  1   
 28  16  32  1   
 29  17  33  1   
 30  18  19  1   
 31  18  34  1   
 32  18  35  1   
 33  19  20  1   
 34  19  21  1   
 35  19  36  1   
 36  20  22  1   
 37  21  23  1   
 38  21  37  1   
 39  21  38  1   
 40  22  23  1   
 41  22  39  1   
 42  22  40  1   
 43  23  41  1   
 44  23  42  1   
@<TRIPOS>SUBSTRUCTURE
  1 ****   4 GROUP 4 **** **** 0

# MOE 2024.06 (io_trps.svl 2023.06)
