@<TRIPOS>MOLECULE
NONAME
41 42 1 0 0 
SMALL
USER_CHARGES


@<TRIPOS>ATOM
  1 S       -0.1760     0.9370    -0.8750 S.o2  1 <1>   1.4470 
  2 O        0.4300     0.0870    -1.8750 O.2   1 <1>  -0.6500 
  3 O       -0.6440     2.2500    -1.2560 O.2   1 <1>  -0.6500 
  4 N        1.0190     1.1730     0.2680 N.am  1 <1>  -0.9140 
  5 C       -1.4600     0.0400     0.0220 C.ar  1 <1>  -0.0090 
  6 C        2.1340     1.9110    -0.2920 C.3   1 <1>   0.3760 
  7 C       -1.1510    -1.1410     0.6880 C.ar  1 <1>   0.0830 
  8 C       -2.7740     0.4900     0.0530 C.ar  1 <1>  -0.1500 
  9 C        3.2960     1.9180     0.6870 C.2   1 <1>  -0.0400 
 10 O        0.1250    -1.5890     0.6830 O.3   1 <1>  -0.3630 
 11 C       -2.1250    -1.8540     1.3720 C.ar  1 <1>  -0.1500 
 12 C       -3.7600    -0.2200     0.7320 C.ar  1 <1>   0.0830 
 13 O        4.4570     2.3920     0.2760 O.3   1 <1>  -0.2800 
 14 C        3.3860     1.5110     1.9740 C.2   1 <1>  -0.1500 
 15 C        0.3750    -2.7860    -0.0160 C.3   1 <1>   0.1200 
 16 C       -3.4270    -1.3920     1.3890 C.ar  1 <1>  -0.1500 
 17 O       -5.0580     0.1680     0.7980 O.3   1 <1>  -0.3630 
 18 C        5.3070     2.2980     1.2790 C.2   1 <1>  -0.0100 
 19 C        4.7080     1.7600     2.3620 C.2   1 <1>  -0.1500 
 20 C        1.8860    -2.9360    -0.1570 C.3   1 <1>  -0.2400 
 21 C       -5.4960     1.3660     0.2000 C.3   1 <1>   0.1200 
 22 C       -6.9870     1.5160     0.4820 C.3   1 <1>  -0.2400 
 23 H        1.3630     0.2300     0.4510 H     1 <1>   0.4200 
 24 H        1.8350     2.9240    -0.5010 H     1 <1>   0.0800 
 25 H        2.4640     1.4530    -1.2100 H     1 <1>   0.0800 
 26 H       -3.0080     1.4030    -0.4640 H     1 <1>   0.1500 
 27 H       -1.8650    -2.7580     1.8930 H     1 <1>   0.1500 
 28 H        2.6200     1.0840     2.5980 H     1 <1>   0.1500 
 29 H       -0.0910    -2.7230    -0.9850 H     1 <1>   0.0800 
 30 H       -0.0450    -3.6060     0.5410 H     1 <1>   0.0800 
 31 H       -4.1940    -1.9340     1.9140 H     1 <1>   0.1500 
 32 H        6.3180     2.6380     1.1370 H     1 <1>   0.1500 
 33 H        5.1250     1.5530     3.3320 H     1 <1>   0.1500 
 34 H        2.2870    -2.1150    -0.7250 H     1 <1>   0.0800 
 35 H        2.1120    -3.8490    -0.6770 H     1 <1>   0.0800 
 36 H        2.3510    -2.9690     0.8120 H     1 <1>   0.0800 
 37 H       -5.3140     1.3070    -0.8590 H     1 <1>   0.0800 
 38 H       -4.9440     2.1850     0.6310 H     1 <1>   0.0800 
 39 H       -7.5270     0.6860     0.0620 H     1 <1>   0.0800 
 40 H       -7.3520     2.4240     0.0370 H     1 <1>   0.0800 
 41 H       -7.1600     1.5590     1.5420 H     1 <1>   0.0800 
@<TRIPOS>BOND
  1   1   2  2   
  2   1   3  2   
  3   1   4  am  
  4   1   5  1   
  5   4   6  1   
  6   4  23  1   
  7   5   7  ar  
  8   5   8  ar  
  9   6   9  1   
 10   6  24  1   
 11   6  25  1   
 12   7  10  1   
 13   7  11  ar  
 14   8  12  ar  
 15   8  26  1   
 16   9  13  1   
 17   9  14  2   
 18  10  15  1   
 19  11  16  ar  
 20  11  27  1   
 21  12  16  ar  
 22  12  17  1   
 23  13  18  1   
 24  14  19  1   
 25  14  28  1   
 26  15  20  1   
 27  15  29  1   
 28  15  30  1   
 29  16  31  1   
 30  17  21  1   
 31  18  19  2   
 32  18  32  1   
 33  19  33  1   
 34  20  34  1   
 35  20  35  1   
 36  20  36  1   
 37  21  22  1   
 38  21  37  1   
 39  21  38  1   
 40  22  39  1   
 41  22  40  1   
 42  22  41  1   
@<TRIPOS>SUBSTRUCTURE
  1 ****   5 GROUP 4 **** **** 0

# MOE 2024.06 (io_trps.svl 2023.06)
