@<TRIPOS>MOLECULE
NONAME
45 47 1 0 0 
SMALL
USER_CHARGES


@<TRIPOS>ATOM
  1 S       -0.2320     0.4350     0.0340 S.o2  1 <1>   1.3330 
  2 O       -0.4250    -0.7040     0.9050 O.2   1 <1>  -0.6500 
  3 O       -0.2200     0.2490    -1.4010 O.2   1 <1>  -0.6500 
  4 N       -1.4850     1.5310     0.3690 N.am  1 <1>  -0.8490 
  5 C        1.2320     1.3330     0.5690 C.3   1 <1>   0.0890 
  6 C       -1.6840     2.5170    -0.7120 C.3   1 <1>   0.1960 
  7 C       -2.7580     0.8350     0.6370 C.3   1 <1>   0.1960 
  8 C        2.5390     0.5780     0.3630 C.ar  1 <1>  -0.1440 
  9 C       -2.7550     3.5570    -0.3470 C.3   1 <1>   0.1400 
 10 C       -3.8940     1.8040     1.0110 C.3   1 <1>   0.1400 
 11 C        3.3910     0.9150    -0.6790 C.ar  1 <1>  -0.1500 
 12 C        2.8840    -0.4590     1.2160 C.ar  1 <1>  -0.1500 
 13 N       -4.0480     2.8940    -0.0020 N.am  1 <1>  -0.6600 
 14 C        4.5790     0.2280    -0.8590 C.ar  1 <1>  -0.1500 
 15 C        4.0720    -1.1460     1.0360 C.ar  1 <1>  -0.1500 
 16 C       -5.2430     3.3280    -0.5390 C.2   1 <1>   0.5690 
 17 C        4.9210    -0.8020    -0.0010 C.ar  1 <1>  -0.1500 
 18 O       -5.2540     4.2030    -1.3770 O.2   1 <1>  -0.5700 
 19 C       -6.6160     2.7330    -0.1550 C.3   1 <1>   0.2610 
 20 O       -6.8000     2.5250     1.2210 O.3   1 <1>  -0.5600 
 21 C       -6.9170     1.3770    -0.7940 C.3   1 <1>  -0.1600 
 22 C       -7.8490     1.6370     1.4120 C.3   1 <1>   0.1200 
 23 C       -7.7690     0.6570     0.2450 C.3   1 <1>  -0.1600 
 24 H        1.1350     1.5620     1.6110 H     1 <1>   0.0800 
 25 H        1.2860     2.2640     0.0420 H     1 <1>   0.0800 
 26 H       -1.9850     2.0180    -1.6190 H     1 <1>   0.0800 
 27 H       -0.7600     3.0310    -0.9110 H     1 <1>   0.0800 
 28 H       -2.6310     0.1460     1.4550 H     1 <1>   0.0800 
 29 H       -3.0490     0.2640    -0.2300 H     1 <1>   0.0800 
 30 H       -2.8830     4.2310    -1.1750 H     1 <1>   0.0800 
 31 H       -2.4200     4.1320     0.4980 H     1 <1>   0.0800 
 32 H       -3.6820     2.2450     1.9690 H     1 <1>   0.0800 
 33 H       -4.7980     1.2340     1.1070 H     1 <1>   0.0800 
 34 H        3.1370     1.7090    -1.3590 H     1 <1>   0.1500 
 35 H        2.2290    -0.7430     2.0230 H     1 <1>   0.1500 
 36 H        5.2370     0.4920    -1.6690 H     1 <1>   0.1500 
 37 H        4.3330    -1.9500     1.7020 H     1 <1>   0.1500 
 38 H        5.8440    -1.3370    -0.1410 H     1 <1>   0.1500 
 39 H       -7.3740     3.4360    -0.4570 H     1 <1>   0.0800 
 40 H       -6.0050     0.8370    -0.9780 H     1 <1>   0.0800 
 41 H       -7.4350     1.5090    -1.7270 H     1 <1>   0.0800 
 42 H       -8.7680     2.1980     1.3890 H     1 <1>   0.0800 
 43 H       -7.7330     1.1550     2.3680 H     1 <1>   0.0800 
 44 H       -7.2930    -0.2540     0.5620 H     1 <1>   0.0800 
 45 H       -8.7530     0.4290    -0.1250 H     1 <1>   0.0800 
@<TRIPOS>BOND
  1   1   2  2   
  2   1   3  2   
  3   1   4  am  
  4   1   5  1   
  5   4   6  1   
  6   4   7  1   
  7   5   8  1   
  8   5  24  1   
  9   5  25  1   
 10   6   9  1   
 11   6  26  1   
 12   6  27  1   
 13   7  10  1   
 14   7  28  1   
 15   7  29  1   
 16   8  11  ar  
 17   8  12  ar  
 18   9  13  1   
 19   9  30  1   
 20   9  31  1   
 21  10  13  1   
 22  10  32  1   
 23  10  33  1   
 24  11  14  ar  
 25  11  34  1   
 26  12  15  ar  
 27  12  35  1   
 28  13  16  am  
 29  14  17  ar  
 30  14  36  1   
 31  15  17  ar  
 32  15  37  1   
 33  16  18  2   
 34  16  19  1   
 35  17  38  1   
 36  19  20  1   
 37  19  21  1   
 38  19  39  1   
 39  20  22  1   
 40  21  23  1   
 41  21  40  1   
 42  21  41  1   
 43  22  23  1   
 44  22  42  1   
 45  22  43  1   
 46  23  44  1   
 47  23  45  1   
@<TRIPOS>SUBSTRUCTURE
  1 ****   4 GROUP 4 **** **** 0

# MOE 2024.06 (io_trps.svl 2023.06)
