@<TRIPOS>MOLECULE
NONAME
48 49 1 0 0 
SMALL
USER_CHARGES


@<TRIPOS>ATOM
  1 O       -1.3280     2.5250     3.4360 O.2   1 <1>  -0.5700 
  2 C       -1.8830     3.1410     2.5560 C.2   1 <1>   0.6590 
  3 O       -1.4710     3.1430     1.2810 O.3   1 <1>  -0.0870 
  4 C       -3.1750     3.9150     2.8560 C.3   1 <1>   0.2610 
  5 N       -0.4660     2.3860     0.8190 N.2   1 <1>  -0.5130 
  6 O       -4.0980     3.9060     1.7720 O.3   1 <1>  -0.3630 
  7 C       -2.9060     5.3850     3.1970 C.3   1 <1>  -0.2400 
  8 C       -0.6470     1.7960    -0.3070 C.2   1 <1>   0.4140 
  9 C       -4.4210     2.7660     1.1130 C.ar  1 <1>   0.0830 
 10 N       -1.8440     1.9580    -0.9910 N.pl3 1 <1>  -0.8500 
 11 C        0.3570     0.9140    -0.9090 C.ar  1 <1>   0.3960 
 12 C       -4.2870     1.4950     1.6550 C.ar  1 <1>  -0.1500 
 13 C       -4.8640     2.9000    -0.1900 C.ar  1 <1>  -0.1500 
 14 N       -0.0180     0.1130    -1.9260 N.ar  1 <1>  -0.6200 
 15 C        1.6690     0.9020    -0.4260 C.ar  1 <1>  -0.1500 
 16 C       -4.5450     0.3820     0.8750 C.ar  1 <1>  -0.1500 
 17 C       -5.1280     1.7830    -0.9620 C.ar  1 <1>  -0.1500 
 18 C        0.9080    -0.6730    -2.4440 C.ar  1 <1>   0.1600 
 19 C        2.6240     0.0770    -0.9760 C.ar  1 <1>  -0.1500 
 20 C       -4.9580     0.4990    -0.4490 C.ar  1 <1>  -0.1430 
 21 C        2.2220    -0.7310    -2.0160 C.ar  1 <1>  -0.1500 
 22 C       -5.2030    -0.7780    -1.2820 C.3   1 <1>   0.1440 
 23 C       -6.3000    -1.6250    -0.6190 C.3   1 <1>  -0.2400 
 24 C       -5.6480    -0.4860    -2.7240 C.3   1 <1>  -0.2400 
 25 C       -3.9020    -1.5940    -1.3570 C.3   1 <1>  -0.2400 
 26 H       -3.6620     3.4460     3.6920 H     1 <1>   0.0800 
 27 H       -2.4400     5.8800     2.3630 H     1 <1>   0.0800 
 28 H       -2.2470     5.4480     4.0440 H     1 <1>   0.0800 
 29 H       -3.8270     5.8830     3.4410 H     1 <1>   0.0800 
 30 H       -2.6650     2.0700    -0.3880 H     1 <1>   0.4000 
 31 H       -1.9820     1.2230    -1.6910 H     1 <1>   0.4000 
 32 H       -3.9770     1.3490     2.6730 H     1 <1>   0.1500 
 33 H       -4.9870     3.8860    -0.6030 H     1 <1>   0.1500 
 34 H        1.9330     1.5510     0.3900 H     1 <1>   0.1500 
 35 H       -4.4160    -0.5890     1.3180 H     1 <1>   0.1500 
 36 H       -5.4600     1.9470    -1.9700 H     1 <1>   0.1500 
 37 H        0.6070    -1.3100    -3.2590 H     1 <1>   0.1500 
 38 H        3.6360     0.0640    -0.6090 H     1 <1>   0.1500 
 39 H        2.9180    -1.3990    -2.4910 H     1 <1>   0.1500 
 40 H       -6.5100    -2.5010    -1.2060 H     1 <1>   0.0800 
 41 H       -7.2030    -1.0480    -0.5290 H     1 <1>   0.0800 
 42 H       -6.0050    -1.9450     0.3630 H     1 <1>   0.0800 
 43 H       -6.5740     0.0630    -2.7290 H     1 <1>   0.0800 
 44 H       -5.8030    -1.4020    -3.2660 H     1 <1>   0.0800 
 45 H       -4.8990     0.0850    -3.2430 H     1 <1>   0.0800 
 46 H       -4.0400    -2.4740    -1.9600 H     1 <1>   0.0800 
 47 H       -3.5820    -1.9070    -0.3810 H     1 <1>   0.0800 
 48 H       -3.1170    -1.0020    -1.7930 H     1 <1>   0.0800 
@<TRIPOS>BOND
  1   1   2  2   
  2   2   3  1   
  3   2   4  1   
  4   3   5  1   
  5   4   6  1   
  6   4   7  1   
  7   4  26  1   
  8   5   8  2   
  9   6   9  1   
 10   7  27  1   
 11   7  28  1   
 12   7  29  1   
 13   8  10  1   
 14   8  11  1   
 15   9  12  ar  
 16   9  13  ar  
 17  10  30  1   
 18  10  31  1   
 19  11  14  ar  
 20  11  15  ar  
 21  12  16  ar  
 22  12  32  1   
 23  13  17  ar  
 24  13  33  1   
 25  14  18  ar  
 26  15  19  ar  
 27  15  34  1   
 28  16  20  ar  
 29  16  35  1   
 30  17  20  ar  
 31  17  36  1   
 32  18  21  ar  
 33  18  37  1   
 34  19  21  ar  
 35  19  38  1   
 36  20  22  1   
 37  21  39  1   
 38  22  23  1   
 39  22  24  1   
 40  22  25  1   
 41  23  40  1   
 42  23  41  1   
 43  23  42  1   
 44  24  43  1   
 45  24  44  1   
 46  24  45  1   
 47  25  46  1   
 48  25  47  1   
 49  25  48  1   
@<TRIPOS>SUBSTRUCTURE
  1 ****  10 GROUP 4 **** **** 0

# MOE 2024.06 (io_trps.svl 2023.06)
