@<TRIPOS>MOLECULE
NONAME
42 44 1 0 0 
SMALL
USER_CHARGES


@<TRIPOS>ATOM
  1 CL      -0.3270     1.0220    -0.9000 Cl    1 <1>  -0.1770 
  2 C       -1.8560     1.5860    -0.2690 C.ar  1 <1>   0.1770 
  3 C       -2.7260     2.2640    -1.1030 C.ar  1 <1>  -0.1500 
  4 C       -2.1730     1.3460     1.0550 C.ar  1 <1>  -0.1500 
  5 C       -3.9360     2.7090    -0.5990 C.ar  1 <1>  -0.1500 
  6 C       -3.3850     1.7950     1.5490 C.ar  1 <1>  -0.1500 
  7 C       -4.2770     2.4800     0.7310 C.ar  1 <1>   0.1000 
  8 N       -5.4840     2.9150     1.2630 N.pl3 1 <1>  -0.8380 
  9 C       -5.6870     4.3830     1.4610 C.3   1 <1>   0.2090 
 10 C       -6.7280     2.1780     0.8900 C.3   1 <1>   0.2090 
 11 C       -6.5270     5.0230     0.3380 C.3   1 <1>   0.1960 
 12 C       -7.5160     2.8930    -0.2260 C.3   1 <1>   0.1960 
 13 N       -7.7940     4.3080     0.0920 N.am  1 <1>  -0.8490 
 14 S       -8.7000     5.0730    -1.1180 S.o2  1 <1>   1.5010 
 15 O       -8.0950     4.7020    -2.3790 O.2   1 <1>  -0.6500 
 16 O       -8.7930     6.4700    -0.7550 O.2   1 <1>  -0.6500 
 17 C      -10.3120     4.2960    -0.9610 C.2   1 <1>  -0.0630 
 18 C      -10.9370     3.5900    -1.9790 C.2   1 <1>   0.1390 
 19 C      -11.1860     4.2110     0.0740 C.2   1 <1>  -0.3020 
 20 N      -12.0850     3.1010    -1.6200 N.2   1 <1>  -0.7070 
 21 N      -12.2430     3.4920    -0.3450 N.pl3 1 <1>   0.3140 
 22 C      -13.4460     3.1460     0.4400 C.3   1 <1>   0.0960 
 23 C      -13.1660     1.9810     1.3980 C.3   1 <1>  -0.2400 
 24 H       -2.4550     2.4380    -2.1290 H     1 <1>   0.1500 
 25 H       -1.4810     0.8160     1.6850 H     1 <1>   0.1500 
 26 H       -4.6190     3.2360    -1.2380 H     1 <1>   0.1500 
 27 H       -3.6550     1.6220     2.5750 H     1 <1>   0.1500 
 28 H       -4.7300     4.8730     1.5130 H     1 <1>   0.0800 
 29 H       -6.1850     4.5400     2.4020 H     1 <1>   0.0800 
 30 H       -7.3530     2.0890     1.7600 H     1 <1>   0.0800 
 31 H       -6.4710     1.1850     0.5650 H     1 <1>   0.0800 
 32 H       -5.9430     5.0500    -0.5660 H     1 <1>   0.0800 
 33 H       -6.7390     6.0410     0.6180 H     1 <1>   0.0800 
 34 H       -8.4440     2.3670    -0.3730 H     1 <1>   0.0800 
 35 H       -6.9520     2.8230    -1.1410 H     1 <1>   0.0800 
 36 H      -10.5180     3.4560    -2.9640 H     1 <1>   0.1500 
 37 H      -11.1010     4.6200     1.0640 H     1 <1>   0.1500 
 38 H      -14.2280     2.8770    -0.2470 H     1 <1>   0.0800 
 39 H      -13.7570     4.0160     0.9890 H     1 <1>   0.0800 
 40 H      -12.8600     1.1130     0.8410 H     1 <1>   0.0800 
 41 H      -14.0590     1.7380     1.9450 H     1 <1>   0.0800 
 42 H      -12.3960     2.2470     2.1000 H     1 <1>   0.0800 
@<TRIPOS>BOND
  1   1   2  1   
  2   2   3  ar  
  3   2   4  ar  
  4   3   5  ar  
  5   3  24  1   
  6   4   6  ar  
  7   4  25  1   
  8   5   7  ar  
  9   5  26  1   
 10   6   7  ar  
 11   6  27  1   
 12   7   8  1   
 13   8   9  1   
 14   8  10  1   
 15   9  11  1   
 16   9  28  1   
 17   9  29  1   
 18  10  12  1   
 19  10  30  1   
 20  10  31  1   
 21  11  13  1   
 22  11  32  1   
 23  11  33  1   
 24  12  13  1   
 25  12  34  1   
 26  12  35  1   
 27  13  14  am  
 28  14  15  2   
 29  14  16  2   
 30  14  17  1   
 31  17  18  1   
 32  17  19  2   
 33  18  20  2   
 34  18  36  1   
 35  19  21  1   
 36  19  37  1   
 37  20  21  1   
 38  21  22  1   
 39  22  23  1   
 40  22  38  1   
 41  22  39  1   
 42  23  40  1   
 43  23  41  1   
 44  23  42  1   
@<TRIPOS>SUBSTRUCTURE
  1 ****  12 GROUP 4 **** **** 0

# MOE 2024.06 (io_trps.svl 2023.06)
