@<TRIPOS>MOLECULE
NONAME
52 55 1 0 0 
SMALL
USER_CHARGES


@<TRIPOS>ATOM
  1 S       -0.1670    -0.0890     1.6910 S.3   1 <1>  -0.2420 
  2 C       -1.1550     1.0920     0.8600 C.2   1 <1>   0.6410 
  3 C       -0.8900    -1.3970     0.7430 C.2   1 <1>   0.1150 
  4 N       -1.0050     2.3750     1.2010 N.pl3 1 <1>  -0.8500 
  5 N       -1.9480     0.6280    -0.0140 N.2   1 <1>  -0.6610 
  6 C       -1.8500    -0.7370    -0.1110 C.2   1 <1>   0.7670 
  7 C       -0.4520    -2.6590     0.9780 C.2   1 <1>  -0.1040 
  8 O       -2.5790    -1.3080    -0.8940 O.2   1 <1>  -0.5700 
  9 C       -0.8010    -3.9110     0.3730 C.2   1 <1>  -0.0460 
 10 C       -0.6970    -5.1620     0.9230 C.2   1 <1>  -0.3320 
 11 C       -1.2860    -4.1200    -0.9330 C.2   1 <1>  -0.1500 
 12 N       -1.0880    -6.1200     0.0290 N.pl3 1 <1>   0.3790 
 13 C       -0.2250    -5.5410     2.3210 C.3   1 <1>  -0.0600 
 14 C       -1.4500    -5.4510    -1.1130 C.2   1 <1>  -0.3320 
 15 C       -1.1220    -7.5100     0.2230 C.2   1 <1>  -0.0360 
 16 C       -1.9490    -6.1600    -2.3600 C.3   1 <1>  -0.0600 
 17 S       -2.6530    -8.2020     0.7280 S.3   1 <1>  -0.0800 
 18 C       -0.1600    -8.4700     0.0680 C.2   1 <1>  -0.0860 
 19 C       -1.9700    -9.8110     0.7200 C.2   1 <1>  -0.1400 
 20 C       -0.6750    -9.7880     0.3710 C.2   1 <1>  -0.1810 
 21 C        1.1950    -8.1970    -0.3480 C.2   1 <1>   0.8060 
 22 C       -2.8290   -11.0000     1.0890 C.3   1 <1>   0.0200 
 23 C        0.1330   -11.0800     0.3220 C.3   1 <1>   0.0210 
 24 O        1.7870    -7.1730    -0.0730 O.2   1 <1>  -0.5700 
 25 O        1.8290    -9.1210    -1.0780 O.3   1 <1>  -0.4300 
 26 C       -2.0900   -12.2940     0.7040 C.3   1 <1>  -0.1600 
 27 C       -0.5910   -12.2250     1.0590 C.3   1 <1>  -0.1600 
 28 C        3.1460    -8.9230    -1.5390 C.3   1 <1>   0.1200 
 29 C        3.5640   -10.1680    -2.3160 C.3   1 <1>  -0.2400 
 30 H       -1.5650     3.0930     0.7410 H     1 <1>   0.4000 
 31 H       -0.3480     2.6840     1.9160 H     1 <1>   0.4000 
 32 H        0.2890    -2.7750     1.7470 H     1 <1>   0.1500 
 33 H       -1.4780    -3.3440    -1.6520 H     1 <1>   0.1500 
 34 H       -0.0710    -4.6720     2.9320 H     1 <1>   0.0800 
 35 H        0.7010    -6.0850     2.2590 H     1 <1>   0.0800 
 36 H       -0.9600    -6.1620     2.8020 H     1 <1>   0.0800 
 37 H       -2.1720    -5.4430    -3.1290 H     1 <1>   0.0800 
 38 H       -2.8440    -6.7140    -2.1370 H     1 <1>   0.0800 
 39 H       -1.2000    -6.8380    -2.7270 H     1 <1>   0.0800 
 40 H       -3.0130   -10.9790     2.1480 H     1 <1>   0.0800 
 41 H       -3.7720   -10.9500     0.5750 H     1 <1>   0.0800 
 42 H        0.2850   -11.3540    -0.7070 H     1 <1>   0.0800 
 43 H        1.0970   -10.9300     0.7770 H     1 <1>   0.0800 
 44 H       -2.5490   -13.1310     1.2010 H     1 <1>   0.0800 
 45 H       -2.1870   -12.4470    -0.3570 H     1 <1>   0.0800 
 46 H       -0.1160   -13.1600     0.8180 H     1 <1>   0.0800 
 47 H       -0.4940   -12.0710     2.1200 H     1 <1>   0.0800 
 48 H        3.1600    -8.0500    -2.1700 H     1 <1>   0.0800 
 49 H        3.7880    -8.7650    -0.6880 H     1 <1>   0.0800 
 50 H        2.9090   -10.3190    -3.1540 H     1 <1>   0.0800 
 51 H        3.5370   -11.0310    -1.6760 H     1 <1>   0.0800 
 52 H        4.5670   -10.0450    -2.6830 H     1 <1>   0.0800 
@<TRIPOS>BOND
  1   1   2  1   
  2   1   3  1   
  3   2   4  1   
  4   2   5  2   
  5   3   6  1   
  6   3   7  2   
  7   4  30  1   
  8   4  31  1   
  9   5   6  1   
 10   6   8  2   
 11   7   9  1   
 12   7  32  1   
 13   9  10  2   
 14   9  11  1   
 15  10  12  1   
 16  10  13  1   
 17  11  14  2   
 18  11  33  1   
 19  12  14  1   
 20  12  15  1   
 21  13  34  1   
 22  13  35  1   
 23  13  36  1   
 24  14  16  1   
 25  15  17  1   
 26  15  18  2   
 27  16  37  1   
 28  16  38  1   
 29  16  39  1   
 30  17  19  1   
 31  18  20  1   
 32  18  21  1   
 33  19  20  2   
 34  19  22  1   
 35  20  23  1   
 36  21  24  2   
 37  21  25  1   
 38  22  26  1   
 39  22  40  1   
 40  22  41  1   
 41  23  27  1   
 42  23  42  1   
 43  23  43  1   
 44  25  28  1   
 45  26  27  1   
 46  26  44  1   
 47  26  45  1   
 48  27  46  1   
 49  27  47  1   
 50  28  29  1   
 51  28  48  1   
 52  28  49  1   
 53  29  50  1   
 54  29  51  1   
 55  29  52  1   
@<TRIPOS>SUBSTRUCTURE
  1 ****  12 GROUP 4 **** **** 0

# MOE 2024.06 (io_trps.svl 2023.06)
