@<TRIPOS>MOLECULE
NONAME
34 34 1 0 0 
SMALL
USER_CHARGES


@<TRIPOS>ATOM
  1 CL      -2.1260     0.6470     3.3310 Cl    1 <1>  -0.1770 
  2 C       -2.4900     1.2230     1.7270 C.ar  1 <1>   0.1770 
  3 C       -3.5980     0.7220     1.0690 C.ar  1 <1>  -0.1500 
  4 C       -1.6710     2.1680     1.1400 C.ar  1 <1>  -0.1500 
  5 C       -3.9040     1.1810    -0.2060 C.ar  1 <1>  -0.1440 
  6 C       -1.9690     2.6190    -0.1340 C.ar  1 <1>  -0.1500 
  7 C       -3.0780     2.1270    -0.8030 C.ar  1 <1>  -0.1500 
  8 C       -5.1260     0.6560    -0.9370 C.3   1 <1>   0.4870 
  9 N       -6.3480     1.2360    -0.3110 N.4   1 <1>  -0.9590 
 10 C       -7.5730     0.5300    -0.8160 C.3   1 <1>   0.3430 
 11 C       -6.3970     2.7150    -0.5260 C.3   1 <1>   0.3430 
 12 C       -8.5020     0.0830     0.3210 C.3   1 <1>   0.1200 
 13 C       -7.4750     3.3650     0.3420 C.3   1 <1>  -0.1600 
 14 O       -9.5670    -0.5860    -0.2510 O.3   1 <1>  -0.6800 
 15 C       -7.3920     4.8930     0.2580 C.3   1 <1>  -0.2400 
 16 H       -4.1950    -0.0210     1.5680 H     1 <1>   0.1500 
 17 H       -0.8140     2.5400     1.6740 H     1 <1>   0.1500 
 18 H       -1.3330     3.3520    -0.6030 H     1 <1>   0.1500 
 19 H       -3.2830     2.4920    -1.7960 H     1 <1>   0.1500 
 20 H       -5.1450    -0.4190    -0.8610 H     1 <1>   0.0800 
 21 H       -5.0770     0.9220    -1.9800 H     1 <1>   0.0800 
 22 H       -6.2490     1.0790     0.6990 H     1 <1>   0.4500 
 23 H       -7.2860    -0.3500    -1.3680 H     1 <1>   0.0800 
 24 H       -8.1210     1.1770    -1.4820 H     1 <1>   0.0800 
 25 H       -6.5840     2.9350    -1.5650 H     1 <1>   0.0800 
 26 H       -5.4460     3.1490    -0.2600 H     1 <1>   0.0800 
 27 H       -8.8930     0.9240     0.8680 H     1 <1>   0.0800 
 28 H       -8.0010    -0.5990     0.9860 H     1 <1>   0.0800 
 29 H       -7.3450     3.0740     1.3700 H     1 <1>   0.0800 
 30 H       -8.4540     3.0650     0.0110 H     1 <1>   0.0800 
 31 H      -10.2110    -0.8940     0.4220 H     1 <1>   0.4000 
 32 H       -6.4360     5.2460     0.6050 H     1 <1>   0.0800 
 33 H       -8.1560     5.3380     0.8740 H     1 <1>   0.0800 
 34 H       -7.5400     5.2310    -0.7540 H     1 <1>   0.0800 
@<TRIPOS>BOND
  1   1   2  1   
  2   2   3  ar  
  3   2   4  ar  
  4   3   5  ar  
  5   3  16  1   
  6   4   6  ar  
  7   4  17  1   
  8   5   7  ar  
  9   5   8  1   
 10   6   7  ar  
 11   6  18  1   
 12   7  19  1   
 13   8   9  1   
 14   8  20  1   
 15   8  21  1   
 16   9  10  1   
 17   9  11  1   
 18   9  22  1   
 19  10  12  1   
 20  10  23  1   
 21  10  24  1   
 22  11  13  1   
 23  11  25  1   
 24  11  26  1   
 25  12  14  1   
 26  12  27  1   
 27  12  28  1   
 28  13  15  1   
 29  13  29  1   
 30  13  30  1   
 31  14  31  1   
 32  15  32  1   
 33  15  33  1   
 34  15  34  1   
@<TRIPOS>SUBSTRUCTURE
  1 ****   9 GROUP 4 **** **** 0

# MOE 2024.06 (io_trps.svl 2023.06)
