@<TRIPOS>MOLECULE
NONAME
50 53 1 0 0 
SMALL
USER_CHARGES


@<TRIPOS>ATOM
  1 O        0.3560    -0.0290    -0.0310 O.2   1 <1>  -0.5700 
  2 C        0.0710     1.0870    -0.4290 C.2   1 <1>   0.6900 
  3 N       -1.2200     1.5040    -0.5450 N.am  1 <1>  -0.4210 
  4 N        1.0870     1.9020    -0.7870 N.am  1 <1>  -0.7300 
  5 N       -2.4190     0.7460    -0.1190 N.3   1 <1>  -0.5490 
  6 C        1.3040     3.2800    -0.3160 C.3   1 <1>   0.3000 
  7 C       -3.3290     1.6670     0.6280 C.3   1 <1>   0.1100 
  8 C       -3.1020     0.2400    -1.3470 C.3   1 <1>   0.1100 
  9 C        0.5250     4.2760    -1.1980 C.3   1 <1>  -0.1600 
 10 C        0.8860     3.4520     1.1600 C.3   1 <1>  -0.1600 
 11 C        2.8100     3.5770    -0.4420 C.3   1 <1>  -0.1600 
 12 C       -4.7040     1.0090     0.9020 C.3   1 <1>   0.3430 
 13 C       -4.3610    -0.5780    -0.9790 C.3   1 <1>   0.3430 
 14 C        0.8100     5.7200    -0.7390 C.3   1 <1>  -0.0800 
 15 C        1.1710     4.8930     1.6240 C.3   1 <1>  -0.0800 
 16 C        3.1130     5.0170     0.0160 C.3   1 <1>  -0.0800 
 17 N       -4.7170    -0.4340     0.4770 N.4   1 <1>  -0.9590 
 18 C        0.3850     5.8770     0.7350 C.3   1 <1>  -0.1600 
 19 C        2.3190     6.0020    -0.8610 C.3   1 <1>  -0.1600 
 20 C        2.6780     5.1810     1.4840 C.3   1 <1>  -0.1600 
 21 C       -5.9700    -1.1530     0.8480 C.3   1 <1>   0.2630 
 22 H       -1.3470     2.3960    -1.0240 H     1 <1>   0.3700 
 23 H        1.9620     1.3790    -0.7830 H     1 <1>   0.3700 
 24 H       -3.4690     2.5830     0.0810 H     1 <1>   0.0800 
 25 H       -2.8660     1.9150     1.5680 H     1 <1>   0.0800 
 26 H       -2.4200    -0.3850    -1.8980 H     1 <1>   0.0800 
 27 H       -3.3770     1.0650    -1.9810 H     1 <1>   0.0800 
 28 H       -0.5290     4.0970    -1.1280 H     1 <1>   0.0800 
 29 H        0.8230     4.1610    -2.2250 H     1 <1>   0.0800 
 30 H        1.4330     2.7600     1.7760 H     1 <1>   0.0800 
 31 H       -0.1620     3.2520     1.2820 H     1 <1>   0.0800 
 32 H        3.1220     3.4580    -1.4650 H     1 <1>   0.0800 
 33 H        3.3710     2.8890     0.1650 H     1 <1>   0.0800 
 34 H       -5.4660     1.5520     0.3690 H     1 <1>   0.0800 
 35 H       -4.9220     1.0850     1.9540 H     1 <1>   0.0800 
 36 H       -4.1720    -1.6160    -1.2010 H     1 <1>   0.0800 
 37 H       -5.1820    -0.2560    -1.5980 H     1 <1>   0.0800 
 38 H        0.2610     6.4150    -1.3520 H     1 <1>   0.0800 
 39 H        0.8730     5.0110     2.6520 H     1 <1>   0.0800 
 40 H        4.1680     5.2150    -0.0760 H     1 <1>   0.0800 
 41 H       -3.9070    -0.8510     0.9710 H     1 <1>   0.4500 
 42 H       -0.6710     5.6980     0.8340 H     1 <1>   0.0800 
 43 H        0.5730     6.8860     1.0600 H     1 <1>   0.0800 
 44 H        2.5270     7.0120    -0.5530 H     1 <1>   0.0800 
 45 H        2.6260     5.9070    -1.8880 H     1 <1>   0.0800 
 46 H        3.2380     4.5070     2.1090 H     1 <1>   0.0800 
 47 H        2.8890     6.1820     1.8170 H     1 <1>   0.0800 
 48 H       -6.8150    -0.7260     0.3330 H     1 <1>   0.0800 
 49 H       -6.1390    -1.0840     1.9100 H     1 <1>   0.0800 
 50 H       -5.8940    -2.1950     0.5820 H     1 <1>   0.0800 
@<TRIPOS>BOND
  1   1   2  2   
  2   2   3  am  
  3   2   4  am  
  4   3   5  1   
  5   3  22  1   
  6   4   6  1   
  7   4  23  1   
  8   5   7  1   
  9   5   8  1   
 10   6   9  1   
 11   6  10  1   
 12   6  11  1   
 13   7  12  1   
 14   7  24  1   
 15   7  25  1   
 16   8  13  1   
 17   8  26  1   
 18   8  27  1   
 19   9  14  1   
 20   9  28  1   
 21   9  29  1   
 22  10  15  1   
 23  10  30  1   
 24  10  31  1   
 25  11  16  1   
 26  11  32  1   
 27  11  33  1   
 28  12  17  1   
 29  12  34  1   
 30  12  35  1   
 31  13  17  1   
 32  13  36  1   
 33  13  37  1   
 34  14  18  1   
 35  14  19  1   
 36  14  38  1   
 37  15  18  1   
 38  15  20  1   
 39  15  39  1   
 40  16  19  1   
 41  16  20  1   
 42  16  40  1   
 43  17  21  1   
 44  17  41  1   
 45  18  42  1   
 46  18  43  1   
 47  19  44  1   
 48  19  45  1   
 49  20  46  1   
 50  20  47  1   
 51  21  48  1   
 52  21  49  1   
 53  21  50  1   
@<TRIPOS>SUBSTRUCTURE
  1 ****   3 GROUP 4 **** **** 0

# MOE 2024.06 (io_trps.svl 2023.06)
