@<TRIPOS>MOLECULE
NONAME
37 39 1 0 0 
SMALL
USER_CHARGES


@<TRIPOS>ATOM
  1 S       -0.6960    -0.6640     0.8080 S.3   1 <1>  -0.0800 
  2 C       -2.4050    -0.7530     0.4100 C.2   1 <1>  -0.1400 
  3 C       -0.6370    -2.3840     1.1500 C.2   1 <1>  -0.1100 
  4 C       -2.8500    -2.0190     0.5410 C.2   1 <1>  -0.1500 
  5 C       -3.0710     0.5480     0.0020 C.3   1 <1>   0.3200 
  6 C       -1.8440    -2.9470     0.9630 C.2   1 <1>  -0.1500 
  7 N       -4.5300     0.3570    -0.0610 N.am  1 <1>  -0.7300 
  8 C       -5.3450     0.8090    -1.0470 C.2   1 <1>   0.5690 
  9 O       -4.9260     1.4850    -1.9550 O.2   1 <1>  -0.5700 
 10 C       -6.8290     0.4610    -1.0150 C.3   1 <1>   0.1810 
 11 O       -7.1400    -0.3920     0.0820 O.3   1 <1>  -0.3630 
 12 C       -8.4070    -0.8250     0.2930 C.ar  1 <1>   0.0830 
 13 C       -9.4860    -0.4870    -0.5240 C.ar  1 <1>  -0.1500 
 14 C       -8.6080    -1.6500     1.3930 C.ar  1 <1>  -0.1500 
 15 C      -10.7390    -0.9840    -0.2190 C.ar  1 <1>  -0.1430 
 16 C       -9.8690    -2.1420     1.6890 C.ar  1 <1>  -0.1500 
 17 C      -10.9280    -1.7990     0.8700 C.ar  1 <1>  -0.1430 
 18 C      -12.0340    -0.7510    -0.9580 C.3   1 <1>  -0.0170 
 19 C      -12.3720    -2.2150     1.0010 C.3   1 <1>  -0.0170 
 20 C      -13.1020    -1.2930     0.0090 C.3   1 <1>  -0.1600 
 21 H        0.3080    -2.7960     1.4580 H     1 <1>   0.1500 
 22 H       -3.8560    -2.3530     0.3520 H     1 <1>   0.1500 
 23 H       -2.6930     0.8650    -0.9560 H     1 <1>   0.0800 
 24 H       -2.8490     1.3100     0.7280 H     1 <1>   0.0800 
 25 H       -2.0780    -3.9880     1.1030 H     1 <1>   0.1500 
 26 H       -4.9370    -0.2110     0.6850 H     1 <1>   0.3700 
 27 H       -7.0920    -0.0460    -1.9240 H     1 <1>   0.0800 
 28 H       -7.4020     1.3640    -0.9160 H     1 <1>   0.0800 
 29 H       -9.3770     0.1460    -1.3830 H     1 <1>   0.1500 
 30 H       -7.7720    -1.9050     2.0170 H     1 <1>   0.1500 
 31 H      -10.0220    -2.7800     2.5410 H     1 <1>   0.1500 
 32 H      -12.0300    -1.3160    -1.8730 H     1 <1>   0.0800 
 33 H      -12.1870     0.2920    -1.1700 H     1 <1>   0.0800 
 34 H      -12.7340    -2.0810     2.0050 H     1 <1>   0.0800 
 35 H      -12.4750    -3.2460     0.7090 H     1 <1>   0.0800 
 36 H      -13.8890    -1.8080    -0.5120 H     1 <1>   0.0800 
 37 H      -13.5250    -0.4670     0.5540 H     1 <1>   0.0800 
@<TRIPOS>BOND
  1   1   2  1   
  2   1   3  1   
  3   2   4  2   
  4   2   5  1   
  5   3   6  2   
  6   3  21  1   
  7   4   6  1   
  8   4  22  1   
  9   5   7  1   
 10   5  23  1   
 11   5  24  1   
 12   6  25  1   
 13   7   8  am  
 14   7  26  1   
 15   8   9  2   
 16   8  10  1   
 17  10  11  1   
 18  10  27  1   
 19  10  28  1   
 20  11  12  1   
 21  12  13  ar  
 22  12  14  ar  
 23  13  15  ar  
 24  13  29  1   
 25  14  16  ar  
 26  14  30  1   
 27  15  17  ar  
 28  15  18  1   
 29  16  17  ar  
 30  16  31  1   
 31  17  19  1   
 32  18  20  1   
 33  18  32  1   
 34  18  33  1   
 35  19  20  1   
 36  19  34  1   
 37  19  35  1   
 38  20  36  1   
 39  20  37  1   
@<TRIPOS>SUBSTRUCTURE
  1 ****  11 GROUP 4 **** **** 0

# MOE 2024.06 (io_trps.svl 2023.06)
