@<TRIPOS>MOLECULE
NONAME
52 53 1 0 0 
SMALL
USER_CHARGES


@<TRIPOS>ATOM
  1 I        0.7600     0.8130    -0.2120 I     1 <1>  -0.0810 
  2 C        0.3420    -1.2770    -0.3690 C.ar  1 <1>   0.0810 
  3 C        1.2370    -2.2200     0.1170 C.ar  1 <1>   0.0830 
  4 C       -0.8510    -1.6390    -0.9670 C.ar  1 <1>  -0.1500 
  5 O        2.3980    -1.8710     0.7090 O.3   1 <1>  -0.5330 
  6 C        0.9280    -3.5710    -0.0110 C.ar  1 <1>   0.0830 
  7 C       -1.1680    -2.9860    -1.0780 C.ar  1 <1>  -0.1430 
  8 O        1.8370    -4.4660     0.4700 O.3   1 <1>  -0.3630 
  9 C       -0.2750    -3.9450    -0.6090 C.ar  1 <1>  -0.1500 
 10 C       -2.4870    -3.4030    -1.7010 C.3   1 <1>   0.4860 
 11 C        1.7640    -5.8400     0.1550 C.3   1 <1>   0.0400 
 12 N       -3.4270    -3.7800    -0.6100 N.4   1 <1>  -0.9590 
 13 C       -4.6450    -4.4470    -1.1750 C.3   1 <1>   0.3430 
 14 C       -3.7830    -2.6040     0.2400 C.3   1 <1>   0.3430 
 15 C       -5.6000    -4.9170    -0.0700 C.3   1 <1>  -0.0190 
 16 C       -4.6940    -3.0500     1.3860 C.3   1 <1>  -0.1600 
 17 C       -6.8440    -5.4950    -0.7360 C.2   1 <1>   0.5690 
 18 C       -5.9600    -3.7480     0.8680 C.3   1 <1>  -0.1600 
 19 O       -7.1370    -5.0290    -1.8130 O.2   1 <1>  -0.5700 
 20 N       -7.5840    -6.4910    -0.1500 N.am  1 <1>  -0.6600 
 21 C       -7.3110    -7.1040     1.1790 C.3   1 <1>   0.1400 
 22 C       -8.7990    -7.0180    -0.8340 C.3   1 <1>   0.1400 
 23 C       -6.4620    -8.3610     0.9980 C.3   1 <1>  -0.2400 
 24 C      -10.0250    -6.2350    -0.3720 C.3   1 <1>  -0.2400 
 25 H       -1.5090    -0.8690    -1.3340 H     1 <1>   0.1500 
 26 H        2.8930    -2.6720     0.9740 H     1 <1>   0.4500 
 27 H       -0.5170    -4.9870    -0.7090 H     1 <1>   0.1500 
 28 H       -2.3200    -4.2440    -2.3550 H     1 <1>   0.0800 
 29 H       -2.8960    -2.5940    -2.2840 H     1 <1>   0.0800 
 30 H        2.6390    -6.3210     0.5550 H     1 <1>   0.0800 
 31 H        1.7440    -5.9550    -0.9140 H     1 <1>   0.0800 
 32 H        0.8840    -6.2590     0.6080 H     1 <1>   0.0800 
 33 H       -2.9320    -4.4470    -0.0070 H     1 <1>   0.4500 
 34 H       -4.3630    -5.2960    -1.7760 H     1 <1>   0.0800 
 35 H       -5.1710    -3.7540    -1.8120 H     1 <1>   0.0800 
 36 H       -4.2930    -1.8630    -0.3550 H     1 <1>   0.0800 
 37 H       -2.8910    -2.1560     0.6480 H     1 <1>   0.0800 
 38 H       -5.1060    -5.6920     0.4830 H     1 <1>   0.0800 
 39 H       -4.9770    -2.1840     1.9610 H     1 <1>   0.0800 
 40 H       -4.1490    -3.7050     2.0430 H     1 <1>   0.0800 
 41 H       -6.5450    -4.1040     1.6990 H     1 <1>   0.0800 
 42 H       -6.5650    -3.0360     0.3310 H     1 <1>   0.0800 
 43 H       -8.2420    -7.3630     1.6560 H     1 <1>   0.0800 
 44 H       -6.8050    -6.4070     1.8220 H     1 <1>   0.0800 
 45 H       -8.9230    -8.0640    -0.6120 H     1 <1>   0.0800 
 46 H       -8.6920    -6.9210    -1.9020 H     1 <1>   0.0800 
 47 H       -6.9890    -9.0870     0.4040 H     1 <1>   0.0800 
 48 H       -6.2580    -8.7990     1.9590 H     1 <1>   0.0800 
 49 H       -5.5270    -8.1280     0.5240 H     1 <1>   0.0800 
 50 H      -10.1730    -6.3420     0.6870 H     1 <1>   0.0800 
 51 H      -10.8990    -6.6040    -0.8770 H     1 <1>   0.0800 
 52 H       -9.9100    -5.1930    -0.6150 H     1 <1>   0.0800 
@<TRIPOS>BOND
  1   1   2  1   
  2   2   3  ar  
  3   2   4  ar  
  4   3   5  1   
  5   3   6  ar  
  6   4   7  ar  
  7   4  25  1   
  8   5  26  1   
  9   6   8  1   
 10   6   9  ar  
 11   7   9  ar  
 12   7  10  1   
 13   8  11  1   
 14   9  27  1   
 15  10  12  1   
 16  10  28  1   
 17  10  29  1   
 18  11  30  1   
 19  11  31  1   
 20  11  32  1   
 21  12  13  1   
 22  12  14  1   
 23  12  33  1   
 24  13  15  1   
 25  13  34  1   
 26  13  35  1   
 27  14  16  1   
 28  14  36  1   
 29  14  37  1   
 30  15  17  1   
 31  15  18  1   
 32  15  38  1   
 33  16  18  1   
 34  16  39  1   
 35  16  40  1   
 36  17  19  2   
 37  17  20  am  
 38  18  41  1   
 39  18  42  1   
 40  20  21  1   
 41  20  22  1   
 42  21  23  1   
 43  21  43  1   
 44  21  44  1   
 45  22  24  1   
 46  22  45  1   
 47  22  46  1   
 48  23  47  1   
 49  23  48  1   
 50  23  49  1   
 51  24  50  1   
 52  24  51  1   
 53  24  52  1   
@<TRIPOS>SUBSTRUCTURE
  1 ****  12 GROUP 4 **** **** 0

# MOE 2024.06 (io_trps.svl 2023.06)
