@<TRIPOS>MOLECULE
NONAME
48 50 1 0 0 
SMALL
USER_CHARGES


@<TRIPOS>ATOM
  1 CL       0.0460    -1.6200     1.6850 Cl    1 <1>  -0.1770 
  2 C        1.6130    -2.0800     1.0620 C.ar  1 <1>   0.1770 
  3 C        1.9570    -1.7340    -0.2320 C.ar  1 <1>  -0.1500 
  4 C        2.4850    -2.7830     1.8720 C.ar  1 <1>  -0.1500 
  5 C        3.1990    -2.1010    -0.7200 C.ar  1 <1>  -0.1500 
  6 C        3.7250    -3.1450     1.3760 C.ar  1 <1>  -0.1500 
  7 C        4.0930    -2.8080     0.0750 C.ar  1 <1>   0.1000 
  8 N        5.3330    -3.1640    -0.4430 N.pl3 1 <1>  -0.8380 
  9 C        5.5380    -4.6150    -0.7250 C.3   1 <1>   0.2090 
 10 C        6.5200    -2.4810     0.1530 C.3   1 <1>   0.2090 
 11 C        6.8000    -4.8360    -1.5870 C.3   1 <1>   0.3430 
 12 C        7.7790    -2.7120    -0.7080 C.3   1 <1>   0.3430 
 13 N        8.0170    -4.1740    -0.9980 N.4   1 <1>  -0.9590 
 14 C        9.2370    -4.3900    -1.8130 C.3   1 <1>   0.4860 
 15 C       10.4310    -3.9390    -0.9980 C.ar  1 <1>  -0.1430 
 16 C       10.7300    -4.5550     0.2140 C.ar  1 <1>   0.0830 
 17 C       11.2280    -2.9040    -1.4600 C.ar  1 <1>  -0.1500 
 18 O        9.9070    -5.5580     0.6310 O.3   1 <1>  -0.3630 
 19 C       11.8320    -4.1230     0.9490 C.ar  1 <1>  -0.1500 
 20 C       12.3200    -2.4720    -0.7280 C.ar  1 <1>   0.0830 
 21 C       10.2940    -6.4130     1.6900 C.3   1 <1>   0.0400 
 22 C       12.6220    -3.0880     0.4820 C.ar  1 <1>  -0.1500 
 23 O       13.0350    -1.4500    -1.2590 O.3   1 <1>  -0.3620 
 24 C       14.2220    -0.9920    -0.6470 C.3   1 <1>   0.0400 
 25 H        1.2600    -1.1880    -0.8420 H     1 <1>   0.1500 
 26 H        2.1910    -3.0380     2.8740 H     1 <1>   0.1500 
 27 H        3.4840    -1.8420    -1.7230 H     1 <1>   0.1500 
 28 H        4.4080    -3.6910     1.9980 H     1 <1>   0.1500 
 29 H        4.6780    -4.9990    -1.2470 H     1 <1>   0.0800 
 30 H        5.6300    -5.1550     0.2020 H     1 <1>   0.0800 
 31 H        6.6900    -2.8490     1.1500 H     1 <1>   0.0800 
 32 H        6.3240    -1.4240     0.2200 H     1 <1>   0.0800 
 33 H        6.6080    -4.4290    -2.5660 H     1 <1>   0.0800 
 34 H        6.9720    -5.8940    -1.6930 H     1 <1>   0.0800 
 35 H        8.6330    -2.2940    -0.2000 H     1 <1>   0.0800 
 36 H        7.6530    -2.1780    -1.6350 H     1 <1>   0.0800 
 37 H        8.2430    -4.6320    -0.0990 H     1 <1>   0.4500 
 38 H        9.1780    -3.8350    -2.7340 H     1 <1>   0.0800 
 39 H        9.3480    -5.4370    -2.0430 H     1 <1>   0.0800 
 40 H       11.0240    -2.4130    -2.3960 H     1 <1>   0.1500 
 41 H       12.0920    -4.5740     1.8890 H     1 <1>   0.1500 
 42 H       10.3290    -5.8480     2.6060 H     1 <1>   0.0800 
 43 H       11.2590    -6.8360     1.4660 H     1 <1>   0.0800 
 44 H        9.5660    -7.1990     1.7770 H     1 <1>   0.0800 
 45 H       13.4640    -2.7740     1.0700 H     1 <1>   0.1500 
 46 H       14.6330    -0.2090    -1.2580 H     1 <1>   0.0800 
 47 H       14.9200    -1.8080    -0.5820 H     1 <1>   0.0800 
 48 H       13.9870    -0.6060     0.3290 H     1 <1>   0.0800 
@<TRIPOS>BOND
  1   1   2  1   
  2   2   3  ar  
  3   2   4  ar  
  4   3   5  ar  
  5   3  25  1   
  6   4   6  ar  
  7   4  26  1   
  8   5   7  ar  
  9   5  27  1   
 10   6   7  ar  
 11   6  28  1   
 12   7   8  1   
 13   8   9  1   
 14   8  10  1   
 15   9  11  1   
 16   9  29  1   
 17   9  30  1   
 18  10  12  1   
 19  10  31  1   
 20  10  32  1   
 21  11  13  1   
 22  11  33  1   
 23  11  34  1   
 24  12  13  1   
 25  12  35  1   
 26  12  36  1   
 27  13  14  1   
 28  13  37  1   
 29  14  15  1   
 30  14  38  1   
 31  14  39  1   
 32  15  16  ar  
 33  15  17  ar  
 34  16  18  1   
 35  16  19  ar  
 36  17  20  ar  
 37  17  40  1   
 38  18  21  1   
 39  19  22  ar  
 40  19  41  1   
 41  20  22  ar  
 42  20  23  1   
 43  21  42  1   
 44  21  43  1   
 45  21  44  1   
 46  22  45  1   
 47  23  24  1   
 48  24  46  1   
 49  24  47  1   
 50  24  48  1   
@<TRIPOS>SUBSTRUCTURE
  1 ****  12 GROUP 4 **** **** 0

# MOE 2024.06 (io_trps.svl 2023.06)
