@<TRIPOS>MOLECULE
NONAME
39 40 1 0 0 
SMALL
USER_CHARGES


@<TRIPOS>ATOM
  1 O        0.4170     0.9560    -0.7750 O.2   1 <1>  -0.5700 
  2 C        0.1100     1.3690     0.3250 C.2   1 <1>   0.6900 
  3 N       -1.1890     1.5680     0.6860 N.am  1 <1>  -0.5470 
  4 N        1.0560     1.6700     1.2510 N.am  1 <1>  -0.7300 
  5 C       -2.3870     1.2680     0.0210 C.ar  1 <1>   0.1170 
  6 C        2.5320     1.5640     1.0920 C.3   1 <1>   0.2200 
  7 C       -3.5280     1.9890     0.3470 C.ar  1 <1>  -0.1500 
  8 C       -2.4910     0.2660    -0.9390 C.ar  1 <1>  -0.1500 
  9 C        3.0610     2.1860    -0.2230 C.3   1 <1>   0.2000 
 10 C        2.9270     0.0940     1.2420 C.3   1 <1>  -0.2400 
 11 C       -4.7420     1.7310    -0.2640 C.ar  1 <1>   0.0830 
 12 C       -3.6990    -0.0010    -1.5580 C.ar  1 <1>  -0.1500 
 13 O        4.4500     2.2820    -0.1770 O.3   1 <1>  -0.5600 
 14 C        2.6080     3.6190    -0.4890 C.3   1 <1>  -0.1600 
 15 O       -5.7940     2.4940     0.1260 O.3   1 <1>  -0.3630 
 16 C       -4.8270     0.7280    -1.2260 C.ar  1 <1>  -0.1500 
 17 C        4.8850     3.1890    -1.1350 C.3   1 <1>   0.1200 
 18 C        3.7660     4.2180    -1.2750 C.3   1 <1>  -0.1600 
 19 C       -7.0690     2.3310    -0.4540 C.3   1 <1>   0.0400 
 20 H       -1.2970     2.1340     1.5190 H     1 <1>   0.3700 
 21 H        0.7560     1.7670     2.2160 H     1 <1>   0.3700 
 22 H        2.9800     2.1190     1.8980 H     1 <1>   0.0800 
 23 H       -3.4820     2.7690     1.0830 H     1 <1>   0.1500 
 24 H       -1.6250    -0.3130    -1.2050 H     1 <1>   0.1500 
 25 H        2.8160     1.5560    -1.0610 H     1 <1>   0.0800 
 26 H        2.5050    -0.4880     0.4410 H     1 <1>   0.0800 
 27 H        2.5890    -0.2940     2.1840 H     1 <1>   0.0800 
 28 H        3.9980     0.0010     1.1990 H     1 <1>   0.0800 
 29 H       -3.7580    -0.7780    -2.3010 H     1 <1>   0.1500 
 30 H        2.4780     4.1420     0.4420 H     1 <1>   0.0800 
 31 H        1.6830     3.6360    -1.0370 H     1 <1>   0.0800 
 32 H       -5.7520     0.5020    -1.7200 H     1 <1>   0.1500 
 33 H        5.0370     2.6520    -2.0560 H     1 <1>   0.0800 
 34 H        5.8100     3.6280    -0.8040 H     1 <1>   0.0800 
 35 H        4.0650     5.1660    -0.8650 H     1 <1>   0.0800 
 36 H        3.5120     4.3460    -2.3120 H     1 <1>   0.0800 
 37 H       -7.7350     3.0430    -0.0010 H     1 <1>   0.0800 
 38 H       -7.4150     1.3310    -0.2590 H     1 <1>   0.0800 
 39 H       -6.9980     2.5170    -1.5110 H     1 <1>   0.0800 
@<TRIPOS>BOND
  1   1   2  2   
  2   2   3  am  
  3   2   4  am  
  4   3   5  1   
  5   3  20  1   
  6   4   6  1   
  7   4  21  1   
  8   5   7  ar  
  9   5   8  ar  
 10   6   9  1   
 11   6  10  1   
 12   6  22  1   
 13   7  11  ar  
 14   7  23  1   
 15   8  12  ar  
 16   8  24  1   
 17   9  13  1   
 18   9  14  1   
 19   9  25  1   
 20  10  26  1   
 21  10  27  1   
 22  10  28  1   
 23  11  15  1   
 24  11  16  ar  
 25  12  16  ar  
 26  12  29  1   
 27  13  17  1   
 28  14  18  1   
 29  14  30  1   
 30  14  31  1   
 31  15  19  1   
 32  16  32  1   
 33  17  18  1   
 34  17  33  1   
 35  17  34  1   
 36  18  35  1   
 37  18  36  1   
 38  19  37  1   
 39  19  38  1   
 40  19  39  1   
@<TRIPOS>SUBSTRUCTURE
  1 ****   2 GROUP 4 **** **** 0

# MOE 2024.06 (io_trps.svl 2023.06)
