@<TRIPOS>MOLECULE
NONAME
31 30 1 0 0 
SMALL
USER_CHARGES


@<TRIPOS>ATOM
  1 O       -0.4950    -2.1600    -1.1310 O.co2 1 <1>  -0.9000 
  2 C       -0.5520    -2.3610     0.0830 C.2   1 <1>   0.9060 
  3 O       -0.7690    -3.4950     0.5150 O.co2 1 <1>  -0.9000 
  4 C       -0.9810    -1.2110     0.9490 C.3   1 <1>  -0.2660 
  5 C       -2.3870    -0.7010     0.5250 C.3   1 <1>  -0.1600 
  6 C       -3.4860    -1.7830     0.3810 C.3   1 <1>   0.4230 
  7 N       -3.1030    -2.7870    -0.6200 N.4   1 <1>  -0.8530 
  8 C       -4.8200    -1.1500    -0.0330 C.3   1 <1>  -0.1600 
  9 C       -5.9950    -2.1500    -0.0510 C.3   1 <1>  -0.1600 
 10 C       -7.3250    -1.5140    -0.4970 C.3   1 <1>  -0.0800 
 11 C       -7.8260    -0.4510     0.4910 C.3   1 <1>  -0.2400 
 12 C       -8.3920    -2.6050    -0.6470 C.3   1 <1>  -0.2400 
 13 H       -0.2540    -0.4270     0.8540 H     1 <1>   0.0800 
 14 H       -0.9930    -1.5430     1.9710 H     1 <1>   0.0800 
 15 H       -2.2890    -0.1820    -0.4130 H     1 <1>   0.0800 
 16 H       -2.7070     0.0240     1.2520 H     1 <1>   0.0800 
 17 H       -3.6150    -2.2730     1.3340 H     1 <1>   0.0800 
 18 H       -2.4450    -2.3670    -1.3080 H     1 <1>   0.4500 
 19 H       -3.8440    -3.3210    -1.0590 H     1 <1>   0.4500 
 20 H       -2.4120    -3.4310    -0.1620 H     1 <1>   0.4500 
 21 H       -4.7150    -0.6840    -0.9980 H     1 <1>   0.0800 
 22 H       -5.0410    -0.3720     0.6760 H     1 <1>   0.0800 
 23 H       -6.1190    -2.5760     0.9310 H     1 <1>   0.0800 
 24 H       -5.7740    -2.9550    -0.7280 H     1 <1>   0.0800 
 25 H       -7.1870    -1.0490    -1.4600 H     1 <1>   0.0800 
 26 H       -7.9150    -0.8620     1.4810 H     1 <1>   0.0800 
 27 H       -8.7930    -0.0900     0.1870 H     1 <1>   0.0800 
 28 H       -7.1620     0.3930     0.5230 H     1 <1>   0.0800 
 29 H       -8.5690    -3.0970     0.2930 H     1 <1>   0.0800 
 30 H       -8.0830    -3.3400    -1.3680 H     1 <1>   0.0800 
 31 H       -9.3190    -2.1760    -0.9860 H     1 <1>   0.0800 
@<TRIPOS>BOND
  1   1   2  ar  
  2   2   3  ar  
  3   2   4  1   
  4   4   5  1   
  5   4  13  1   
  6   4  14  1   
  7   5   6  1   
  8   5  15  1   
  9   5  16  1   
 10   6   7  1   
 11   6   8  1   
 12   6  17  1   
 13   7  18  1   
 14   7  19  1   
 15   7  20  1   
 16   8   9  1   
 17   8  21  1   
 18   8  22  1   
 19   9  10  1   
 20   9  23  1   
 21   9  24  1   
 22  10  11  1   
 23  10  12  1   
 24  10  25  1   
 25  11  26  1   
 26  11  27  1   
 27  11  28  1   
 28  12  29  1   
 29  12  30  1   
 30  12  31  1   
@<TRIPOS>SUBSTRUCTURE
  1 ****   6 GROUP 4 **** **** 0

# MOE 2024.06 (io_trps.svl 2023.06)
