@<TRIPOS>MOLECULE
NONAME
43 45 1 0 0 
SMALL
USER_CHARGES


@<TRIPOS>ATOM
  1 S        0.2410     0.2810     1.3560 S.o2  1 <1>   1.5760 
  2 O        0.4170    -1.1260     1.0690 O.2   1 <1>  -0.6500 
  3 O        0.9180     0.9010     2.4750 O.2   1 <1>  -0.6500 
  4 N       -1.4140     0.5700     1.5170 N.am  1 <1>  -0.8490 
  5 N        0.5570     1.1760    -0.0480 N.am  1 <1>  -0.8490 
  6 C       -1.7290     1.9830     1.7780 C.3   1 <1>   0.1960 
  7 C       -2.1970     0.0390     0.3910 C.3   1 <1>   0.1960 
  8 C        1.4060     2.3450     0.2050 C.3   1 <1>   0.1960 
  9 C        1.0840     0.3520    -1.1410 C.3   1 <1>   0.1960 
 10 C       -3.2280     2.1790     2.0530 C.3   1 <1>   0.1400 
 11 C       -3.7100     0.2090     0.6170 C.3   1 <1>   0.1400 
 12 C        1.4920     3.2250    -1.0470 C.3   1 <1>  -0.1600 
 13 C        1.1660     1.1670    -2.4360 C.3   1 <1>  -0.1600 
 14 N       -4.0430     1.6340     0.9230 N.am  1 <1>  -0.6600 
 15 C        2.0100     2.4330    -2.2520 C.3   1 <1>  -0.1600 
 16 C       -4.6410     2.4710     0.0040 C.2   1 <1>   0.7150 
 17 O       -4.3100     3.6430    -0.0110 O.2   1 <1>  -0.5700 
 18 C       -5.6310     1.9780    -0.9220 C.2   1 <1>  -0.0450 
 19 S       -5.7550     2.7350    -2.5140 S.3   1 <1>  -0.0800 
 20 C       -6.5600     0.9880    -0.8430 C.2   1 <1>  -0.1500 
 21 C       -7.0530     1.6690    -3.0030 C.2   1 <1>  -0.1100 
 22 C       -7.3560     0.8120    -2.0120 C.2   1 <1>  -0.1500 
 23 H       -1.4500     2.5900     0.9330 H     1 <1>   0.0800 
 24 H       -1.1740     2.3240     2.6360 H     1 <1>   0.0800 
 25 H       -1.9830    -1.0090     0.2670 H     1 <1>   0.0800 
 26 H       -1.9230     0.5460    -0.5190 H     1 <1>   0.0800 
 27 H        2.3920     2.0230     0.5000 H     1 <1>   0.0800 
 28 H        0.9920     2.9310     1.0080 H     1 <1>   0.0800 
 29 H        0.4340    -0.4900    -1.3100 H     1 <1>   0.0800 
 30 H        2.0590    -0.0240    -0.8760 H     1 <1>   0.0800 
 31 H       -3.4330     3.2250     2.1980 H     1 <1>   0.0800 
 32 H       -3.4910     1.6640     2.9600 H     1 <1>   0.0800 
 33 H       -4.0160    -0.4110     1.4410 H     1 <1>   0.0800 
 34 H       -4.2270    -0.1260    -0.2630 H     1 <1>   0.0800 
 35 H        2.1450     4.0580    -0.8530 H     1 <1>   0.0800 
 36 H        0.5130     3.6170    -1.2620 H     1 <1>   0.0800 
 37 H        0.1680     1.4370    -2.7370 H     1 <1>   0.0800 
 38 H        1.5910     0.5590    -3.2140 H     1 <1>   0.0800 
 39 H        3.0380     2.1580    -2.0860 H     1 <1>   0.0800 
 40 H        1.9630     3.0400    -3.1400 H     1 <1>   0.0800 
 41 H       -6.7150     0.3700     0.0240 H     1 <1>   0.1500 
 42 H       -7.4570     1.7990    -3.9910 H     1 <1>   0.1500 
 43 H       -8.1210     0.0560    -2.0570 H     1 <1>   0.1500 
@<TRIPOS>BOND
  1   1   2  2   
  2   1   3  2   
  3   1   4  am  
  4   1   5  am  
  5   4   6  1   
  6   4   7  1   
  7   5   8  1   
  8   5   9  1   
  9   6  10  1   
 10   6  23  1   
 11   6  24  1   
 12   7  11  1   
 13   7  25  1   
 14   7  26  1   
 15   8  12  1   
 16   8  27  1   
 17   8  28  1   
 18   9  13  1   
 19   9  29  1   
 20   9  30  1   
 21  10  14  1   
 22  10  31  1   
 23  10  32  1   
 24  11  14  1   
 25  11  33  1   
 26  11  34  1   
 27  12  15  1   
 28  12  35  1   
 29  12  36  1   
 30  13  15  1   
 31  13  37  1   
 32  13  38  1   
 33  14  16  am  
 34  15  39  1   
 35  15  40  1   
 36  16  17  2   
 37  16  18  1   
 38  18  19  1   
 39  18  20  2   
 40  19  21  1   
 41  20  22  1   
 42  20  41  1   
 43  21  22  2   
 44  21  42  1   
 45  22  43  1   
@<TRIPOS>SUBSTRUCTURE
  1 ****   7 GROUP 4 **** **** 0

# MOE 2024.06 (io_trps.svl 2023.06)
