@<TRIPOS>MOLECULE
NONAME
33 34 1 0 0 
SMALL
USER_CHARGES


@<TRIPOS>ATOM
  1 S       -1.6050     0.0650    -1.9200 S.3   1 <1>  -0.0800 
  2 C       -1.7420     0.8980    -0.3770 C.2   1 <1>  -0.1400 
  3 C       -0.2720     1.0900    -2.4100 C.2   1 <1>  -0.1100 
  4 C       -0.8170     1.8770    -0.2860 C.2   1 <1>  -0.1810 
  5 C       -2.8290     0.4030     0.5620 C.3   1 <1>   0.2900 
  6 C        0.0160     1.9830    -1.4460 C.2   1 <1>  -0.1500 
  7 C       -0.5910     2.8250     0.8780 C.3   1 <1>  -0.0590 
  8 N       -4.1690     0.6020    -0.0290 N.3   1 <1>  -0.8100 
  9 C       -4.4480     2.0170    -0.3520 C.3   1 <1>   0.1100 
 10 C       -5.2340     0.0030     0.7930 C.3   1 <1>   0.1100 
 11 C       -5.8100     2.1640    -1.0580 C.3   1 <1>   0.3430 
 12 C       -6.6060     0.1310     0.0980 C.3   1 <1>   0.3430 
 13 N       -6.9280     1.5600    -0.2500 N.4   1 <1>  -0.9590 
 14 C       -8.2280     1.6580    -0.9760 C.3   1 <1>   0.2630 
 15 H        0.1600     0.9130    -3.3780 H     1 <1>   0.1500 
 16 H       -2.7640     0.9180     1.5040 H     1 <1>   0.0800 
 17 H       -2.6680    -0.6460     0.7410 H     1 <1>   0.0800 
 18 H        0.7950     2.7230    -1.5040 H     1 <1>   0.1500 
 19 H       -1.2900     2.6420     1.6720 H     1 <1>   0.0800 
 20 H       -0.7040     3.8420     0.5480 H     1 <1>   0.0800 
 21 H        0.4050     2.6950     1.2620 H     1 <1>   0.0800 
 22 H       -3.6890     2.3950    -1.0170 H     1 <1>   0.0800 
 23 H       -4.4300     2.6140     0.5430 H     1 <1>   0.0800 
 24 H       -5.2680     0.4760     1.7590 H     1 <1>   0.0800 
 25 H       -5.0200    -1.0420     0.9410 H     1 <1>   0.0800 
 26 H       -5.7450     1.6700    -2.0140 H     1 <1>   0.0800 
 27 H       -6.0050     3.2080    -1.2360 H     1 <1>   0.0800 
 28 H       -7.3690    -0.2730     0.7430 H     1 <1>   0.0800 
 29 H       -6.5810    -0.4630    -0.8010 H     1 <1>   0.0800 
 30 H       -6.9880     2.0860     0.6310 H     1 <1>   0.4500 
 31 H       -8.1800     1.1120    -1.9040 H     1 <1>   0.0800 
 32 H       -8.4580     2.6890    -1.1950 H     1 <1>   0.0800 
 33 H       -9.0250     1.2490    -0.3760 H     1 <1>   0.0800 
@<TRIPOS>BOND
  1   1   2  1   
  2   1   3  1   
  3   2   4  2   
  4   2   5  1   
  5   3   6  2   
  6   3  15  1   
  7   4   6  1   
  8   4   7  1   
  9   5   8  1   
 10   5  16  1   
 11   5  17  1   
 12   6  18  1   
 13   7  19  1   
 14   7  20  1   
 15   7  21  1   
 16   8   9  1   
 17   8  10  1   
 18   9  11  1   
 19   9  22  1   
 20   9  23  1   
 21  10  12  1   
 22  10  24  1   
 23  10  25  1   
 24  11  13  1   
 25  11  26  1   
 26  11  27  1   
 27  12  13  1   
 28  12  28  1   
 29  12  29  1   
 30  13  14  1   
 31  13  30  1   
 32  14  31  1   
 33  14  32  1   
 34  14  33  1   
@<TRIPOS>SUBSTRUCTURE
  1 ****   8 GROUP 4 **** **** 0

# MOE 2024.06 (io_trps.svl 2023.06)
