@<TRIPOS>MOLECULE
NONAME
52 54 1 0 0 
SMALL
USER_CHARGES


@<TRIPOS>ATOM
  1 O       -0.0630     0.0420     0.1990 O.2   1 <1>  -0.5700 
  2 C        0.0080    -1.1720     0.1730 C.2   1 <1>   0.5440 
  3 N        1.2280    -1.7890     0.0560 N.am  1 <1>  -0.5470 
  4 C       -1.1960    -1.9800     0.2470 C.ar  1 <1>   0.0860 
  5 C        2.5620    -1.3580     0.0090 C.ar  1 <1>   0.1170 
  6 C       -2.4350    -1.4550    -0.1270 C.ar  1 <1>  -0.1500 
  7 C       -1.1760    -3.3070     0.6880 C.ar  1 <1>  -0.1500 
  8 C        3.5250    -2.3600    -0.1840 C.ar  1 <1>   0.1000 
  9 C        2.9640    -0.0360     0.1440 C.ar  1 <1>  -0.1500 
 10 C       -3.5940    -2.2080    -0.0780 C.ar  1 <1>  -0.1500 
 11 C       -2.3290    -4.0670     0.7380 C.ar  1 <1>  -0.1500 
 12 N        3.1240    -3.7040    -0.3160 N.pl3 1 <1>  -0.8380 
 13 C        4.8670    -2.0030    -0.2440 C.ar  1 <1>  -0.1500 
 14 C        4.3060     0.3020     0.0840 C.ar  1 <1>  -0.1500 
 15 C       -3.5460    -3.5290     0.3560 C.ar  1 <1>   0.0830 
 16 C        3.6320    -4.6340     0.7390 C.3   1 <1>   0.2090 
 17 C        3.3100    -4.2850    -1.6800 C.3   1 <1>   0.2090 
 18 C        5.2580    -0.6820    -0.1110 C.ar  1 <1>  -0.1500 
 19 O       -4.6250    -4.3370     0.4350 O.3   1 <1>  -0.3630 
 20 C        3.0490    -6.0460     0.5520 C.3   1 <1>   0.1200 
 21 C        2.7450    -5.7150    -1.7510 C.3   1 <1>   0.1200 
 22 C       -5.9230    -3.8810     0.1160 C.3   1 <1>   0.1200 
 23 O        3.2920    -6.5220    -0.7440 O.3   1 <1>  -0.5600 
 24 C       -6.9350    -5.0120     0.3510 C.3   1 <1>  -0.0800 
 25 C       -8.3400    -4.5610    -0.0700 C.3   1 <1>  -0.2400 
 26 C       -6.9550    -5.4620     1.8190 C.3   1 <1>  -0.2400 
 27 H        1.2140    -2.8040    -0.0680 H     1 <1>   0.3700 
 28 H       -2.4820    -0.4330    -0.4630 H     1 <1>   0.1500 
 29 H       -0.2510    -3.7540     1.0060 H     1 <1>   0.1500 
 30 H        2.2350     0.7370     0.2960 H     1 <1>   0.1500 
 31 H       -4.5180    -1.7530    -0.3800 H     1 <1>   0.1500 
 32 H       -2.2990    -5.0870     1.0790 H     1 <1>   0.1500 
 33 H        5.6100    -2.7630    -0.3980 H     1 <1>   0.1500 
 34 H        4.6030     1.3310     0.1890 H     1 <1>   0.1500 
 35 H        3.3570    -4.2550     1.7080 H     1 <1>   0.0800 
 36 H        4.7060    -4.6890     0.6940 H     1 <1>   0.0800 
 37 H        4.3570    -4.3060    -1.9290 H     1 <1>   0.0800 
 38 H        2.8080    -3.6630    -2.4020 H     1 <1>   0.0800 
 39 H        6.3000    -0.4200    -0.1590 H     1 <1>   0.1500 
 40 H        1.9870    -6.0400     0.7230 H     1 <1>   0.0800 
 41 H        3.5070    -6.7300     1.2440 H     1 <1>   0.0800 
 42 H        2.9870    -6.1630    -2.6980 H     1 <1>   0.0800 
 43 H        1.6750    -5.7020    -1.6380 H     1 <1>   0.0800 
 44 H       -5.9260    -3.5820    -0.9180 H     1 <1>   0.0800 
 45 H       -6.1490    -3.0370     0.7450 H     1 <1>   0.0800 
 46 H       -6.6530    -5.8480    -0.2670 H     1 <1>   0.0800 
 47 H       -8.6640    -3.7230     0.5230 H     1 <1>   0.0800 
 48 H       -9.0430    -5.3650     0.0600 H     1 <1>   0.0800 
 49 H       -8.3460    -4.2730    -1.1070 H     1 <1>   0.0800 
 50 H       -7.2220    -4.6440     2.4640 H     1 <1>   0.0800 
 51 H       -5.9860    -5.8260     2.1120 H     1 <1>   0.0800 
 52 H       -7.6670    -6.2570     1.9580 H     1 <1>   0.0800 
@<TRIPOS>BOND
  1   1   2  2   
  2   2   3  am  
  3   2   4  1   
  4   3   5  1   
  5   3  27  1   
  6   4   6  ar  
  7   4   7  ar  
  8   5   8  ar  
  9   5   9  ar  
 10   6  10  ar  
 11   6  28  1   
 12   7  11  ar  
 13   7  29  1   
 14   8  12  1   
 15   8  13  ar  
 16   9  14  ar  
 17   9  30  1   
 18  10  15  ar  
 19  10  31  1   
 20  11  15  ar  
 21  11  32  1   
 22  12  16  1   
 23  12  17  1   
 24  13  18  ar  
 25  13  33  1   
 26  14  18  ar  
 27  14  34  1   
 28  15  19  1   
 29  16  20  1   
 30  16  35  1   
 31  16  36  1   
 32  17  21  1   
 33  17  37  1   
 34  17  38  1   
 35  18  39  1   
 36  19  22  1   
 37  20  23  1   
 38  20  40  1   
 39  20  41  1   
 40  21  23  1   
 41  21  42  1   
 42  21  43  1   
 43  22  24  1   
 44  22  44  1   
 45  22  45  1   
 46  24  25  1   
 47  24  26  1   
 48  24  46  1   
 49  25  47  1   
 50  25  48  1   
 51  25  49  1   
 52  26  50  1   
 53  26  51  1   
 54  26  52  1   
@<TRIPOS>SUBSTRUCTURE
  1 ****   7 GROUP 4 **** **** 0

# MOE 2024.06 (io_trps.svl 2023.06)
