@<TRIPOS>MOLECULE
NONAME
35 36 1 0 0 
SMALL
USER_CHARGES


@<TRIPOS>ATOM
  1 CL       2.3910    -0.2490     3.5700 Cl    1 <1>  -0.1770 
  2 C        2.9570    -0.7110     1.9870 C.ar  1 <1>   0.1770 
  3 C        4.2360    -0.3660     1.6000 C.ar  1 <1>  -0.1500 
  4 C        2.1160    -1.4150     1.1490 C.ar  1 <1>  -0.1500 
  5 C        4.7210    -0.7270     0.3420 C.ar  1 <1>   0.0860 
  6 C        2.5720    -1.7750    -0.1070 C.ar  1 <1>  -0.1500 
  7 C        6.0730    -0.3750    -0.0590 C.2   1 <1>   0.5440 
  8 C        3.8550    -1.4310    -0.5010 C.ar  1 <1>  -0.1500 
  9 O        6.6480     0.5750     0.4370 O.2   1 <1>  -0.5700 
 10 N        6.7640    -1.1200    -0.9750 N.am  1 <1>  -0.7300 
 11 C        7.9850    -0.6940    -1.7280 C.3   1 <1>   0.1400 
 12 C        9.2860    -0.9100    -0.9260 C.3   1 <1>   0.3430 
 13 N        9.3160    -0.0610     0.2980 N.4   1 <1>  -0.9590 
 14 C        9.7410     1.3380     0.0790 C.3   1 <1>   0.3430 
 15 C       10.1220    -0.5890     1.4170 C.3   1 <1>   0.3430 
 16 C       10.0350     1.8530     1.4790 C.3   1 <1>  -0.1600 
 17 C       10.3570     0.6140     2.3220 C.3   1 <1>  -0.1600 
 18 H        4.8570     0.1880     2.2810 H     1 <1>   0.1500 
 19 H        1.1240    -1.6720     1.4750 H     1 <1>   0.1500 
 20 H        1.9250    -2.3190    -0.7750 H     1 <1>   0.1500 
 21 H        4.1770    -1.7110    -1.4880 H     1 <1>   0.1500 
 22 H        6.3060    -1.9650    -1.3330 H     1 <1>   0.3700 
 23 H        7.8940     0.3450    -1.9970 H     1 <1>   0.0800 
 24 H        8.0400    -1.2610    -2.6410 H     1 <1>   0.0800 
 25 H       10.1380    -0.6830    -1.5460 H     1 <1>   0.0800 
 26 H        9.3420    -1.9490    -0.6490 H     1 <1>   0.0800 
 27 H        8.3260     0.0180     0.6190 H     1 <1>   0.4500 
 28 H        8.9660     1.9170    -0.4010 H     1 <1>   0.0800 
 29 H       10.6400     1.3630    -0.5150 H     1 <1>   0.0800 
 30 H       11.0680    -0.9530     1.0490 H     1 <1>   0.0800 
 31 H        9.6070    -1.3820     1.9360 H     1 <1>   0.0800 
 32 H        9.1590     2.3460     1.8650 H     1 <1>   0.0800 
 33 H       10.8480     2.5580     1.4660 H     1 <1>   0.0800 
 34 H       11.3760     0.6240     2.6680 H     1 <1>   0.0800 
 35 H        9.7060     0.5630     3.1780 H     1 <1>   0.0800 
@<TRIPOS>BOND
  1   1   2  1   
  2   2   3  ar  
  3   2   4  ar  
  4   3   5  ar  
  5   3  18  1   
  6   4   6  ar  
  7   4  19  1   
  8   5   7  1   
  9   5   8  ar  
 10   6   8  ar  
 11   6  20  1   
 12   7   9  2   
 13   7  10  am  
 14   8  21  1   
 15  10  11  1   
 16  10  22  1   
 17  11  12  1   
 18  11  23  1   
 19  11  24  1   
 20  12  13  1   
 21  12  25  1   
 22  12  26  1   
 23  13  14  1   
 24  13  15  1   
 25  13  27  1   
 26  14  16  1   
 27  14  28  1   
 28  14  29  1   
 29  15  17  1   
 30  15  30  1   
 31  15  31  1   
 32  16  17  1   
 33  16  32  1   
 34  16  33  1   
 35  17  34  1   
 36  17  35  1   
@<TRIPOS>SUBSTRUCTURE
  1 ****   7 GROUP 4 **** **** 0

# MOE 2024.06 (io_trps.svl 2023.06)
