@<TRIPOS>MOLECULE
NONAME
38 39 1 0 0 
SMALL
USER_CHARGES


@<TRIPOS>ATOM
  1 BR       0.0030     0.2290     0.2860 Br    1 <1>  -0.1110 
  2 C        1.9070     0.2460     0.0120 C.ar  1 <1>   0.1110 
  3 C        2.7200    -0.3660     0.9450 C.ar  1 <1>  -0.1500 
  4 C        2.4130     0.8680    -1.1110 C.ar  1 <1>  -0.1500 
  5 C        4.0890    -0.3480     0.7420 C.ar  1 <1>  -0.1500 
  6 C        3.7850     0.8790    -1.3010 C.ar  1 <1>  -0.1500 
  7 C        4.6340     0.2780    -0.3760 C.ar  1 <1>  -0.1430 
  8 C        6.1490     0.3060    -0.6100 C.3   1 <1>   0.3440 
  9 O        6.6900    -0.9390    -0.2090 O.3   1 <1>  -0.4300 
 10 C        6.9070     1.4950     0.0630 C.3   1 <1>   0.1380 
 11 C        7.9990    -1.1530    -0.3070 C.2   1 <1>   0.7060 
 12 C        8.4110     1.2390    -0.1210 C.2   1 <1>  -0.0610 
 13 C        6.6120     1.5990     1.5720 C.3   1 <1>  -0.2400 
 14 C        6.4940     2.8210    -0.6080 C.3   1 <1>  -0.2400 
 15 O        8.3690    -2.3010    -0.3960 O.2   1 <1>  -0.5700 
 16 C        8.8830    -0.0140    -0.3100 C.2   1 <1>  -0.1240 
 17 O        9.1960     2.3350    -0.0720 O.3   1 <1>  -0.2270 
 18 C       10.3680    -0.3180    -0.5110 C.3   1 <1>  -0.1020 
 19 C        9.9090     2.6820     1.0010 C.2   1 <1>   0.6590 
 20 O        9.9240     2.0390     2.0170 O.2   1 <1>  -0.5700 
 21 C       10.7100     3.9510     0.8640 C.3   1 <1>  -0.1790 
 22 H        2.2930    -0.8460     1.8070 H     1 <1>   0.1500 
 23 H        1.7480     1.3310    -1.8190 H     1 <1>   0.1500 
 24 H        4.7330    -0.8280     1.4600 H     1 <1>   0.1500 
 25 H        4.1860     1.3590    -2.1770 H     1 <1>   0.1500 
 26 H        6.3170     0.3650    -1.6710 H     1 <1>   0.0800 
 27 H        7.1830     2.3950     2.0150 H     1 <1>   0.0800 
 28 H        5.5710     1.7990     1.7490 H     1 <1>   0.0800 
 29 H        6.8770     0.6830     2.0690 H     1 <1>   0.0800 
 30 H        5.4370     2.9900    -0.4980 H     1 <1>   0.0800 
 31 H        7.0030     3.6540    -0.1570 H     1 <1>   0.0800 
 32 H        6.7340     2.8040    -1.6560 H     1 <1>   0.0800 
 33 H       10.5060    -0.9000    -1.4050 H     1 <1>   0.0800 
 34 H       10.7350    -0.8860     0.3250 H     1 <1>   0.0800 
 35 H       10.9560     0.5760    -0.5990 H     1 <1>   0.0800 
 36 H       10.0500     4.7750     0.6670 H     1 <1>   0.0800 
 37 H       11.4090     3.8520     0.0560 H     1 <1>   0.0800 
 38 H       11.2480     4.1410     1.7750 H     1 <1>   0.0800 
@<TRIPOS>BOND
  1   1   2  1   
  2   2   3  ar  
  3   2   4  ar  
  4   3   5  ar  
  5   3  22  1   
  6   4   6  ar  
  7   4  23  1   
  8   5   7  ar  
  9   5  24  1   
 10   6   7  ar  
 11   6  25  1   
 12   7   8  1   
 13   8   9  1   
 14   8  10  1   
 15   8  26  1   
 16   9  11  1   
 17  10  12  1   
 18  10  13  1   
 19  10  14  1   
 20  11  15  2   
 21  11  16  1   
 22  12  16  2   
 23  12  17  1   
 24  13  27  1   
 25  13  28  1   
 26  13  29  1   
 27  14  30  1   
 28  14  31  1   
 29  14  32  1   
 30  16  18  1   
 31  17  19  1   
 32  18  33  1   
 33  18  34  1   
 34  18  35  1   
 35  19  20  2   
 36  19  21  1   
 37  21  36  1   
 38  21  37  1   
 39  21  38  1   
@<TRIPOS>SUBSTRUCTURE
  1 ****  10 GROUP 4 **** **** 0

# MOE 2024.06 (io_trps.svl 2023.06)
