@<TRIPOS>MOLECULE
NONAME
43 44 1 0 0 
SMALL
USER_CHARGES


@<TRIPOS>ATOM
  1 O        0.8800    -3.5880     1.5220 O.2   1 <1>  -0.5700 
  2 C        0.2560    -3.0550     0.6180 C.2   1 <1>   0.5440 
  3 N        1.0260    -2.4730    -0.3580 N.am  1 <1>  -0.6600 
  4 C       -1.1940    -3.1350     0.5590 C.ar  1 <1>   0.0860 
  5 C        1.6150    -3.3020    -1.4500 C.3   1 <1>   0.1400 
  6 C        1.6490    -1.1450    -0.1310 C.3   1 <1>   0.1400 
  7 C       -2.0190    -2.1560    -0.0250 C.ar  1 <1>   0.0830 
  8 C       -1.8250    -4.2540     1.1130 C.ar  1 <1>  -0.1500 
  9 C        2.7910    -4.1740    -0.9580 C.3   1 <1>   0.3430 
 10 C        2.9460    -1.2550     0.6840 C.3   1 <1>  -0.1600 
 11 O       -1.4430    -1.0380    -0.5350 O.3   1 <1>  -0.3630 
 12 C       -3.4000    -2.3330    -0.0610 C.ar  1 <1>  -0.1500 
 13 C       -3.1940    -4.4220     1.0810 C.ar  1 <1>  -0.1500 
 14 N        3.4150    -3.6440     0.2970 N.4   1 <1>  -0.9590 
 15 C        3.9640    -2.2700     0.1570 C.3   1 <1>   0.3430 
 16 C       -2.1910     0.0200    -1.0970 C.3   1 <1>   0.0400 
 17 C       -3.9940    -3.4550     0.4830 C.ar  1 <1>   0.0830 
 18 C        4.3770    -4.6010     0.9100 C.3   1 <1>   0.2630 
 19 O       -5.3420    -3.5380     0.4010 O.3   1 <1>  -0.3620 
 20 C       -6.0550    -4.6280     0.9410 C.3   1 <1>   0.0400 
 21 H        1.9530    -2.6580    -2.2430 H     1 <1>   0.0800 
 22 H        0.8520    -3.9390    -1.8650 H     1 <1>   0.0800 
 23 H        0.9520    -0.5190     0.4020 H     1 <1>   0.0800 
 24 H        1.8410    -0.6760    -1.0810 H     1 <1>   0.0800 
 25 H       -1.2220    -5.0120     1.5840 H     1 <1>   0.1500 
 26 H        3.5280    -4.2620    -1.7380 H     1 <1>   0.0800 
 27 H        2.4070    -5.1610    -0.7600 H     1 <1>   0.0800 
 28 H        2.7050    -1.4860     1.7070 H     1 <1>   0.0800 
 29 H        3.4110    -0.2860     0.6900 H     1 <1>   0.0800 
 30 H       -4.0530    -1.6080    -0.5070 H     1 <1>   0.1500 
 31 H       -3.6220    -5.3030     1.5220 H     1 <1>   0.1500 
 32 H        2.5930    -3.5450     0.9410 H     1 <1>   0.4500 
 33 H        4.8680    -2.1820     0.7380 H     1 <1>   0.0800 
 34 H        4.2030    -2.0630    -0.8730 H     1 <1>   0.0800 
 35 H       -1.5070     0.7880    -1.4080 H     1 <1>   0.0800 
 36 H       -2.8610     0.4100    -0.3510 H     1 <1>   0.0800 
 37 H       -2.7360    -0.3490    -1.9480 H     1 <1>   0.0800 
 38 H        5.2280    -4.7450     0.2640 H     1 <1>   0.0800 
 39 H        3.8990    -5.5530     1.0750 H     1 <1>   0.0800 
 40 H        4.7200    -4.2250     1.8600 H     1 <1>   0.0800 
 41 H       -7.1020    -4.4660     0.7580 H     1 <1>   0.0800 
 42 H       -5.8730    -4.6740     2.0010 H     1 <1>   0.0800 
 43 H       -5.7350    -5.5320     0.4540 H     1 <1>   0.0800 
@<TRIPOS>BOND
  1   1   2  2   
  2   2   3  am  
  3   2   4  1   
  4   3   5  1   
  5   3   6  1   
  6   4   7  ar  
  7   4   8  ar  
  8   5   9  1   
  9   5  21  1   
 10   5  22  1   
 11   6  10  1   
 12   6  23  1   
 13   6  24  1   
 14   7  11  1   
 15   7  12  ar  
 16   8  13  ar  
 17   8  25  1   
 18   9  14  1   
 19   9  26  1   
 20   9  27  1   
 21  10  15  1   
 22  10  28  1   
 23  10  29  1   
 24  11  16  1   
 25  12  17  ar  
 26  12  30  1   
 27  13  17  ar  
 28  13  31  1   
 29  14  15  1   
 30  14  18  1   
 31  14  32  1   
 32  15  33  1   
 33  15  34  1   
 34  16  35  1   
 35  16  36  1   
 36  16  37  1   
 37  17  19  1   
 38  18  38  1   
 39  18  39  1   
 40  18  40  1   
 41  19  20  1   
 42  20  41  1   
 43  20  42  1   
 44  20  43  1   
@<TRIPOS>SUBSTRUCTURE
  1 ****   2 GROUP 4 **** **** 0

# MOE 2024.06 (io_trps.svl 2023.06)
