@<TRIPOS>MOLECULE
NONAME
51 52 1 0 0 
SMALL
USER_CHARGES


@<TRIPOS>ATOM
  1 O        0.2760     1.0780     2.6720 O.2   1 <1>  -0.5700 
  2 C       -0.0820     1.7650     1.7440 C.2   1 <1>   0.5690 
  3 N        0.7530     2.0100     0.6960 N.am  1 <1>  -0.7300 
  4 C       -1.4970     2.3610     1.7450 C.3   1 <1>   0.2610 
  5 C        2.1240     1.4980     0.5970 C.3   1 <1>   0.2200 
  6 O       -1.8510     2.7530     0.4220 O.3   1 <1>  -0.3630 
  7 C       -1.5910     3.5940     2.6560 C.3   1 <1>  -0.2400 
  8 C        2.9910     2.5010    -0.1540 C.3   1 <1>  -0.1600 
  9 C        2.1030     0.1720    -0.1530 C.3   1 <1>  -0.1600 
 10 C       -3.1370     2.9070     0.0130 C.ar  1 <1>   0.0830 
 11 C        4.4280     1.9920    -0.3310 C.3   1 <1>   0.5030 
 12 C        3.5100    -0.4110    -0.3250 C.3   1 <1>   0.5030 
 13 C       -4.2510     2.6340     0.8030 C.ar  1 <1>  -0.1500 
 14 C       -3.3210     3.3670    -1.2820 C.ar  1 <1>  -0.1500 
 15 N        4.4510     0.6050    -0.8300 N.4   1 <1>  -0.9060 
 16 C        5.2390     2.0960     0.9630 C.3   1 <1>  -0.2400 
 17 C        5.1340     2.8230    -1.4010 C.3   1 <1>  -0.2400 
 18 C        4.0430    -1.0220     0.9740 C.3   1 <1>  -0.2400 
 19 C        3.4810    -1.5070    -1.3880 C.3   1 <1>  -0.2400 
 20 C       -5.5250     2.8210     0.2940 C.ar  1 <1>  -0.1500 
 21 C       -4.5950     3.5530    -1.7890 C.ar  1 <1>  -0.1500 
 22 C       -5.6980     3.2790    -1.0000 C.ar  1 <1>  -0.1500 
 23 H        0.3640     2.5340    -0.0930 H     1 <1>   0.3700 
 24 H       -2.1680     1.5870     2.0680 H     1 <1>   0.0800 
 25 H        2.5050     1.3540     1.5940 H     1 <1>   0.0800 
 26 H       -0.9080     4.3540     2.3220 H     1 <1>   0.0800 
 27 H       -1.3290     3.3190     3.6620 H     1 <1>   0.0800 
 28 H       -2.5900     3.9910     2.6630 H     1 <1>   0.0800 
 29 H        3.0060     3.4320     0.3860 H     1 <1>   0.0800 
 30 H        2.5540     2.6910    -1.1190 H     1 <1>   0.0800 
 31 H        1.6480     0.3180    -1.1170 H     1 <1>   0.0800 
 32 H        1.4920    -0.5300     0.3890 H     1 <1>   0.0800 
 33 H       -4.1570     2.2790     1.8110 H     1 <1>   0.1500 
 34 H       -2.4630     3.5800    -1.8930 H     1 <1>   0.1500 
 35 H        5.3980     0.2420    -0.7080 H     1 <1>   0.4500 
 36 H        4.2940     0.6600    -1.8370 H     1 <1>   0.4500 
 37 H        4.7400     1.6500     1.7990 H     1 <1>   0.0800 
 38 H        5.3850     3.1320     1.2150 H     1 <1>   0.0800 
 39 H        6.2120     1.6500     0.8520 H     1 <1>   0.0800 
 40 H        4.6220     2.7660    -2.3450 H     1 <1>   0.0800 
 41 H        6.1530     2.5030    -1.5330 H     1 <1>   0.0800 
 42 H        5.1550     3.8580    -1.1060 H     1 <1>   0.0800 
 43 H        3.9620    -0.3550     1.8070 H     1 <1>   0.0800 
 44 H        5.0650    -1.3390     0.8680 H     1 <1>   0.0800 
 45 H        3.4590    -1.8910     1.2280 H     1 <1>   0.0800 
 46 H        3.1370    -1.1290    -2.3350 H     1 <1>   0.0800 
 47 H        2.8040    -2.2890    -1.0880 H     1 <1>   0.0800 
 48 H        4.4530    -1.9510    -1.5180 H     1 <1>   0.0800 
 49 H       -6.3850     2.6100     0.9060 H     1 <1>   0.1500 
 50 H       -4.7270     3.9090    -2.7960 H     1 <1>   0.1500 
 51 H       -6.6900     3.4230    -1.3930 H     1 <1>   0.1500 
@<TRIPOS>BOND
  1   1   2  2   
  2   2   3  am  
  3   2   4  1   
  4   3   5  1   
  5   3  23  1   
  6   4   6  1   
  7   4   7  1   
  8   4  24  1   
  9   5   8  1   
 10   5   9  1   
 11   5  25  1   
 12   6  10  1   
 13   7  26  1   
 14   7  27  1   
 15   7  28  1   
 16   8  11  1   
 17   8  29  1   
 18   8  30  1   
 19   9  12  1   
 20   9  31  1   
 21   9  32  1   
 22  10  13  ar  
 23  10  14  ar  
 24  11  15  1   
 25  11  16  1   
 26  11  17  1   
 27  12  15  1   
 28  12  18  1   
 29  12  19  1   
 30  13  20  ar  
 31  13  33  1   
 32  14  21  ar  
 33  14  34  1   
 34  15  35  1   
 35  15  36  1   
 36  16  37  1   
 37  16  38  1   
 38  16  39  1   
 39  17  40  1   
 40  17  41  1   
 41  17  42  1   
 42  18  43  1   
 43  18  44  1   
 44  18  45  1   
 45  19  46  1   
 46  19  47  1   
 47  19  48  1   
 48  20  22  ar  
 49  20  49  1   
 50  21  22  ar  
 51  21  50  1   
 52  22  51  1   
@<TRIPOS>SUBSTRUCTURE
  1 ****   3 GROUP 4 **** **** 0

# MOE 2024.06 (io_trps.svl 2023.06)
