@<TRIPOS>MOLECULE
NONAME
44 46 1 0 0 
SMALL
USER_CHARGES


@<TRIPOS>ATOM
  1 O        1.0660     0.3430     1.2820 O.2   1 <1>  -0.5750 
  2 C        2.0410     0.9280     0.8720 C.2   1 <1>   0.6860 
  3 N        3.2630     0.2970     0.6880 N.am  1 <1>  -0.4420 
  4 N        1.9270     2.2570     0.5820 N.am  1 <1>  -0.4960 
  5 C        4.3200     1.0660     0.2230 C.2   1 <1>   0.4200 
  6 C        3.4370    -1.1540     0.9900 C.3   1 <1>   0.0510 
  7 C        2.9550     3.0240     0.1140 C.2   1 <1>   0.6990 
  8 N        5.5910     0.6620    -0.0310 N.pl3 1 <1>  -0.7040 
  9 C        4.2280     2.3850    -0.0570 C.2   1 <1>   0.2690 
 10 O        2.7460     4.1910    -0.1460 O.2   1 <1>  -0.5750 
 11 C        6.3010     1.7130    -0.4450 C.cat 1 <1>   1.0680 
 12 N        5.5060     2.7910    -0.4860 N.pl3 1 <1>  -0.7680 
 13 N        7.6090     1.6130    -0.7610 N.pl3 1 <1>  -0.5970 
 14 C        5.7650     4.1470    -1.0210 C.3   1 <1>   0.4860 
 15 C        8.2280     0.3360    -1.2260 C.3   1 <1>   0.1590 
 16 C        8.6220     2.6640    -0.4580 C.3   1 <1>   0.1590 
 17 C        5.9690     5.0970     0.1420 C.2   1 <1>  -0.2960 
 18 C        9.1610    -0.2240    -0.1440 C.3   1 <1>  -0.0890 
 19 C        9.5970     2.1520     0.6080 C.3   1 <1>  -0.1680 
 20 C        7.0380     5.8740     0.3540 C.2   1 <1>  -0.3070 
 21 C       10.2370     0.8130     0.2160 C.3   1 <1>  -0.1680 
 22 C        9.8150    -1.5270    -0.6160 C.3   1 <1>  -0.2480 
 23 H        1.0160     2.6900     0.7180 H     1 <1>   0.3630 
 24 H        2.4990    -1.6030     1.2710 H     1 <1>   0.0710 
 25 H        4.1280    -1.2760     1.8060 H     1 <1>   0.0710 
 26 H        3.8100    -1.6670     0.1220 H     1 <1>   0.0710 
 27 H        5.9870    -0.2600     0.1260 H     1 <1>   0.4440 
 28 H        4.9230     4.4740    -1.6080 H     1 <1>   0.0710 
 29 H        6.6300     4.1420    -1.6620 H     1 <1>   0.0710 
 30 H        8.7970     0.5310    -2.1210 H     1 <1>   0.0710 
 31 H        7.4740    -0.3900    -1.4760 H     1 <1>   0.0710 
 32 H        8.1550     3.5510    -0.0790 H     1 <1>   0.0710 
 33 H        9.1590     2.9140    -1.3570 H     1 <1>   0.0710 
 34 H        5.1270     5.1080     0.8130 H     1 <1>   0.1410 
 35 H        8.5820    -0.4440     0.7370 H     1 <1>   0.0710 
 36 H        9.0750     2.0420     1.5430 H     1 <1>   0.0710 
 37 H       10.3720     2.8830     0.7590 H     1 <1>   0.0710 
 38 H        7.1300     6.5400     1.1970 H     1 <1>   0.1410 
 39 H        7.9060     5.9270    -0.2820 H     1 <1>   0.1410 
 40 H       10.8880     0.9670    -0.6280 H     1 <1>   0.0710 
 41 H       10.8390     0.4490     1.0320 H     1 <1>   0.0710 
 42 H       10.4110    -1.3600    -1.4960 H     1 <1>   0.0710 
 43 H        9.0680    -2.2670    -0.8430 H     1 <1>   0.0710 
 44 H       10.4550    -1.9220     0.1550 H     1 <1>   0.0710 
@<TRIPOS>BOND
  1   1   2  2   
  2   2   3  am  
  3   2   4  am  
  4   3   5  1   
  5   3   6  1   
  6   4   7  am  
  7   4  23  1   
  8   5   8  1   
  9   5   9  2   
 10   6  24  1   
 11   6  25  1   
 12   6  26  1   
 13   7   9  1   
 14   7  10  2   
 15   8  11  ar  
 16   8  27  1   
 17   9  12  1   
 18  11  12  ar  
 19  11  13  ar  
 20  12  14  1   
 21  13  15  1   
 22  13  16  1   
 23  14  17  1   
 24  14  28  1   
 25  14  29  1   
 26  15  18  1   
 27  15  30  1   
 28  15  31  1   
 29  16  19  1   
 30  16  32  1   
 31  16  33  1   
 32  17  20  2   
 33  17  34  1   
 34  18  21  1   
 35  18  22  1   
 36  18  35  1   
 37  19  21  1   
 38  19  36  1   
 39  19  37  1   
 40  20  38  1   
 41  20  39  1   
 42  21  40  1   
 43  21  41  1   
 44  22  42  1   
 45  22  43  1   
 46  22  44  1   
@<TRIPOS>SUBSTRUCTURE
  1 ****  11 GROUP 4 **** **** 0

# MOE 2024.06 (io_trps.svl 2023.06)
