@<TRIPOS>MOLECULE
NONAME
33 35 1 0 0 
SMALL
USER_CHARGES


@<TRIPOS>ATOM
  1 I        0.9710     0.2430     0.9480 I     1 <1>  -0.0810 
  2 C        0.2730     2.2170     0.5570 C.ar  1 <1>   0.0810 
  3 C        0.6450     2.8320    -0.6240 C.ar  1 <1>  -0.1500 
  4 C       -0.5350     2.8350     1.4950 C.ar  1 <1>  -0.1500 
  5 C        0.1850     4.1150    -0.8680 C.ar  1 <1>  -0.1500 
  6 C       -0.9850     4.1170     1.2310 C.ar  1 <1>  -0.1500 
  7 C       -0.6300     4.7690     0.0510 C.ar  1 <1>   0.1170 
  8 N       -1.0690     6.0580    -0.2680 N.am  1 <1>  -0.5470 
  9 C       -1.3520     7.1390     0.5160 C.2   1 <1>   0.5690 
 10 O       -1.3170     7.0690     1.7250 O.2   1 <1>  -0.5700 
 11 C       -1.8240     8.4560    -0.1320 C.3   1 <1>  -0.0190 
 12 C       -1.1360     8.9810    -1.4510 C.3   1 <1>  -0.1860 
 13 C       -1.6540     9.6670     0.8210 C.3   1 <1>   0.0580 
 14 C       -0.0480     8.1170    -2.0570 C.2   1 <1>   0.9060 
 15 C       -0.6370    10.3870    -1.0560 C.3   1 <1>   0.0580 
 16 C       -2.4860    10.8040     0.2510 C.2   1 <1>  -0.2880 
 17 C       -0.2730    10.1640     0.4080 C.3   1 <1>  -0.1600 
 18 O        1.1430     8.3840    -1.8910 O.co2 1 <1>  -0.9000 
 19 O       -0.4120     7.1150    -2.6840 O.co2 1 <1>  -0.9000 
 20 C       -1.8820    11.2310    -0.8550 C.2   1 <1>  -0.2880 
 21 H        1.2760     2.3320    -1.3360 H     1 <1>   0.1500 
 22 H       -0.8070     2.3330     2.4050 H     1 <1>   0.1500 
 23 H        0.4600     4.6290    -1.7750 H     1 <1>   0.1500 
 24 H       -1.6150     4.6200     1.9420 H     1 <1>   0.1500 
 25 H       -0.9320     6.2960    -1.2700 H     1 <1>   0.3700 
 26 H       -2.8720     8.3250    -0.3250 H     1 <1>   0.0800 
 27 H       -1.8810     9.0880    -2.2180 H     1 <1>   0.0800 
 28 H       -1.7810     9.5030     1.8770 H     1 <1>   0.0800 
 29 H        0.1390    10.8220    -1.6640 H     1 <1>   0.0800 
 30 H       -3.3970    11.1140     0.7300 H     1 <1>   0.1500 
 31 H        0.5020     9.4270     0.5390 H     1 <1>   0.0800 
 32 H       -0.0020    11.0800     0.9020 H     1 <1>   0.0800 
 33 H       -2.1440    11.9970    -1.5630 H     1 <1>   0.1500 
@<TRIPOS>BOND
  1   1   2  1   
  2   2   3  ar  
  3   2   4  ar  
  4   3   5  ar  
  5   3  21  1   
  6   4   6  ar  
  7   4  22  1   
  8   5   7  ar  
  9   5  23  1   
 10   6   7  ar  
 11   6  24  1   
 12   7   8  1   
 13   8   9  am  
 14   8  25  1   
 15   9  10  2   
 16   9  11  1   
 17  11  12  1   
 18  11  13  1   
 19  11  26  1   
 20  12  14  1   
 21  12  15  1   
 22  12  27  1   
 23  13  16  1   
 24  13  17  1   
 25  13  28  1   
 26  14  18  ar  
 27  14  19  ar  
 28  15  17  1   
 29  15  20  1   
 30  15  29  1   
 31  16  20  2   
 32  16  30  1   
 33  17  31  1   
 34  17  32  1   
 35  20  33  1   
@<TRIPOS>SUBSTRUCTURE
  1 ****   8 GROUP 4 **** **** 0

# MOE 2024.06 (io_trps.svl 2023.06)
