@<TRIPOS>MOLECULE
NONAME
36 38 1 0 0 
SMALL
USER_CHARGES


@<TRIPOS>ATOM
  1 O       -0.0390     0.6110     0.9590 O.3   1 <1>  -0.6800 
  2 C       -1.0510    -0.1390     0.4040 C.3   1 <1>   0.4240 
  3 C       -0.4250    -1.4380    -0.1390 C.ar  1 <1>  -0.1440 
  4 C       -1.6130     0.6890    -0.8130 C.3   1 <1>  -0.1600 
  5 C       -2.0460    -0.3820     1.5930 C.3   1 <1>  -0.1600 
  6 C        0.9070    -1.4800    -0.5480 C.ar  1 <1>  -0.1500 
  7 C       -1.1840    -2.5970    -0.2800 C.ar  1 <1>  -0.1500 
  8 C       -3.0490     1.2820    -0.6980 C.3   1 <1>   0.4230 
  9 C       -3.4350    -0.0210     1.0960 C.3   1 <1>   0.4230 
 10 C        1.4660    -2.6440    -1.0460 C.ar  1 <1>  -0.1500 
 11 C       -0.6270    -3.7620    -0.7780 C.ar  1 <1>  -0.1500 
 12 N       -3.3590     1.4170     0.7140 N.4   1 <1>  -0.9590 
 13 C       -4.2140     0.3360    -1.0900 C.3   1 <1>  -0.1600 
 14 C       -4.6520    -0.3290     0.2480 C.3   1 <1>  -0.1600 
 15 C        0.7010    -3.7880    -1.1590 C.ar  1 <1>  -0.1500 
 16 C       -2.5430     2.4280     1.4800 C.3   1 <1>   0.2630 
 17 H        0.6080    -0.0060     1.3590 H     1 <1>   0.4000 
 18 H       -1.5890     0.0760    -1.6960 H     1 <1>   0.0800 
 19 H       -0.9400     1.5020    -1.0230 H     1 <1>   0.0800 
 20 H       -2.0400    -1.4130     1.8950 H     1 <1>   0.0800 
 21 H       -1.7950     0.1810     2.4740 H     1 <1>   0.0800 
 22 H        1.5360    -0.6070    -0.4980 H     1 <1>   0.1500 
 23 H       -2.2230    -2.6260    -0.0110 H     1 <1>   0.1500 
 24 H       -3.1220     2.2220    -1.2220 H     1 <1>   0.0800 
 25 H       -3.0510    -0.6530     0.3180 H     1 <1>   0.0800 
 26 H        2.4990    -2.6590    -1.3510 H     1 <1>   0.1500 
 27 H       -1.2240    -4.6520    -0.8730 H     1 <1>   0.1500 
 28 H       -4.3290     1.7510     0.7540 H     1 <1>   0.4500 
 29 H       -3.8870    -0.3930    -1.8120 H     1 <1>   0.0800 
 30 H       -5.0270     0.8950    -1.5220 H     1 <1>   0.0800 
 31 H       -5.5390     0.1230     0.6590 H     1 <1>   0.0800 
 32 H       -4.8150    -1.3890     0.1430 H     1 <1>   0.0800 
 33 H        1.1360    -4.6940    -1.5450 H     1 <1>   0.1500 
 34 H       -1.4900     2.2360     1.3840 H     1 <1>   0.0800 
 35 H       -2.8030     2.3990     2.5260 H     1 <1>   0.0800 
 36 H       -2.7360     3.4200     1.1060 H     1 <1>   0.0800 
@<TRIPOS>BOND
  1   1   2  1   
  2   1  17  1   
  3   2   3  1   
  4   2   4  1   
  5   2   5  1   
  6   3   6  ar  
  7   3   7  ar  
  8   4   8  1   
  9   4  18  1   
 10   4  19  1   
 11   5   9  1   
 12   5  20  1   
 13   5  21  1   
 14   6  10  ar  
 15   6  22  1   
 16   7  11  ar  
 17   7  23  1   
 18   8  12  1   
 19   8  13  1   
 20   8  24  1   
 21   9  12  1   
 22   9  14  1   
 23   9  25  1   
 24  10  15  ar  
 25  10  26  1   
 26  11  15  ar  
 27  11  27  1   
 28  12  16  1   
 29  12  28  1   
 30  13  14  1   
 31  13  29  1   
 32  13  30  1   
 33  14  31  1   
 34  14  32  1   
 35  15  33  1   
 36  16  34  1   
 37  16  35  1   
 38  16  36  1   
@<TRIPOS>SUBSTRUCTURE
  1 ****   2 GROUP 4 **** **** 0

# MOE 2024.06 (io_trps.svl 2023.06)
