@<TRIPOS>MOLECULE
Structure434
26 27 1 0 0 
SMALL
USER_CHARGES


@<TRIPOS>ATOM
  1 CL       0.7010     0.7220    -0.8390 Cl    1 <1>  -0.1770 
  2 C        1.9040    -0.4610    -0.4180 C.ar  1 <1>   0.7970 
  3 N        3.0690     0.0290    -0.0450 N.ar  1 <1>  -0.6200 
  4 N        1.5140    -1.7220    -0.5210 N.ar  1 <1>  -0.6200 
  5 C        3.9650    -0.8720     0.2680 C.ar  1 <1>   0.4100 
  6 C        2.4370    -2.6030    -0.1940 C.ar  1 <1>   0.1600 
  7 N        5.1710    -0.3780     0.6530 N.pl3 1 <1>  -0.8690 
  8 C        3.6880    -2.2250     0.2110 C.ar  1 <1>  -0.1500 
  9 C        6.4670    -0.9760     0.2530 C.3   1 <1>   0.2090 
 10 C        7.6260    -0.0160     0.5750 C.3   1 <1>   0.2000 
 11 O        7.3940     1.2370     0.0120 O.3   1 <1>  -0.5600 
 12 C        8.9720    -0.4390     0.0050 C.3   1 <1>  -0.1600 
 13 C        8.5920     1.9300    -0.1480 C.3   1 <1>   0.1200 
 14 C        9.7070     0.8850    -0.1260 C.3   1 <1>  -0.1600 
 15 H        2.1770    -3.6470    -0.2530 H     1 <1>   0.1500 
 16 H        5.2180     0.6470     0.5640 H     1 <1>   0.4000 
 17 H        4.4320    -2.9460     0.4830 H     1 <1>   0.1500 
 18 H        6.4550    -1.1800    -0.8040 H     1 <1>   0.0800 
 19 H        6.6160    -1.9020     0.7810 H     1 <1>   0.0800 
 20 H        7.7020     0.1190     1.6410 H     1 <1>   0.0800 
 21 H        8.8370    -0.8820    -0.9660 H     1 <1>   0.0800 
 22 H        9.4820    -1.1340     0.6490 H     1 <1>   0.0800 
 23 H        8.6900     2.6290     0.6640 H     1 <1>   0.0800 
 24 H        8.5520     2.4570    -1.0860 H     1 <1>   0.0800 
 25 H       10.3030     0.9270    -1.0200 H     1 <1>   0.0800 
 26 H       10.3410     1.0580     0.7260 H     1 <1>   0.0800 
@<TRIPOS>BOND
  1   1   2  1   
  2   2   3  ar  
  3   2   4  ar  
  4   3   5  ar  
  5   4   6  ar  
  6   5   7  1   
  7   5   8  ar  
  8   6   8  ar  
  9   6  15  1   
 10   7   9  1   
 11   7  16  1   
 12   8  17  1   
 13   9  10  1   
 14   9  18  1   
 15   9  19  1   
 16  10  11  1   
 17  10  12  1   
 18  10  20  1   
 19  11  13  1   
 20  12  14  1   
 21  12  21  1   
 22  12  22  1   
 23  13  14  1   
 24  13  23  1   
 25  13  24  1   
 26  14  25  1   
 27  14  26  1   
@<TRIPOS>SUBSTRUCTURE
  1 ****   7 GROUP 4 **** **** 0

# MOE 2024.06 (io_trps.svl 2023.06)
