@<TRIPOS>MOLECULE
NONAME
54 55 1 0 0 
SMALL
USER_CHARGES


@<TRIPOS>ATOM
  1 O        0.2790    -0.1880    -0.6750 O.2   1 <1>  -0.5700 
  2 C        0.7100    -1.1520    -0.0710 C.2   1 <1>   0.5440 
  3 N       -0.1420    -2.1500     0.3370 N.am  1 <1>  -0.5470 
  4 C        2.1260    -1.2410     0.2290 C.ar  1 <1>   0.0860 
  5 C       -1.5360    -2.3290     0.2790 C.ar  1 <1>   0.1170 
  6 C        2.8280    -2.4540     0.3070 C.ar  1 <1>   0.0830 
  7 C        2.8520    -0.0720     0.4580 C.ar  1 <1>  -0.1500 
  8 C       -2.0640    -3.6110     0.4310 C.ar  1 <1>  -0.1440 
  9 C       -2.4140    -1.2680     0.0940 C.ar  1 <1>  -0.1500 
 10 O        2.1730    -3.6160     0.0580 O.3   1 <1>  -0.3630 
 11 C        4.1860    -2.4930     0.6360 C.ar  1 <1>   0.0830 
 12 C        4.1930    -0.0930     0.7810 C.ar  1 <1>  -0.1500 
 13 C       -3.4350    -3.8010     0.3850 C.ar  1 <1>  -0.1500 
 14 C       -1.1570    -4.8180     0.6480 C.3   1 <1>  -0.0970 
 15 C       -3.7890    -1.4440     0.0440 C.ar  1 <1>  -0.1430 
 16 C        2.3490    -4.1700    -1.2280 C.3   1 <1>   0.0400 
 17 O        4.7750    -3.7270     0.7140 O.3   1 <1>  -0.3630 
 18 C        4.8770    -1.3010     0.8900 C.ar  1 <1>   0.0830 
 19 C       -4.3060    -2.7310     0.1910 C.ar  1 <1>   0.0830 
 20 C       -4.6960    -0.2250    -0.1720 C.3   1 <1>   0.0630 
 21 C        6.0360    -3.9420     0.1180 C.3   1 <1>   0.0400 
 22 O        6.1890    -1.3410     1.2520 O.3   1 <1>  -0.3630 
 23 O       -5.6590    -2.8970     0.1410 O.3   1 <1>  -0.3620 
 24 C       -4.3970     0.4480    -1.5170 C.3   1 <1>  -0.2400 
 25 C       -4.5490     0.7760     0.9790 C.3   1 <1>  -0.2400 
 26 C        6.8940    -0.1970     1.6840 C.3   1 <1>   0.0400 
 27 C       -6.2600    -4.1670     0.2490 C.3   1 <1>   0.0400 
 28 H        0.3670    -2.9760     0.6600 H     1 <1>   0.3700 
 29 H        2.3430     0.8750     0.3830 H     1 <1>   0.1500 
 30 H       -2.0140    -0.2790    -0.0100 H     1 <1>   0.1500 
 31 H        4.6870     0.8460     0.9480 H     1 <1>   0.1500 
 32 H       -3.8160    -4.7960     0.5040 H     1 <1>   0.1500 
 33 H       -0.5690    -4.6850     1.5380 H     1 <1>   0.0800 
 34 H       -0.5000    -4.9370    -0.1940 H     1 <1>   0.0800 
 35 H       -1.7300    -5.7200     0.7570 H     1 <1>   0.0800 
 36 H        1.7910    -5.0880    -1.2800 H     1 <1>   0.0800 
 37 H        3.3940    -4.3680    -1.3870 H     1 <1>   0.0800 
 38 H        1.9820    -3.4730    -1.9610 H     1 <1>   0.0800 
 39 H       -5.7260    -0.5320    -0.1950 H     1 <1>   0.0800 
 40 H        6.1170    -4.9850    -0.1270 H     1 <1>   0.0800 
 41 H        6.8030    -3.6780     0.8230 H     1 <1>   0.0800 
 42 H        6.1160    -3.3440    -0.7730 H     1 <1>   0.0800 
 43 H       -3.3970     0.8420    -1.5370 H     1 <1>   0.0800 
 44 H       -5.0870     1.2520    -1.6920 H     1 <1>   0.0800 
 45 H       -4.4970    -0.2710    -2.3110 H     1 <1>   0.0800 
 46 H       -3.5540     1.1800     1.0130 H     1 <1>   0.0800 
 47 H       -4.7530     0.2850     1.9140 H     1 <1>   0.0800 
 48 H       -5.2450     1.5860     0.8580 H     1 <1>   0.0800 
 49 H        7.8810    -0.5060     1.9790 H     1 <1>   0.0800 
 50 H        6.3810     0.2340     2.5250 H     1 <1>   0.0800 
 51 H        6.9610     0.5020     0.8690 H     1 <1>   0.0800 
 52 H       -7.3240    -4.0400     0.1660 H     1 <1>   0.0800 
 53 H       -6.0160    -4.5870     1.2090 H     1 <1>   0.0800 
 54 H       -5.9020    -4.7910    -0.5510 H     1 <1>   0.0800 
@<TRIPOS>BOND
  1   1   2  2   
  2   2   3  am  
  3   2   4  1   
  4   3   5  1   
  5   3  28  1   
  6   4   6  ar  
  7   4   7  ar  
  8   5   8  ar  
  9   5   9  ar  
 10   6  10  1   
 11   6  11  ar  
 12   7  12  ar  
 13   7  29  1   
 14   8  13  ar  
 15   8  14  1   
 16   9  15  ar  
 17   9  30  1   
 18  10  16  1   
 19  11  17  1   
 20  11  18  ar  
 21  12  18  ar  
 22  12  31  1   
 23  13  19  ar  
 24  13  32  1   
 25  14  33  1   
 26  14  34  1   
 27  14  35  1   
 28  15  19  ar  
 29  15  20  1   
 30  16  36  1   
 31  16  37  1   
 32  16  38  1   
 33  17  21  1   
 34  18  22  1   
 35  19  23  1   
 36  20  24  1   
 37  20  25  1   
 38  20  39  1   
 39  21  40  1   
 40  21  41  1   
 41  21  42  1   
 42  22  26  1   
 43  23  27  1   
 44  24  43  1   
 45  24  44  1   
 46  24  45  1   
 47  25  46  1   
 48  25  47  1   
 49  25  48  1   
 50  26  49  1   
 51  26  50  1   
 52  26  51  1   
 53  27  52  1   
 54  27  53  1   
 55  27  54  1   
@<TRIPOS>SUBSTRUCTURE
  1 ****   3 GROUP 4 **** **** 0

# MOE 2024.06 (io_trps.svl 2023.06)
