@<TRIPOS>MOLECULE
NONAME
37 38 1 0 0 
SMALL
USER_CHARGES


@<TRIPOS>ATOM
  1 S       -0.5720     0.2100    -0.6440 S.o2  1 <1>   1.3330 
  2 O       -0.5290     1.6440    -0.5310 O.2   1 <1>  -0.6500 
  3 O        0.5320    -0.6140    -0.2190 O.2   1 <1>  -0.6500 
  4 N       -1.9770    -0.2640     0.2210 N.am  1 <1>  -0.7570 
  5 C       -1.0220    -0.2050    -2.3140 C.3   1 <1>  -0.1350 
  6 C       -2.4320    -1.5090     0.6450 C.ar  1 <1>   0.1990 
  7 C       -3.6310    -1.5940     1.3760 C.ar  1 <1>   0.0860 
  8 C       -1.7320    -2.6810     0.3610 C.ar  1 <1>  -0.1500 
  9 C       -4.4180    -0.4130     1.6570 C.2   1 <1>   0.5440 
 10 C       -4.0550    -2.8470     1.8250 C.ar  1 <1>  -0.1500 
 11 C       -2.1800    -3.9100     0.8000 C.ar  1 <1>  -0.1500 
 12 O       -3.8760     0.5620     2.1510 O.2   1 <1>  -0.5700 
 13 N       -5.7670    -0.3420     1.3630 N.am  1 <1>  -0.6600 
 14 C       -3.3450    -3.9950     1.5410 C.ar  1 <1>  -0.1500 
 15 C       -6.4450    -1.2200     0.3670 C.3   1 <1>   0.1400 
 16 C       -6.6190     0.7740     1.8660 C.3   1 <1>   0.1400 
 17 C       -6.9220    -0.3780    -0.8220 C.3   1 <1>  -0.1600 
 18 C       -7.0910     1.6340     0.6900 C.3   1 <1>  -0.1600 
 19 C       -7.8100     0.7910    -0.3730 C.3   1 <1>  -0.1600 
 20 H       -2.3720     0.5440     0.7190 H     1 <1>   0.4200 
 21 H       -1.9140     0.3200    -2.5960 H     1 <1>   0.0800 
 22 H       -1.1960    -1.2590    -2.4020 H     1 <1>   0.0800 
 23 H       -0.2330     0.0720    -2.9850 H     1 <1>   0.0800 
 24 H       -0.8170    -2.6450    -0.1990 H     1 <1>   0.1500 
 25 H       -4.9580    -2.9110     2.4070 H     1 <1>   0.1500 
 26 H       -1.6200    -4.8020     0.5750 H     1 <1>   0.1500 
 27 H       -3.6900    -4.9520     1.8940 H     1 <1>   0.1500 
 28 H       -7.2860    -1.6980     0.8370 H     1 <1>   0.0800 
 29 H       -5.7800    -1.9850     0.0070 H     1 <1>   0.0800 
 30 H       -6.0760     1.3840     2.5670 H     1 <1>   0.0800 
 31 H       -7.4690     0.3590     2.3800 H     1 <1>   0.0800 
 32 H       -7.4680    -1.0040    -1.5050 H     1 <1>   0.0800 
 33 H       -6.0610     0.0030    -1.3430 H     1 <1>   0.0800 
 34 H       -6.2340     2.1190     0.2540 H     1 <1>   0.0800 
 35 H       -7.7510     2.4010     1.0530 H     1 <1>   0.0800 
 36 H       -8.7280     0.4060     0.0390 H     1 <1>   0.0800 
 37 H       -8.0580     1.4070    -1.2200 H     1 <1>   0.0800 
@<TRIPOS>BOND
  1   1   2  2   
  2   1   3  2   
  3   1   4  am  
  4   1   5  1   
  5   4   6  1   
  6   4  20  1   
  7   5  21  1   
  8   5  22  1   
  9   5  23  1   
 10   6   7  ar  
 11   6   8  ar  
 12   7   9  1   
 13   7  10  ar  
 14   8  11  ar  
 15   8  24  1   
 16   9  12  2   
 17   9  13  am  
 18  10  14  ar  
 19  10  25  1   
 20  11  14  ar  
 21  11  26  1   
 22  13  15  1   
 23  13  16  1   
 24  14  27  1   
 25  15  17  1   
 26  15  28  1   
 27  15  29  1   
 28  16  18  1   
 29  16  30  1   
 30  16  31  1   
 31  17  19  1   
 32  17  32  1   
 33  17  33  1   
 34  18  19  1   
 35  18  34  1   
 36  18  35  1   
 37  19  36  1   
 38  19  37  1   
@<TRIPOS>SUBSTRUCTURE
  1 ****   7 GROUP 4 **** **** 0

# MOE 2024.06 (io_trps.svl 2023.06)
