@<TRIPOS>MOLECULE
NONAME
42 43 1 0 0 
SMALL
USER_CHARGES


@<TRIPOS>ATOM
  1 O       -0.7630    -1.9610     1.7040 O.2   1 <1>  -0.5700 
  2 C       -0.3690    -2.1870     0.5770 C.2   1 <1>   0.5440 
  3 N       -1.1890    -1.8930    -0.4760 N.am  1 <1>  -0.7300 
  4 C        0.9520    -2.7500     0.3490 C.ar  1 <1>   0.0860 
  5 C       -2.5320    -1.2740    -0.3770 C.3   1 <1>   0.2200 
  6 C        1.9930    -2.5190     1.2470 C.ar  1 <1>  -0.1500 
  7 C        1.2390    -3.5380    -0.7660 C.ar  1 <1>  -0.1500 
  8 C       -3.6360    -2.3500    -0.4900 C.3   1 <1>   0.2000 
  9 C       -2.6220    -0.2190    -1.4800 C.3   1 <1>  -0.2400 
 10 C        3.2590    -3.0350     1.0380 C.ar  1 <1>  -0.1500 
 11 C        2.5040    -4.0560    -0.9790 C.ar  1 <1>  -0.1500 
 12 O       -4.9070    -1.7640    -0.4930 O.3   1 <1>  -0.5600 
 13 C       -3.6540    -3.3610     0.6520 C.3   1 <1>  -0.1600 
 14 C        3.5300    -3.8090    -0.0810 C.ar  1 <1>  -0.1430 
 15 C       -5.8220    -2.4930     0.2670 C.3   1 <1>   0.1200 
 16 C       -5.1110    -3.7650     0.7070 C.3   1 <1>  -0.1600 
 17 C        4.9220    -4.3860    -0.3300 C.3   1 <1>   0.0640 
 18 C        5.3250    -5.3460     0.7950 C.3   1 <1>  -0.2400 
 19 C        5.9570    -3.2680    -0.4880 C.3   1 <1>  -0.2400 
 20 H       -0.8260    -1.9760    -1.4230 H     1 <1>   0.3700 
 21 H       -2.6280    -0.7890     0.5810 H     1 <1>   0.0800 
 22 H        1.8000    -1.9230     2.1230 H     1 <1>   0.1500 
 23 H        0.4620    -3.7600    -1.4740 H     1 <1>   0.1500 
 24 H       -3.5410    -2.8670    -1.4290 H     1 <1>   0.0800 
 25 H       -2.5660    -0.6760    -2.4510 H     1 <1>   0.0800 
 26 H       -1.8330     0.5020    -1.3700 H     1 <1>   0.0800 
 27 H       -3.5610     0.3000    -1.4060 H     1 <1>   0.0800 
 28 H        4.0340    -2.8310     1.7550 H     1 <1>   0.1500 
 29 H        2.6860    -4.6590    -1.8520 H     1 <1>   0.1500 
 30 H       -3.3650    -2.8780     1.5700 H     1 <1>   0.0800 
 31 H       -2.9930    -4.1890     0.4680 H     1 <1>   0.0800 
 32 H       -6.6940    -2.6970    -0.3300 H     1 <1>   0.0800 
 33 H       -6.0910    -1.8890     1.1170 H     1 <1>   0.0800 
 34 H       -5.4170    -4.0810     1.6880 H     1 <1>   0.0800 
 35 H       -5.3110    -4.5490    -0.0020 H     1 <1>   0.0800 
 36 H        4.9050    -4.9480    -1.2480 H     1 <1>   0.0800 
 37 H        5.4070    -4.8260     1.7320 H     1 <1>   0.0800 
 38 H        6.2710    -5.8040     0.5720 H     1 <1>   0.0800 
 39 H        4.5850    -6.1190     0.8970 H     1 <1>   0.0800 
 40 H        6.0540    -2.7030     0.4220 H     1 <1>   0.0800 
 41 H        5.6560    -2.6000    -1.2750 H     1 <1>   0.0800 
 42 H        6.9170    -3.6820    -0.7390 H     1 <1>   0.0800 
@<TRIPOS>BOND
  1   1   2  2   
  2   2   3  am  
  3   2   4  1   
  4   3   5  1   
  5   3  20  1   
  6   4   6  ar  
  7   4   7  ar  
  8   5   8  1   
  9   5   9  1   
 10   5  21  1   
 11   6  10  ar  
 12   6  22  1   
 13   7  11  ar  
 14   7  23  1   
 15   8  12  1   
 16   8  13  1   
 17   8  24  1   
 18   9  25  1   
 19   9  26  1   
 20   9  27  1   
 21  10  14  ar  
 22  10  28  1   
 23  11  14  ar  
 24  11  29  1   
 25  12  15  1   
 26  13  16  1   
 27  13  30  1   
 28  13  31  1   
 29  14  17  1   
 30  15  16  1   
 31  15  32  1   
 32  15  33  1   
 33  16  34  1   
 34  16  35  1   
 35  17  18  1   
 36  17  19  1   
 37  17  36  1   
 38  18  37  1   
 39  18  38  1   
 40  18  39  1   
 41  19  40  1   
 42  19  41  1   
 43  19  42  1   
@<TRIPOS>SUBSTRUCTURE
  1 ****   2 GROUP 4 **** **** 0

# MOE 2024.06 (io_trps.svl 2023.06)
