@<TRIPOS>MOLECULE
NONAME
53 55 1 0 0 
SMALL
USER_CHARGES


@<TRIPOS>ATOM
  1 O       -0.1690    -0.2590     0.1500 O.2   1 <1>  -0.5700 
  2 C        0.5010    -1.2280     0.4480 C.2   1 <1>   0.5440 
  3 N        1.8700    -1.1510     0.4340 N.am  1 <1>  -0.5470 
  4 C       -0.1370    -2.4850     0.7920 C.ar  1 <1>   0.0860 
  5 C        2.7970    -0.1320     0.1700 C.ar  1 <1>   0.1170 
  6 C       -1.3950    -2.8080     0.2840 C.ar  1 <1>  -0.1500 
  7 C        0.4730    -3.4200     1.6320 C.ar  1 <1>  -0.1500 
  8 C        4.1320    -0.5340     0.0080 C.ar  1 <1>   0.1000 
  9 C        2.4690     1.2130     0.0760 C.ar  1 <1>  -0.1500 
 10 C       -2.0210    -4.0120     0.5810 C.ar  1 <1>   0.0830 
 11 C       -0.1330    -4.6240     1.9380 C.ar  1 <1>  -0.1500 
 12 N        4.4710    -1.8980     0.1110 N.pl3 1 <1>  -0.8380 
 13 C        5.0970     0.4270    -0.2620 C.ar  1 <1>  -0.1500 
 14 C        3.4450     2.1600    -0.1880 C.ar  1 <1>  -0.1500 
 15 O       -3.2510    -4.3380     0.0880 O.3   1 <1>  -0.3630 
 16 C       -1.3840    -4.9350     1.4150 C.ar  1 <1>   0.0830 
 17 C        5.4260    -2.3150     1.1880 C.3   1 <1>   0.2090 
 18 C        4.5870    -2.6610    -1.1750 C.3   1 <1>   0.2090 
 19 C        4.7590     1.7660    -0.3580 C.ar  1 <1>  -0.1500 
 20 C       -4.0110    -3.4260    -0.6740 C.3   1 <1>   0.0400 
 21 O       -2.0180    -6.1080     1.6840 O.3   1 <1>  -0.3630 
 22 C        6.8690    -2.5250     0.6860 C.3   1 <1>   0.1400 
 23 C        6.0430    -2.8050    -1.6440 C.3   1 <1>   0.1400 
 24 C       -1.4690    -7.0850     2.5390 C.3   1 <1>   0.0400 
 25 N        6.9020    -3.3600    -0.5530 N.am  1 <1>  -0.6600 
 26 C        7.5390    -4.5640    -0.6940 C.2   1 <1>   0.5690 
 27 O        7.4190    -5.2400    -1.6860 O.2   1 <1>  -0.5700 
 28 C        8.4230    -5.1000     0.4080 C.3   1 <1>  -0.1790 
 29 H        2.3750    -2.0370     0.5200 H     1 <1>   0.3700 
 30 H       -1.8660    -2.0850    -0.3550 H     1 <1>   0.1500 
 31 H        1.4350    -3.2010     2.0620 H     1 <1>   0.1500 
 32 H        1.4510     1.5310     0.2080 H     1 <1>   0.1500 
 33 H        0.3810    -5.3060     2.5870 H     1 <1>   0.1500 
 34 H        6.1170     0.1300    -0.4030 H     1 <1>   0.1500 
 35 H        3.1760     3.2000    -0.2600 H     1 <1>   0.1500 
 36 H        5.0740    -3.2370     1.6170 H     1 <1>   0.0800 
 37 H        5.4270    -1.5740     1.9690 H     1 <1>   0.0800 
 38 H        4.0170    -2.1630    -1.9410 H     1 <1>   0.0800 
 39 H        4.1670    -3.6430    -1.0410 H     1 <1>   0.0800 
 40 H        5.5180     2.5010    -0.5670 H     1 <1>   0.1500 
 41 H       -4.9520    -3.8900    -0.9060 H     1 <1>   0.0800 
 42 H       -3.4800    -3.2020    -1.5820 H     1 <1>   0.0800 
 43 H       -4.1750    -2.5370    -0.0920 H     1 <1>   0.0800 
 44 H        7.4470    -2.9740     1.4720 H     1 <1>   0.0800 
 45 H        7.3100    -1.5680     0.4710 H     1 <1>   0.0800 
 46 H        6.4190    -1.8400    -1.9340 H     1 <1>   0.0800 
 47 H        6.0720    -3.4400    -2.5120 H     1 <1>   0.0800 
 48 H       -2.1640    -7.9030     2.5960 H     1 <1>   0.0800 
 49 H       -1.3300    -6.6560     3.5160 H     1 <1>   0.0800 
 50 H       -0.5360    -7.4250     2.1270 H     1 <1>   0.0800 
 51 H        7.8320    -5.3180     1.2770 H     1 <1>   0.0800 
 52 H        9.1840    -4.3820     0.6490 H     1 <1>   0.0800 
 53 H        8.8990    -6.0060     0.0790 H     1 <1>   0.0800 
@<TRIPOS>BOND
  1   1   2  2   
  2   2   3  am  
  3   2   4  1   
  4   3   5  1   
  5   3  29  1   
  6   4   6  ar  
  7   4   7  ar  
  8   5   8  ar  
  9   5   9  ar  
 10   6  10  ar  
 11   6  30  1   
 12   7  11  ar  
 13   7  31  1   
 14   8  12  1   
 15   8  13  ar  
 16   9  14  ar  
 17   9  32  1   
 18  10  15  1   
 19  10  16  ar  
 20  11  16  ar  
 21  11  33  1   
 22  12  17  1   
 23  12  18  1   
 24  13  19  ar  
 25  13  34  1   
 26  14  19  ar  
 27  14  35  1   
 28  15  20  1   
 29  16  21  1   
 30  17  22  1   
 31  17  36  1   
 32  17  37  1   
 33  18  23  1   
 34  18  38  1   
 35  18  39  1   
 36  19  40  1   
 37  20  41  1   
 38  20  42  1   
 39  20  43  1   
 40  21  24  1   
 41  22  25  1   
 42  22  44  1   
 43  22  45  1   
 44  23  25  1   
 45  23  46  1   
 46  23  47  1   
 47  24  48  1   
 48  24  49  1   
 49  24  50  1   
 50  25  26  am  
 51  26  27  2   
 52  26  28  1   
 53  28  51  1   
 54  28  52  1   
 55  28  53  1   
@<TRIPOS>SUBSTRUCTURE
  1 ****   3 GROUP 4 **** **** 0

# MOE 2024.06 (io_trps.svl 2023.06)
