@<TRIPOS>MOLECULE
NONAME
45 46 1 0 0 
SMALL
USER_CHARGES


@<TRIPOS>ATOM
  1 O        5.0920    -3.2590     0.3980 O.3   1 <1>  -0.3630 
  2 C        6.1130    -3.9000    -0.2430 C.ar  1 <1>   0.0830 
  3 C        4.8440    -1.8970     0.1090 C.3   1 <1>   0.1200 
  4 C        7.3940    -3.3510    -0.4090 C.ar  1 <1>   0.0820 
  5 C        5.8330    -5.1740    -0.7270 C.ar  1 <1>  -0.1440 
  6 C        3.3560    -1.6290     0.3120 C.3   1 <1>  -0.2400 
  7 O        7.6700    -2.1290     0.1290 O.3   1 <1>  -0.3630 
  8 C        8.3560    -4.0830    -1.1000 C.ar  1 <1>  -0.1500 
  9 C        6.8070    -5.8880    -1.4070 C.ar  1 <1>  -0.1500 
 10 C        4.4660    -5.7790    -0.5030 C.3   1 <1>   0.4860 
 11 C        8.9480    -1.5360     0.0320 C.3   1 <1>   0.0400 
 12 C        8.0620    -5.3400    -1.5960 C.ar  1 <1>  -0.1500 
 13 N        4.3010    -5.9130     0.9580 N.4   1 <1>  -0.9060 
 14 C        3.0200    -6.5150     1.3850 C.3   1 <1>   0.4860 
 15 C        1.8800    -5.6810     0.8380 C.ar  1 <1>  -0.1430 
 16 C        1.1650    -6.1120    -0.2710 C.ar  1 <1>  -0.1500 
 17 C        1.5450    -4.4770     1.4380 C.ar  1 <1>  -0.1500 
 18 C        0.1370    -5.3380    -0.7790 C.ar  1 <1>  -0.1500 
 19 C        0.5140    -3.7080     0.9280 C.ar  1 <1>  -0.1500 
 20 C       -0.1910    -4.1320    -0.1850 C.ar  1 <1>  -0.1430 
 21 C       -1.3210    -3.2830    -0.7410 C.3   1 <1>  -0.0970 
 22 H        5.1300    -1.6970    -0.9100 H     1 <1>   0.0800 
 23 H        5.4330    -1.2940     0.7770 H     1 <1>   0.0800 
 24 H        2.7710    -2.2470    -0.3460 H     1 <1>   0.0800 
 25 H        3.1440    -0.6000     0.0870 H     1 <1>   0.0800 
 26 H        3.0790    -1.8160     1.3330 H     1 <1>   0.0800 
 27 H        9.3450    -3.6970    -1.2620 H     1 <1>   0.1500 
 28 H        6.6060    -6.8710    -1.8000 H     1 <1>   0.1500 
 29 H        4.3970    -6.7400    -0.9850 H     1 <1>   0.0800 
 30 H        3.7090    -5.1240    -0.9070 H     1 <1>   0.0800 
 31 H        8.9170    -0.5890     0.5400 H     1 <1>   0.0800 
 32 H        9.1860    -1.3840    -1.0060 H     1 <1>   0.0800 
 33 H        9.6690    -2.1790     0.5050 H     1 <1>   0.0800 
 34 H        8.8170    -5.8930    -2.1300 H     1 <1>   0.1500 
 35 H        4.3570    -4.9390     1.2970 H     1 <1>   0.4500 
 36 H        5.1140    -6.4010     1.3430 H     1 <1>   0.4500 
 37 H        2.9610    -6.5370     2.4620 H     1 <1>   0.0800 
 38 H        2.9410    -7.5260     1.0190 H     1 <1>   0.0800 
 39 H        1.3890    -7.0490    -0.7510 H     1 <1>   0.1500 
 40 H        2.0730    -4.1210     2.3070 H     1 <1>   0.1500 
 41 H       -0.4140    -5.6800    -1.6390 H     1 <1>   0.1500 
 42 H        0.2590    -2.7750     1.4020 H     1 <1>   0.1500 
 43 H       -1.4550    -3.4700    -1.7910 H     1 <1>   0.0800 
 44 H       -1.1060    -2.2380    -0.6090 H     1 <1>   0.0800 
 45 H       -2.2370    -3.5160    -0.2280 H     1 <1>   0.0800 
@<TRIPOS>BOND
  1   1   2  1   
  2   1   3  1   
  3   2   4  ar  
  4   2   5  ar  
  5   3   6  1   
  6   3  22  1   
  7   3  23  1   
  8   4   7  1   
  9   4   8  ar  
 10   5   9  ar  
 11   5  10  1   
 12   6  24  1   
 13   6  25  1   
 14   6  26  1   
 15   7  11  1   
 16   8  12  ar  
 17   8  27  1   
 18   9  12  ar  
 19   9  28  1   
 20  10  13  1   
 21  10  29  1   
 22  10  30  1   
 23  11  31  1   
 24  11  32  1   
 25  11  33  1   
 26  12  34  1   
 27  13  14  1   
 28  13  35  1   
 29  13  36  1   
 30  14  15  1   
 31  14  37  1   
 32  14  38  1   
 33  15  16  ar  
 34  15  17  ar  
 35  16  18  ar  
 36  16  39  1   
 37  17  19  ar  
 38  17  40  1   
 39  18  20  ar  
 40  18  41  1   
 41  19  20  ar  
 42  19  42  1   
 43  20  21  1   
 44  21  43  1   
 45  21  44  1   
 46  21  45  1   
@<TRIPOS>SUBSTRUCTURE
  1 ****   1 GROUP 4 **** **** 0

# MOE 2024.06 (io_trps.svl 2023.06)
