@<TRIPOS>MOLECULE
NONAME
52 55 1 0 0 
SMALL
USER_CHARGES


@<TRIPOS>ATOM
  1 S       -0.1670    -1.2890    -0.3930 S.3   1 <1>  -0.0800 
  2 C       -0.2200     0.4550    -0.1510 C.2   1 <1>   0.3250 
  3 C        1.1530    -1.1080    -1.5030 C.2   1 <1>  -0.1100 
  4 N        0.6750     1.0700    -0.8500 N.2   1 <1>  -0.5650 
  5 C       -1.1990     1.0200     0.7530 C.ar  1 <1>   0.0530 
  6 C        1.4420     0.1970    -1.6070 C.2   1 <1>   0.0460 
  7 C       -1.5230     2.3760     0.6750 C.ar  1 <1>  -0.1500 
  8 C       -1.8490     0.2660     1.7340 C.ar  1 <1>  -0.1500 
  9 C        2.5440     0.8160    -2.4550 C.3   1 <1>   0.5240 
 10 C       -2.4470     2.9600     1.5240 C.ar  1 <1>  -0.1440 
 11 C       -2.7720     0.8390     2.5880 C.ar  1 <1>  -0.1500 
 12 N        3.2070     1.8610    -1.6300 N.4   1 <1>  -0.9590 
 13 C       -3.0710     2.1850     2.4850 C.ar  1 <1>  -0.1500 
 14 C       -2.7810     4.4370     1.4130 C.3   1 <1>  -0.0970 
 15 C        3.9420     2.8840    -2.4610 C.3   1 <1>   0.3430 
 16 C        4.0420     1.2470    -0.5300 C.3   1 <1>   0.3430 
 17 C        4.6970     3.9070    -1.5900 C.3   1 <1>   0.1400 
 18 C        4.7770     2.3190     0.2940 C.3   1 <1>   0.1400 
 19 N        5.5740     3.1650    -0.6390 N.am  1 <1>  -0.6600 
 20 C        6.8880     2.9110    -0.9790 C.2   1 <1>   0.5690 
 21 O        7.3880     3.4860    -1.9180 O.2   1 <1>  -0.5700 
 22 C        7.7600     1.8640    -0.2550 C.3   1 <1>   0.2610 
 23 O        7.1240     0.6170    -0.1080 O.3   1 <1>  -0.5600 
 24 C        8.1950     2.2460     1.1600 C.3   1 <1>  -0.1600 
 25 C        7.7970    -0.1120     0.8650 C.3   1 <1>   0.1200 
 26 C        8.2390     0.9150     1.9030 C.3   1 <1>  -0.1600 
 27 H        1.5580    -2.0020    -1.9460 H     1 <1>   0.1500 
 28 H       -1.0420     2.9810    -0.0720 H     1 <1>   0.1500 
 29 H       -1.6360    -0.7820     1.8450 H     1 <1>   0.1500 
 30 H        2.0930     1.2690    -3.3220 H     1 <1>   0.0800 
 31 H        3.2510     0.0680    -2.7750 H     1 <1>   0.0800 
 32 H       -3.2600     0.2390     3.3360 H     1 <1>   0.1500 
 33 H        2.4050     2.3160    -1.1590 H     1 <1>   0.4500 
 34 H       -3.7910     2.6240     3.1540 H     1 <1>   0.1500 
 35 H       -2.2790     4.9830     2.1900 H     1 <1>   0.0800 
 36 H       -3.8420     4.5850     1.5140 H     1 <1>   0.0800 
 37 H       -2.4750     4.8290     0.4600 H     1 <1>   0.0800 
 38 H        3.2510     3.4060    -3.1010 H     1 <1>   0.0800 
 39 H        4.6660     2.3880    -3.0880 H     1 <1>   0.0800 
 40 H        4.7820     0.5880    -0.9540 H     1 <1>   0.0800 
 41 H        3.4140     0.6650     0.1260 H     1 <1>   0.0800 
 42 H        4.0020     4.5200    -1.0430 H     1 <1>   0.0800 
 43 H        5.2800     4.5590    -2.2180 H     1 <1>   0.0800 
 44 H        5.4020     1.8550     1.0350 H     1 <1>   0.0800 
 45 H        4.0640     2.9310     0.8190 H     1 <1>   0.0800 
 46 H        8.6380     1.6900    -0.8530 H     1 <1>   0.0800 
 47 H        7.4830     2.9130     1.6130 H     1 <1>   0.0800 
 48 H        9.1550     2.7300     1.1390 H     1 <1>   0.0800 
 49 H        8.6470    -0.5850     0.4010 H     1 <1>   0.0800 
 50 H        7.1380    -0.8590     1.2750 H     1 <1>   0.0800 
 51 H        7.5560     0.9190     2.7340 H     1 <1>   0.0800 
 52 H        9.2270     0.6860     2.2650 H     1 <1>   0.0800 
@<TRIPOS>BOND
  1   1   2  1   
  2   1   3  1   
  3   2   4  2   
  4   2   5  1   
  5   3   6  2   
  6   3  27  1   
  7   4   6  1   
  8   5   7  ar  
  9   5   8  ar  
 10   6   9  1   
 11   7  10  ar  
 12   7  28  1   
 13   8  11  ar  
 14   8  29  1   
 15   9  12  1   
 16   9  30  1   
 17   9  31  1   
 18  10  13  ar  
 19  10  14  1   
 20  11  13  ar  
 21  11  32  1   
 22  12  15  1   
 23  12  16  1   
 24  12  33  1   
 25  13  34  1   
 26  14  35  1   
 27  14  36  1   
 28  14  37  1   
 29  15  17  1   
 30  15  38  1   
 31  15  39  1   
 32  16  18  1   
 33  16  40  1   
 34  16  41  1   
 35  17  19  1   
 36  17  42  1   
 37  17  43  1   
 38  18  19  1   
 39  18  44  1   
 40  18  45  1   
 41  19  20  am  
 42  20  21  2   
 43  20  22  1   
 44  22  23  1   
 45  22  24  1   
 46  22  46  1   
 47  23  25  1   
 48  24  26  1   
 49  24  47  1   
 50  24  48  1   
 51  25  26  1   
 52  25  49  1   
 53  25  50  1   
 54  26  51  1   
 55  26  52  1   
@<TRIPOS>SUBSTRUCTURE
  1 ****  16 GROUP 4 **** **** 0

# MOE 2024.06 (io_trps.svl 2023.06)
