@<TRIPOS>MOLECULE
NONAME
49 50 1 0 0 
SMALL
USER_CHARGES


@<TRIPOS>ATOM
  1 S        0.3880    -0.0770    -1.8500 S.o2  1 <1>   1.2040 
  2 O        0.8030    -1.4490    -2.0370 O.2   1 <1>  -0.6500 
  3 O        0.5190     0.8690    -2.9380 O.2   1 <1>  -0.6500 
  4 C       -1.3010    -0.0380    -1.2060 C.ar  1 <1>  -0.0090 
  5 C        1.3340     0.5730    -0.4810 C.3   1 <1>  -0.0550 
  6 C       -1.7570    -1.0160    -0.3340 C.ar  1 <1>  -0.1500 
  7 C       -2.1790     0.9840    -1.5370 C.ar  1 <1>  -0.1500 
  8 C        0.9600     2.0180    -0.1580 C.3   1 <1>   0.0700 
  9 C       -3.0360    -0.9670     0.1940 C.ar  1 <1>  -0.1500 
 10 C       -3.4580     1.0360    -1.0120 C.ar  1 <1>  -0.1500 
 11 S        2.0170     2.5760     1.2040 S.3   1 <1>  -0.4600 
 12 C       -3.9140     0.0600    -0.1310 C.ar  1 <1>  -0.1430 
 13 C        3.5280     3.1420     0.3740 C.3   1 <1>   0.0700 
 14 C       -5.3310     0.0720     0.4830 C.3   1 <1>   0.1430 
 15 C        4.4720     3.7010     1.4370 C.3   1 <1>  -0.0170 
 16 C       -5.2270     0.1350     2.0140 C.3   1 <1>  -0.2400 
 17 C       -6.0790    -1.2060     0.0740 C.3   1 <1>  -0.2400 
 18 C       -6.1800     1.2710     0.0260 C.3   1 <1>  -0.2400 
 19 C        5.7540     4.2010     0.7930 C.ar  1 <1>  -0.1430 
 20 C        6.8650     3.3950     0.6540 C.ar  1 <1>  -0.1500 
 21 C        5.8710     5.4890     0.3110 C.ar  1 <1>  -0.1500 
 22 C        8.0070     3.9010     0.0550 C.ar  1 <1>   0.1600 
 23 C        7.0600     5.8970    -0.2720 C.ar  1 <1>   0.1600 
 24 N        8.1310     5.1330    -0.4130 N.ar  1 <1>  -0.6200 
 25 H        2.3760     0.5320    -0.7300 H     1 <1>   0.0800 
 26 H        1.1760    -0.0340     0.3890 H     1 <1>   0.0800 
 27 H       -1.1080    -1.8320    -0.0640 H     1 <1>   0.1500 
 28 H       -1.8610     1.7550    -2.2200 H     1 <1>   0.1500 
 29 H       -0.0580     2.1000     0.1830 H     1 <1>   0.0800 
 30 H        1.1230     2.6770    -0.9940 H     1 <1>   0.0800 
 31 H       -3.3410    -1.7490     0.8650 H     1 <1>   0.1500 
 32 H       -4.0840     1.8560    -1.3120 H     1 <1>   0.1500 
 33 H        3.2480     3.8990    -0.3370 H     1 <1>   0.0800 
 34 H        3.9630     2.2990    -0.1330 H     1 <1>   0.0800 
 35 H        4.7000     2.9320     2.1550 H     1 <1>   0.0800 
 36 H        3.9890     4.5090     1.9580 H     1 <1>   0.0800 
 37 H       -4.7230    -0.7290     2.4050 H     1 <1>   0.0800 
 38 H       -6.2050     0.1790     2.4590 H     1 <1>   0.0800 
 39 H       -4.6770     1.0100     2.3090 H     1 <1>   0.0800 
 40 H       -6.1260    -1.2770    -0.9980 H     1 <1>   0.0800 
 41 H       -7.0820    -1.2000     0.4610 H     1 <1>   0.0800 
 42 H       -5.5830    -2.0830     0.4470 H     1 <1>   0.0800 
 43 H       -5.7120     2.1960     0.3120 H     1 <1>   0.0800 
 44 H       -7.1550     1.2380     0.4770 H     1 <1>   0.0800 
 45 H       -6.3080     1.2580    -1.0420 H     1 <1>   0.0800 
 46 H        6.8560     2.3790     1.0050 H     1 <1>   0.1500 
 47 H        5.0510     6.1810     0.3840 H     1 <1>   0.1500 
 48 H        8.8650     3.2580    -0.0450 H     1 <1>   0.1500 
 49 H        7.1330     6.9050    -0.6420 H     1 <1>   0.1500 
@<TRIPOS>BOND
  1   1   2  2   
  2   1   3  2   
  3   1   4  1   
  4   1   5  1   
  5   4   6  ar  
  6   4   7  ar  
  7   5   8  1   
  8   5  25  1   
  9   5  26  1   
 10   6   9  ar  
 11   6  27  1   
 12   7  10  ar  
 13   7  28  1   
 14   8  11  1   
 15   8  29  1   
 16   8  30  1   
 17   9  12  ar  
 18   9  31  1   
 19  10  12  ar  
 20  10  32  1   
 21  11  13  1   
 22  12  14  1   
 23  13  15  1   
 24  13  33  1   
 25  13  34  1   
 26  14  16  1   
 27  14  17  1   
 28  14  18  1   
 29  15  19  1   
 30  15  35  1   
 31  15  36  1   
 32  16  37  1   
 33  16  38  1   
 34  16  39  1   
 35  17  40  1   
 36  17  41  1   
 37  17  42  1   
 38  18  43  1   
 39  18  44  1   
 40  18  45  1   
 41  19  20  ar  
 42  19  21  ar  
 43  20  22  ar  
 44  20  46  1   
 45  21  23  ar  
 46  21  47  1   
 47  22  24  ar  
 48  22  48  1   
 49  23  24  ar  
 50  23  49  1   
@<TRIPOS>SUBSTRUCTURE
  1 ****   8 GROUP 4 **** **** 0

# MOE 2024.06 (io_trps.svl 2023.06)
