@<TRIPOS>MOLECULE
NONAME
30 30 1 0 0 
SMALL
USER_CHARGES


@<TRIPOS>ATOM
  1 S       -0.2530     0.1120     0.7880 S.3   1 <1>  -0.3320 
  2 C       -0.8640    -1.4560     0.1450 C.ar  1 <1>   0.1020 
  3 C        1.3010     0.5260    -0.1410 C.3   1 <1>   0.0700 
  4 C       -0.6380    -1.8540    -1.1630 C.ar  1 <1>  -0.1500 
  5 C       -1.5750    -2.2590     1.0180 C.ar  1 <1>  -0.1500 
  6 C        2.4930    -0.2110     0.4790 C.3   1 <1>   0.2000 
  7 C       -1.1140    -3.0830    -1.5890 C.ar  1 <1>  -0.1500 
  8 C       -2.0500    -3.4860     0.5870 C.ar  1 <1>  -0.1500 
  9 O        3.6270     0.1380    -0.2290 O.3   1 <1>  -0.6800 
 10 C        2.3780    -1.7430     0.4460 C.3   1 <1>   0.1200 
 11 C       -1.8160    -3.8980    -0.7150 C.ar  1 <1>  -0.1500 
 12 O        3.6370    -2.3130     0.6930 O.3   1 <1>  -0.5600 
 13 C        3.6540    -3.7040     0.7330 C.3   1 <1>   0.1200 
 14 C        3.7370    -4.2540    -0.6900 C.3   1 <1>  -0.2400 
 15 H        1.4360     1.5880    -0.0440 H     1 <1>   0.0800 
 16 H        1.1670     0.2740    -1.1730 H     1 <1>   0.0800 
 17 H       -0.1130    -1.2260    -1.8550 H     1 <1>   0.1500 
 18 H       -1.7520    -1.9260     2.0260 H     1 <1>   0.1500 
 19 H        2.6310     0.1130     1.4960 H     1 <1>   0.0800 
 20 H       -0.9430    -3.4050    -2.6020 H     1 <1>   0.1500 
 21 H       -2.6020    -4.1170     1.2610 H     1 <1>   0.1500 
 22 H        4.2840    -0.5740    -0.0550 H     1 <1>   0.4000 
 23 H        2.0370    -2.0630    -0.5210 H     1 <1>   0.0800 
 24 H        1.6870    -2.0800     1.1990 H     1 <1>   0.0800 
 25 H       -2.1850    -4.8520    -1.0500 H     1 <1>   0.1500 
 26 H        2.7820    -4.0650     1.2520 H     1 <1>   0.0800 
 27 H        4.5310    -3.9950     1.2860 H     1 <1>   0.0800 
 28 H        2.8380    -4.0410    -1.2390 H     1 <1>   0.0800 
 29 H        3.8620    -5.3210    -0.6550 H     1 <1>   0.0800 
 30 H        4.5820    -3.8290    -1.2010 H     1 <1>   0.0800 
@<TRIPOS>BOND
  1   1   2  1   
  2   1   3  1   
  3   2   4  ar  
  4   2   5  ar  
  5   3   6  1   
  6   3  15  1   
  7   3  16  1   
  8   4   7  ar  
  9   4  17  1   
 10   5   8  ar  
 11   5  18  1   
 12   6   9  1   
 13   6  10  1   
 14   6  19  1   
 15   7  11  ar  
 16   7  20  1   
 17   8  11  ar  
 18   8  21  1   
 19   9  22  1   
 20  10  12  1   
 21  10  23  1   
 22  10  24  1   
 23  11  25  1   
 24  12  13  1   
 25  13  14  1   
 26  13  26  1   
 27  13  27  1   
 28  14  28  1   
 29  14  29  1   
 30  14  30  1   
@<TRIPOS>SUBSTRUCTURE
  1 ****  10 GROUP 4 **** **** 0

# MOE 2024.06 (io_trps.svl 2023.06)
