@<TRIPOS>MOLECULE
NONAME
34 36 1 0 0 
SMALL
USER_CHARGES


@<TRIPOS>ATOM
  1 O        0.0280    -0.3350     0.7060 O.2   1 <1>  -0.5700 
  2 C       -0.0540    -1.3700     0.0880 C.2   1 <1>   0.6300 
  3 N        1.0580    -2.0590    -0.3220 N.am  1 <1>  -0.6600 
  4 C       -1.4450    -1.8980    -0.2370 C.3   1 <1>  -0.1000 
  5 C        2.4350    -1.5990     0.0230 C.3   1 <1>   0.1400 
  6 C        1.0500    -3.3300    -1.1060 C.3   1 <1>   0.1400 
  7 C       -2.5720    -1.7260     0.7400 C.3   1 <1>  -0.0680 
  8 C       -2.0150    -3.0900     0.4760 C.3   1 <1>  -0.2000 
  9 C        3.2490    -2.7500     0.6360 C.3   1 <1>   0.1200 
 10 C        1.9360    -4.3850    -0.4220 C.3   1 <1>   0.1200 
 11 C       -3.9420    -1.3340     0.2180 C.ar  1 <1>  -0.0320 
 12 O        3.2210    -3.8780    -0.1950 O.3   1 <1>  -0.5600 
 13 C       -5.0390    -2.1560     0.4190 C.ar  1 <1>  -0.1500 
 14 C       -4.1020    -0.1380    -0.4630 C.ar  1 <1>  -0.1500 
 15 C       -6.2840    -1.7910    -0.0650 C.ar  1 <1>  -0.1500 
 16 C       -5.3450     0.2300    -0.9480 C.ar  1 <1>  -0.1500 
 17 C       -6.4370    -0.5980    -0.7500 C.ar  1 <1>  -0.1500 
 18 H       -1.6840    -1.7670    -1.2760 H     1 <1>   0.1000 
 19 H        2.3990    -0.7810     0.7220 H     1 <1>   0.0800 
 20 H        2.9270    -1.2510    -0.8680 H     1 <1>   0.0800 
 21 H        1.4340    -3.1380    -2.0920 H     1 <1>   0.0800 
 22 H        0.0550    -3.7210    -1.2100 H     1 <1>   0.0800 
 23 H       -2.3420    -1.2630     1.6850 H     1 <1>   0.1000 
 24 H       -1.4370    -3.5590     1.2540 H     1 <1>   0.1000 
 25 H       -2.6030    -3.7930    -0.0880 H     1 <1>   0.1000 
 26 H        2.8530    -3.0210     1.6000 H     1 <1>   0.0800 
 27 H        4.2770    -2.4560     0.7550 H     1 <1>   0.0800 
 28 H        2.0330    -5.2530    -1.0500 H     1 <1>   0.0800 
 29 H        1.5120    -4.6840     0.5200 H     1 <1>   0.0800 
 30 H       -4.9230    -3.0810     0.9540 H     1 <1>   0.1500 
 31 H       -3.2540     0.5070    -0.6130 H     1 <1>   0.1500 
 32 H       -7.1320    -2.4340     0.0920 H     1 <1>   0.1500 
 33 H       -5.4620     1.1590    -1.4770 H     1 <1>   0.1500 
 34 H       -7.4030    -0.3130    -1.1270 H     1 <1>   0.1500 
@<TRIPOS>BOND
  1   1   2  2   
  2   2   3  am  
  3   2   4  1   
  4   3   5  1   
  5   3   6  1   
  6   4   7  1   
  7   4   8  1   
  8   4  18  1   
  9   5   9  1   
 10   5  19  1   
 11   5  20  1   
 12   6  10  1   
 13   6  21  1   
 14   6  22  1   
 15   7   8  1   
 16   7  11  1   
 17   7  23  1   
 18   8  24  1   
 19   8  25  1   
 20   9  12  1   
 21   9  26  1   
 22   9  27  1   
 23  10  12  1   
 24  10  28  1   
 25  10  29  1   
 26  11  13  ar  
 27  11  14  ar  
 28  13  15  ar  
 29  13  30  1   
 30  14  16  ar  
 31  14  31  1   
 32  15  17  ar  
 33  15  32  1   
 34  16  17  ar  
 35  16  33  1   
 36  17  34  1   
@<TRIPOS>SUBSTRUCTURE
  1 ****   4 GROUP 4 **** **** 0

# MOE 2024.06 (io_trps.svl 2023.06)
