@<TRIPOS>MOLECULE
NONAME
39 40 1 0 0 
SMALL
USER_CHARGES


@<TRIPOS>ATOM
  1 O       -0.0880    -0.3440     0.4570 O.3   1 <1>  -0.3630 
  2 C        1.0940    -0.9090     0.0990 C.ar  1 <1>   0.0830 
  3 C       -1.3120    -0.8940     0.0400 C.3   1 <1>   0.1200 
  4 C        1.2030    -2.0480    -0.6960 C.ar  1 <1>  -0.1500 
  5 C        2.2440    -0.2930     0.5670 C.ar  1 <1>  -0.1500 
  6 C       -2.4210    -0.0170     0.6250 C.3   1 <1>   0.3430 
  7 C        2.4530    -2.5520    -1.0090 C.ar  1 <1>  -0.1500 
  8 C        3.4940    -0.7980     0.2530 C.ar  1 <1>  -0.1500 
  9 N       -3.7800    -0.5110     0.2460 N.4   1 <1>  -0.9060 
 10 C        3.6020    -1.9370    -0.5410 C.ar  1 <1>   0.0830 
 11 C       -4.8750     0.3180     0.7850 C.3   1 <1>   0.4230 
 12 O        4.7850    -2.5010    -0.8980 O.3   1 <1>  -0.3630 
 13 C       -6.1870    -0.4040     0.5070 C.3   1 <1>  -0.1600 
 14 C       -5.0090     1.5890    -0.0500 C.3   1 <1>  -0.1600 
 15 C        6.0120    -1.9510    -0.4740 C.3   1 <1>   0.0400 
 16 C       -6.5300    -0.1050    -0.9580 C.3   1 <1>  -0.1600 
 17 C       -5.7730     1.1810    -1.3160 C.3   1 <1>  -0.1600 
 18 H       -1.3710    -1.8990     0.4190 H     1 <1>   0.0800 
 19 H       -1.3330    -0.8810    -1.0360 H     1 <1>   0.0800 
 20 H        0.3420    -2.5590    -1.0810 H     1 <1>   0.1500 
 21 H        2.1590     0.5860     1.1800 H     1 <1>   0.1500 
 22 H       -2.2850     0.9900     0.2650 H     1 <1>   0.0800 
 23 H       -2.3240    -0.0110     1.6990 H     1 <1>   0.0800 
 24 H        2.5510    -3.4310    -1.6210 H     1 <1>   0.1500 
 25 H        4.3630    -0.2960     0.6320 H     1 <1>   0.1500 
 26 H       -3.9130    -1.4730     0.5770 H     1 <1>   0.4500 
 27 H       -3.8960    -0.5190    -0.7740 H     1 <1>   0.4500 
 28 H       -4.7370     0.5200     1.8360 H     1 <1>   0.0800 
 29 H       -6.9490     0.0330     1.1300 H     1 <1>   0.0800 
 30 H       -6.1500    -1.4590     0.7200 H     1 <1>   0.0800 
 31 H       -4.0730     2.0710    -0.2690 H     1 <1>   0.0800 
 32 H       -5.6170     2.2870     0.5020 H     1 <1>   0.0800 
 33 H        6.8050    -2.5570    -0.8730 H     1 <1>   0.0800 
 34 H        6.0480    -1.9640     0.6010 H     1 <1>   0.0800 
 35 H        6.0940    -0.9470    -0.8520 H     1 <1>   0.0800 
 36 H       -7.5930     0.0220    -1.0820 H     1 <1>   0.0800 
 37 H       -6.2100    -0.9120    -1.5960 H     1 <1>   0.0800 
 38 H       -5.0920     0.9960    -2.1300 H     1 <1>   0.0800 
 39 H       -6.4550     1.9600    -1.6170 H     1 <1>   0.0800 
@<TRIPOS>BOND
  1   1   2  1   
  2   1   3  1   
  3   2   4  ar  
  4   2   5  ar  
  5   3   6  1   
  6   3  18  1   
  7   3  19  1   
  8   4   7  ar  
  9   4  20  1   
 10   5   8  ar  
 11   5  21  1   
 12   6   9  1   
 13   6  22  1   
 14   6  23  1   
 15   7  10  ar  
 16   7  24  1   
 17   8  10  ar  
 18   8  25  1   
 19   9  11  1   
 20   9  26  1   
 21   9  27  1   
 22  10  12  1   
 23  11  13  1   
 24  11  14  1   
 25  11  28  1   
 26  12  15  1   
 27  13  16  1   
 28  13  29  1   
 29  13  30  1   
 30  14  17  1   
 31  14  31  1   
 32  14  32  1   
 33  15  33  1   
 34  15  34  1   
 35  15  35  1   
 36  16  17  1   
 37  16  36  1   
 38  16  37  1   
 39  17  38  1   
 40  17  39  1   
@<TRIPOS>SUBSTRUCTURE
  1 ****   3 GROUP 4 **** **** 0

# MOE 2024.06 (io_trps.svl 2023.06)
