@<TRIPOS>MOLECULE
NONAME
51 53 1 0 0 
SMALL
USER_CHARGES


@<TRIPOS>ATOM
  1 S       -0.0650    -0.4150    -1.6880 S.o2  1 <1>   1.4470 
  2 O        0.0800     0.5970    -2.7130 O.2   1 <1>  -0.6500 
  3 O       -0.2770    -1.7810    -2.1210 O.2   1 <1>  -0.6500 
  4 N       -1.4100    -0.0170    -0.7330 N.am  1 <1>  -0.8490 
  5 C        1.3350    -0.3680    -0.5360 C.ar  1 <1>  -0.0090 
  6 C       -2.5900     0.2850    -1.5390 C.3   1 <1>   0.1960 
  7 C       -1.7010    -1.0290     0.2950 C.3   1 <1>   0.1960 
  8 C        1.7290     0.8180     0.0800 C.ar  1 <1>   0.0830 
  9 C        2.0340    -1.5290    -0.2320 C.ar  1 <1>  -0.1500 
 10 C       -3.6670     0.9670    -0.6770 C.3   1 <1>  -0.1600 
 11 C       -3.0440    -0.7840     1.0090 C.3   1 <1>  -0.1600 
 12 O        1.0370     1.9410    -0.2110 O.3   1 <1>  -0.3620 
 13 C        2.8000     0.8190     0.9710 C.ar  1 <1>  -0.1500 
 14 C        3.1100    -1.5540     0.6510 C.ar  1 <1>   0.0860 
 15 C       -3.5480     0.6530     0.8260 C.3   1 <1>  -0.0800 
 16 C        1.3260     3.1980     0.3560 C.3   1 <1>   0.0400 
 17 C        3.4750    -0.3510     1.2500 C.ar  1 <1>  -0.1500 
 18 C        3.8070    -2.7910     0.9350 C.2   1 <1>   0.5440 
 19 C       -4.8790     0.8790     1.5510 C.3   1 <1>  -0.2400 
 20 O        3.1750    -3.7650     1.2990 O.2   1 <1>  -0.5700 
 21 N        5.1720    -2.8980     0.7960 N.am  1 <1>  -0.6600 
 22 C        5.8910    -4.1630     1.0610 C.3   1 <1>   0.1400 
 23 C        6.0250    -1.9520     0.0420 C.3   1 <1>   0.1400 
 24 C        7.3260    -3.9000     0.6190 C.3   1 <1>  -0.1600 
 25 C        7.2120    -2.7880    -0.4200 C.3   1 <1>  -0.1600 
 26 H       -2.9740    -0.6300    -1.9600 H     1 <1>   0.0800 
 27 H       -2.3320     0.9440    -2.3520 H     1 <1>   0.0800 
 28 H       -0.9100    -1.0080     1.0250 H     1 <1>   0.0800 
 29 H       -1.7210    -2.0150    -0.1420 H     1 <1>   0.0800 
 30 H        1.7390    -2.4600    -0.6910 H     1 <1>   0.1500 
 31 H       -4.6290     0.6610    -1.0490 H     1 <1>   0.0800 
 32 H       -3.5990     2.0320    -0.8140 H     1 <1>   0.0800 
 33 H       -2.9300    -1.0090     2.0540 H     1 <1>   0.0800 
 34 H       -3.7720    -1.4690     0.6120 H     1 <1>   0.0800 
 35 H        3.1170     1.7230     1.4570 H     1 <1>   0.1500 
 36 H       -2.8110     1.3170     1.2490 H     1 <1>   0.0800 
 37 H        2.3280     3.4810     0.0850 H     1 <1>   0.0800 
 38 H        1.2140     3.1360     1.4230 H     1 <1>   0.0800 
 39 H        0.6260     3.9100    -0.0440 H     1 <1>   0.0800 
 40 H        4.2960    -0.3460     1.9460 H     1 <1>   0.1500 
 41 H       -5.6380     0.2200     1.1690 H     1 <1>   0.0800 
 42 H       -5.2050     1.8960     1.4160 H     1 <1>   0.0800 
 43 H       -4.7640     0.6970     2.6050 H     1 <1>   0.0800 
 44 H        5.4480    -4.9480     0.4720 H     1 <1>   0.0800 
 45 H        5.8330    -4.4210     2.1050 H     1 <1>   0.0800 
 46 H        6.3560    -1.1710     0.7050 H     1 <1>   0.0800 
 47 H        5.4960    -1.5250    -0.7930 H     1 <1>   0.0800 
 48 H        7.7890    -4.7870     0.2230 H     1 <1>   0.0800 
 49 H        7.8940    -3.5560     1.4650 H     1 <1>   0.0800 
 50 H        8.1110    -2.2020    -0.4950 H     1 <1>   0.0800 
 51 H        6.9880    -3.2110    -1.3840 H     1 <1>   0.0800 
@<TRIPOS>BOND
  1   1   2  2   
  2   1   3  2   
  3   1   4  am  
  4   1   5  1   
  5   4   6  1   
  6   4   7  1   
  7   5   8  ar  
  8   5   9  ar  
  9   6  10  1   
 10   6  26  1   
 11   6  27  1   
 12   7  11  1   
 13   7  28  1   
 14   7  29  1   
 15   8  12  1   
 16   8  13  ar  
 17   9  14  ar  
 18   9  30  1   
 19  10  15  1   
 20  10  31  1   
 21  10  32  1   
 22  11  15  1   
 23  11  33  1   
 24  11  34  1   
 25  12  16  1   
 26  13  17  ar  
 27  13  35  1   
 28  14  17  ar  
 29  14  18  1   
 30  15  19  1   
 31  15  36  1   
 32  16  37  1   
 33  16  38  1   
 34  16  39  1   
 35  17  40  1   
 36  18  20  2   
 37  18  21  am  
 38  19  41  1   
 39  19  42  1   
 40  19  43  1   
 41  21  22  1   
 42  21  23  1   
 43  22  24  1   
 44  22  44  1   
 45  22  45  1   
 46  23  25  1   
 47  23  46  1   
 48  23  47  1   
 49  24  25  1   
 50  24  48  1   
 51  24  49  1   
 52  25  50  1   
 53  25  51  1   
@<TRIPOS>SUBSTRUCTURE
  1 ****   5 GROUP 4 **** **** 0

# MOE 2024.06 (io_trps.svl 2023.06)
