@<TRIPOS>MOLECULE
NONAME
63 65 1 0 0 
SMALL
USER_CHARGES


@<TRIPOS>ATOM
  1 S       -4.4170     0.9810     0.4210 S.o2  1 <1>   1.3330 
  2 O       -3.3610     0.0290     0.1640 O.2   1 <1>  -0.6500 
  3 O       -5.3860     1.2530    -0.6170 O.2   1 <1>  -0.6500 
  4 N       -5.2640     0.3680     1.7680 N.am  1 <1>  -0.8490 
  5 C       -3.7430     2.5200     1.0390 C.3   1 <1>  -0.0550 
  6 C       -6.3530    -0.5920     1.5230 C.3   1 <1>   0.2760 
  7 C       -4.3610    -0.1230     2.8250 C.3   1 <1>   0.1160 
  8 C       -3.2270     3.5510     0.0130 C.3   1 <1>   0.0610 
  9 C       -6.0170    -1.6650     0.4770 C.3   1 <1>  -0.1600 
 10 C       -7.6450     0.1450     1.1620 C.3   1 <1>  -0.1600 
 11 C       -2.4830     4.6710     0.7450 C.2   1 <1>   0.4480 
 12 C       -2.1720     3.1660    -1.0540 C.3   1 <1>   0.0000 
 13 C       -4.3010     4.3060    -0.8060 C.3   1 <1>  -0.1600 
 14 C       -7.1680    -2.6510     0.2600 C.3   1 <1>   0.5030 
 15 C       -8.8250    -0.8080     0.9400 C.3   1 <1>   0.5030 
 16 O       -2.5400     4.9200     1.9120 O.2   1 <1>  -0.5700 
 17 C       -1.6390     5.4020    -0.2750 C.3   1 <1>  -0.0990 
 18 C       -2.0120     4.6200    -1.5500 C.3   1 <1>  -0.0800 
 19 C       -0.8760     2.5470    -0.4730 C.3   1 <1>  -0.2400 
 20 C       -2.6200     2.2270    -2.2040 C.3   1 <1>  -0.2400 
 21 C       -3.4660     5.0270    -1.8890 C.3   1 <1>  -0.1600 
 22 N       -8.4390    -1.9340     0.0750 N.4   1 <1>  -0.9060 
 23 C       -7.2820    -3.6720     1.3960 C.3   1 <1>  -0.2400 
 24 C       -6.9430    -3.4200    -1.0410 C.3   1 <1>  -0.2400 
 25 C       -9.4140    -1.3190     2.2580 C.3   1 <1>  -0.2400 
 26 C       -9.9340    -0.0780     0.1830 C.3   1 <1>  -0.2400 
 27 H       -2.9350     2.2870     1.7040 H     1 <1>   0.0800 
 28 H       -4.4960     3.0070     1.6270 H     1 <1>   0.0800 
 29 H       -6.5460    -1.0950     2.4540 H     1 <1>   0.0800 
 30 H       -3.6380     0.6320     3.0840 H     1 <1>   0.0800 
 31 H       -3.8320    -1.0010     2.4940 H     1 <1>   0.0800 
 32 H       -4.9170    -0.3610     3.7160 H     1 <1>   0.0800 
 33 H       -5.1360    -2.2030     0.7790 H     1 <1>   0.0800 
 34 H       -5.8020    -1.2060    -0.4700 H     1 <1>   0.0800 
 35 H       -7.5100     0.7210     0.2690 H     1 <1>   0.0800 
 36 H       -7.8870     0.8370     1.9490 H     1 <1>   0.0800 
 37 H       -4.8390     5.0090    -0.1920 H     1 <1>   0.0800 
 38 H       -5.0110     3.6430    -1.2650 H     1 <1>   0.0800 
 39 H       -0.5960     5.3110    -0.0350 H     1 <1>   0.0800 
 40 H       -1.9040     6.4420    -0.3270 H     1 <1>   0.0800 
 41 H       -1.3190     4.7590    -2.3620 H     1 <1>   0.0800 
 42 H       -0.4770     3.0730     0.3740 H     1 <1>   0.0800 
 43 H       -0.1140     2.5190    -1.2320 H     1 <1>   0.0800 
 44 H       -1.0590     1.5350    -0.1560 H     1 <1>   0.0800 
 45 H       -3.6160     2.4150    -2.5570 H     1 <1>   0.0800 
 46 H       -2.5800     1.1970    -1.9060 H     1 <1>   0.0800 
 47 H       -1.9510     2.3360    -3.0390 H     1 <1>   0.0800 
 48 H       -3.6080     6.0940    -1.8580 H     1 <1>   0.0800 
 49 H       -3.7400     4.6830    -2.8710 H     1 <1>   0.0800 
 50 H       -9.1990    -2.6160     0.0720 H     1 <1>   0.4500 
 51 H       -8.3960    -1.5470    -0.8710 H     1 <1>   0.4500 
 52 H       -7.2730    -3.2170     2.3650 H     1 <1>   0.0800 
 53 H       -6.4340    -4.3350     1.3690 H     1 <1>   0.0800 
 54 H       -8.1670    -4.2740     1.2920 H     1 <1>   0.0800 
 55 H       -6.8860    -2.7560    -1.8860 H     1 <1>   0.0800 
 56 H       -7.7250    -4.1390    -1.2110 H     1 <1>   0.0800 
 57 H       -6.0110    -3.9570    -0.9930 H     1 <1>   0.0800 
 58 H       -8.6670    -1.6960     2.9260 H     1 <1>   0.0800 
 59 H      -10.1550    -2.0790     2.0860 H     1 <1>   0.0800 
 60 H       -9.8960    -0.5070     2.7750 H     1 <1>   0.0800 
 61 H       -9.5880     0.2800    -0.7710 H     1 <1>   0.0800 
 62 H      -10.2610     0.7780     0.7480 H     1 <1>   0.0800 
 63 H      -10.7880    -0.7140     0.0320 H     1 <1>   0.0800 
@<TRIPOS>BOND
  1   1   2  2   
  2   1   3  2   
  3   1   4  am  
  4   1   5  1   
  5   4   6  1   
  6   4   7  1   
  7   5   8  1   
  8   5  27  1   
  9   5  28  1   
 10   6   9  1   
 11   6  10  1   
 12   6  29  1   
 13   7  30  1   
 14   7  31  1   
 15   7  32  1   
 16   8  11  1   
 17   8  12  1   
 18   8  13  1   
 19   9  14  1   
 20   9  33  1   
 21   9  34  1   
 22  10  15  1   
 23  10  35  1   
 24  10  36  1   
 25  11  16  2   
 26  11  17  1   
 27  12  18  1   
 28  12  19  1   
 29  12  20  1   
 30  13  21  1   
 31  13  37  1   
 32  13  38  1   
 33  14  22  1   
 34  14  23  1   
 35  14  24  1   
 36  15  22  1   
 37  15  25  1   
 38  15  26  1   
 39  17  18  1   
 40  17  39  1   
 41  17  40  1   
 42  18  21  1   
 43  18  41  1   
 44  19  42  1   
 45  19  43  1   
 46  19  44  1   
 47  20  45  1   
 48  20  46  1   
 49  20  47  1   
 50  21  48  1   
 51  21  49  1   
 52  22  50  1   
 53  22  51  1   
 54  23  52  1   
 55  23  53  1   
 56  23  54  1   
 57  24  55  1   
 58  24  56  1   
 59  24  57  1   
 60  25  58  1   
 61  25  59  1   
 62  25  60  1   
 63  26  61  1   
 64  26  62  1   
 65  26  63  1   
@<TRIPOS>SUBSTRUCTURE
  1 ****   1 GROUP 4 **** **** 0

# MOE 2024.06 (io_trps.svl 2023.06)
