@<TRIPOS>MOLECULE
NONAME
32 33 1 0 0 
SMALL
USER_CHARGES


@<TRIPOS>ATOM
  1 BR       2.2260    -1.0590    -1.2800 Br    1 <1>  -0.0580 
  2 C        2.8290     0.1960     0.0450 C.2   1 <1>   0.1980 
  3 O        3.6680     1.1260    -0.3300 O.3   1 <1>  -0.2800 
  4 C        2.5090     0.2660     1.3500 C.2   1 <1>  -0.1500 
  5 C        3.9480     1.8660     0.7480 C.2   1 <1>   0.0550 
  6 C        3.2410     1.3640     1.8080 C.2   1 <1>  -0.1500 
  7 C        4.8420     3.0110     0.7270 C.2   1 <1>   0.7150 
  8 O        4.7730     3.7890     1.6660 O.2   1 <1>  -0.5700 
  9 N        5.7730     3.2830    -0.2680 N.am  1 <1>  -0.6600 
 10 C        6.0740     2.3890    -1.4210 C.3   1 <1>   0.1400 
 11 C        6.4790     4.5940    -0.2940 C.3   1 <1>   0.1400 
 12 C        6.8040     1.1120    -0.9840 C.3   1 <1>  -0.1600 
 13 C        7.7410     4.5800     0.5750 C.3   1 <1>  -0.1600 
 14 C        8.3130     1.2710    -0.7420 C.3   1 <1>  -0.1600 
 15 C        8.8700     3.6620     0.0770 C.3   1 <1>  -0.1600 
 16 C        8.6900     2.1760     0.4430 C.3   1 <1>  -0.1600 
 17 H        1.8500    -0.3600     1.9230 H     1 <1>   0.1500 
 18 H        3.2410     1.7420     2.8160 H     1 <1>   0.1500 
 19 H        6.6790     2.9040    -2.1470 H     1 <1>   0.0800 
 20 H        5.1540     2.1320    -1.9150 H     1 <1>   0.0800 
 21 H        5.8140     5.3560     0.0760 H     1 <1>   0.0800 
 22 H        6.7330     4.8620    -1.3040 H     1 <1>   0.0800 
 23 H        6.6820     0.3910    -1.7730 H     1 <1>   0.0800 
 24 H        6.3370     0.6950    -0.1100 H     1 <1>   0.0800 
 25 H        7.4780     4.3380     1.5910 H     1 <1>   0.0800 
 26 H        8.1210     5.5860     0.5880 H     1 <1>   0.0800 
 27 H        8.7990     1.6090    -1.6410 H     1 <1>   0.0800 
 28 H        8.7010     0.2890    -0.5340 H     1 <1>   0.0800 
 29 H        9.7760     3.9970     0.5510 H     1 <1>   0.0800 
 30 H        9.0120     3.7890    -0.9810 H     1 <1>   0.0800 
 31 H        9.6360     1.8250     0.8180 H     1 <1>   0.0800 
 32 H        7.9810     2.0570     1.2460 H     1 <1>   0.0800 
@<TRIPOS>BOND
  1   1   2  1   
  2   2   3  1   
  3   2   4  2   
  4   3   5  1   
  5   4   6  1   
  6   4  17  1   
  7   5   6  2   
  8   5   7  1   
  9   6  18  1   
 10   7   8  2   
 11   7   9  am  
 12   9  10  1   
 13   9  11  1   
 14  10  12  1   
 15  10  19  1   
 16  10  20  1   
 17  11  13  1   
 18  11  21  1   
 19  11  22  1   
 20  12  14  1   
 21  12  23  1   
 22  12  24  1   
 23  13  15  1   
 24  13  25  1   
 25  13  26  1   
 26  14  16  1   
 27  14  27  1   
 28  14  28  1   
 29  15  16  1   
 30  15  29  1   
 31  15  30  1   
 32  16  31  1   
 33  16  32  1   
@<TRIPOS>SUBSTRUCTURE
  1 ****   7 GROUP 4 **** **** 0

# MOE 2024.06 (io_trps.svl 2023.06)
