@<TRIPOS>MOLECULE
NONAME
34 35 1 0 0 
SMALL
USER_CHARGES


@<TRIPOS>ATOM
  1 CL      -0.2370     0.9390     2.0600 Cl    1 <1>  -0.1770 
  2 C        0.6900     1.9600     0.9780 C.ar  1 <1>   0.1770 
  3 C        0.0260     2.9150     0.2100 C.ar  1 <1>   0.1170 
  4 C        2.0580     1.7860     0.9220 C.ar  1 <1>  -0.1500 
  5 N       -1.3780     3.0370     0.3200 N.am  1 <1>  -0.5470 
  6 C        0.8040     3.7140    -0.6240 C.ar  1 <1>  -0.1500 
  7 C        2.8170     2.5820     0.0780 C.ar  1 <1>   0.1000 
  8 C       -2.3060     3.6820    -0.4490 C.2   1 <1>   0.5690 
  9 C        2.1770     3.5470    -0.6880 C.ar  1 <1>  -0.1500 
 10 N        4.1890     2.4180     0.0010 N.pl3 1 <1>  -0.9000 
 11 O       -2.0270     4.3010    -1.4470 O.2   1 <1>  -0.5700 
 12 C       -3.7700     3.5920    -0.0130 C.3   1 <1>  -0.0190 
 13 C       -4.6140     2.8200    -1.0450 C.3   1 <1>  -0.1600 
 14 C       -4.3710     4.9890     0.2410 C.3   1 <1>  -0.1600 
 15 C       -6.0860     2.7310    -0.6180 C.3   1 <1>  -0.1600 
 16 C       -5.8420     4.9000     0.6700 C.3   1 <1>  -0.1600 
 17 C       -6.6730     4.1250    -0.3610 C.3   1 <1>  -0.1600 
 18 H        2.5310     1.0410     1.5340 H     1 <1>   0.1500 
 19 H       -1.7660     2.4940     1.0920 H     1 <1>   0.3700 
 20 H        0.3460     4.4750    -1.2290 H     1 <1>   0.1500 
 21 H        2.7590     4.1770    -1.3360 H     1 <1>   0.1500 
 22 H        4.6270     2.7660    -0.8570 H     1 <1>   0.4000 
 23 H        4.5410     1.4870     0.2450 H     1 <1>   0.4000 
 24 H       -3.8110     3.0490     0.9140 H     1 <1>   0.0800 
 25 H       -4.2150     1.8280    -1.1710 H     1 <1>   0.0800 
 26 H       -4.5510     3.3200    -1.9980 H     1 <1>   0.0800 
 27 H       -4.3000     5.5740    -0.6610 H     1 <1>   0.0800 
 28 H       -3.8020     5.4930     1.0030 H     1 <1>   0.0800 
 29 H       -6.1650     2.1400     0.2780 H     1 <1>   0.0800 
 30 H       -6.6550     2.2390    -1.3880 H     1 <1>   0.0800 
 31 H       -6.2440     5.8930     0.7810 H     1 <1>   0.0800 
 32 H       -5.9090     4.4080     1.6250 H     1 <1>   0.0800 
 33 H       -7.6870     4.0310    -0.0110 H     1 <1>   0.0800 
 34 H       -6.6940     4.6770    -1.2860 H     1 <1>   0.0800 
@<TRIPOS>BOND
  1   1   2  1   
  2   2   3  ar  
  3   2   4  ar  
  4   3   5  1   
  5   3   6  ar  
  6   4   7  ar  
  7   4  18  1   
  8   5   8  am  
  9   5  19  1   
 10   6   9  ar  
 11   6  20  1   
 12   7   9  ar  
 13   7  10  1   
 14   8  11  2   
 15   8  12  1   
 16   9  21  1   
 17  10  22  1   
 18  10  23  1   
 19  12  13  1   
 20  12  14  1   
 21  12  24  1   
 22  13  15  1   
 23  13  25  1   
 24  13  26  1   
 25  14  16  1   
 26  14  27  1   
 27  14  28  1   
 28  15  17  1   
 29  15  29  1   
 30  15  30  1   
 31  16  17  1   
 32  16  31  1   
 33  16  32  1   
 34  17  33  1   
 35  17  34  1   
@<TRIPOS>SUBSTRUCTURE
  1 ****   5 GROUP 4 **** **** 0

# MOE 2024.06 (io_trps.svl 2023.06)
