@<TRIPOS>MOLECULE
NONAME
47 48 1 0 0 
SMALL
USER_CHARGES


@<TRIPOS>ATOM
  1 O       -0.1760    -0.5380    -0.5760 O.3   1 <1>  -0.3630 
  2 C       -1.4150    -1.0840    -0.6160 C.ar  1 <1>   0.0830 
  3 C        0.8420    -1.0720     0.2410 C.3   1 <1>   0.1200 
  4 C       -2.3120    -0.5220    -1.5080 C.ar  1 <1>  -0.1500 
  5 C       -1.8190    -2.1550     0.1740 C.ar  1 <1>  -0.1500 
  6 C        2.1130    -0.2510     0.0200 C.3   1 <1>  -0.1600 
  7 C       -3.6000    -1.0130    -1.6150 C.ar  1 <1>  -0.1500 
  8 C       -3.1090    -2.6470     0.0690 C.ar  1 <1>  -0.1500 
  9 C        3.2700    -0.7750     0.8800 C.3   1 <1>  -0.1600 
 10 C       -4.0090    -2.0750    -0.8210 C.ar  1 <1>  -0.1430 
 11 C        4.5400     0.0510     0.6540 C.3   1 <1>  -0.2400 
 12 C       -5.4280    -2.5990    -0.9230 C.3   1 <1>   0.4860 
 13 N       -6.2030    -2.1150     0.2520 N.4   1 <1>  -0.9590 
 14 C       -7.5340    -2.8060     0.3520 C.3   1 <1>   0.3430 
 15 C       -6.2630    -0.6150     0.2690 C.3   1 <1>   0.3430 
 16 C       -8.6800    -1.9090    -0.1400 C.3   1 <1>  -0.0800 
 17 C       -7.3890    -0.1360     1.1860 C.3   1 <1>  -0.1600 
 18 C       -8.7690    -0.6240     0.7070 C.3   1 <1>  -0.1600 
 19 C      -10.0170    -2.6600    -0.1180 C.3   1 <1>  -0.2400 
 20 H        1.0010    -2.0990    -0.0410 H     1 <1>   0.0800 
 21 H        0.5230    -1.0090     1.2670 H     1 <1>   0.0800 
 22 H       -1.9860     0.3020    -2.1200 H     1 <1>   0.1500 
 23 H       -1.1430    -2.6150     0.8700 H     1 <1>   0.1500 
 24 H        1.9140     0.7760     0.2740 H     1 <1>   0.0800 
 25 H        2.3860    -0.3020    -1.0190 H     1 <1>   0.0800 
 26 H       -4.2690    -0.5570    -2.3250 H     1 <1>   0.1500 
 27 H       -3.3940    -3.4820     0.6860 H     1 <1>   0.1500 
 28 H        3.4700    -1.8040     0.6310 H     1 <1>   0.0800 
 29 H        2.9990    -0.7280     1.9210 H     1 <1>   0.0800 
 30 H        4.8420     0.0010    -0.3770 H     1 <1>   0.0800 
 31 H        5.3400    -0.3300     1.2640 H     1 <1>   0.0800 
 32 H        4.3700     1.0800     0.9170 H     1 <1>   0.0800 
 33 H       -5.4070    -3.6770    -0.9370 H     1 <1>   0.0800 
 34 H       -5.8840    -2.2550    -1.8370 H     1 <1>   0.0800 
 35 H       -5.6520    -2.3860     1.0760 H     1 <1>   0.4500 
 36 H       -7.7270    -3.0550     1.3830 H     1 <1>   0.0800 
 37 H       -7.5220    -3.7250    -0.2120 H     1 <1>   0.0800 
 38 H       -6.4540    -0.2480    -0.7270 H     1 <1>   0.0800 
 39 H       -5.3180    -0.2120     0.5980 H     1 <1>   0.0800 
 40 H       -8.4780    -1.6420    -1.1640 H     1 <1>   0.0800 
 41 H       -7.3860     0.9400     1.2240 H     1 <1>   0.0800 
 42 H       -7.1990    -0.4890     2.1850 H     1 <1>   0.0800 
 43 H       -9.3910    -0.7840     1.5720 H     1 <1>   0.0800 
 44 H       -9.2410     0.1440     0.1160 H     1 <1>   0.0800 
 45 H      -10.2680    -2.9750     0.8810 H     1 <1>   0.0800 
 46 H       -9.9760    -3.5310    -0.7500 H     1 <1>   0.0800 
 47 H      -10.8070    -2.0240    -0.4790 H     1 <1>   0.0800 
@<TRIPOS>BOND
  1   1   2  1   
  2   1   3  1   
  3   2   4  ar  
  4   2   5  ar  
  5   3   6  1   
  6   3  20  1   
  7   3  21  1   
  8   4   7  ar  
  9   4  22  1   
 10   5   8  ar  
 11   5  23  1   
 12   6   9  1   
 13   6  24  1   
 14   6  25  1   
 15   7  10  ar  
 16   7  26  1   
 17   8  10  ar  
 18   8  27  1   
 19   9  11  1   
 20   9  28  1   
 21   9  29  1   
 22  10  12  1   
 23  11  30  1   
 24  11  31  1   
 25  11  32  1   
 26  12  13  1   
 27  12  33  1   
 28  12  34  1   
 29  13  14  1   
 30  13  15  1   
 31  13  35  1   
 32  14  16  1   
 33  14  36  1   
 34  14  37  1   
 35  15  17  1   
 36  15  38  1   
 37  15  39  1   
 38  16  18  1   
 39  16  19  1   
 40  16  40  1   
 41  17  18  1   
 42  17  41  1   
 43  17  42  1   
 44  18  43  1   
 45  18  44  1   
 46  19  45  1   
 47  19  46  1   
 48  19  47  1   
@<TRIPOS>SUBSTRUCTURE
  1 ****  10 GROUP 4 **** **** 0

# MOE 2024.06 (io_trps.svl 2023.06)
