@<TRIPOS>MOLECULE
NONAME
42 43 1 0 0 
SMALL
USER_CHARGES


@<TRIPOS>ATOM
  1 O        0.3820    -1.6840    -2.5390 O.2   1 <1>  -0.5700 
  2 C        0.7260    -2.1130    -1.4520 C.2   1 <1>   0.5440 
  3 N        1.9020    -1.6530    -0.8820 N.am  1 <1>  -0.6600 
  4 C       -0.1160    -3.0950    -0.8040 C.ar  1 <1>   0.0860 
  5 C        2.4380    -2.2600     0.3810 C.3   1 <1>   0.1400 
  6 C        2.6240    -0.4870    -1.4790 C.3   1 <1>   0.1400 
  7 C       -0.7770    -2.8720     0.4160 C.ar  1 <1>   0.0830 
  8 C       -0.2700    -4.3470    -1.4010 C.ar  1 <1>  -0.1500 
  9 C        3.9620    -2.4560     0.4000 C.3   1 <1>  -0.1600 
 10 C        2.8480     0.6320    -0.4510 C.3   1 <1>  -0.1600 
 11 O       -0.7490    -1.6930     1.0790 O.3   1 <1>  -0.3620 
 12 C       -1.5050    -3.8870     1.0170 C.ar  1 <1>  -0.1500 
 13 C       -1.0110    -5.3510    -0.8060 C.ar  1 <1>  -0.1500 
 14 C        4.7750    -1.2990     1.0200 C.3   1 <1>  -0.1600 
 15 C        4.3280     0.9570    -0.1940 C.3   1 <1>  -0.1600 
 16 C       -1.0430    -0.4930     0.3960 C.3   1 <1>   0.1200 
 17 C       -1.6260    -5.1230     0.4130 C.ar  1 <1>  -0.1500 
 18 C        5.2680    -0.2440     0.0180 C.3   1 <1>  -0.1600 
 19 C       -1.6130     0.4960     1.4080 C.3   1 <1>  -0.2400 
 20 H        2.0020    -3.2340     0.5090 H     1 <1>   0.0800 
 21 H        2.1260    -1.6710     1.2260 H     1 <1>   0.0800 
 22 H        2.0540    -0.0770    -2.2940 H     1 <1>   0.0800 
 23 H        3.5490    -0.8290    -1.9030 H     1 <1>   0.0800 
 24 H        0.2080    -4.5270    -2.3480 H     1 <1>   0.1500 
 25 H        4.3220    -2.7190    -0.5790 H     1 <1>   0.0800 
 26 H        4.1390    -3.3140     1.0250 H     1 <1>   0.0800 
 27 H        2.3630     0.4030     0.4790 H     1 <1>   0.0800 
 28 H        2.3770     1.5250    -0.8230 H     1 <1>   0.0800 
 29 H       -1.9840    -3.6970     1.9610 H     1 <1>   0.1500 
 30 H       -1.1100    -6.3090    -1.2880 H     1 <1>   0.1500 
 31 H        5.6550    -1.7410     1.4580 H     1 <1>   0.0800 
 32 H        4.2340    -0.8350     1.8260 H     1 <1>   0.0800 
 33 H        4.3830     1.5940     0.6720 H     1 <1>   0.0800 
 34 H        4.7040     1.5270    -1.0260 H     1 <1>   0.0800 
 35 H       -1.7580    -0.7000    -0.3820 H     1 <1>   0.0800 
 36 H       -0.1370    -0.1060    -0.0340 H     1 <1>   0.0800 
 37 H       -2.1980    -5.9040     0.8840 H     1 <1>   0.1500 
 38 H        5.4950    -0.7130    -0.9240 H     1 <1>   0.0800 
 39 H        6.2000     0.1510     0.3840 H     1 <1>   0.0800 
 40 H       -2.5140     0.1020     1.8430 H     1 <1>   0.0800 
 41 H       -1.8450     1.4230     0.9170 H     1 <1>   0.0800 
 42 H       -0.8920     0.6880     2.1830 H     1 <1>   0.0800 
@<TRIPOS>BOND
  1   1   2  2   
  2   2   3  am  
  3   2   4  1   
  4   3   5  1   
  5   3   6  1   
  6   4   7  ar  
  7   4   8  ar  
  8   5   9  1   
  9   5  20  1   
 10   5  21  1   
 11   6  10  1   
 12   6  22  1   
 13   6  23  1   
 14   7  11  1   
 15   7  12  ar  
 16   8  13  ar  
 17   8  24  1   
 18   9  14  1   
 19   9  25  1   
 20   9  26  1   
 21  10  15  1   
 22  10  27  1   
 23  10  28  1   
 24  11  16  1   
 25  12  17  ar  
 26  12  29  1   
 27  13  17  ar  
 28  13  30  1   
 29  14  18  1   
 30  14  31  1   
 31  14  32  1   
 32  15  18  1   
 33  15  33  1   
 34  15  34  1   
 35  16  19  1   
 36  16  35  1   
 37  16  36  1   
 38  17  37  1   
 39  18  38  1   
 40  18  39  1   
 41  19  40  1   
 42  19  41  1   
 43  19  42  1   
@<TRIPOS>SUBSTRUCTURE
  1 ****   3 GROUP 4 **** **** 0

# MOE 2024.06 (io_trps.svl 2023.06)
