@<TRIPOS>MOLECULE
NONAME
43 44 1 0 0 
SMALL
USER_CHARGES


@<TRIPOS>ATOM
  1 S       -0.3490     0.7240     1.2600 S.o2  1 <1>   1.4470 
  2 O       -1.2150     1.6470     0.5590 O.2   1 <1>  -0.6500 
  3 O       -0.0800     0.9450     2.6630 O.2   1 <1>  -0.6500 
  4 N       -1.1660    -0.7440     1.2920 N.am  1 <1>  -0.9140 
  5 C        1.1910     0.3640     0.3700 C.ar  1 <1>  -0.0090 
  6 C       -2.2380    -0.9020     0.3230 C.3   1 <1>   0.2760 
  7 C        1.9570     1.3960    -0.1610 C.ar  1 <1>   0.0830 
  8 C        1.6510    -0.9400     0.2160 C.ar  1 <1>  -0.1500 
  9 C       -2.9610    -2.2080     0.6340 C.3   1 <1>  -0.1600 
 10 C       -1.6900    -1.1520    -1.0830 C.3   1 <1>  -0.1600 
 11 O        1.5180     2.6640     0.0320 O.3   1 <1>  -0.3630 
 12 C        3.1310     1.1140    -0.8560 C.ar  1 <1>  -0.1500 
 13 C        2.8160    -1.2360    -0.4740 C.ar  1 <1>  -0.1430 
 14 C       -2.1050    -3.3100     0.0030 C.3   1 <1>  -0.1600 
 15 C       -1.3670    -2.6490    -1.1670 C.3   1 <1>  -0.1600 
 16 C        2.1870     3.7870    -0.4970 C.3   1 <1>   0.0400 
 17 C        3.5510    -0.1930    -1.0130 C.ar  1 <1>  -0.1500 
 18 C        3.2610    -2.6890    -0.6280 C.3   1 <1>   0.0630 
 19 C        4.6430    -2.9110    -0.0050 C.3   1 <1>  -0.2400 
 20 C        3.2530    -3.1040    -2.1020 C.3   1 <1>  -0.2400 
 21 H       -1.5880    -0.7330     2.2160 H     1 <1>   0.4200 
 22 H       -2.9190    -0.0660     0.3570 H     1 <1>   0.0800 
 23 H        1.0820    -1.7450     0.6460 H     1 <1>   0.1500 
 24 H       -3.9190    -2.1910     0.1450 H     1 <1>   0.0800 
 25 H       -3.1160    -2.3580     1.6870 H     1 <1>   0.0800 
 26 H       -0.8480    -0.5320    -1.3320 H     1 <1>   0.0800 
 27 H       -2.4750    -0.9330    -1.7850 H     1 <1>   0.0800 
 28 H        3.7310     1.8950    -1.2810 H     1 <1>   0.1500 
 29 H       -2.7080    -4.1410    -0.3220 H     1 <1>   0.0800 
 30 H       -1.3860    -3.6600     0.7240 H     1 <1>   0.0800 
 31 H       -0.3080    -2.8090    -1.0680 H     1 <1>   0.0800 
 32 H       -1.6920    -3.0520    -2.1100 H     1 <1>   0.0800 
 33 H        1.6310     4.6650    -0.2210 H     1 <1>   0.0800 
 34 H        2.2220     3.7000    -1.5680 H     1 <1>   0.0800 
 35 H        3.1760     3.8350    -0.0770 H     1 <1>   0.0800 
 36 H        4.4580    -0.3940    -1.5560 H     1 <1>   0.1500 
 37 H        2.5630    -3.3220    -0.1060 H     1 <1>   0.0800 
 38 H        5.3950    -2.3450    -0.5240 H     1 <1>   0.0800 
 39 H        4.9060    -3.9520    -0.0470 H     1 <1>   0.0800 
 40 H        4.6320    -2.6020     1.0250 H     1 <1>   0.0800 
 41 H        3.9670    -2.5310    -2.6650 H     1 <1>   0.0800 
 42 H        2.2760    -2.9410    -2.5220 H     1 <1>   0.0800 
 43 H        3.4970    -4.1470    -2.1960 H     1 <1>   0.0800 
@<TRIPOS>BOND
  1   1   2  2   
  2   1   3  2   
  3   1   4  am  
  4   1   5  1   
  5   4   6  1   
  6   4  21  1   
  7   5   7  ar  
  8   5   8  ar  
  9   6   9  1   
 10   6  10  1   
 11   6  22  1   
 12   7  11  1   
 13   7  12  ar  
 14   8  13  ar  
 15   8  23  1   
 16   9  14  1   
 17   9  24  1   
 18   9  25  1   
 19  10  15  1   
 20  10  26  1   
 21  10  27  1   
 22  11  16  1   
 23  12  17  ar  
 24  12  28  1   
 25  13  17  ar  
 26  13  18  1   
 27  14  15  1   
 28  14  29  1   
 29  14  30  1   
 30  15  31  1   
 31  15  32  1   
 32  16  33  1   
 33  16  34  1   
 34  16  35  1   
 35  17  36  1   
 36  18  19  1   
 37  18  20  1   
 38  18  37  1   
 39  19  38  1   
 40  19  39  1   
 41  19  40  1   
 42  20  41  1   
 43  20  42  1   
 44  20  43  1   
@<TRIPOS>SUBSTRUCTURE
  1 ****   8 GROUP 4 **** **** 0

# MOE 2024.06 (io_trps.svl 2023.06)
