@<TRIPOS>MOLECULE
NONAME
35 37 1 0 0 
SMALL
USER_CHARGES


@<TRIPOS>ATOM
  1 O        0.3860    -4.2460     1.8270 O.2   1 <1>  -0.5700 
  2 C        0.4310    -3.5860     0.8090 C.2   1 <1>   0.8050 
  3 O       -0.5830    -2.7390     0.5590 O.3   1 <1>  -0.4300 
  4 C        1.4890    -3.6530    -0.1690 C.2   1 <1>   0.0550 
  5 C       -1.6350    -2.5320     1.4860 C.3   1 <1>   0.2000 
  6 O        2.4440    -4.5760    -0.0870 O.3   1 <1>  -0.2800 
  7 C        1.7330    -2.8890    -1.2740 C.2   1 <1>  -0.1500 
  8 C       -2.6770    -3.6980     1.2870 C.3   1 <1>  -0.1600 
  9 C       -2.2140    -1.1100     1.1620 C.3   1 <1>  -0.1600 
 10 C        3.2760    -4.4250    -1.0900 C.2   1 <1>  -0.0100 
 11 C        2.8900    -3.3910    -1.8680 C.2   1 <1>  -0.1500 
 12 C       -3.6670    -3.4980     0.0920 C.3   1 <1>   0.4230 
 13 C       -3.5740    -1.2800     0.4880 C.3   1 <1>   0.4230 
 14 N       -3.2100    -2.2740    -0.5570 N.4   1 <1>  -0.9590 
 15 C       -5.1060    -3.0830     0.4920 C.3   1 <1>  -0.1600 
 16 C       -5.0740    -1.5320     0.5420 C.3   1 <1>  -0.1600 
 17 C       -3.7160    -2.0350    -1.9510 C.3   1 <1>   0.2630 
 18 H       -1.2160    -2.5440     2.4820 H     1 <1>   0.0800 
 19 H        1.1680    -2.0510    -1.6400 H     1 <1>   0.1500 
 20 H       -3.2440    -3.7990     2.1960 H     1 <1>   0.0800 
 21 H       -2.1650    -4.6360     1.1680 H     1 <1>   0.0800 
 22 H       -1.5450    -0.5330     0.5470 H     1 <1>   0.0800 
 23 H       -2.3550    -0.5660     2.0790 H     1 <1>   0.0800 
 24 H        4.1170    -5.0920    -1.1790 H     1 <1>   0.1500 
 25 H        3.3610    -3.0150    -2.7600 H     1 <1>   0.1500 
 26 H       -3.6550    -4.3450    -0.5770 H     1 <1>   0.0800 
 27 H       -3.7080    -1.7560     1.4440 H     1 <1>   0.0800 
 28 H       -2.1790    -2.3220    -0.5880 H     1 <1>   0.4500 
 29 H       -5.3860    -3.5120     1.4390 H     1 <1>   0.0800 
 30 H       -5.8110    -3.4210    -0.2470 H     1 <1>   0.0800 
 31 H       -5.5830    -1.0810    -0.2910 H     1 <1>   0.0800 
 32 H       -5.5080    -1.1490     1.4520 H     1 <1>   0.0800 
 33 H       -4.7930    -2.0580    -1.9780 H     1 <1>   0.0800 
 34 H       -3.3420    -2.7950    -2.6160 H     1 <1>   0.0800 
 35 H       -3.3830    -1.0730    -2.3060 H     1 <1>   0.0800 
@<TRIPOS>BOND
  1   1   2  2   
  2   2   3  1   
  3   2   4  1   
  4   3   5  1   
  5   4   6  1   
  6   4   7  2   
  7   5   8  1   
  8   5   9  1   
  9   5  18  1   
 10   6  10  1   
 11   7  11  1   
 12   7  19  1   
 13   8  12  1   
 14   8  20  1   
 15   8  21  1   
 16   9  13  1   
 17   9  22  1   
 18   9  23  1   
 19  10  11  2   
 20  10  24  1   
 21  11  25  1   
 22  12  14  1   
 23  12  15  1   
 24  12  26  1   
 25  13  14  1   
 26  13  16  1   
 27  13  27  1   
 28  14  17  1   
 29  14  28  1   
 30  15  16  1   
 31  15  29  1   
 32  15  30  1   
 33  16  31  1   
 34  16  32  1   
 35  17  33  1   
 36  17  34  1   
 37  17  35  1   
@<TRIPOS>SUBSTRUCTURE
  1 ****   3 GROUP 4 **** **** 0

# MOE 2024.06 (io_trps.svl 2023.06)
