@<TRIPOS>MOLECULE
NONAME
32 33 1 0 0 
SMALL
USER_CHARGES


@<TRIPOS>ATOM
  1 CL       0.2290    -0.8190    -0.8520 Cl    1 <1>  -0.1770 
  2 C       -0.9330     0.3990    -0.3580 C.ar  1 <1>   0.1770 
  3 C       -0.5840     1.6910     0.0730 C.ar  1 <1>   0.0830 
  4 C       -2.2600     0.0020    -0.4150 C.ar  1 <1>  -0.1500 
  5 O        0.6670     2.2260     0.1800 O.3   1 <1>  -0.3630 
  6 C       -1.6050     2.5560     0.4430 C.ar  1 <1>  -0.1500 
  7 C       -3.2650     0.8780    -0.0440 C.ar  1 <1>  -0.1500 
  8 C        1.8460     1.5640    -0.2060 C.3   1 <1>   0.1200 
  9 C       -2.9230     2.1470     0.3820 C.ar  1 <1>   0.1770 
 10 C        3.0200     2.5220     0.0160 C.3   1 <1>   0.3430 
 11 CL      -4.1840     3.2570     0.8520 Cl    1 <1>  -0.1770 
 12 N        4.3290     1.9270    -0.4110 N.4   1 <1>  -0.9590 
 13 C        4.7480     0.7380     0.3770 C.3   1 <1>   0.3430 
 14 C        5.4500     2.8920    -0.3060 C.3   1 <1>   0.3430 
 15 C        6.2470     0.6310     0.1300 C.3   1 <1>  -0.1600 
 16 C        6.7000     2.0230    -0.3180 C.3   1 <1>  -0.1600 
 17 H       -2.5050    -0.9920    -0.7480 H     1 <1>   0.1500 
 18 H       -1.3760     3.5510     0.7790 H     1 <1>   0.1500 
 19 H       -4.3000     0.5860    -0.0820 H     1 <1>   0.1500 
 20 H        1.7600     1.3080    -1.2470 H     1 <1>   0.0800 
 21 H        1.9490     0.6890     0.4090 H     1 <1>   0.0800 
 22 H        3.0650     2.7810     1.0610 H     1 <1>   0.0800 
 23 H        2.8350     3.4200    -0.5500 H     1 <1>   0.0800 
 24 H        4.2710     1.6400    -1.3990 H     1 <1>   0.4500 
 25 H        4.2290    -0.1550     0.0670 H     1 <1>   0.0800 
 26 H        4.5690     0.9130     1.4260 H     1 <1>   0.0800 
 27 H        5.3910     3.4220     0.6310 H     1 <1>   0.0800 
 28 H        5.4480     3.6010    -1.1200 H     1 <1>   0.0800 
 29 H        6.4390    -0.0940    -0.6420 H     1 <1>   0.0800 
 30 H        6.7520     0.3150     1.0270 H     1 <1>   0.0800 
 31 H        7.4480     2.4320     0.3400 H     1 <1>   0.0800 
 32 H        7.1080     1.9830    -1.3140 H     1 <1>   0.0800 
@<TRIPOS>BOND
  1   1   2  1   
  2   2   3  ar  
  3   2   4  ar  
  4   3   5  1   
  5   3   6  ar  
  6   4   7  ar  
  7   4  17  1   
  8   5   8  1   
  9   6   9  ar  
 10   6  18  1   
 11   7   9  ar  
 12   7  19  1   
 13   8  10  1   
 14   8  20  1   
 15   8  21  1   
 16   9  11  1   
 17  10  12  1   
 18  10  22  1   
 19  10  23  1   
 20  12  13  1   
 21  12  14  1   
 22  12  24  1   
 23  13  15  1   
 24  13  25  1   
 25  13  26  1   
 26  14  16  1   
 27  14  27  1   
 28  14  28  1   
 29  15  16  1   
 30  15  29  1   
 31  15  30  1   
 32  16  31  1   
 33  16  32  1   
@<TRIPOS>SUBSTRUCTURE
  1 ****   8 GROUP 4 **** **** 0

# MOE 2024.06 (io_trps.svl 2023.06)
