@<TRIPOS>MOLECULE
NONAME
54 56 1 0 0 
SMALL
USER_CHARGES


@<TRIPOS>ATOM
  1 O        0.4370     0.4000     1.5120 O.2   1 <1>  -0.5700 
  2 C        0.2690     1.0710     0.5080 C.2   1 <1>   0.5440 
  3 N        0.5620     0.5170    -0.7180 N.am  1 <1>  -0.6600 
  4 C       -0.2000     2.4340     0.6270 C.ar  1 <1>   0.0860 
  5 C        0.8060    -0.9470    -0.8940 C.3   1 <1>   0.1400 
  6 C        1.0160     1.3340    -1.8840 C.3   1 <1>   0.1400 
  7 C        0.4690     3.3580     1.4440 C.ar  1 <1>   0.1170 
  8 C       -1.3250     2.8570    -0.0830 C.ar  1 <1>  -0.1500 
  9 C        2.2430    -1.2050    -1.3750 C.3   1 <1>   0.1200 
 10 C        2.4450     0.9370    -2.2900 C.3   1 <1>   0.1200 
 11 N        1.5950     2.9400     2.1670 N.am  1 <1>  -0.5470 
 12 C       -0.0070     4.6650     1.5200 C.ar  1 <1>  -0.1500 
 13 C       -1.7830     4.1570     0.0000 C.ar  1 <1>  -0.1500 
 14 O        2.5240    -0.4420    -2.5150 O.3   1 <1>  -0.5600 
 15 C        2.6830     3.6170     2.6450 C.2   1 <1>   0.5690 
 16 C       -1.1180     5.0650     0.8060 C.ar  1 <1>  -0.1500 
 17 O        2.8360     4.8080     2.5240 O.2   1 <1>  -0.5700 
 18 C        3.7700     2.8160     3.3490 C.3   1 <1>   0.1810 
 19 O        3.9430     1.5340     2.7600 O.3   1 <1>  -0.3630 
 20 C        4.6060     1.3690     1.5860 C.ar  1 <1>   0.0820 
 21 C        4.8590     0.0650     1.1970 C.ar  1 <1>  -0.1500 
 22 C        5.0440     2.4150     0.7800 C.ar  1 <1>  -0.1500 
 23 C        5.5540    -0.1980     0.0300 C.ar  1 <1>  -0.1500 
 24 C        5.7370     2.1460    -0.3880 C.ar  1 <1>  -0.1500 
 25 C        6.0050     0.8400    -0.7730 C.ar  1 <1>  -0.1430 
 26 C        6.7940     0.5660    -2.0530 C.3   1 <1>   0.0630 
 27 C        5.9670    -0.2390    -3.0590 C.3   1 <1>  -0.2400 
 28 C        8.1080    -0.1560    -1.7340 C.3   1 <1>  -0.2400 
 29 H        0.1170    -1.3330    -1.6240 H     1 <1>   0.0800 
 30 H        0.6380    -1.4760     0.0280 H     1 <1>   0.0800 
 31 H        1.0030     2.3820    -1.6460 H     1 <1>   0.0800 
 32 H        0.3530     1.1690    -2.7140 H     1 <1>   0.0800 
 33 H       -1.8440     2.1480    -0.7050 H     1 <1>   0.1500 
 34 H        2.3710    -2.2410    -1.6300 H     1 <1>   0.0800 
 35 H        2.9460    -0.9480    -0.6030 H     1 <1>   0.0800 
 36 H        3.1480     1.2030    -1.5180 H     1 <1>   0.0800 
 37 H        2.7260     1.4350    -3.2000 H     1 <1>   0.0800 
 38 H        1.6680     1.9150     2.2580 H     1 <1>   0.3700 
 39 H        0.4930     5.3810     2.1480 H     1 <1>   0.1500 
 40 H       -2.6520     4.4660    -0.5550 H     1 <1>   0.1500 
 41 H       -1.4690     6.0800     0.8780 H     1 <1>   0.1500 
 42 H        3.4840     2.6640     4.3730 H     1 <1>   0.0800 
 43 H        4.7080     3.3390     3.3260 H     1 <1>   0.0800 
 44 H        4.5130    -0.7430     1.8160 H     1 <1>   0.1500 
 45 H        4.8620     3.4420     1.0370 H     1 <1>   0.1500 
 46 H        5.7450    -1.2190    -0.2490 H     1 <1>   0.1500 
 47 H        6.0740     2.9670    -0.9960 H     1 <1>   0.1500 
 48 H        7.0430     1.5070    -2.5140 H     1 <1>   0.0800 
 49 H        5.6860    -1.1940    -2.6530 H     1 <1>   0.0800 
 50 H        6.5280    -0.4010    -3.9610 H     1 <1>   0.0800 
 51 H        5.0710     0.2980    -3.3100 H     1 <1>   0.0800 
 52 H        7.9180    -1.1290    -1.3180 H     1 <1>   0.0800 
 53 H        8.6750     0.4170    -1.0220 H     1 <1>   0.0800 
 54 H        8.6960    -0.2720    -2.6270 H     1 <1>   0.0800 
@<TRIPOS>BOND
  1   1   2  2   
  2   2   3  am  
  3   2   4  1   
  4   3   5  1   
  5   3   6  1   
  6   4   7  ar  
  7   4   8  ar  
  8   5   9  1   
  9   5  29  1   
 10   5  30  1   
 11   6  10  1   
 12   6  31  1   
 13   6  32  1   
 14   7  11  1   
 15   7  12  ar  
 16   8  13  ar  
 17   8  33  1   
 18   9  14  1   
 19   9  34  1   
 20   9  35  1   
 21  10  14  1   
 22  10  36  1   
 23  10  37  1   
 24  11  15  am  
 25  11  38  1   
 26  12  16  ar  
 27  12  39  1   
 28  13  16  ar  
 29  13  40  1   
 30  15  17  2   
 31  15  18  1   
 32  16  41  1   
 33  18  19  1   
 34  18  42  1   
 35  18  43  1   
 36  19  20  1   
 37  20  21  ar  
 38  20  22  ar  
 39  21  23  ar  
 40  21  44  1   
 41  22  24  ar  
 42  22  45  1   
 43  23  25  ar  
 44  23  46  1   
 45  24  25  ar  
 46  24  47  1   
 47  25  26  1   
 48  26  27  1   
 49  26  28  1   
 50  26  48  1   
 51  27  49  1   
 52  27  50  1   
 53  27  51  1   
 54  28  52  1   
 55  28  53  1   
 56  28  54  1   
@<TRIPOS>SUBSTRUCTURE
  1 ****  20 GROUP 4 **** **** 0

# MOE 2024.06 (io_trps.svl 2023.06)
