@<TRIPOS>MOLECULE
NONAME
39 39 1 0 0 
SMALL
USER_CHARGES


@<TRIPOS>ATOM
  1 S       -0.0100    -0.5900    -0.1670 S.o2  1 <1>   1.4470 
  2 O        0.0770    -1.3160     1.0790 O.2   1 <1>  -0.6500 
  3 O        0.1890    -1.2780    -1.4220 O.2   1 <1>  -0.6500 
  4 N        1.1860     0.5750    -0.0150 N.am  1 <1>  -0.9140 
  5 C       -1.5350     0.3880    -0.2230 C.ar  1 <1>  -0.0090 
  6 C        2.4970     0.1130    -0.4030 C.3   1 <1>   0.2760 
  7 C       -1.6810     1.4290    -1.1310 C.ar  1 <1>  -0.1500 
  8 C       -2.5970     0.1210     0.6330 C.ar  1 <1>  -0.1500 
  9 C        3.4990     0.6690     0.6180 C.3   1 <1>  -0.1600 
 10 C        2.7680     0.6220    -1.8190 C.3   1 <1>  -0.2400 
 11 C       -2.8390     2.1880    -1.1920 C.ar  1 <1>  -0.1430 
 12 C       -3.7610     0.8670     0.5880 C.ar  1 <1>  -0.1500 
 13 C        4.9340     0.1620     0.4010 C.3   1 <1>  -0.1600 
 14 C       -3.8910     1.9080    -0.3250 C.ar  1 <1>   0.0830 
 15 C       -2.9500     3.3190    -2.2050 C.3   1 <1>  -0.0970 
 16 C        5.8630     0.6520     1.5160 C.3   1 <1>  -0.2400 
 17 O       -5.0070     2.6760    -0.4160 O.3   1 <1>  -0.3630 
 18 C       -6.1290     2.4600     0.4100 C.3   1 <1>   0.0400 
 19 H        1.2270     0.7100     0.9910 H     1 <1>   0.4200 
 20 H        2.5420    -0.9660    -0.3830 H     1 <1>   0.0800 
 21 H       -0.8660     1.6420    -1.8020 H     1 <1>   0.1500 
 22 H       -2.5110    -0.6830     1.3450 H     1 <1>   0.1500 
 23 H        3.1870     0.3670     1.6020 H     1 <1>   0.0800 
 24 H        3.4940     1.7450     0.5760 H     1 <1>   0.0800 
 25 H        2.7820     1.6970    -1.8370 H     1 <1>   0.0800 
 26 H        2.0100     0.2710    -2.4950 H     1 <1>   0.0800 
 27 H        3.7130     0.2580    -2.1750 H     1 <1>   0.0800 
 28 H       -4.5530     0.6220     1.2700 H     1 <1>   0.1500 
 29 H        5.3150     0.5140    -0.5420 H     1 <1>   0.0800 
 30 H        4.9410    -0.9150     0.3850 H     1 <1>   0.0800 
 31 H       -2.0550     3.4050    -2.7940 H     1 <1>   0.0800 
 32 H       -3.1150     4.2500    -1.6930 H     1 <1>   0.0800 
 33 H       -3.7800     3.1360    -2.8630 H     1 <1>   0.0800 
 34 H        5.8870     1.7280     1.5410 H     1 <1>   0.0800 
 35 H        6.8630     0.2930     1.3450 H     1 <1>   0.0800 
 36 H        5.5300     0.2900     2.4730 H     1 <1>   0.0800 
 37 H       -6.8800     3.1840     0.1490 H     1 <1>   0.0800 
 38 H       -5.8370     2.5920     1.4370 H     1 <1>   0.0800 
 39 H       -6.5030     1.4670     0.2380 H     1 <1>   0.0800 
@<TRIPOS>BOND
  1   1   2  2   
  2   1   3  2   
  3   1   4  am  
  4   1   5  1   
  5   4   6  1   
  6   4  19  1   
  7   5   7  ar  
  8   5   8  ar  
  9   6   9  1   
 10   6  10  1   
 11   6  20  1   
 12   7  11  ar  
 13   7  21  1   
 14   8  12  ar  
 15   8  22  1   
 16   9  13  1   
 17   9  23  1   
 18   9  24  1   
 19  10  25  1   
 20  10  26  1   
 21  10  27  1   
 22  11  14  ar  
 23  11  15  1   
 24  12  14  ar  
 25  12  28  1   
 26  13  16  1   
 27  13  29  1   
 28  13  30  1   
 29  14  17  1   
 30  15  31  1   
 31  15  32  1   
 32  15  33  1   
 33  16  34  1   
 34  16  35  1   
 35  16  36  1   
 36  17  18  1   
 37  18  37  1   
 38  18  38  1   
 39  18  39  1   
@<TRIPOS>SUBSTRUCTURE
  1 ****   5 GROUP 4 **** **** 0

# MOE 2024.06 (io_trps.svl 2023.06)
