@<TRIPOS>MOLECULE
NONAME
38 40 1 0 0 
SMALL
USER_CHARGES


@<TRIPOS>ATOM
  1 O       -0.2370     0.7260    -1.5490 O.2   1 <1>  -0.5700 
  2 C       -0.1880     1.7160    -0.8340 C.2   1 <1>   0.7150 
  3 N        1.0270     2.2150    -0.4290 N.am  1 <1>  -0.4200 
  4 C       -1.3390     2.4160    -0.3880 C.2   1 <1>  -0.2370 
  5 C        1.0730     3.3350     0.3770 C.2   1 <1>   0.4500 
  6 C        2.2970     1.5130    -0.7780 C.3   1 <1>   0.2010 
  7 N       -2.6810     2.2060    -0.5850 N.pl3 1 <1>   0.0480 
  8 C       -1.1850     3.5220     0.4010 C.2   1 <1>   0.1250 
  9 N        0.0490     3.9870     0.7870 N.2   1 <1>  -0.5750 
 10 C        2.8300     0.6960     0.3870 C.2   1 <1>   0.6590 
 11 C       -3.3470     3.1840     0.0870 C.2   1 <1>  -0.3320 
 12 C       -3.3190     1.1160    -1.3640 C.3   1 <1>   0.0960 
 13 C       -2.4560     4.0210     0.7070 C.2   1 <1>   0.0190 
 14 O        3.7510     1.0920     1.0540 O.2   1 <1>  -0.5700 
 15 O        2.2220    -0.4590     0.6310 O.3   1 <1>  -0.4300 
 16 C       -4.8660     3.2720     0.1210 C.3   1 <1>   0.0200 
 17 C       -4.1620     0.2030    -0.4630 C.3   1 <1>  -0.1600 
 18 C       -2.7000     5.1770     1.5200 C.1   1 <1>   0.5380 
 19 C        2.6070    -1.2930     1.7040 C.3   1 <1>   0.0400 
 20 C       -5.4770     2.0420     0.8040 C.3   1 <1>  -0.1600 
 21 C       -5.5320     0.7910    -0.0870 C.3   1 <1>  -0.1600 
 22 N       -2.9500     6.0920     2.1560 N.1   1 <1>  -0.5570 
 23 H        2.0540     3.6670     0.6710 H     1 <1>   0.0600 
 24 H        3.0370     2.2430    -1.0510 H     1 <1>   0.0800 
 25 H        2.1540     0.8610    -1.6210 H     1 <1>   0.0800 
 26 H       -2.5630     0.5290    -1.8460 H     1 <1>   0.0800 
 27 H       -3.9320     1.5510    -2.1330 H     1 <1>   0.0800 
 28 H       -5.2560     3.3810    -0.8760 H     1 <1>   0.0800 
 29 H       -5.1570     4.1480     0.6740 H     1 <1>   0.0800 
 30 H       -3.6030    -0.0490     0.4220 H     1 <1>   0.0800 
 31 H       -4.3360    -0.7130    -1.0000 H     1 <1>   0.0800 
 32 H        1.9810    -2.1680     1.6960 H     1 <1>   0.0800 
 33 H        2.4800    -0.7540     2.6270 H     1 <1>   0.0800 
 34 H        3.6380    -1.5730     1.5760 H     1 <1>   0.0800 
 35 H       -6.4850     2.2880     1.0900 H     1 <1>   0.0800 
 36 H       -4.9330     1.8270     1.7080 H     1 <1>   0.0800 
 37 H       -6.0830     0.0320     0.4420 H     1 <1>   0.0800 
 38 H       -6.0850     1.0140    -0.9830 H     1 <1>   0.0800 
@<TRIPOS>BOND
  1   1   2  2   
  2   2   3  am  
  3   2   4  1   
  4   3   5  1   
  5   3   6  1   
  6   4   7  1   
  7   4   8  2   
  8   5   9  2   
  9   5  23  1   
 10   6  10  1   
 11   6  24  1   
 12   6  25  1   
 13   7  11  1   
 14   7  12  1   
 15   8   9  1   
 16   8  13  1   
 17  10  14  2   
 18  10  15  1   
 19  11  13  2   
 20  11  16  1   
 21  12  17  1   
 22  12  26  1   
 23  12  27  1   
 24  13  18  1   
 25  15  19  1   
 26  16  20  1   
 27  16  28  1   
 28  16  29  1   
 29  17  21  1   
 30  17  30  1   
 31  17  31  1   
 32  18  22  3   
 33  19  32  1   
 34  19  33  1   
 35  19  34  1   
 36  20  21  1   
 37  20  35  1   
 38  20  36  1   
 39  21  37  1   
 40  21  38  1   
@<TRIPOS>SUBSTRUCTURE
  1 ****   4 GROUP 4 **** **** 0

# MOE 2024.06 (io_trps.svl 2023.06)
