@<TRIPOS>MOLECULE
NONAME
43 45 1 0 0 
SMALL
USER_CHARGES


@<TRIPOS>ATOM
  1 O        0.3480     0.7530     2.8720 O.2   1 <1>  -0.5700 
  2 C       -0.1560     1.1700     1.8570 C.2   1 <1>   0.5690 
  3 N        0.5570     1.3500     0.7250 N.am  1 <1>  -0.7300 
  4 C       -1.6340     1.5290     1.8430 C.3   1 <1>   0.0440 
  5 C        1.9940     1.1510     0.5400 C.3   1 <1>   0.3640 
  6 C       -2.3540     1.0380     0.5840 C.ar  1 <1>  -0.1440 
  7 C        2.5010     2.2130    -0.4400 C.ar  1 <1>  -0.1440 
  8 C        2.2070    -0.2860     0.0480 C.3   1 <1>  -0.1600 
  9 C       -2.2550     1.7250    -0.6260 C.ar  1 <1>   0.0830 
 10 C       -3.1130    -0.1210     0.6490 C.ar  1 <1>  -0.1500 
 11 C        3.2810     1.8820    -1.5470 C.ar  1 <1>  -0.1440 
 12 C        2.1880     3.5470    -0.2110 C.ar  1 <1>  -0.1500 
 13 C        3.5800    -0.4540    -0.6080 C.3   1 <1>  -0.1600 
 14 O       -1.4860     2.8450    -0.6630 O.3   1 <1>  -0.3630 
 15 C       -2.9240     1.2450    -1.7490 C.ar  1 <1>  -0.1500 
 16 C       -3.7730    -0.5950    -0.4710 C.ar  1 <1>  -0.1500 
 17 C        3.7120     2.8800    -2.4080 C.ar  1 <1>  -0.1500 
 18 C        3.6770     0.4420    -1.8470 C.3   1 <1>  -0.0170 
 19 C        2.6240     4.5380    -1.0710 C.ar  1 <1>  -0.1500 
 20 C       -1.0320     3.3890    -1.8840 C.3   1 <1>   0.0400 
 21 C       -3.6790     0.0890    -1.6700 C.ar  1 <1>  -0.1500 
 22 C        3.3860     4.2030    -2.1740 C.ar  1 <1>  -0.1500 
 23 H        0.0710     1.7320    -0.0930 H     1 <1>   0.3700 
 24 H       -1.7240     2.5960     1.9210 H     1 <1>   0.0800 
 25 H       -2.0950     1.1060     2.7170 H     1 <1>   0.0800 
 26 H        2.5000     1.2810     1.4820 H     1 <1>   0.0800 
 27 H        1.4460    -0.5370    -0.6710 H     1 <1>   0.0800 
 28 H        2.1160    -0.9560     0.8850 H     1 <1>   0.0800 
 29 H       -3.1920    -0.6660     1.5740 H     1 <1>   0.1500 
 30 H        1.5990     3.8200     0.6480 H     1 <1>   0.1500 
 31 H        3.7280    -1.4810    -0.8920 H     1 <1>   0.0800 
 32 H        4.3510    -0.1840     0.0930 H     1 <1>   0.0800 
 33 H       -2.8720     1.7580    -2.6900 H     1 <1>   0.1500 
 34 H       -4.3580    -1.4950    -0.4090 H     1 <1>   0.1500 
 35 H        4.3090     2.6290    -3.2670 H     1 <1>   0.1500 
 36 H        4.6840     0.4120    -2.2240 H     1 <1>   0.0800 
 37 H        3.0250     0.0620    -2.6140 H     1 <1>   0.0800 
 38 H        2.3720     5.5660    -0.8800 H     1 <1>   0.1500 
 39 H       -0.3380     4.1800    -1.6610 H     1 <1>   0.0800 
 40 H       -1.8720     3.7850    -2.4260 H     1 <1>   0.0800 
 41 H       -0.5340     2.6200    -2.4480 H     1 <1>   0.0800 
 42 H       -4.1950    -0.2790    -2.5390 H     1 <1>   0.1500 
 43 H        3.7270     4.9700    -2.8470 H     1 <1>   0.1500 
@<TRIPOS>BOND
  1   1   2  2   
  2   2   3  am  
  3   2   4  1   
  4   3   5  1   
  5   3  23  1   
  6   4   6  1   
  7   4  24  1   
  8   4  25  1   
  9   5   7  1   
 10   5   8  1   
 11   5  26  1   
 12   6   9  ar  
 13   6  10  ar  
 14   7  11  ar  
 15   7  12  ar  
 16   8  13  1   
 17   8  27  1   
 18   8  28  1   
 19   9  14  1   
 20   9  15  ar  
 21  10  16  ar  
 22  10  29  1   
 23  11  17  ar  
 24  11  18  1   
 25  12  19  ar  
 26  12  30  1   
 27  13  18  1   
 28  13  31  1   
 29  13  32  1   
 30  14  20  1   
 31  15  21  ar  
 32  15  33  1   
 33  16  21  ar  
 34  16  34  1   
 35  17  22  ar  
 36  17  35  1   
 37  18  36  1   
 38  18  37  1   
 39  19  22  ar  
 40  19  38  1   
 41  20  39  1   
 42  20  40  1   
 43  20  41  1   
 44  21  42  1   
 45  22  43  1   
@<TRIPOS>SUBSTRUCTURE
  1 ****   3 GROUP 4 **** **** 0

# MOE 2024.06 (io_trps.svl 2023.06)
