@<TRIPOS>MOLECULE
NONAME
45 49 1 0 0 
SMALL
USER_CHARGES


@<TRIPOS>ATOM
  1 O       -2.9980    -7.2190     1.5150 O.3   1 <1>  -0.3630 
  2 C       -3.3600    -6.4590     0.4780 C.ar  1 <1>   0.0830 
  3 C       -2.7830    -8.5330     1.0020 C.3   1 <1>   0.4000 
  4 C       -3.3920    -7.2030    -0.6640 C.ar  1 <1>   0.0830 
  5 C       -3.6720    -5.1140     0.4730 C.ar  1 <1>  -0.1500 
  6 O       -3.0520    -8.4680    -0.3980 O.3   1 <1>  -0.3630 
  7 C       -3.7370    -6.6430    -1.8770 C.ar  1 <1>  -0.1500 
  8 C       -4.0270    -4.5220    -0.7380 C.ar  1 <1>  -0.1440 
  9 C       -4.0560    -5.2910    -1.9030 C.ar  1 <1>  -0.1500 
 10 C       -4.3890    -3.0460    -0.8000 C.3   1 <1>   0.3440 
 11 O       -3.3450    -2.3380    -0.2220 O.3   1 <1>  -0.6800 
 12 C       -5.7080    -2.7570    -0.0530 C.3   1 <1>   0.1680 
 13 N       -6.1840    -1.3400    -0.1630 N.pl3 1 <1>  -0.7050 
 14 C       -5.6670    -0.2510     0.4180 C.cat 1 <1>   1.2000 
 15 C       -7.3870    -0.9410    -0.7380 C.ar  1 <1>   0.3110 
 16 N       -4.5290    -0.1770     1.0820 N.pl3 1 <1>  -0.8440 
 17 N       -6.4510     0.8130     0.2630 N.pl3 1 <1>  -0.7050 
 18 C       -7.5520     0.4080    -0.4670 C.ar  1 <1>   0.3110 
 19 C       -8.3470    -1.6330    -1.4690 C.ar  1 <1>  -0.1500 
 20 C       -4.0130     1.0580     1.7110 C.3   1 <1>   0.1680 
 21 C       -6.1500     2.1500     0.8200 C.3   1 <1>   0.1680 
 22 C       -8.6740     1.0970    -0.9120 C.ar  1 <1>  -0.1500 
 23 C       -9.4640    -0.9510    -1.9140 C.ar  1 <1>  -0.1500 
 24 C       -4.6320     2.2810     1.0160 C.3   1 <1>  -0.1600 
 25 C       -9.6270     0.4080    -1.6370 C.ar  1 <1>  -0.1500 
 26 H       -3.4660    -9.2200     1.4690 H     1 <1>   0.0800 
 27 H       -1.7580    -8.8190     1.1590 H     1 <1>   0.0800 
 28 H       -3.6300    -4.5620     1.3950 H     1 <1>   0.1500 
 29 H       -3.7540    -7.2490    -2.7650 H     1 <1>   0.1500 
 30 H       -4.3250    -4.8470    -2.8460 H     1 <1>   0.1500 
 31 H       -4.4750    -2.7320    -1.8270 H     1 <1>   0.0800 
 32 H       -2.5040    -2.7460    -0.5260 H     1 <1>   0.4000 
 33 H       -5.5860    -3.0130     0.9860 H     1 <1>   0.0800 
 34 H       -6.4630    -3.4140    -0.4480 H     1 <1>   0.0800 
 35 H       -3.8960    -0.9820     0.9770 H     1 <1>   0.4500 
 36 H       -8.2240    -2.6790    -1.6840 H     1 <1>   0.1500 
 37 H       -2.9390     1.0940     1.6250 H     1 <1>   0.0800 
 38 H       -4.2710     1.0560     2.7580 H     1 <1>   0.0800 
 39 H       -6.6560     2.2600     1.7650 H     1 <1>   0.0800 
 40 H       -6.5010     2.9180     0.1490 H     1 <1>   0.0800 
 41 H       -8.7900     2.1430    -0.6940 H     1 <1>   0.1500 
 42 H      -10.2220    -1.4660    -2.4820 H     1 <1>   0.1500 
 43 H       -4.1650     2.4120     0.0550 H     1 <1>   0.0800 
 44 H       -4.4190     3.1650     1.5900 H     1 <1>   0.0800 
 45 H      -10.5070     0.9170    -1.9960 H     1 <1>   0.1500 
@<TRIPOS>BOND
  1   1   2  1   
  2   1   3  1   
  3   2   4  ar  
  4   2   5  ar  
  5   3   6  1   
  6   3  26  1   
  7   3  27  1   
  8   4   6  1   
  9   4   7  ar  
 10   5   8  ar  
 11   5  28  1   
 12   7   9  ar  
 13   7  29  1   
 14   8   9  ar  
 15   8  10  1   
 16   9  30  1   
 17  10  11  1   
 18  10  12  1   
 19  10  31  1   
 20  11  32  1   
 21  12  13  1   
 22  12  33  1   
 23  12  34  1   
 24  13  14  ar  
 25  13  15  1   
 26  14  16  ar  
 27  14  17  ar  
 28  15  18  ar  
 29  15  19  ar  
 30  16  20  1   
 31  16  35  1   
 32  17  18  1   
 33  17  21  1   
 34  18  22  ar  
 35  19  23  ar  
 36  19  36  1   
 37  20  24  1   
 38  20  37  1   
 39  20  38  1   
 40  21  24  1   
 41  21  39  1   
 42  21  40  1   
 43  22  25  ar  
 44  22  41  1   
 45  23  25  ar  
 46  23  42  1   
 47  24  43  1   
 48  24  44  1   
 49  25  45  1   
@<TRIPOS>SUBSTRUCTURE
  1 ****  12 GROUP 4 **** **** 0

# MOE 2024.06 (io_trps.svl 2023.06)
