@<TRIPOS>MOLECULE
NONAME
43 45 1 0 0 
SMALL
USER_CHARGES


@<TRIPOS>ATOM
  1 O       -1.1160     1.2100    -0.1590 O.3   1 <1>  -0.2800 
  2 C       -1.5740     0.1810     0.5300 C.2   1 <1>  -0.0400 
  3 C       -0.1160     1.7340     0.5190 C.2   1 <1>  -0.0400 
  4 C       -0.8690     0.0290     1.6720 C.2   1 <1>  -0.1500 
  5 C       -2.7380    -0.6200    -0.0210 C.3   1 <1>   0.5230 
  6 C        0.0880     1.0500     1.6640 C.2   1 <1>  -0.1500 
  7 C        0.6070     2.9360    -0.0510 C.3   1 <1>  -0.0600 
  8 N       -3.9620     0.2260    -0.0300 N.4   1 <1>  -0.9590 
  9 C       -5.2070    -0.5850    -0.0410 C.3   1 <1>   0.4860 
 10 C       -3.9710     1.2120    -1.1520 C.3   1 <1>   0.3430 
 11 C       -6.4240     0.3240    -0.0120 C.ar  1 <1>  -0.1430 
 12 C       -5.0610     2.2610    -0.9150 C.3   1 <1>  -0.0170 
 13 C       -6.3680     1.6470    -0.4290 C.ar  1 <1>  -0.1430 
 14 C       -7.6280    -0.1920     0.4380 C.ar  1 <1>  -0.1500 
 15 C       -7.5110     2.4290    -0.3910 C.ar  1 <1>  -0.1500 
 16 C       -8.7780     0.5760     0.4820 C.ar  1 <1>   0.0830 
 17 C       -8.7260     1.9160     0.0600 C.ar  1 <1>   0.0830 
 18 O       -9.8660    -0.1020     0.9520 O.3   1 <1>  -0.3620 
 19 O       -9.8460     2.6970     0.0960 O.3   1 <1>  -0.3620 
 20 C      -11.1590     0.4530     1.0370 C.3   1 <1>   0.0400 
 21 C       -9.8550     4.0480    -0.3110 C.3   1 <1>   0.0400 
 22 H       -0.9710    -0.7020     2.4570 H     1 <1>   0.1500 
 23 H       -2.8900    -1.4780     0.6140 H     1 <1>   0.0800 
 24 H       -2.5070    -0.9650    -1.0150 H     1 <1>   0.0800 
 25 H        0.8240     1.2250     2.4300 H     1 <1>   0.1500 
 26 H       -0.0800     3.7530    -0.1740 H     1 <1>   0.0800 
 27 H        1.0310     2.6880    -1.0060 H     1 <1>   0.0800 
 28 H        1.3970     3.2420     0.6110 H     1 <1>   0.0800 
 29 H       -3.9580     0.7690     0.8430 H     1 <1>   0.4500 
 30 H       -5.2320    -1.2360     0.8180 H     1 <1>   0.0800 
 31 H       -5.2460    -1.1920    -0.9310 H     1 <1>   0.0800 
 32 H       -4.1650     0.7010    -2.0810 H     1 <1>   0.0800 
 33 H       -3.0200     1.7100    -1.2330 H     1 <1>   0.0800 
 34 H       -5.2290     2.7990    -1.8310 H     1 <1>   0.0800 
 35 H       -4.7130     2.9690    -0.1840 H     1 <1>   0.0800 
 36 H       -7.7020    -1.2140     0.7660 H     1 <1>   0.1500 
 37 H       -7.4370     3.4480    -0.7170 H     1 <1>   0.1500 
 38 H      -11.8260    -0.3030     1.4090 H     1 <1>   0.0800 
 39 H      -11.4710     0.7650     0.0560 H     1 <1>   0.0800 
 40 H      -11.1370     1.2860     1.7170 H     1 <1>   0.0800 
 41 H      -10.8520     4.4280    -0.1820 H     1 <1>   0.0800 
 42 H       -9.5760     4.1030    -1.3490 H     1 <1>   0.0800 
 43 H       -9.1720     4.6050     0.3060 H     1 <1>   0.0800 
@<TRIPOS>BOND
  1   1   2  1   
  2   1   3  1   
  3   2   4  2   
  4   2   5  1   
  5   3   6  2   
  6   3   7  1   
  7   4   6  1   
  8   4  22  1   
  9   5   8  1   
 10   5  23  1   
 11   5  24  1   
 12   6  25  1   
 13   7  26  1   
 14   7  27  1   
 15   7  28  1   
 16   8   9  1   
 17   8  10  1   
 18   8  29  1   
 19   9  11  1   
 20   9  30  1   
 21   9  31  1   
 22  10  12  1   
 23  10  32  1   
 24  10  33  1   
 25  11  13  ar  
 26  11  14  ar  
 27  12  13  1   
 28  12  34  1   
 29  12  35  1   
 30  13  15  ar  
 31  14  16  ar  
 32  14  36  1   
 33  15  17  ar  
 34  15  37  1   
 35  16  17  ar  
 36  16  18  1   
 37  17  19  1   
 38  18  20  1   
 39  19  21  1   
 40  20  38  1   
 41  20  39  1   
 42  20  40  1   
 43  21  41  1   
 44  21  42  1   
 45  21  43  1   
@<TRIPOS>SUBSTRUCTURE
  1 ****  13 GROUP 4 **** **** 0

# MOE 2024.06 (io_trps.svl 2023.06)
