@<TRIPOS>MOLECULE
NONAME
54 56 1 0 0 
SMALL
USER_CHARGES


@<TRIPOS>ATOM
  1 S       -0.1190    -0.6710    -0.6540 S.o2  1 <1>   1.4470 
  2 O        0.2660    -0.9660    -2.0180 O.2   1 <1>  -0.6500 
  3 O        0.1900     0.6260    -0.0930 O.2   1 <1>  -0.6500 
  4 N        0.6570    -1.8200     0.3220 N.am  1 <1>  -0.8490 
  5 C       -1.8790    -1.0270    -0.3980 C.ar  1 <1>  -0.0090 
  6 C        2.0830    -1.4840     0.4980 C.3   1 <1>   0.1960 
  7 C        0.5200    -3.1890    -0.2120 C.3   1 <1>   0.1960 
  8 C       -2.4890    -0.7740     0.8260 C.ar  1 <1>  -0.1500 
  9 C       -2.6630    -1.5770    -1.4050 C.ar  1 <1>  -0.1500 
 10 C        2.7990    -2.4740     1.4320 C.3   1 <1>   0.1400 
 11 C        1.1790    -4.2320     0.7080 C.3   1 <1>   0.1400 
 12 C       -3.8260    -1.0610     1.0370 C.ar  1 <1>  -0.1500 
 13 C       -3.9990    -1.8670    -1.1980 C.ar  1 <1>  -0.1500 
 14 N        2.6050    -3.8770     0.9650 N.am  1 <1>  -0.6600 
 15 C       -4.6030    -1.6170     0.0290 C.ar  1 <1>   0.1170 
 16 C        3.6600    -4.7020     0.6820 C.2   1 <1>   0.7800 
 17 N       -5.9540    -1.8870     0.2740 N.am  1 <1>  -0.5470 
 18 O        4.8170    -4.3650     0.8460 O.2   1 <1>  -0.5700 
 19 O        3.3850    -5.9140     0.1980 O.3   1 <1>  -0.4300 
 20 C       -6.7850    -2.8270    -0.2660 C.2   1 <1>   0.6900 
 21 C        4.4200    -6.8120    -0.1280 C.3   1 <1>   0.1200 
 22 O       -6.3630    -3.6870    -1.0160 O.2   1 <1>  -0.5700 
 23 N       -8.1090    -2.8030     0.0770 N.am  1 <1>  -0.6600 
 24 C        3.7830    -8.0860    -0.6760 C.3   1 <1>  -0.2400 
 25 C       -8.8290    -1.6690     0.6980 C.3   1 <1>   0.1400 
 26 C       -9.0580    -3.8170    -0.4340 C.3   1 <1>   0.1400 
 27 C      -10.2900    -1.8830     0.3190 C.3   1 <1>  -0.1600 
 28 C      -10.4180    -3.3890     0.1070 C.3   1 <1>  -0.1600 
 29 H        2.1730    -0.4970     0.9200 H     1 <1>   0.0800 
 30 H        2.5790    -1.4780    -0.4590 H     1 <1>   0.0800 
 31 H        0.9740    -3.2540    -1.1880 H     1 <1>   0.0800 
 32 H       -0.5230    -3.4360    -0.3150 H     1 <1>   0.0800 
 33 H       -1.9020    -0.3470     1.6230 H     1 <1>   0.1500 
 34 H       -2.2240    -1.7820    -2.3680 H     1 <1>   0.1500 
 35 H        2.3990    -2.3760     2.4260 H     1 <1>   0.0800 
 36 H        3.8460    -2.2300     1.4710 H     1 <1>   0.0800 
 37 H        1.1010    -5.2030     0.2530 H     1 <1>   0.0800 
 38 H        0.6500    -4.2620     1.6440 H     1 <1>   0.0800 
 39 H       -4.2670    -0.8550     1.9950 H     1 <1>   0.1500 
 40 H       -4.5800    -2.2890    -2.0000 H     1 <1>   0.1500 
 41 H       -6.3770    -1.3940     1.0500 H     1 <1>   0.3700 
 42 H        4.9890    -7.0150     0.7630 H     1 <1>   0.0800 
 43 H        5.0540    -6.3490    -0.8660 H     1 <1>   0.0800 
 44 H        3.1480    -8.5320     0.0690 H     1 <1>   0.0800 
 45 H        4.5510    -8.7900    -0.9380 H     1 <1>   0.0800 
 46 H        3.2070    -7.8630    -1.5560 H     1 <1>   0.0800 
 47 H       -8.4660    -0.7250     0.3280 H     1 <1>   0.0800 
 48 H       -8.7120    -1.7210     1.7670 H     1 <1>   0.0800 
 49 H       -8.7820    -4.8010    -0.0960 H     1 <1>   0.0800 
 50 H       -9.0510    -3.7920    -1.5110 H     1 <1>   0.0800 
 51 H      -10.4910    -1.3680    -0.6050 H     1 <1>   0.0800 
 52 H      -10.9600    -1.5170     1.0770 H     1 <1>   0.0800 
 53 H      -10.5880    -3.8800     1.0490 H     1 <1>   0.0800 
 54 H      -11.2140    -3.6440    -0.5700 H     1 <1>   0.0800 
@<TRIPOS>BOND
  1   1   2  2   
  2   1   3  2   
  3   1   4  am  
  4   1   5  1   
  5   4   6  1   
  6   4   7  1   
  7   5   8  ar  
  8   5   9  ar  
  9   6  10  1   
 10   6  29  1   
 11   6  30  1   
 12   7  11  1   
 13   7  31  1   
 14   7  32  1   
 15   8  12  ar  
 16   8  33  1   
 17   9  13  ar  
 18   9  34  1   
 19  10  14  1   
 20  10  35  1   
 21  10  36  1   
 22  11  14  1   
 23  11  37  1   
 24  11  38  1   
 25  12  15  ar  
 26  12  39  1   
 27  13  15  ar  
 28  13  40  1   
 29  14  16  am  
 30  15  17  1   
 31  16  18  2   
 32  16  19  1   
 33  17  20  am  
 34  17  41  1   
 35  19  21  1   
 36  20  22  2   
 37  20  23  am  
 38  21  24  1   
 39  21  42  1   
 40  21  43  1   
 41  23  25  1   
 42  23  26  1   
 43  24  44  1   
 44  24  45  1   
 45  24  46  1   
 46  25  27  1   
 47  25  47  1   
 48  25  48  1   
 49  26  28  1   
 50  26  49  1   
 51  26  50  1   
 52  27  28  1   
 53  27  51  1   
 54  27  52  1   
 55  28  53  1   
 56  28  54  1   
@<TRIPOS>SUBSTRUCTURE
  1 ****   5 GROUP 4 **** **** 0

# MOE 2024.06 (io_trps.svl 2023.06)
