@<TRIPOS>MOLECULE
NONAME
43 44 1 0 0 
SMALL
USER_CHARGES


@<TRIPOS>ATOM
  1 S        0.1280     0.5460    -0.5020 S.o2  1 <1>   1.3330 
  2 O       -0.4470     1.8660    -0.4330 O.2   1 <1>  -0.6500 
  3 O        1.3120     0.2820    -1.2800 O.2   1 <1>  -0.6500 
  4 N       -1.0440    -0.5060    -1.1840 N.am  1 <1>  -0.7570 
  5 C        0.3410    -0.1380     1.1480 C.3   1 <1>  -0.0550 
  6 C       -2.4100    -0.5890    -0.9690 C.ar  1 <1>   0.1990 
  7 C        1.3890     0.5920     2.0070 C.3   1 <1>  -0.2400 
  8 C       -3.0960     0.2310    -0.0770 C.ar  1 <1>  -0.1500 
  9 C       -3.1410    -1.5440    -1.6670 C.ar  1 <1>  -0.1500 
 10 C       -4.4590     0.0980     0.1050 C.ar  1 <1>  -0.1500 
 11 C       -4.5040    -1.6730    -1.4830 C.ar  1 <1>  -0.1500 
 12 C       -5.2020    -0.8500    -0.5990 C.ar  1 <1>   0.0860 
 13 C       -6.6320    -0.9890    -0.4190 C.2   1 <1>   0.5440 
 14 O       -7.0960    -2.0980    -0.2200 O.2   1 <1>  -0.5700 
 15 N       -7.4880     0.0920    -0.4740 N.am  1 <1>  -0.6600 
 16 C       -8.8910     0.0000     0.0160 C.3   1 <1>   0.1400 
 17 C       -7.1730     1.3630    -1.1820 C.3   1 <1>   0.1400 
 18 C       -9.1900     1.1820     0.9460 C.3   1 <1>  -0.1600 
 19 C       -7.4490     2.5520    -0.2560 C.3   1 <1>  -0.1600 
 20 C       -8.8930     2.5310     0.2700 C.3   1 <1>  -0.0800 
 21 C       -9.1300     3.6880     1.2460 C.3   1 <1>  -0.2400 
 22 H       -0.6320    -1.0200    -1.9570 H     1 <1>   0.4200 
 23 H        0.6280    -1.1680     1.0610 H     1 <1>   0.0800 
 24 H       -0.6010    -0.1080     1.6610 H     1 <1>   0.0800 
 25 H        2.3520     0.5520     1.5280 H     1 <1>   0.0800 
 26 H        1.4640     0.1310     2.9760 H     1 <1>   0.0800 
 27 H        1.1110     1.6240     2.1340 H     1 <1>   0.0800 
 28 H       -2.5730     0.9860     0.4800 H     1 <1>   0.1500 
 29 H       -2.6370    -2.1940    -2.3580 H     1 <1>   0.1500 
 30 H       -4.9690     0.7370     0.8050 H     1 <1>   0.1500 
 31 H       -5.0540    -2.4240    -2.0260 H     1 <1>   0.1500 
 32 H       -9.0450    -0.9220     0.5510 H     1 <1>   0.0800 
 33 H       -9.5590     0.0140    -0.8270 H     1 <1>   0.0800 
 34 H       -7.7990     1.4350    -2.0550 H     1 <1>   0.0800 
 35 H       -6.1490     1.3830    -1.5110 H     1 <1>   0.0800 
 36 H       -8.5920     1.0760     1.8340 H     1 <1>   0.0800 
 37 H      -10.2240     1.1420     1.2400 H     1 <1>   0.0800 
 38 H       -7.2740     3.4650    -0.7970 H     1 <1>   0.0800 
 39 H       -6.7570     2.5210     0.5670 H     1 <1>   0.0800 
 40 H       -9.5640     2.6480    -0.5660 H     1 <1>   0.0800 
 41 H       -8.4760     3.6070     2.0960 H     1 <1>   0.0800 
 42 H      -10.1480     3.6810     1.5940 H     1 <1>   0.0800 
 43 H       -8.9460     4.6300     0.7600 H     1 <1>   0.0800 
@<TRIPOS>BOND
  1   1   2  2   
  2   1   3  2   
  3   1   4  am  
  4   1   5  1   
  5   4   6  1   
  6   4  22  1   
  7   5   7  1   
  8   5  23  1   
  9   5  24  1   
 10   6   8  ar  
 11   6   9  ar  
 12   7  25  1   
 13   7  26  1   
 14   7  27  1   
 15   8  10  ar  
 16   8  28  1   
 17   9  11  ar  
 18   9  29  1   
 19  10  12  ar  
 20  10  30  1   
 21  11  12  ar  
 22  11  31  1   
 23  12  13  1   
 24  13  14  2   
 25  13  15  am  
 26  15  16  1   
 27  15  17  1   
 28  16  18  1   
 29  16  32  1   
 30  16  33  1   
 31  17  19  1   
 32  17  34  1   
 33  17  35  1   
 34  18  20  1   
 35  18  36  1   
 36  18  37  1   
 37  19  20  1   
 38  19  38  1   
 39  19  39  1   
 40  20  21  1   
 41  20  40  1   
 42  21  41  1   
 43  21  42  1   
 44  21  43  1   
@<TRIPOS>SUBSTRUCTURE
  1 ****  10 GROUP 4 **** **** 0

# MOE 2024.06 (io_trps.svl 2023.06)
