@<TRIPOS>MOLECULE
NONAME
50 52 1 0 0 
SMALL
USER_CHARGES


@<TRIPOS>ATOM
  1 O       -0.6830     0.4430    -2.9540 O.2   1 <1>  -0.5700 
  2 C       -0.0140    -0.2310    -2.2090 C.2   1 <1>   0.5690 
  3 N       -0.4520    -0.7640    -1.0310 N.am  1 <1>  -0.5470 
  4 C        1.4420    -0.5250    -2.5770 C.3   1 <1>   0.1710 
  5 C       -1.6770    -0.7260    -0.3480 C.ar  1 <1>   0.1170 
  6 N        2.3100    -0.8160    -1.3970 N.3   1 <1>  -0.8100 
  7 C       -2.8360    -0.1750    -0.8840 C.ar  1 <1>  -0.1500 
  8 C       -1.7380    -1.2690     0.9300 C.ar  1 <1>  -0.1500 
  9 C        2.5960     0.4270    -0.6360 C.3   1 <1>   0.1100 
 10 C        3.5910    -1.4220    -1.8310 C.3   1 <1>   0.1100 
 11 C       -4.0170    -0.1650    -0.1630 C.ar  1 <1>  -0.1500 
 12 C       -2.9170    -1.2610     1.6530 C.ar  1 <1>  -0.1500 
 13 C        3.5080     0.1790     0.5840 C.3   1 <1>   0.2090 
 14 C        4.5180    -1.7460    -0.6440 C.3   1 <1>   0.2090 
 15 C       -4.0660    -0.7090     1.1100 C.ar  1 <1>  -0.1430 
 16 N        4.7610    -0.5420     0.2050 N.pl3 1 <1>  -0.8380 
 17 C       -5.3620    -0.6960     1.9000 C.3   1 <1>  -0.0970 
 18 C        5.9940     0.1220     0.0440 C.ar  1 <1>   0.1000 
 19 C        7.2250    -0.5110     0.3020 C.ar  1 <1>   0.0820 
 20 C        6.0350     1.4390    -0.4100 C.ar  1 <1>  -0.1500 
 21 O        7.3030    -1.7880     0.7620 O.3   1 <1>  -0.3620 
 22 C        8.4230     0.1480     0.0880 C.ar  1 <1>  -0.1500 
 23 C        7.2340     2.1000    -0.6110 C.ar  1 <1>  -0.1500 
 24 C        6.8910    -1.9810     2.0960 C.3   1 <1>   0.0400 
 25 C        8.4320     1.4550    -0.3660 C.ar  1 <1>  -0.1500 
 26 H        0.3160    -1.2380    -0.5450 H     1 <1>   0.3700 
 27 H        1.8370     0.3090    -3.1310 H     1 <1>   0.0800 
 28 H        1.4320    -1.3780    -3.2310 H     1 <1>   0.0800 
 29 H       -2.8260     0.2500    -1.8700 H     1 <1>   0.1500 
 30 H       -0.8570    -1.7030     1.3650 H     1 <1>   0.1500 
 31 H        1.6750     0.8620    -0.2880 H     1 <1>   0.0800 
 32 H        3.0730     1.1440    -1.2810 H     1 <1>   0.0800 
 33 H        4.1090    -0.7500    -2.4940 H     1 <1>   0.0800 
 34 H        3.3920    -2.3330    -2.3670 H     1 <1>   0.0800 
 35 H       -4.8980     0.2690    -0.6000 H     1 <1>   0.1500 
 36 H       -2.9390    -1.6860     2.6410 H     1 <1>   0.1500 
 37 H        2.9740    -0.4160     1.3030 H     1 <1>   0.0800 
 38 H        3.7530     1.1140     1.0550 H     1 <1>   0.0800 
 39 H        5.4520    -2.1230    -1.0220 H     1 <1>   0.0800 
 40 H        4.0710    -2.5170    -0.0420 H     1 <1>   0.0800 
 41 H       -5.4340     0.2170     2.4620 H     1 <1>   0.0800 
 42 H       -5.3970    -1.5280     2.5800 H     1 <1>   0.0800 
 43 H       -6.2050    -0.7640     1.2370 H     1 <1>   0.0800 
 44 H        5.1230     1.9580    -0.6220 H     1 <1>   0.1500 
 45 H        9.3460    -0.3670     0.2800 H     1 <1>   0.1500 
 46 H        7.2350     3.1170    -0.9630 H     1 <1>   0.1500 
 47 H        7.0790    -3.0050     2.3610 H     1 <1>   0.0800 
 48 H        5.8410    -1.7670     2.1770 H     1 <1>   0.0800 
 49 H        7.4560    -1.3230     2.7310 H     1 <1>   0.0800 
 50 H        9.3660     1.9640    -0.5270 H     1 <1>   0.1500 
@<TRIPOS>BOND
  1   1   2  2   
  2   2   3  am  
  3   2   4  1   
  4   3   5  1   
  5   3  26  1   
  6   4   6  1   
  7   4  27  1   
  8   4  28  1   
  9   5   7  ar  
 10   5   8  ar  
 11   6   9  1   
 12   6  10  1   
 13   7  11  ar  
 14   7  29  1   
 15   8  12  ar  
 16   8  30  1   
 17   9  13  1   
 18   9  31  1   
 19   9  32  1   
 20  10  14  1   
 21  10  33  1   
 22  10  34  1   
 23  11  15  ar  
 24  11  35  1   
 25  12  15  ar  
 26  12  36  1   
 27  13  16  1   
 28  13  37  1   
 29  13  38  1   
 30  14  16  1   
 31  14  39  1   
 32  14  40  1   
 33  15  17  1   
 34  16  18  1   
 35  17  41  1   
 36  17  42  1   
 37  17  43  1   
 38  18  19  ar  
 39  18  20  ar  
 40  19  21  1   
 41  19  22  ar  
 42  20  23  ar  
 43  20  44  1   
 44  21  24  1   
 45  22  25  ar  
 46  22  45  1   
 47  23  25  ar  
 48  23  46  1   
 49  24  47  1   
 50  24  48  1   
 51  24  49  1   
 52  25  50  1   
@<TRIPOS>SUBSTRUCTURE
  1 ****   9 GROUP 4 **** **** 0

# MOE 2024.06 (io_trps.svl 2023.06)
