@<TRIPOS>MOLECULE
NONAME
45 46 1 0 0 
SMALL
USER_CHARGES


@<TRIPOS>ATOM
  1 O       -1.2510     1.0120     0.8930 O.3   1 <1>  -0.5600 
  2 C       -1.5690     1.7570    -0.2460 C.3   1 <1>   0.1200 
  3 C       -2.2400     0.9930     1.8810 C.3   1 <1>   0.1200 
  4 C       -2.8430     1.1990    -0.9090 C.3   1 <1>   0.3430 
  5 C       -3.5470     0.4010     1.3170 C.3   1 <1>   0.3430 
  6 N       -3.9880     1.1180     0.0660 N.4   1 <1>  -0.9590 
  7 C       -5.1740     0.4810    -0.5700 C.3   1 <1>   0.3430 
  8 C       -6.4290     0.7030     0.2780 C.3   1 <1>  -0.1600 
  9 C       -7.6630     0.1300    -0.4350 C.3   1 <1>  -0.1600 
 10 C       -8.9430     0.3400     0.3770 C.3   1 <1>   0.1200 
 11 O      -10.0020    -0.2220    -0.3550 O.3   1 <1>  -0.3630 
 12 C      -11.2830    -0.1980     0.1040 C.ar  1 <1>   0.0820 
 13 C      -12.2650    -0.7840    -0.6890 C.ar  1 <1>  -0.1430 
 14 C      -11.6400     0.3830     1.3190 C.ar  1 <1>  -0.1500 
 15 C      -13.5830    -0.7830    -0.2620 C.ar  1 <1>  -0.1500 
 16 C      -11.9060    -1.4250    -2.0220 C.3   1 <1>  -0.0970 
 17 C      -12.9600     0.3770     1.7340 C.ar  1 <1>  -0.1500 
 18 C      -13.9380    -0.2070     0.9470 C.ar  1 <1>  -0.1430 
 19 C      -15.3860    -0.2140     1.4000 C.3   1 <1>  -0.0970 
 20 H       -0.7360     1.6870    -0.9240 H     1 <1>   0.0800 
 21 H       -1.6930     2.7890     0.0370 H     1 <1>   0.0800 
 22 H       -2.3880     1.9950     2.2440 H     1 <1>   0.0800 
 23 H       -1.8780     0.3850     2.6920 H     1 <1>   0.0800 
 24 H       -2.6190     0.2170    -1.2920 H     1 <1>   0.0800 
 25 H       -3.1110     1.8260    -1.7440 H     1 <1>   0.0800 
 26 H       -4.3140     0.4620     2.0700 H     1 <1>   0.0800 
 27 H       -3.3790    -0.6410     1.0990 H     1 <1>   0.0800 
 28 H       -4.2380     2.0810     0.3260 H     1 <1>   0.4500 
 29 H       -5.0020    -0.5760    -0.7000 H     1 <1>   0.0800 
 30 H       -5.3370     0.9140    -1.5450 H     1 <1>   0.0800 
 31 H       -6.5780     1.7580     0.4350 H     1 <1>   0.0800 
 32 H       -6.3270     0.2160     1.2310 H     1 <1>   0.0800 
 33 H       -7.5320    -0.9280    -0.5950 H     1 <1>   0.0800 
 34 H       -7.7860     0.6080    -1.3920 H     1 <1>   0.0800 
 35 H       -9.1470     1.3870     0.5160 H     1 <1>   0.0800 
 36 H       -8.8870    -0.1630     1.3270 H     1 <1>   0.0800 
 37 H      -10.9130     0.8450     1.9560 H     1 <1>   0.1500 
 38 H      -14.3430    -1.2340    -0.8740 H     1 <1>   0.1500 
 39 H      -11.2020    -2.2220    -1.8630 H     1 <1>   0.0800 
 40 H      -11.4580    -0.6920    -2.6680 H     1 <1>   0.0800 
 41 H      -12.7760    -1.8260    -2.5090 H     1 <1>   0.0800 
 42 H      -13.2240     0.8300     2.6730 H     1 <1>   0.1500 
 43 H      -15.8760    -1.1140     1.0740 H     1 <1>   0.0800 
 44 H      -15.9010     0.6330     0.9830 H     1 <1>   0.0800 
 45 H      -15.4470    -0.1650     2.4720 H     1 <1>   0.0800 
@<TRIPOS>BOND
  1   1   2  1   
  2   1   3  1   
  3   2   4  1   
  4   2  20  1   
  5   2  21  1   
  6   3   5  1   
  7   3  22  1   
  8   3  23  1   
  9   4   6  1   
 10   4  24  1   
 11   4  25  1   
 12   5   6  1   
 13   5  26  1   
 14   5  27  1   
 15   6   7  1   
 16   6  28  1   
 17   7   8  1   
 18   7  29  1   
 19   7  30  1   
 20   8   9  1   
 21   8  31  1   
 22   8  32  1   
 23   9  10  1   
 24   9  33  1   
 25   9  34  1   
 26  10  11  1   
 27  10  35  1   
 28  10  36  1   
 29  11  12  1   
 30  12  13  ar  
 31  12  14  ar  
 32  13  15  ar  
 33  13  16  1   
 34  14  17  ar  
 35  14  37  1   
 36  15  18  ar  
 37  15  38  1   
 38  16  39  1   
 39  16  40  1   
 40  16  41  1   
 41  17  18  ar  
 42  17  42  1   
 43  18  19  1   
 44  19  43  1   
 45  19  44  1   
 46  19  45  1   
@<TRIPOS>SUBSTRUCTURE
  1 ****  10 GROUP 4 **** **** 0

# MOE 2024.06 (io_trps.svl 2023.06)
