@<TRIPOS>MOLECULE
NONAME
32 33 1 0 0 
SMALL
USER_CHARGES


@<TRIPOS>ATOM
  1 F        0.6550    -1.5740     1.9880 F     1 <1>  -0.3400 
  2 C        0.4680    -1.4910     0.6710 C.3   1 <1>   0.8180 
  3 F       -0.8600    -1.4490     0.5410 F     1 <1>  -0.3400 
  4 C        1.0060    -2.8240     0.0340 C.2   1 <1>  -0.0380 
  5 C        1.0560    -0.1670     0.1010 C.3   1 <1>   0.6000 
  6 N        2.2420    -2.8270    -0.5230 N.pl3 1 <1>  -0.8690 
  7 C        0.1840    -3.9400     0.0860 C.2   1 <1>  -0.1360 
  8 F        2.3830    -0.0980     0.2530 F     1 <1>  -0.3400 
  9 F        0.5940     0.9150     0.7280 F     1 <1>  -0.3400 
 10 C        2.9630    -3.8810    -1.2800 C.3   1 <1>   0.2090 
 11 C        0.3850    -5.2730    -0.2670 C.2   1 <1>   0.2990 
 12 C        2.9110    -5.2350    -0.5740 C.3   1 <1>   0.1860 
 13 N        1.5550    -5.8320    -0.5970 N.2   1 <1>  -0.1460 
 14 C       -0.7450    -6.1610    -0.2440 C.ar  1 <1>   0.0860 
 15 C       -1.1820    -6.7350     0.9500 C.ar  1 <1>  -0.1500 
 16 C       -1.4280    -6.4850    -1.4170 C.ar  1 <1>  -0.1500 
 17 C       -2.2530    -7.6080     0.9700 C.ar  1 <1>  -0.1500 
 18 C       -2.4990    -7.3590    -1.3990 C.ar  1 <1>  -0.1500 
 19 C       -2.9120    -7.9230    -0.2050 C.ar  1 <1>  -0.1500 
 20 H        0.8480    -0.0550    -0.9460 H     1 <1>   0.0800 
 21 H        2.8300    -1.9710    -0.4540 H     1 <1>   0.4000 
 22 H       -0.8040    -3.7730     0.4830 H     1 <1>   0.1500 
 23 H        3.9950    -3.5840    -1.3690 H     1 <1>   0.0800 
 24 H        2.5590    -3.9560    -2.2760 H     1 <1>   0.0800 
 25 H        3.2390    -5.1220     0.4460 H     1 <1>   0.0800 
 26 H        3.5890    -5.9070    -1.0710 H     1 <1>   0.0800 
 27 H        1.5610    -6.8340    -0.8160 H     1 <1>   0.4000 
 28 H       -0.6870    -6.4980     1.8770 H     1 <1>   0.1500 
 29 H       -1.1300    -6.0490    -2.3560 H     1 <1>   0.1500 
 30 H       -2.5830    -8.0460     1.8980 H     1 <1>   0.1500 
 31 H       -3.0200    -7.6020    -2.3110 H     1 <1>   0.1500 
 32 H       -3.7480    -8.6030    -0.1900 H     1 <1>   0.1500 
@<TRIPOS>BOND
  1   1   2  1   
  2   2   3  1   
  3   2   4  1   
  4   2   5  1   
  5   4   6  1   
  6   4   7  2   
  7   5   8  1   
  8   5   9  1   
  9   5  20  1   
 10   6  10  1   
 11   6  21  1   
 12   7  11  1   
 13   7  22  1   
 14  10  12  1   
 15  10  23  1   
 16  10  24  1   
 17  11  13  2   
 18  11  14  1   
 19  12  13  1   
 20  12  25  1   
 21  12  26  1   
 22  13  27  1   
 23  14  15  ar  
 24  14  16  ar  
 25  15  17  ar  
 26  15  28  1   
 27  16  18  ar  
 28  16  29  1   
 29  17  19  ar  
 30  17  30  1   
 31  18  19  ar  
 32  18  31  1   
 33  19  32  1   
@<TRIPOS>SUBSTRUCTURE
  1 ****   7 GROUP 4 **** **** 0

# MOE 2024.06 (io_trps.svl 2023.06)
