@<TRIPOS>MOLECULE
NONAME
55 55 1 0 0 
SMALL
USER_CHARGES


@<TRIPOS>ATOM
  1 N       -0.0210     0.1630    -0.3090 N.4   1 <1>  -0.9590 
  2 C       -1.1970    -0.5870     0.2730 C.3   1 <1>   0.3430 
  3 C        1.2530    -0.5070     0.1220 C.3   1 <1>   0.3430 
  4 C        0.0160     1.6110     0.0590 C.3   1 <1>   0.3430 
  5 C       -2.5930    -0.1340    -0.2460 C.3   1 <1>   0.3430 
  6 C        2.4370    -0.1120    -0.7630 C.3   1 <1>  -0.0220 
  7 C       -0.4880     2.4310    -1.1200 C.3   1 <1>  -0.2400 
  8 N       -3.7510    -0.9730     0.2440 N.4   1 <1>  -0.9590 
  9 C        3.6670    -0.9030    -0.3200 C.2   1 <1>  -0.2760 
 10 C       -5.0200    -0.5590    -0.4470 C.3   1 <1>   0.2630 
 11 C       -3.9660    -0.9000     1.7310 C.3   1 <1>   0.2630 
 12 C        3.8990    -2.1580    -0.7500 C.2   1 <1>  -0.2760 
 13 C        4.6270    -0.1510     0.6320 C.3   1 <1>   0.1380 
 14 C        5.1420    -2.9610    -0.3710 C.3   1 <1>  -0.0220 
 15 C        3.0050    -2.9930    -1.6660 C.3   1 <1>  -0.1020 
 16 C        5.6430    -1.1280     1.2630 C.3   1 <1>  -0.1600 
 17 C        3.8890     0.5280     1.8000 C.3   1 <1>  -0.2400 
 18 C        5.3820     0.9270    -0.1650 C.3   1 <1>  -0.2400 
 19 C        6.2420    -2.0960     0.2410 C.3   1 <1>  -0.1600 
 20 H       -0.0270     0.1050    -1.3390 H     1 <1>   0.4500 
 21 H       -1.1750    -0.4850     1.3450 H     1 <1>   0.0800 
 22 H       -1.0800    -1.6330     0.0390 H     1 <1>   0.0800 
 23 H        1.1450    -1.5780     0.0590 H     1 <1>   0.0800 
 24 H        1.4750    -0.2630     1.1480 H     1 <1>   0.0800 
 25 H        1.0280     1.9150     0.2810 H     1 <1>   0.0800 
 26 H       -0.5820     1.8000     0.9370 H     1 <1>   0.0800 
 27 H       -2.5780    -0.1700    -1.3230 H     1 <1>   0.0800 
 28 H       -2.7580     0.8900     0.0490 H     1 <1>   0.0800 
 29 H        2.6280     0.9420    -0.7180 H     1 <1>   0.0800 
 30 H        2.2210    -0.3430    -1.7900 H     1 <1>   0.0800 
 31 H        0.1360     2.2810    -1.9830 H     1 <1>   0.0800 
 32 H       -0.4370     3.4760    -0.8650 H     1 <1>   0.0800 
 33 H       -1.5090     2.2060    -1.3650 H     1 <1>   0.0800 
 34 H       -3.6010    -1.9660    -0.0070 H     1 <1>   0.4500 
 35 H       -5.2620     0.4660    -0.2160 H     1 <1>   0.0800 
 36 H       -5.8410    -1.1820    -0.1280 H     1 <1>   0.0800 
 37 H       -4.9190    -0.6570    -1.5170 H     1 <1>   0.0800 
 38 H       -4.1590     0.1170     2.0360 H     1 <1>   0.0800 
 39 H       -3.1020    -1.2640     2.2630 H     1 <1>   0.0800 
 40 H       -4.8140    -1.5040     2.0150 H     1 <1>   0.0800 
 41 H        5.5480    -3.4480    -1.2410 H     1 <1>   0.0800 
 42 H        4.8600    -3.7260     0.3310 H     1 <1>   0.0800 
 43 H        3.5180    -3.1860    -2.5920 H     1 <1>   0.0800 
 44 H        2.0720    -2.5220    -1.8980 H     1 <1>   0.0800 
 45 H        2.7880    -3.9380    -1.2000 H     1 <1>   0.0800 
 46 H        5.1530    -1.7130     2.0210 H     1 <1>   0.0800 
 47 H        6.4350    -0.5810     1.7430 H     1 <1>   0.0800 
 48 H        4.6030     0.9640     2.4780 H     1 <1>   0.0800 
 49 H        3.2460     1.3170     1.4630 H     1 <1>   0.0800 
 50 H        3.3130    -0.1950     2.3490 H     1 <1>   0.0800 
 51 H        5.8450     0.4950    -1.0340 H     1 <1>   0.0800 
 52 H        6.1500     1.3760     0.4390 H     1 <1>   0.0800 
 53 H        4.7250     1.7080    -0.4950 H     1 <1>   0.0800 
 54 H        6.7430    -1.5480    -0.5370 H     1 <1>   0.0800 
 55 H        6.9720    -2.7280     0.7180 H     1 <1>   0.0800 
@<TRIPOS>BOND
  1   1   2  1   
  2   1   3  1   
  3   1   4  1   
  4   1  20  1   
  5   2   5  1   
  6   2  21  1   
  7   2  22  1   
  8   3   6  1   
  9   3  23  1   
 10   3  24  1   
 11   4   7  1   
 12   4  25  1   
 13   4  26  1   
 14   5   8  1   
 15   5  27  1   
 16   5  28  1   
 17   6   9  1   
 18   6  29  1   
 19   6  30  1   
 20   7  31  1   
 21   7  32  1   
 22   7  33  1   
 23   8  10  1   
 24   8  11  1   
 25   8  34  1   
 26   9  12  2   
 27   9  13  1   
 28  10  35  1   
 29  10  36  1   
 30  10  37  1   
 31  11  38  1   
 32  11  39  1   
 33  11  40  1   
 34  12  14  1   
 35  12  15  1   
 36  13  16  1   
 37  13  17  1   
 38  13  18  1   
 39  14  19  1   
 40  14  41  1   
 41  14  42  1   
 42  15  43  1   
 43  15  44  1   
 44  15  45  1   
 45  16  19  1   
 46  16  46  1   
 47  16  47  1   
 48  17  48  1   
 49  17  49  1   
 50  17  50  1   
 51  18  51  1   
 52  18  52  1   
 53  18  53  1   
 54  19  54  1   
 55  19  55  1   
@<TRIPOS>SUBSTRUCTURE
  1 ****   3 GROUP 4 **** **** 0

# MOE 2024.06 (io_trps.svl 2023.06)
