@<TRIPOS>MOLECULE
NONAME
41 42 1 0 0 
SMALL
USER_CHARGES


@<TRIPOS>ATOM
  1 O       -0.3280     0.3460     0.1150 O.2   1 <1>  -0.5700 
  2 C        0.0670    -0.7880     0.2400 C.2   1 <1>   0.6590 
  3 O       -0.5750    -1.8180    -0.3030 O.3   1 <1>  -0.4300 
  4 C        1.3230    -1.1160     1.0540 C.3   1 <1>   0.1710 
  5 C       -1.7400    -1.6420    -1.0820 C.3   1 <1>   0.0400 
  6 N        2.5770    -1.2760     0.2640 N.3   1 <1>  -0.8100 
  7 C        3.6940    -1.7100     1.1320 C.3   1 <1>   0.1100 
  8 C        2.9410    -0.0150    -0.4280 C.3   1 <1>   0.1100 
  9 C        5.0080    -1.9040     0.3510 C.3   1 <1>   0.2090 
 10 C        4.2460    -0.1310    -1.2410 C.3   1 <1>   0.2090 
 11 N        5.3730    -0.6960    -0.4420 N.pl3 1 <1>  -0.8380 
 12 C        6.3390     0.1700     0.0750 C.ar  1 <1>   0.1000 
 13 C        7.6530     0.1560    -0.4060 C.ar  1 <1>  -0.1440 
 14 C        5.9970     1.0560     1.0880 C.ar  1 <1>  -0.1500 
 15 C        8.6000     1.0220     0.1380 C.ar  1 <1>  -0.1440 
 16 C        7.9960    -0.8270    -1.5260 C.3   1 <1>  -0.0970 
 17 C        6.9320     1.9160     1.6240 C.ar  1 <1>  -0.1500 
 18 C        8.2300     1.8970     1.1490 C.ar  1 <1>  -0.1500 
 19 C       10.0470     1.0500    -0.3340 C.3   1 <1>  -0.0970 
 20 H        1.1290    -2.0310     1.5840 H     1 <1>   0.0800 
 21 H        1.4590    -0.3370     1.7820 H     1 <1>   0.0800 
 22 H       -2.0770    -2.6080    -1.4140 H     1 <1>   0.0800 
 23 H       -1.5010    -1.0210    -1.9270 H     1 <1>   0.0800 
 24 H       -2.4950    -1.1720    -0.4770 H     1 <1>   0.0800 
 25 H        3.4370    -2.6450     1.5990 H     1 <1>   0.0800 
 26 H        3.8600    -0.9840     1.9080 H     1 <1>   0.0800 
 27 H        3.0500     0.7780     0.2910 H     1 <1>   0.0800 
 28 H        2.1520     0.2660    -1.1040 H     1 <1>   0.0800 
 29 H        4.9000    -2.7380    -0.3190 H     1 <1>   0.0800 
 30 H        5.8040    -2.1320     1.0380 H     1 <1>   0.0800 
 31 H        4.5240     0.8400    -1.6120 H     1 <1>   0.0800 
 32 H        4.0720    -0.7690    -2.0890 H     1 <1>   0.0800 
 33 H        4.9920     1.0670     1.4580 H     1 <1>   0.1500 
 34 H        7.2990    -0.7050    -2.3350 H     1 <1>   0.0800 
 35 H        7.9090    -1.8320    -1.1540 H     1 <1>   0.0800 
 36 H        8.9840    -0.6940    -1.9200 H     1 <1>   0.0800 
 37 H        6.6550     2.5990     2.4070 H     1 <1>   0.1500 
 38 H        8.9510     2.5720     1.5750 H     1 <1>   0.1500 
 39 H       10.4870     0.0750    -0.2270 H     1 <1>   0.0800 
 40 H       10.6310     1.7460     0.2410 H     1 <1>   0.0800 
 41 H       10.0890     1.3480    -1.3660 H     1 <1>   0.0800 
@<TRIPOS>BOND
  1   1   2  2   
  2   2   3  1   
  3   2   4  1   
  4   3   5  1   
  5   4   6  1   
  6   4  20  1   
  7   4  21  1   
  8   5  22  1   
  9   5  23  1   
 10   5  24  1   
 11   6   7  1   
 12   6   8  1   
 13   7   9  1   
 14   7  25  1   
 15   7  26  1   
 16   8  10  1   
 17   8  27  1   
 18   8  28  1   
 19   9  11  1   
 20   9  29  1   
 21   9  30  1   
 22  10  11  1   
 23  10  31  1   
 24  10  32  1   
 25  11  12  1   
 26  12  13  ar  
 27  12  14  ar  
 28  13  15  ar  
 29  13  16  1   
 30  14  17  ar  
 31  14  33  1   
 32  15  18  ar  
 33  15  19  1   
 34  16  34  1   
 35  16  35  1   
 36  16  36  1   
 37  17  18  ar  
 38  17  37  1   
 39  18  38  1   
 40  19  39  1   
 41  19  40  1   
 42  19  41  1   
@<TRIPOS>SUBSTRUCTURE
  1 ****  11 GROUP 4 **** **** 0

# MOE 2024.06 (io_trps.svl 2023.06)
