@<TRIPOS>MOLECULE
NONAME
33 33 1 0 0 
SMALL
USER_CHARGES


@<TRIPOS>ATOM
  1 CL       0.1430    -0.7200     1.3770 Cl    1 <1>  -0.1770 
  2 C       -1.2990    -1.3120     0.5800 C.ar  1 <1>   0.1770 
  3 C       -1.2560    -2.4870    -0.1700 C.ar  1 <1>   0.1990 
  4 C       -2.4670    -0.5910     0.7270 C.ar  1 <1>  -0.1500 
  5 N       -0.0890    -3.2280    -0.3470 N.am  1 <1>  -0.6930 
  6 C       -2.4370    -2.9250    -0.7580 C.ar  1 <1>  -0.1500 
  7 C       -3.6290    -1.0430     0.1240 C.ar  1 <1>  -0.1500 
  8 S        0.2270    -4.6540     0.5790 S.o2  1 <1>   1.3330 
  9 C        0.8590    -2.8580    -1.4460 C.3   1 <1>   0.2570 
 10 C       -3.6280    -2.2170    -0.6260 C.ar  1 <1>  -0.1440 
 11 O       -1.0420    -5.2930     0.8160 O.2   1 <1>  -0.6500 
 12 O        1.2950    -5.3600    -0.0920 O.2   1 <1>  -0.6500 
 13 C        0.8480    -3.9890     2.1090 C.3   1 <1>  -0.1350 
 14 C        2.2390    -2.3840    -0.9770 C.2   1 <1>   0.5690 
 15 C       -4.9240    -2.7230    -1.2840 C.3   1 <1>   1.1640 
 16 O        2.5090    -1.2090    -1.0590 O.2   1 <1>  -0.5700 
 17 N        3.1370    -3.2920    -0.5030 N.am  1 <1>  -0.7300 
 18 F       -4.7030    -3.5010    -2.3370 F     1 <1>  -0.3400 
 19 F       -5.6930    -1.7300    -1.7150 F     1 <1>  -0.3400 
 20 F       -5.6660    -3.4290    -0.4420 F     1 <1>  -0.3400 
 21 C        4.5120    -2.9910    -0.0370 C.3   1 <1>   0.0600 
 22 H       -2.4650     0.3140     1.3090 H     1 <1>   0.1500 
 23 H       -2.4070    -3.8440    -1.3200 H     1 <1>   0.1500 
 24 H       -4.5370    -0.4740     0.2470 H     1 <1>   0.1500 
 25 H        0.4240    -2.0700    -2.0330 H     1 <1>   0.0800 
 26 H        0.9920    -3.7060    -2.0940 H     1 <1>   0.0800 
 27 H        1.7060    -3.3720     1.9290 H     1 <1>   0.0800 
 28 H        1.1260    -4.7850     2.7700 H     1 <1>   0.0800 
 29 H        0.0930    -3.3960     2.5870 H     1 <1>   0.0800 
 30 H        2.8470    -4.2840    -0.4600 H     1 <1>   0.3700 
 31 H        4.7090    -1.9340    -0.1100 H     1 <1>   0.0800 
 32 H        5.2260    -3.5190    -0.6460 H     1 <1>   0.0800 
 33 H        4.6250    -3.2960     0.9880 H     1 <1>   0.0800 
@<TRIPOS>BOND
  1   1   2  1   
  2   2   3  ar  
  3   2   4  ar  
  4   3   5  1   
  5   3   6  ar  
  6   4   7  ar  
  7   4  22  1   
  8   5   8  am  
  9   5   9  1   
 10   6  10  ar  
 11   6  23  1   
 12   7  10  ar  
 13   7  24  1   
 14   8  11  2   
 15   8  12  2   
 16   8  13  1   
 17   9  14  1   
 18   9  25  1   
 19   9  26  1   
 20  10  15  1   
 21  13  27  1   
 22  13  28  1   
 23  13  29  1   
 24  14  16  2   
 25  14  17  am  
 26  15  18  1   
 27  15  19  1   
 28  15  20  1   
 29  17  21  1   
 30  17  30  1   
 31  21  31  1   
 32  21  32  1   
 33  21  33  1   
@<TRIPOS>SUBSTRUCTURE
  1 ****   3 GROUP 4 **** **** 0

# MOE 2024.06 (io_trps.svl 2023.06)
