@<TRIPOS>MOLECULE
NONAME
41 45 1 0 0 
SMALL
USER_CHARGES


@<TRIPOS>ATOM
  1 CL       0.5250     0.0080     0.6760 Cl    1 <1>  -0.1770 
  2 C        0.1900    -1.6590     0.2640 C.ar  1 <1>   0.1770 
  3 C        1.1990    -2.4960    -0.2130 C.ar  1 <1>   0.0540 
  4 C       -1.1060    -2.1030     0.4510 C.ar  1 <1>  -0.1500 
  5 C        2.5550    -2.0470    -0.4330 C.2   1 <1>   0.4620 
  6 C        0.8460    -3.8210    -0.4770 C.ar  1 <1>  -0.1500 
  7 C       -1.4290    -3.4190     0.1720 C.ar  1 <1>  -0.1500 
  8 N        2.9170    -1.0020    -1.0850 N.2   1 <1>  -0.4100 
  9 N        3.6020    -2.7360     0.0240 N.2   1 <1>  -0.5650 
 10 C       -0.4470    -4.2780    -0.2910 C.ar  1 <1>  -0.1500 
 11 O        4.2120    -0.9550    -1.0680 O.3   1 <1>  -0.0190 
 12 C        4.5680    -2.0180    -0.3910 C.2   1 <1>   0.2980 
 13 C        6.0670    -2.2720    -0.1800 C.3   1 <1>   0.1800 
 14 C        6.7810    -2.4150    -1.5460 C.3   1 <1>  -0.1600 
 15 C        6.3160    -3.5680     0.6340 C.3   1 <1>  -0.1600 
 16 C        6.7040    -1.0890     0.5880 C.3   1 <1>  -0.1600 
 17 C        8.2910    -2.6490    -1.3530 C.3   1 <1>  -0.0800 
 18 C        7.8230    -3.8100     0.8380 C.3   1 <1>  -0.0800 
 19 C        8.2140    -1.3170     0.7910 C.3   1 <1>  -0.0800 
 20 C        8.5040    -3.9370    -0.5370 C.3   1 <1>  -0.1600 
 21 C        8.8930    -1.4570    -0.5840 C.3   1 <1>  -0.1600 
 22 C        8.4270    -2.6130     1.5950 C.3   1 <1>  -0.1600 
 23 H       -1.8540    -1.4230     0.8170 H     1 <1>   0.1500 
 24 H        1.6030    -4.4990    -0.8350 H     1 <1>   0.1500 
 25 H       -2.4350    -3.7740     0.3150 H     1 <1>   0.1500 
 26 H       -0.6900    -5.3050    -0.5060 H     1 <1>   0.1500 
 27 H        6.6310    -1.5250    -2.1320 H     1 <1>   0.0800 
 28 H        6.3530    -3.2380    -2.0910 H     1 <1>   0.0800 
 29 H        5.8830    -4.4070     0.1180 H     1 <1>   0.0800 
 30 H        5.8300    -3.4920     1.5910 H     1 <1>   0.0800 
 31 H        6.2220    -0.9810     1.5440 H     1 <1>   0.0800 
 32 H        6.5520    -0.1740     0.0430 H     1 <1>   0.0800 
 33 H        8.7710    -2.7430    -2.3120 H     1 <1>   0.0800 
 34 H        7.9730    -4.7130     1.4050 H     1 <1>   0.0800 
 35 H        8.6400    -0.4840     1.3250 H     1 <1>   0.0800 
 36 H        9.5570    -4.1150    -0.4050 H     1 <1>   0.0800 
 37 H        8.0960    -4.7790    -1.0700 H     1 <1>   0.0800 
 38 H        8.7600    -0.5520    -1.1510 H     1 <1>   0.0800 
 39 H        9.9510    -1.6060    -0.4540 H     1 <1>   0.0800 
 40 H        9.4790    -2.7750     1.7520 H     1 <1>   0.0800 
 41 H        7.9650    -2.5220     2.5630 H     1 <1>   0.0800 
@<TRIPOS>BOND
  1   1   2  1   
  2   2   3  ar  
  3   2   4  ar  
  4   3   5  1   
  5   3   6  ar  
  6   4   7  ar  
  7   4  23  1   
  8   5   8  2   
  9   5   9  1   
 10   6  10  ar  
 11   6  24  1   
 12   7  10  ar  
 13   7  25  1   
 14   8  11  1   
 15   9  12  2   
 16  10  26  1   
 17  11  12  1   
 18  12  13  1   
 19  13  14  1   
 20  13  15  1   
 21  13  16  1   
 22  14  17  1   
 23  14  27  1   
 24  14  28  1   
 25  15  18  1   
 26  15  29  1   
 27  15  30  1   
 28  16  19  1   
 29  16  31  1   
 30  16  32  1   
 31  17  20  1   
 32  17  21  1   
 33  17  33  1   
 34  18  20  1   
 35  18  22  1   
 36  18  34  1   
 37  19  21  1   
 38  19  22  1   
 39  19  35  1   
 40  20  36  1   
 41  20  37  1   
 42  21  38  1   
 43  21  39  1   
 44  22  40  1   
 45  22  41  1   
@<TRIPOS>SUBSTRUCTURE
  1 ****  12 GROUP 4 **** **** 0

# MOE 2024.06 (io_trps.svl 2023.06)
