@<TRIPOS>MOLECULE
NONAME
35 36 1 0 0 
SMALL
USER_CHARGES


@<TRIPOS>ATOM
  1 CL      -0.3040     0.1350     1.6880 Cl    1 <1>  -0.1770 
  2 C       -1.6900    -0.6430     0.9700 C.ar  1 <1>   0.1770 
  3 C       -2.0550    -0.3210    -0.3220 C.ar  1 <1>  -0.1500 
  4 C       -2.4020    -1.5720     1.7040 C.ar  1 <1>  -0.1500 
  5 C       -3.1580    -0.9370    -0.8900 C.ar  1 <1>  -0.1500 
  6 C       -3.5040    -2.1870     1.1350 C.ar  1 <1>  -0.1500 
  7 C       -3.8910    -1.8680    -0.1620 C.ar  1 <1>  -0.1430 
  8 C       -5.1060    -2.5340    -0.7840 C.3   1 <1>   0.4870 
  9 N       -6.3370    -1.9690    -0.1650 N.4   1 <1>  -0.9590 
 10 C       -7.5480    -2.7410    -0.5570 C.3   1 <1>   0.3430 
 11 C       -6.4840    -0.5110    -0.4450 C.3   1 <1>   0.3430 
 12 C       -8.7490    -2.2400     0.2400 C.3   1 <1>  -0.1600 
 13 C       -7.6620     0.0420     0.3540 C.3   1 <1>  -0.1600 
 14 C       -8.9720    -0.7230     0.0770 C.3   1 <1>  -0.0190 
 15 C      -10.0810    -0.2420     1.0090 C.2   1 <1>   0.5690 
 16 O       -9.9490    -0.3770     2.1970 O.2   1 <1>  -0.5700 
 17 N      -11.1930     0.3260     0.5120 N.am  1 <1>  -0.8000 
 18 H       -1.4760     0.4020    -0.8710 H     1 <1>   0.1500 
 19 H       -2.0880    -1.8070     2.7070 H     1 <1>   0.1500 
 20 H       -3.4290    -0.6820    -1.9010 H     1 <1>   0.1500 
 21 H       -4.0450    -2.9160     1.7150 H     1 <1>   0.1500 
 22 H       -5.0550    -3.5960    -0.6040 H     1 <1>   0.0800 
 23 H       -5.1130    -2.3680    -1.8490 H     1 <1>   0.0800 
 24 H       -6.2200    -2.0570     0.8530 H     1 <1>   0.4500 
 25 H       -7.4010    -3.7910    -0.3570 H     1 <1>   0.0800 
 26 H       -7.7360    -2.6180    -1.6120 H     1 <1>   0.0800 
 27 H       -6.6510    -0.3530    -1.4980 H     1 <1>   0.0800 
 28 H       -5.5860     0.0150    -0.1590 H     1 <1>   0.0800 
 29 H       -8.6030    -2.4790     1.2800 H     1 <1>   0.0800 
 30 H       -9.6320    -2.7650    -0.0830 H     1 <1>   0.0800 
 31 H       -7.7980     1.0810     0.1080 H     1 <1>   0.0800 
 32 H       -7.4250    -0.0050     1.4030 H     1 <1>   0.0800 
 33 H       -9.2730    -0.5290    -0.9370 H     1 <1>   0.0800 
 34 H      -11.9170     0.6380     1.1640 H     1 <1>   0.3700 
 35 H      -11.3900     0.4840    -0.4760 H     1 <1>   0.3700 
@<TRIPOS>BOND
  1   1   2  1   
  2   2   3  ar  
  3   2   4  ar  
  4   3   5  ar  
  5   3  18  1   
  6   4   6  ar  
  7   4  19  1   
  8   5   7  ar  
  9   5  20  1   
 10   6   7  ar  
 11   6  21  1   
 12   7   8  1   
 13   8   9  1   
 14   8  22  1   
 15   8  23  1   
 16   9  10  1   
 17   9  11  1   
 18   9  24  1   
 19  10  12  1   
 20  10  25  1   
 21  10  26  1   
 22  11  13  1   
 23  11  27  1   
 24  11  28  1   
 25  12  14  1   
 26  12  29  1   
 27  12  30  1   
 28  13  14  1   
 29  13  31  1   
 30  13  32  1   
 31  14  15  1   
 32  14  33  1   
 33  15  16  2   
 34  15  17  am  
 35  17  34  1   
 36  17  35  1   
@<TRIPOS>SUBSTRUCTURE
  1 ****   9 GROUP 4 **** **** 0

# MOE 2024.06 (io_trps.svl 2023.06)
