@<TRIPOS>MOLECULE
NONAME
41 42 1 0 0 
SMALL
USER_CHARGES


@<TRIPOS>ATOM
  1 F       -1.1790     0.1730     1.3530 F     1 <1>  -0.1900 
  2 C       -0.6690     1.2050     0.7330 C.ar  1 <1>   0.1900 
  3 C       -0.9410     1.3760    -0.6110 C.ar  1 <1>  -0.1500 
  4 C        0.1220     2.0860     1.4450 C.ar  1 <1>  -0.1500 
  5 C       -0.3970     2.4710    -1.2590 C.ar  1 <1>  -0.1500 
  6 C        0.6630     3.1790     0.7870 C.ar  1 <1>  -0.1500 
  7 C        0.4050     3.3740    -0.5710 C.ar  1 <1>   0.0830 
  8 O        0.8930     4.4140    -1.2960 O.3   1 <1>  -0.3630 
  9 C        1.8510     5.3230    -0.7980 C.3   1 <1>   0.1200 
 10 C        3.2390     4.6720    -0.8480 C.3   1 <1>  -0.1600 
 11 C        4.3370     5.6510    -0.4090 C.3   1 <1>  -0.1600 
 12 C        5.7230     4.9960    -0.4980 C.3   1 <1>  -0.1600 
 13 C        6.8220     5.9760    -0.0850 C.3   1 <1>   0.3430 
 14 N        8.1620     5.3570    -0.2730 N.4   1 <1>  -0.9590 
 15 C        8.4610     4.2470     0.6670 C.3   1 <1>   0.3430 
 16 C        9.2700     6.3290    -0.1120 C.3   1 <1>   0.3430 
 17 C        9.9780     4.1210     0.6370 C.3   1 <1>  -0.1600 
 18 C       10.5010     5.4640     0.1190 C.3   1 <1>  -0.1600 
 19 H       -1.5620     0.6700    -1.1320 H     1 <1>   0.1500 
 20 H        0.3060     1.9160     2.4910 H     1 <1>   0.1500 
 21 H       -0.5900     2.6350    -2.3050 H     1 <1>   0.1500 
 22 H        1.2730     3.8620     1.3450 H     1 <1>   0.1500 
 23 H        1.5710     5.6340     0.1920 H     1 <1>   0.0800 
 24 H        1.8260     6.1830    -1.4430 H     1 <1>   0.0800 
 25 H        3.4270     4.3510    -1.8590 H     1 <1>   0.0800 
 26 H        3.2520     3.8060    -0.2090 H     1 <1>   0.0800 
 27 H        4.1460     5.9670     0.6030 H     1 <1>   0.0800 
 28 H        4.3060     6.5220    -1.0440 H     1 <1>   0.0800 
 29 H        5.8900     4.6770    -1.5130 H     1 <1>   0.0800 
 30 H        5.7370     4.1320     0.1440 H     1 <1>   0.0800 
 31 H        6.6880     6.2650     0.9460 H     1 <1>   0.0800 
 32 H        6.7470     6.8620    -0.6950 H     1 <1>   0.0800 
 33 H        8.2230     4.9780    -1.2270 H     1 <1>   0.4500 
 34 H        7.9770     3.3290     0.3710 H     1 <1>   0.0800 
 35 H        8.1420     4.5150     1.6620 H     1 <1>   0.0800 
 36 H        9.0950     6.9430     0.7580 H     1 <1>   0.0800 
 37 H        9.3810     6.9590    -0.9800 H     1 <1>   0.0800 
 38 H       10.2660     3.3230    -0.0270 H     1 <1>   0.0800 
 39 H       10.3540     3.8980     1.6200 H     1 <1>   0.0800 
 40 H       11.1650     5.9340     0.8240 H     1 <1>   0.0800 
 41 H       11.0300     5.3280    -0.8090 H     1 <1>   0.0800 
@<TRIPOS>BOND
  1   1   2  1   
  2   2   3  ar  
  3   2   4  ar  
  4   3   5  ar  
  5   3  19  1   
  6   4   6  ar  
  7   4  20  1   
  8   5   7  ar  
  9   5  21  1   
 10   6   7  ar  
 11   6  22  1   
 12   7   8  1   
 13   8   9  1   
 14   9  10  1   
 15   9  23  1   
 16   9  24  1   
 17  10  11  1   
 18  10  25  1   
 19  10  26  1   
 20  11  12  1   
 21  11  27  1   
 22  11  28  1   
 23  12  13  1   
 24  12  29  1   
 25  12  30  1   
 26  13  14  1   
 27  13  31  1   
 28  13  32  1   
 29  14  15  1   
 30  14  16  1   
 31  14  33  1   
 32  15  17  1   
 33  15  34  1   
 34  15  35  1   
 35  16  18  1   
 36  16  36  1   
 37  16  37  1   
 38  17  18  1   
 39  17  38  1   
 40  17  39  1   
 41  18  40  1   
 42  18  41  1   
@<TRIPOS>SUBSTRUCTURE
  1 ****  10 GROUP 4 **** **** 0

# MOE 2024.06 (io_trps.svl 2023.06)
