@<TRIPOS>MOLECULE
NONAME
51 54 1 0 0 
SMALL
USER_CHARGES


@<TRIPOS>ATOM
  1 O       -0.7440     0.8870     0.0010 O.2   1 <1>  -0.5700 
  2 C       -0.6090     2.0670    -0.2170 C.2   1 <1>   0.5690 
  3 N       -1.7520     2.7970    -0.2860 N.am  1 <1>  -0.7300 
  4 C        0.8240     2.6470    -0.3860 C.3   1 <1>   0.0610 
  5 C       -2.0300     4.2370    -0.4250 C.3   1 <1>   0.2840 
  6 C        0.9620     3.4990    -1.6760 C.3   1 <1>  -0.1600 
  7 C        1.2190     3.5030     0.8440 C.3   1 <1>  -0.1600 
  8 C        1.8650     1.4970    -0.4930 C.3   1 <1>  -0.1600 
  9 C       -3.2510     4.5760     0.4080 C.ar  1 <1>  -0.1440 
 10 C        2.3870     4.0670    -1.8290 C.3   1 <1>   0.0000 
 11 C        2.6440     4.0730     0.6990 C.3   1 <1>   0.0000 
 12 C        3.3040     2.0280    -0.6420 C.3   1 <1>   0.0000 
 13 C       -4.4140     5.0340    -0.1950 C.ar  1 <1>   0.1600 
 14 C       -3.2250     4.4360     1.7820 C.ar  1 <1>  -0.1500 
 15 C        2.7190     4.9200    -0.5880 C.3   1 <1>  -0.1600 
 16 C        3.3830     2.8950    -1.9120 C.3   1 <1>  -0.1600 
 17 C        2.4800     4.9230    -3.0980 C.3   1 <1>  -0.2400 
 18 C        3.6380     2.9020     0.5820 C.3   1 <1>  -0.1600 
 19 C        2.9920     4.9350     1.9190 C.3   1 <1>  -0.2400 
 20 C        4.2910     0.8580    -0.7400 C.3   1 <1>  -0.2400 
 21 N       -5.5240     5.3580     0.4480 N.ar  1 <1>  -0.6200 
 22 C       -4.3740     4.7690     2.4670 C.ar  1 <1>  -0.1500 
 23 C       -5.4780     5.2180     1.7630 C.ar  1 <1>   0.1600 
 24 H       -2.5970     2.2400    -0.1350 H     1 <1>   0.3700 
 25 H       -2.2110     4.4600    -1.4630 H     1 <1>   0.0800 
 26 H       -1.2000     4.8280    -0.0900 H     1 <1>   0.0800 
 27 H        0.2760     4.3210    -1.6650 H     1 <1>   0.0800 
 28 H        0.7200     2.8900    -2.5290 H     1 <1>   0.0800 
 29 H        1.1630     2.8910     1.7280 H     1 <1>   0.0800 
 30 H        0.5310     4.3130     0.9770 H     1 <1>   0.0800 
 31 H        1.6210     0.8730    -1.3350 H     1 <1>   0.0800 
 32 H        1.8070     0.8790     0.3870 H     1 <1>   0.0800 
 33 H       -4.4390     5.1410    -1.2660 H     1 <1>   0.1500 
 34 H       -2.3500     4.0790     2.2970 H     1 <1>   0.1500 
 35 H        2.0320     5.7450    -0.5190 H     1 <1>   0.0800 
 36 H        3.7090     5.3300    -0.6890 H     1 <1>   0.0800 
 37 H        3.1630     2.2920    -2.7760 H     1 <1>   0.0800 
 38 H        4.3830     3.2760    -2.0270 H     1 <1>   0.0800 
 39 H        2.2460     4.3350    -3.9670 H     1 <1>   0.0800 
 40 H        3.4750     5.3160    -3.2130 H     1 <1>   0.0800 
 41 H        1.7930     5.7490    -3.0490 H     1 <1>   0.0800 
 42 H        3.5990     2.3020     1.4750 H     1 <1>   0.0800 
 43 H        4.6390     3.2840     0.4900 H     1 <1>   0.0800 
 44 H        2.3070     5.7600     2.0080 H     1 <1>   0.0800 
 45 H        3.9880     5.3300     1.8280 H     1 <1>   0.0800 
 46 H        2.9400     4.3500     2.8200 H     1 <1>   0.0800 
 47 H        4.0620     0.2430    -1.5920 H     1 <1>   0.0800 
 48 H        4.2390     0.2470     0.1430 H     1 <1>   0.0800 
 49 H        5.2980     1.2220    -0.8440 H     1 <1>   0.0800 
 50 H       -4.4170     4.6800     3.5380 H     1 <1>   0.1500 
 51 H       -6.3700     5.4740     2.3100 H     1 <1>   0.1500 
@<TRIPOS>BOND
  1   1   2  2   
  2   2   3  am  
  3   2   4  1   
  4   3   5  1   
  5   3  24  1   
  6   4   6  1   
  7   4   7  1   
  8   4   8  1   
  9   5   9  1   
 10   5  25  1   
 11   5  26  1   
 12   6  10  1   
 13   6  27  1   
 14   6  28  1   
 15   7  11  1   
 16   7  29  1   
 17   7  30  1   
 18   8  12  1   
 19   8  31  1   
 20   8  32  1   
 21   9  13  ar  
 22   9  14  ar  
 23  10  15  1   
 24  10  16  1   
 25  10  17  1   
 26  11  15  1   
 27  11  18  1   
 28  11  19  1   
 29  12  16  1   
 30  12  18  1   
 31  12  20  1   
 32  13  21  ar  
 33  13  33  1   
 34  14  22  ar  
 35  14  34  1   
 36  15  35  1   
 37  15  36  1   
 38  16  37  1   
 39  16  38  1   
 40  17  39  1   
 41  17  40  1   
 42  17  41  1   
 43  18  42  1   
 44  18  43  1   
 45  19  44  1   
 46  19  45  1   
 47  19  46  1   
 48  20  47  1   
 49  20  48  1   
 50  20  49  1   
 51  21  23  ar  
 52  22  23  ar  
 53  22  50  1   
 54  23  51  1   
@<TRIPOS>SUBSTRUCTURE
  1 ****   4 GROUP 4 **** **** 0

# MOE 2024.06 (io_trps.svl 2023.06)
