@<TRIPOS>MOLECULE
NONAME
54 57 1 0 0 
SMALL
USER_CHARGES


@<TRIPOS>ATOM
  1 O        0.0110    -0.1590    -0.6880 O.3   1 <1>  -0.3630 
  2 C       -1.1960     0.3800    -0.3520 C.ar  1 <1>   0.0830 
  3 C        0.2000    -1.5440    -0.8720 C.3   1 <1>   0.0400 
  4 C       -1.2700     1.7640    -0.1850 C.ar  1 <1>   0.0830 
  5 C       -2.3380    -0.3940    -0.1730 C.ar  1 <1>  -0.1500 
  6 O       -0.1320     2.4930    -0.3670 O.3   1 <1>  -0.3630 
  7 C       -2.4860     2.3470     0.1570 C.ar  1 <1>  -0.1500 
  8 C       -3.5480     0.1920     0.1690 C.ar  1 <1>  -0.1430 
  9 C       -0.1020     3.8940    -0.2100 C.3   1 <1>   0.0400 
 10 C       -3.6200     1.5710     0.3340 C.ar  1 <1>  -0.1430 
 11 C       -4.7640    -0.7020     0.3660 C.3   1 <1>   0.4860 
 12 C       -4.9320     2.2560     0.6920 C.3   1 <1>  -0.0160 
 13 N       -6.0140     0.0850     0.2070 N.4   1 <1>  -0.9590 
 14 C       -6.0160     1.2640     1.1210 C.3   1 <1>   0.3430 
 15 C       -7.2270    -0.7430     0.3750 C.3   1 <1>   0.4810 
 16 C       -8.4200    -0.0190    -0.2220 C.2   1 <1>  -0.2540 
 17 C       -8.3620     1.1260    -1.0740 C.2   1 <1>  -0.2880 
 18 C       -9.8750    -0.7930     0.2710 C.3   1 <1>   0.1160 
 19 C       -9.9080     1.6640    -1.5710 C.3   1 <1>  -0.0220 
 20 C      -11.5580    -0.5980    -0.0170 C.3   1 <1>   0.0000 
 21 C      -10.2940     0.1770    -0.4770 C.3   1 <1>   0.0000 
 22 C      -11.2920     0.7640    -1.0310 C.3   1 <1>   0.0000 
 23 C      -12.4050    -0.2630     1.2390 C.3   1 <1>  -0.2400 
 24 C      -12.2000    -1.8160    -0.7300 C.3   1 <1>  -0.2400 
 25 H        1.2330    -1.7050    -1.1260 H     1 <1>   0.0800 
 26 H       -0.4290    -1.8800    -1.6770 H     1 <1>   0.0800 
 27 H       -0.0320    -2.0530     0.0460 H     1 <1>   0.0800 
 28 H       -2.2860    -1.4590    -0.2980 H     1 <1>   0.1500 
 29 H       -2.5600     3.4100     0.2860 H     1 <1>   0.1500 
 30 H        0.9030     4.2260    -0.4010 H     1 <1>   0.0800 
 31 H       -0.3800     4.1390     0.7990 H     1 <1>   0.0800 
 32 H       -0.7740     4.3400    -0.9200 H     1 <1>   0.0800 
 33 H       -4.7240    -1.1340     1.3530 H     1 <1>   0.0800 
 34 H       -4.7380    -1.5000    -0.3570 H     1 <1>   0.0800 
 35 H       -5.2820     2.8120    -0.1600 H     1 <1>   0.0800 
 36 H       -4.7700     2.9580     1.4910 H     1 <1>   0.0800 
 37 H       -6.0350     0.4370    -0.7570 H     1 <1>   0.4500 
 38 H       -6.9760     1.7540     1.1010 H     1 <1>   0.0800 
 39 H       -5.8220     0.9390     2.1300 H     1 <1>   0.0800 
 40 H       -7.4000    -0.9290     1.4230 H     1 <1>   0.0800 
 41 H       -7.1090    -1.6900    -0.1260 H     1 <1>   0.0800 
 42 H       -7.5220     1.6850    -1.4490 H     1 <1>   0.1500 
 43 H       -9.8350    -0.6910     1.3450 H     1 <1>   0.0000 
 44 H       -9.9250     1.6870    -2.6490 H     1 <1>   0.0800 
 45 H      -10.0300     2.6870    -1.2530 H     1 <1>   0.0800 
 46 H      -10.0320    -0.4230    -1.4460 H     1 <1>   0.0000 
 47 H      -10.1870     0.9700     0.3670 H     1 <1>   0.0000 
 48 H      -11.7140     0.4150    -1.9610 H     1 <1>   0.0000 
 49 H      -12.0040     0.5840     1.7670 H     1 <1>   0.0800 
 50 H      -12.4260    -1.1030     1.9110 H     1 <1>   0.0800 
 51 H      -13.4150    -0.0300     0.9510 H     1 <1>   0.0800 
 52 H      -11.6470    -2.0890    -1.6110 H     1 <1>   0.0800 
 53 H      -13.2090    -1.5840    -1.0250 H     1 <1>   0.0800 
 54 H      -12.2240    -2.6640    -0.0690 H     1 <1>   0.0800 
@<TRIPOS>BOND
  1   1   2  1   
  2   1   3  1   
  3   2   4  ar  
  4   2   5  ar  
  5   3  25  1   
  6   3  26  1   
  7   3  27  1   
  8   4   6  1   
  9   4   7  ar  
 10   5   8  ar  
 11   5  28  1   
 12   6   9  1   
 13   7  10  ar  
 14   7  29  1   
 15   8  10  ar  
 16   8  11  1   
 17   9  30  1   
 18   9  31  1   
 19   9  32  1   
 20  10  12  1   
 21  11  13  1   
 22  11  33  1   
 23  11  34  1   
 24  12  14  1   
 25  12  35  1   
 26  12  36  1   
 27  13  14  1   
 28  13  15  1   
 29  13  37  1   
 30  14  38  1   
 31  14  39  1   
 32  15  16  1   
 33  15  40  1   
 34  15  41  1   
 35  16  17  2   
 36  16  18  1   
 37  17  19  1   
 38  17  42  1   
 39  18  20  1   
 40  18  21  1   
 41  18  43  1   
 42  19  22  1   
 43  19  44  1   
 44  19  45  1   
 45  20  22  1   
 46  20  23  1   
 47  20  24  1   
 48  21  22  1   
 49  21  46  1   
 50  21  47  1   
 51  22  48  1   
 52  23  49  1   
 53  23  50  1   
 54  23  51  1   
 55  24  52  1   
 56  24  53  1   
 57  24  54  1   
@<TRIPOS>SUBSTRUCTURE
  1 ****  13 GROUP 4 **** **** 0

# MOE 2024.06 (io_trps.svl 2023.06)
