@<TRIPOS>MOLECULE
NONAME
48 48 1 0 0 
SMALL
USER_CHARGES


@<TRIPOS>ATOM
  1 N        0.0890     0.1450     0.2040 N.4   1 <1>  -0.9590 
  2 C       -1.1390    -0.7360     0.1960 C.3   1 <1>   0.3430 
  3 C        1.3140    -0.6900     0.4200 C.3   1 <1>   0.3430 
  4 C        0.0330     1.2440     1.2170 C.3   1 <1>   0.3430 
  5 C       -2.4610    -0.0240    -0.2170 C.3   1 <1>   0.3430 
  6 C        2.5520     0.0560    -0.0780 C.3   1 <1>  -0.1600 
  7 C       -0.2930     2.5500     0.5040 C.3   1 <1>  -0.2400 
  8 N       -3.6810    -0.9160    -0.2380 N.4   1 <1>  -0.9590 
  9 C        3.8420    -0.7530     0.1310 C.3   1 <1>   0.0630 
 10 C       -3.6260    -1.9910    -1.2870 C.3   1 <1>   0.2630 
 11 C       -4.9200    -0.0930    -0.4600 C.3   1 <1>   0.2630 
 12 C        5.0400     0.1230    -0.2220 C.ar  1 <1>  -0.1440 
 13 C        3.8620    -2.0560    -0.6820 C.3   1 <1>  -0.2400 
 14 C        5.2720     0.5400    -1.5260 C.ar  1 <1>  -0.1500 
 15 C        5.9170     0.5250     0.7770 C.ar  1 <1>  -0.1500 
 16 C        6.3560     1.3480    -1.8250 C.ar  1 <1>  -0.1500 
 17 C        7.0010     1.3330     0.4790 C.ar  1 <1>  -0.1500 
 18 C        7.2200     1.7460    -0.8220 C.ar  1 <1>  -0.1500 
 19 H        0.2230     0.5900    -0.7180 H     1 <1>   0.4500 
 20 H       -1.2680    -1.1560     1.1810 H     1 <1>   0.0800 
 21 H       -0.9690    -1.5490    -0.4900 H     1 <1>   0.0800 
 22 H        1.2300    -1.6140    -0.1290 H     1 <1>   0.0800 
 23 H        1.4250    -0.9300     1.4660 H     1 <1>   0.0800 
 24 H        0.9880     1.3500     1.7080 H     1 <1>   0.0800 
 25 H       -0.7040     1.0310     1.9750 H     1 <1>   0.0800 
 26 H       -2.3300     0.4060    -1.1970 H     1 <1>   0.0800 
 27 H       -2.6400     0.7810     0.4760 H     1 <1>   0.0800 
 28 H        2.6660     0.9850     0.4530 H     1 <1>   0.0800 
 29 H        2.4470     0.2780    -1.1250 H     1 <1>   0.0800 
 30 H        0.4710     2.7910    -0.2150 H     1 <1>   0.0800 
 31 H       -0.3150     3.3460     1.2290 H     1 <1>   0.0800 
 32 H       -1.2500     2.5220     0.0210 H     1 <1>   0.0800 
 33 H       -3.8050    -1.3740     0.6820 H     1 <1>   0.4500 
 34 H        3.9180    -1.0180     1.1730 H     1 <1>   0.0800 
 35 H       -3.5320    -1.5570    -2.2700 H     1 <1>   0.0800 
 36 H       -4.5300    -2.5810    -1.2640 H     1 <1>   0.0800 
 37 H       -2.7910    -2.6520    -1.1180 H     1 <1>   0.0800 
 38 H       -4.8800     0.4030    -1.4170 H     1 <1>   0.0800 
 39 H       -5.0230     0.6540     0.3110 H     1 <1>   0.0800 
 40 H       -5.7960    -0.7220    -0.4400 H     1 <1>   0.0800 
 41 H        3.6980    -1.8660    -1.7280 H     1 <1>   0.0800 
 42 H        3.1210    -2.7500    -0.3310 H     1 <1>   0.0800 
 43 H        4.8260    -2.5250    -0.5780 H     1 <1>   0.0800 
 44 H        4.6170     0.2420    -2.3240 H     1 <1>   0.1500 
 45 H        5.7700     0.2150     1.7960 H     1 <1>   0.1500 
 46 H        6.5290     1.6660    -2.8390 H     1 <1>   0.1500 
 47 H        7.6750     1.6400     1.2600 H     1 <1>   0.1500 
 48 H        8.0630     2.3740    -1.0540 H     1 <1>   0.1500 
@<TRIPOS>BOND
  1   1   2  1   
  2   1   3  1   
  3   1   4  1   
  4   1  19  1   
  5   2   5  1   
  6   2  20  1   
  7   2  21  1   
  8   3   6  1   
  9   3  22  1   
 10   3  23  1   
 11   4   7  1   
 12   4  24  1   
 13   4  25  1   
 14   5   8  1   
 15   5  26  1   
 16   5  27  1   
 17   6   9  1   
 18   6  28  1   
 19   6  29  1   
 20   7  30  1   
 21   7  31  1   
 22   7  32  1   
 23   8  10  1   
 24   8  11  1   
 25   8  33  1   
 26   9  12  1   
 27   9  13  1   
 28   9  34  1   
 29  10  35  1   
 30  10  36  1   
 31  10  37  1   
 32  11  38  1   
 33  11  39  1   
 34  11  40  1   
 35  12  14  ar  
 36  12  15  ar  
 37  13  41  1   
 38  13  42  1   
 39  13  43  1   
 40  14  16  ar  
 41  14  44  1   
 42  15  17  ar  
 43  15  45  1   
 44  16  18  ar  
 45  16  46  1   
 46  17  18  ar  
 47  17  47  1   
 48  18  48  1   
@<TRIPOS>SUBSTRUCTURE
  1 ****   6 GROUP 4 **** **** 0

# MOE 2024.06 (io_trps.svl 2023.06)
