@<TRIPOS>MOLECULE
NONAME
39 40 1 0 0 
SMALL
USER_CHARGES


@<TRIPOS>ATOM
  1 S        0.0110     0.0690     2.2370 S.o2  1 <1>   1.4470 
  2 O        0.0740     1.2470     3.0760 O.2   1 <1>  -0.6500 
  3 O       -0.2200    -1.2220     2.8530 O.2   1 <1>  -0.6500 
  4 N       -1.2530     0.3100     1.1330 N.am  1 <1>  -0.8490 
  5 C        1.4830     0.0090     1.1780 C.ar  1 <1>  -0.0090 
  6 C       -2.4830     0.7150     1.8170 C.3   1 <1>   0.1960 
  7 C       -1.4810    -0.8730     0.2960 C.3   1 <1>   0.1960 
  8 C        2.3840    -1.0460     1.2510 C.ar  1 <1>  -0.1500 
  9 C        1.7450     1.0190     0.2640 C.ar  1 <1>  -0.1500 
 10 C       -3.5690     1.0690     0.7960 C.3   1 <1>  -0.1600 
 11 C       -2.5230    -0.5650    -0.7830 C.3   1 <1>  -0.1600 
 12 C        3.5080    -1.1070     0.4410 C.ar  1 <1>  -0.1430 
 13 C        2.8610     0.9740    -0.5520 C.ar  1 <1>  -0.1500 
 14 C       -3.8450    -0.1000    -0.1600 C.3   1 <1>  -0.0800 
 15 C        3.7490    -0.0860    -0.4710 C.ar  1 <1>  -0.1430 
 16 C        4.4520    -2.2940     0.5740 C.3   1 <1>  -0.0970 
 17 C       -4.8500     0.3050    -1.2440 C.3   1 <1>  -0.2400 
 18 C        4.9670    -0.1030    -1.3830 C.3   1 <1>  -0.0970 
 19 H       -2.2920     1.5820     2.4280 H     1 <1>   0.0800 
 20 H       -2.8230    -0.0810     2.4610 H     1 <1>   0.0800 
 21 H       -1.8200    -1.6960     0.9050 H     1 <1>   0.0800 
 22 H       -0.5610    -1.1650    -0.1820 H     1 <1>   0.0800 
 23 H        2.1950    -1.8350     1.9600 H     1 <1>   0.1500 
 24 H        1.0630     1.8500     0.1910 H     1 <1>   0.1500 
 25 H       -3.2460     1.9320     0.2410 H     1 <1>   0.0800 
 26 H       -4.4710     1.3320     1.3190 H     1 <1>   0.0800 
 27 H       -2.6900    -1.4480    -1.3730 H     1 <1>   0.0800 
 28 H       -2.1300     0.1980    -1.4330 H     1 <1>   0.0800 
 29 H        3.0330     1.7740    -1.2500 H     1 <1>   0.1500 
 30 H       -4.2630    -0.9150     0.4080 H     1 <1>   0.0800 
 31 H        4.1080    -2.9800     1.3260 H     1 <1>   0.0800 
 32 H        5.4330    -1.9540     0.8530 H     1 <1>   0.0800 
 33 H        4.5150    -2.8220    -0.3600 H     1 <1>   0.0800 
 34 H       -4.4650     1.1190    -1.8330 H     1 <1>   0.0800 
 35 H       -5.7780     0.6140    -0.7960 H     1 <1>   0.0800 
 36 H       -5.0490    -0.5260    -1.8970 H     1 <1>   0.0800 
 37 H        4.9490    -0.9790    -2.0070 H     1 <1>   0.0800 
 38 H        5.8670    -0.1080    -0.7950 H     1 <1>   0.0800 
 39 H        4.9850     0.7630    -2.0190 H     1 <1>   0.0800 
@<TRIPOS>BOND
  1   1   2  2   
  2   1   3  2   
  3   1   4  am  
  4   1   5  1   
  5   4   6  1   
  6   4   7  1   
  7   5   8  ar  
  8   5   9  ar  
  9   6  10  1   
 10   6  19  1   
 11   6  20  1   
 12   7  11  1   
 13   7  21  1   
 14   7  22  1   
 15   8  12  ar  
 16   8  23  1   
 17   9  13  ar  
 18   9  24  1   
 19  10  14  1   
 20  10  25  1   
 21  10  26  1   
 22  11  14  1   
 23  11  27  1   
 24  11  28  1   
 25  12  15  ar  
 26  12  16  1   
 27  13  15  ar  
 28  13  29  1   
 29  14  17  1   
 30  14  30  1   
 31  15  18  1   
 32  16  31  1   
 33  16  32  1   
 34  16  33  1   
 35  17  34  1   
 36  17  35  1   
 37  17  36  1   
 38  18  37  1   
 39  18  38  1   
 40  18  39  1   
@<TRIPOS>SUBSTRUCTURE
  1 ****   5 GROUP 4 **** **** 0

# MOE 2024.06 (io_trps.svl 2023.06)
