@<TRIPOS>MOLECULE
NONAME
55 57 1 0 0 
SMALL
USER_CHARGES


@<TRIPOS>ATOM
  1 O        0.0040    -1.4520     0.7180 O.3   1 <1>  -0.3630 
  2 C       -1.0400    -1.6170    -0.1550 C.ar  1 <1>   0.0830 
  3 C        0.0630    -0.3340     1.5750 C.3   1 <1>   0.1200 
  4 C       -0.9960    -2.6930    -1.0610 C.ar  1 <1>   0.1000 
  5 C       -2.1330    -0.7540    -0.1690 C.ar  1 <1>  -0.1500 
  6 C        1.3700    -0.4050     2.3600 C.3   1 <1>  -0.2400 
  7 N        0.0520    -3.6230    -1.1300 N.pl3 1 <1>  -0.8380 
  8 C       -2.0480    -2.8630    -1.9480 C.ar  1 <1>  -0.1500 
  9 C       -3.1710    -0.9460    -1.0650 C.ar  1 <1>  -0.1500 
 10 C        1.3490    -3.1370    -1.6910 C.3   1 <1>   0.2090 
 11 C        0.1320    -4.6250    -0.0280 C.3   1 <1>   0.2090 
 12 C       -3.1280    -2.0020    -1.9560 C.ar  1 <1>  -0.1500 
 13 C        2.3870    -2.8180    -0.5950 C.3   1 <1>   0.3430 
 14 C        1.1960    -4.2560     1.0280 C.3   1 <1>   0.3430 
 15 N        2.5340    -3.9260     0.4220 N.4   1 <1>  -0.9590 
 16 C        3.5280    -3.5750     1.4690 C.3   1 <1>   0.4860 
 17 C        4.8770    -3.3670     0.8120 C.ar  1 <1>  -0.1430 
 18 C        5.6690    -4.4480     0.4500 C.ar  1 <1>  -0.1500 
 19 C        5.3230    -2.0790     0.5560 C.ar  1 <1>  -0.1500 
 20 C        6.8940    -4.2370    -0.1790 C.ar  1 <1>   0.0830 
 21 C        6.5350    -1.8620    -0.0750 C.ar  1 <1>   0.0830 
 22 O        7.7230    -5.2380    -0.5640 O.3   1 <1>  -0.3630 
 23 C        7.3190    -2.9470    -0.4440 C.ar  1 <1>  -0.1500 
 24 O        6.8750    -0.5690    -0.2960 O.3   1 <1>  -0.3630 
 25 C        7.5150    -6.5760    -0.1690 C.3   1 <1>   0.0400 
 26 C        8.1210    -0.2320    -0.8680 C.3   1 <1>   0.0400 
 27 H       -0.7820    -0.3670     2.2420 H     1 <1>   0.0800 
 28 H        0.0290     0.5610     0.9760 H     1 <1>   0.0800 
 29 H       -2.2100     0.0770     0.5050 H     1 <1>   0.1500 
 30 H        1.4030    -1.3020     2.9500 H     1 <1>   0.0800 
 31 H        1.4310     0.4380     3.0260 H     1 <1>   0.0800 
 32 H        2.2100    -0.3650     1.6910 H     1 <1>   0.0800 
 33 H       -2.0140    -3.6850    -2.6410 H     1 <1>   0.1500 
 34 H       -4.0130    -0.2750    -1.0700 H     1 <1>   0.1500 
 35 H        1.1730    -2.2490    -2.2760 H     1 <1>   0.0800 
 36 H        1.7440    -3.8850    -2.3550 H     1 <1>   0.0800 
 37 H        0.3580    -5.5890    -0.4490 H     1 <1>   0.0800 
 38 H       -0.8290    -4.7000     0.4530 H     1 <1>   0.0800 
 39 H       -3.9340    -2.1530    -2.6540 H     1 <1>   0.1500 
 40 H        2.0820    -1.9120    -0.1000 H     1 <1>   0.0800 
 41 H        3.3350    -2.6240    -1.0690 H     1 <1>   0.0800 
 42 H        1.2960    -5.0760     1.7180 H     1 <1>   0.0800 
 43 H        0.8320    -3.4070     1.5810 H     1 <1>   0.0800 
 44 H        2.8820    -4.7470    -0.0840 H     1 <1>   0.4500 
 45 H        3.6020    -4.3690     2.1940 H     1 <1>   0.0800 
 46 H        3.2270    -2.6740     1.9790 H     1 <1>   0.0800 
 47 H        5.3370    -5.4480     0.6550 H     1 <1>   0.1500 
 48 H        4.7430    -1.2180     0.8370 H     1 <1>   0.1500 
 49 H        8.2650    -2.8200    -0.9350 H     1 <1>   0.1500 
 50 H        8.3470    -7.1600    -0.5210 H     1 <1>   0.0800 
 51 H        6.6050    -6.9370    -0.6130 H     1 <1>   0.0800 
 52 H        7.4700    -6.6210     0.9050 H     1 <1>   0.0800 
 53 H        8.1860     0.8400    -0.9220 H     1 <1>   0.0800 
 54 H        8.1790    -0.6510    -1.8570 H     1 <1>   0.0800 
 55 H        8.9090    -0.6140    -0.2410 H     1 <1>   0.0800 
@<TRIPOS>BOND
  1   1   2  1   
  2   1   3  1   
  3   2   4  ar  
  4   2   5  ar  
  5   3   6  1   
  6   3  27  1   
  7   3  28  1   
  8   4   7  1   
  9   4   8  ar  
 10   5   9  ar  
 11   5  29  1   
 12   6  30  1   
 13   6  31  1   
 14   6  32  1   
 15   7  10  1   
 16   7  11  1   
 17   8  12  ar  
 18   8  33  1   
 19   9  12  ar  
 20   9  34  1   
 21  10  13  1   
 22  10  35  1   
 23  10  36  1   
 24  11  14  1   
 25  11  37  1   
 26  11  38  1   
 27  12  39  1   
 28  13  15  1   
 29  13  40  1   
 30  13  41  1   
 31  14  15  1   
 32  14  42  1   
 33  14  43  1   
 34  15  16  1   
 35  15  44  1   
 36  16  17  1   
 37  16  45  1   
 38  16  46  1   
 39  17  18  ar  
 40  17  19  ar  
 41  18  20  ar  
 42  18  47  1   
 43  19  21  ar  
 44  19  48  1   
 45  20  22  1   
 46  20  23  ar  
 47  21  23  ar  
 48  21  24  1   
 49  22  25  1   
 50  23  49  1   
 51  24  26  1   
 52  25  50  1   
 53  25  51  1   
 54  25  52  1   
 55  26  53  1   
 56  26  54  1   
 57  26  55  1   
@<TRIPOS>SUBSTRUCTURE
  1 ****  13 GROUP 4 **** **** 0

# MOE 2024.06 (io_trps.svl 2023.06)
