@<TRIPOS>MOLECULE
NONAME
53 55 1 0 0 
SMALL
USER_CHARGES


@<TRIPOS>ATOM
  1 O        0.3960    -1.7110    -2.6270 O.2   1 <1>  -0.5700 
  2 C       -0.1430    -1.8400    -1.5530 C.2   1 <1>   0.5690 
  3 N        0.5370    -1.6650    -0.3860 N.am  1 <1>  -0.7300 
  4 C       -1.6200    -2.2610    -1.4970 C.3   1 <1>   0.1710 
  5 C        1.9330    -1.2170    -0.2760 C.3   1 <1>   0.2200 
  6 N       -2.6110    -1.1760    -1.2430 N.3   1 <1>  -0.8100 
  7 C        2.7160    -2.2340     0.5610 C.3   1 <1>  -0.1600 
  8 C        1.9540     0.1720     0.3700 C.3   1 <1>  -0.1600 
  9 C       -3.9930    -1.7080    -1.3250 C.3   1 <1>   0.1100 
 10 C       -2.4040    -0.4790     0.0500 C.3   1 <1>   0.1100 
 11 C        4.1560    -1.7600     0.8040 C.3   1 <1>  -0.1600 
 12 C        3.3930     0.6490     0.6120 C.3   1 <1>  -0.1600 
 13 C       -5.0620    -0.6300    -1.0600 C.3   1 <1>   0.2090 
 14 C       -3.4710     0.6000     0.3200 C.3   1 <1>   0.2090 
 15 C        4.1810    -0.3680     1.4490 C.3   1 <1>  -0.1600 
 16 N       -4.8380     0.0110     0.2660 N.pl3 1 <1>  -0.8380 
 17 C       -5.8740     0.8400     0.7220 C.ar  1 <1>   0.1000 
 18 C       -6.2620     2.0460     0.1090 C.ar  1 <1>   0.0820 
 19 C       -6.5510     0.4250     1.8600 C.ar  1 <1>  -0.1500 
 20 O       -5.5920     2.4520    -1.0150 O.3   1 <1>  -0.3620 
 21 C       -7.3060     2.7890     0.6530 C.ar  1 <1>  -0.1500 
 22 C       -7.5880     1.1680     2.3940 C.ar  1 <1>  -0.1500 
 23 C       -5.9230     3.6480    -1.6830 C.3   1 <1>   0.0400 
 24 C       -7.9650     2.3520     1.7890 C.ar  1 <1>  -0.1500 
 25 H        0.0470    -1.7730     0.4990 H     1 <1>   0.3700 
 26 H       -1.7240    -3.0210    -0.7450 H     1 <1>   0.0800 
 27 H       -1.8490    -2.7120    -2.4460 H     1 <1>   0.0800 
 28 H        2.3740    -1.1550    -1.2590 H     1 <1>   0.0800 
 29 H        2.7350    -3.1770     0.0440 H     1 <1>   0.0800 
 30 H        2.2290    -2.3720     1.5100 H     1 <1>   0.0800 
 31 H        1.4330     0.1420     1.3100 H     1 <1>   0.0800 
 32 H        1.4530     0.8700    -0.2780 H     1 <1>   0.0800 
 33 H       -4.1230    -2.4970    -0.6040 H     1 <1>   0.0800 
 34 H       -4.1570    -2.1180    -2.3060 H     1 <1>   0.0800 
 35 H       -1.4440     0.0050     0.0450 H     1 <1>   0.0800 
 36 H       -2.4280    -1.1900     0.8570 H     1 <1>   0.0800 
 37 H        4.6820    -1.7260    -0.1360 H     1 <1>   0.0800 
 38 H        4.6660    -2.4630     1.4400 H     1 <1>   0.0800 
 39 H        3.3780     1.6000     1.1170 H     1 <1>   0.0800 
 40 H        3.8850     0.7880    -0.3360 H     1 <1>   0.0800 
 41 H       -6.0400    -1.0770    -1.0770 H     1 <1>   0.0800 
 42 H       -5.0150     0.1110    -1.8380 H     1 <1>   0.0800 
 43 H       -3.3770     1.3770    -0.4180 H     1 <1>   0.0800 
 44 H       -3.3100     1.0350     1.2900 H     1 <1>   0.0800 
 45 H        5.2010    -0.0370     1.5500 H     1 <1>   0.0800 
 46 H        3.7550    -0.4240     2.4360 H     1 <1>   0.0800 
 47 H       -6.2520    -0.4960     2.3240 H     1 <1>   0.1500 
 48 H       -7.6260     3.7120     0.2110 H     1 <1>   0.1500 
 49 H       -8.0970     0.8240     3.2770 H     1 <1>   0.1500 
 50 H       -5.2650     3.7500    -2.5270 H     1 <1>   0.0800 
 51 H       -5.7830     4.4750    -1.0090 H     1 <1>   0.0800 
 52 H       -6.9430     3.5890    -2.0200 H     1 <1>   0.0800 
 53 H       -8.7710     2.9340     2.2020 H     1 <1>   0.1500 
@<TRIPOS>BOND
  1   1   2  2   
  2   2   3  am  
  3   2   4  1   
  4   3   5  1   
  5   3  25  1   
  6   4   6  1   
  7   4  26  1   
  8   4  27  1   
  9   5   7  1   
 10   5   8  1   
 11   5  28  1   
 12   6   9  1   
 13   6  10  1   
 14   7  11  1   
 15   7  29  1   
 16   7  30  1   
 17   8  12  1   
 18   8  31  1   
 19   8  32  1   
 20   9  13  1   
 21   9  33  1   
 22   9  34  1   
 23  10  14  1   
 24  10  35  1   
 25  10  36  1   
 26  11  15  1   
 27  11  37  1   
 28  11  38  1   
 29  12  15  1   
 30  12  39  1   
 31  12  40  1   
 32  13  16  1   
 33  13  41  1   
 34  13  42  1   
 35  14  16  1   
 36  14  43  1   
 37  14  44  1   
 38  15  45  1   
 39  15  46  1   
 40  16  17  1   
 41  17  18  ar  
 42  17  19  ar  
 43  18  20  1   
 44  18  21  ar  
 45  19  22  ar  
 46  19  47  1   
 47  20  23  1   
 48  21  24  ar  
 49  21  48  1   
 50  22  24  ar  
 51  22  49  1   
 52  23  50  1   
 53  23  51  1   
 54  23  52  1   
 55  24  53  1   
@<TRIPOS>SUBSTRUCTURE
  1 ****  10 GROUP 4 **** **** 0

# MOE 2024.06 (io_trps.svl 2023.06)
