@<TRIPOS>MOLECULE
NONAME
39 40 1 0 0 
SMALL
USER_CHARGES


@<TRIPOS>ATOM
  1 O        0.9720     1.6070    -2.2110 O.2   1 <1>  -0.5700 
  2 C        0.1310     1.3800    -1.3750 C.2   1 <1>   0.5690 
  3 N        0.4390     1.1120    -0.0780 N.am  1 <1>  -0.7300 
  4 C       -1.3290     1.3990    -1.7970 C.3   1 <1>   0.0440 
  5 C        1.7800     1.0100     0.5510 C.3   1 <1>   0.2200 
  6 C       -2.2970     1.2690    -0.6170 C.ar  1 <1>  -0.1440 
  7 C        2.7220     2.1760     0.1690 C.3   1 <1>   0.2000 
  8 C        2.3690    -0.3560     0.1950 C.3   1 <1>  -0.2400 
  9 C       -2.6410     2.3570     0.1810 C.ar  1 <1>  -0.1440 
 10 C       -2.8260     0.0180    -0.3310 C.ar  1 <1>  -0.1500 
 11 O        3.8680     2.1440     0.9620 O.3   1 <1>  -0.5600 
 12 C        2.1520     3.5710     0.4090 C.3   1 <1>  -0.1600 
 13 C       -3.5080     2.1730     1.2480 C.ar  1 <1>  -0.1500 
 14 C       -2.0900     3.7530    -0.0790 C.3   1 <1>  -0.0970 
 15 C       -3.6890    -0.1570     0.7350 C.ar  1 <1>  -0.1500 
 16 C        4.4950     3.3820     0.9200 C.3   1 <1>   0.1200 
 17 C        3.3790     4.4080     0.7420 C.3   1 <1>  -0.1600 
 18 C       -4.0300     0.9230     1.5260 C.ar  1 <1>  -0.1500 
 19 H       -0.3500     0.9380     0.5530 H     1 <1>   0.3700 
 20 H       -1.4820     0.5900    -2.4860 H     1 <1>   0.0800 
 21 H       -1.5190     2.3070    -2.3350 H     1 <1>   0.0800 
 22 H        1.6400     1.0550     1.6180 H     1 <1>   0.0800 
 23 H        3.0440     2.0750    -0.8540 H     1 <1>   0.0800 
 24 H        2.5300    -0.4260    -0.8660 H     1 <1>   0.0800 
 25 H        1.7080    -1.1420     0.5110 H     1 <1>   0.0800 
 26 H        3.3140    -0.4840     0.6910 H     1 <1>   0.0800 
 27 H       -2.5680    -0.8330    -0.9370 H     1 <1>   0.1500 
 28 H        1.4750     3.5520     1.2440 H     1 <1>   0.0800 
 29 H        1.6340     3.9280    -0.4620 H     1 <1>   0.0800 
 30 H       -3.7850     3.0040     1.8720 H     1 <1>   0.1500 
 31 H       -1.0160     3.7340    -0.1060 H     1 <1>   0.0800 
 32 H       -2.3900     4.4370     0.6940 H     1 <1>   0.0800 
 33 H       -2.4590     4.1250    -1.0180 H     1 <1>   0.0800 
 34 H       -4.0940    -1.1300     0.9480 H     1 <1>   0.1500 
 35 H        5.1660     3.3860     0.0780 H     1 <1>   0.0800 
 36 H        5.0450     3.5240     1.8340 H     1 <1>   0.0800 
 37 H        3.2320     4.9690     1.6480 H     1 <1>   0.0800 
 38 H        3.6250     5.0850    -0.0560 H     1 <1>   0.0800 
 39 H       -4.7030     0.7930     2.3560 H     1 <1>   0.1500 
@<TRIPOS>BOND
  1   1   2  2   
  2   2   3  am  
  3   2   4  1   
  4   3   5  1   
  5   3  19  1   
  6   4   6  1   
  7   4  20  1   
  8   4  21  1   
  9   5   7  1   
 10   5   8  1   
 11   5  22  1   
 12   6   9  ar  
 13   6  10  ar  
 14   7  11  1   
 15   7  12  1   
 16   7  23  1   
 17   8  24  1   
 18   8  25  1   
 19   8  26  1   
 20   9  13  ar  
 21   9  14  1   
 22  10  15  ar  
 23  10  27  1   
 24  11  16  1   
 25  12  17  1   
 26  12  28  1   
 27  12  29  1   
 28  13  18  ar  
 29  13  30  1   
 30  14  31  1   
 31  14  32  1   
 32  14  33  1   
 33  15  18  ar  
 34  15  34  1   
 35  16  17  1   
 36  16  35  1   
 37  16  36  1   
 38  17  37  1   
 39  17  38  1   
 40  18  39  1   
@<TRIPOS>SUBSTRUCTURE
  1 ****   3 GROUP 4 **** **** 0

# MOE 2024.06 (io_trps.svl 2023.06)
