@<TRIPOS>MOLECULE
NONAME
30 32 1 0 0 
SMALL
USER_CHARGES


@<TRIPOS>ATOM
  1 CL      -0.0620    -0.0090     0.3090 Cl    1 <1>  -0.1770 
  2 C       -1.8010    -0.0110     0.1650 C.ar  1 <1>   0.1770 
  3 C       -2.4050     0.8070    -0.7710 C.ar  1 <1>  -0.1500 
  4 C       -2.5490    -0.8290     0.9910 C.ar  1 <1>  -0.1500 
  5 C       -3.7850     0.8020    -0.8830 C.ar  1 <1>  -0.1500 
  6 C       -3.9290    -0.8300     0.8740 C.ar  1 <1>  -0.1500 
  7 C       -4.5510    -0.0180    -0.0650 C.ar  1 <1>  -0.1430 
  8 C       -6.0650    -0.0220    -0.1980 C.3   1 <1>   0.2140 
  9 S       -6.7320     1.4570     0.6740 S.3   1 <1>  -0.2850 
 10 C       -8.5090     1.3400     0.4060 C.2   1 <1>   0.2820 
 11 N       -9.3150     2.2910     0.9110 N.2   1 <1>  -0.5650 
 12 C       -9.1810     0.3790    -0.2680 C.2   1 <1>  -0.3020 
 13 C      -10.4770     1.8790     0.5260 C.2   1 <1>   0.0060 
 14 N      -10.4710     0.7460    -0.1810 N.pl3 1 <1>   0.0480 
 15 C      -11.8670     2.4200     0.7120 C.3   1 <1>   0.0200 
 16 C      -11.8030     0.3060    -0.5960 C.3   1 <1>   0.0960 
 17 C      -12.7470     1.2920     0.1290 C.3   1 <1>  -0.1600 
 18 H       -1.8020     1.4370    -1.3990 H     1 <1>   0.1500 
 19 H       -2.0550    -1.4530     1.7140 H     1 <1>   0.1500 
 20 H       -4.2630     1.4420    -1.6050 H     1 <1>   0.1500 
 21 H       -4.5150    -1.4610     1.5200 H     1 <1>   0.1500 
 22 H       -6.5070    -0.8870     0.2620 H     1 <1>   0.0800 
 23 H       -6.3710     0.0510    -1.2260 H     1 <1>   0.0800 
 24 H       -8.8450    -0.5010    -0.7800 H     1 <1>   0.1500 
 25 H      -11.9740     3.3330     0.1530 H     1 <1>   0.0800 
 26 H      -12.0720     2.5980     1.7530 H     1 <1>   0.0800 
 27 H      -11.9690    -0.7100    -0.2890 H     1 <1>   0.0800 
 28 H      -11.8840     0.3980    -1.6650 H     1 <1>   0.0800 
 29 H      -13.4920     1.6810    -0.5440 H     1 <1>   0.0800 
 30 H      -13.2470     0.7760     0.9300 H     1 <1>   0.0800 
@<TRIPOS>BOND
  1   1   2  1   
  2   2   3  ar  
  3   2   4  ar  
  4   3   5  ar  
  5   3  18  1   
  6   4   6  ar  
  7   4  19  1   
  8   5   7  ar  
  9   5  20  1   
 10   6   7  ar  
 11   6  21  1   
 12   7   8  1   
 13   8   9  1   
 14   8  22  1   
 15   8  23  1   
 16   9  10  1   
 17  10  11  1   
 18  10  12  2   
 19  11  13  2   
 20  12  14  1   
 21  12  24  1   
 22  13  14  1   
 23  13  15  1   
 24  14  16  1   
 25  15  17  1   
 26  15  25  1   
 27  15  26  1   
 28  16  17  1   
 29  16  27  1   
 30  16  28  1   
 31  17  29  1   
 32  17  30  1   
@<TRIPOS>SUBSTRUCTURE
  1 ****   9 GROUP 4 **** **** 0

# MOE 2024.06 (io_trps.svl 2023.06)
