@<TRIPOS>MOLECULE
NONAME
33 34 1 0 0 
SMALL
USER_CHARGES


@<TRIPOS>ATOM
  1 S       -0.3520    -0.1340     0.2910 S.o2  1 <1>   1.2040 
  2 O       -1.7930    -0.3260     0.3750 O.2   1 <1>  -0.6500 
  3 O        0.4140    -0.9580     1.2150 O.2   1 <1>  -0.6500 
  4 C       -0.0740     1.6080     0.6850 C.ar  1 <1>  -0.0090 
  5 C        0.2060    -0.3160    -1.4940 C.3   1 <1>   1.1250 
  6 C        1.1830     2.1960     0.5300 C.ar  1 <1>   0.1000 
  7 C       -1.1200     2.3900     1.1660 C.ar  1 <1>  -0.1500 
  8 F       -0.5950    -1.1070    -2.2130 F     1 <1>  -0.3400 
  9 F        0.2350     0.8220    -2.1960 F     1 <1>  -0.3400 
 10 F        1.4100    -0.8630    -1.6660 F     1 <1>  -0.3400 
 11 N        2.2680     1.4520     0.0680 N.pl3 1 <1>  -0.8380 
 12 C        1.3520     3.5390     0.8650 C.ar  1 <1>  -0.1500 
 13 C       -0.9440     3.7240     1.4840 C.ar  1 <1>  -0.1500 
 14 C        3.1190     2.0790    -0.9940 C.3   1 <1>   0.2090 
 15 C        3.0870     0.8320     1.1520 C.3   1 <1>   0.2090 
 16 C        0.3010     4.3010     1.3330 C.ar  1 <1>  -0.1500 
 17 C        4.0880     1.0560    -1.5980 C.3   1 <1>  -0.1600 
 18 C        4.0100    -0.2380     0.5640 C.3   1 <1>  -0.1600 
 19 C        4.9210     0.3450    -0.5240 C.3   1 <1>  -0.1600 
 20 H       -2.0970     1.9560     1.3010 H     1 <1>   0.1500 
 21 H        2.3190     3.9960     0.7690 H     1 <1>   0.1500 
 22 H       -1.7700     4.3080     1.8520 H     1 <1>   0.1500 
 23 H        3.6910     2.8850    -0.5670 H     1 <1>   0.0800 
 24 H        2.4880     2.4840    -1.7670 H     1 <1>   0.0800 
 25 H        2.4430     0.3880     1.8920 H     1 <1>   0.0800 
 26 H        3.6740     1.5940     1.6360 H     1 <1>   0.0800 
 27 H        0.4500     5.3370     1.5840 H     1 <1>   0.1500 
 28 H        4.7440     1.5590    -2.2860 H     1 <1>   0.0800 
 29 H        3.5310     0.3330    -2.1630 H     1 <1>   0.0800 
 30 H        3.4080    -1.0310     0.1570 H     1 <1>   0.0800 
 31 H        4.6100    -0.6560     1.3520 H     1 <1>   0.0800 
 32 H        5.6020     1.0490    -0.0770 H     1 <1>   0.0800 
 33 H        5.5020    -0.4420    -0.9730 H     1 <1>   0.0800 
@<TRIPOS>BOND
  1   1   2  2   
  2   1   3  2   
  3   1   4  1   
  4   1   5  1   
  5   4   6  ar  
  6   4   7  ar  
  7   5   8  1   
  8   5   9  1   
  9   5  10  1   
 10   6  11  1   
 11   6  12  ar  
 12   7  13  ar  
 13   7  20  1   
 14  11  14  1   
 15  11  15  1   
 16  12  16  ar  
 17  12  21  1   
 18  13  16  ar  
 19  13  22  1   
 20  14  17  1   
 21  14  23  1   
 22  14  24  1   
 23  15  18  1   
 24  15  25  1   
 25  15  26  1   
 26  16  27  1   
 27  17  19  1   
 28  17  28  1   
 29  17  29  1   
 30  18  19  1   
 31  18  30  1   
 32  18  31  1   
 33  19  32  1   
 34  19  33  1   
@<TRIPOS>SUBSTRUCTURE
  1 ****  11 GROUP 4 **** **** 0

# MOE 2024.06 (io_trps.svl 2023.06)
