@<TRIPOS>MOLECULE
NONAME
49 51 1 0 0 
SMALL
USER_CHARGES


@<TRIPOS>ATOM
  1 CL       0.8070    -0.2300     0.4200 Cl    1 <1>  -0.1770 
  2 C        2.3030     0.6770     0.3000 C.ar  1 <1>   0.1770 
  3 C        2.2910     1.9990    -0.1290 C.ar  1 <1>   0.0820 
  4 C        3.4770     0.0350     0.6420 C.ar  1 <1>  -0.1500 
  5 O        1.0930     2.5630    -0.4530 O.3   1 <1>  -0.3630 
  6 C        3.5000     2.6830    -0.2080 C.ar  1 <1>  -0.1500 
  7 C        4.6810     0.7240     0.5560 C.ar  1 <1>   0.0830 
  8 C        1.0200     3.8740    -0.9710 C.3   1 <1>   0.0400 
  9 C        4.6950     2.0570     0.1270 C.ar  1 <1>   0.1170 
 10 O        5.8860     0.1550     0.8700 O.3   1 <1>  -0.3630 
 11 N        5.9310     2.7190     0.0550 N.am  1 <1>  -0.5470 
 12 C        5.9660    -1.1700     1.3480 C.3   1 <1>   0.0400 
 13 C        6.3900     3.7970    -0.6420 C.2   1 <1>   0.5690 
 14 O        5.6870     4.5400    -1.2860 O.2   1 <1>  -0.5700 
 15 C        7.9020     4.0360    -0.5930 C.3   1 <1>   0.1710 
 16 N        8.6750     2.8480    -0.1170 N.3   1 <1>  -0.8100 
 17 C       10.0490     3.2160     0.2880 C.3   1 <1>   0.1100 
 18 C        8.7500     1.7890    -1.1550 C.3   1 <1>   0.1100 
 19 C       10.8260     2.0100     0.8530 C.3   1 <1>   0.2090 
 20 C        9.4650     0.5270    -0.6400 C.3   1 <1>   0.2090 
 21 N       10.8230     0.8530    -0.1000 N.pl3 1 <1>  -0.8380 
 22 C       11.8980    -0.0020    -0.2310 C.ar  1 <1>   0.7200 
 23 N       13.0530     0.3830     0.3120 N.ar  1 <1>  -0.6200 
 24 N       11.6920    -1.1450    -0.8870 N.ar  1 <1>  -0.6200 
 25 C       14.0660    -0.4380     0.1790 C.ar  1 <1>   0.1600 
 26 C       12.7220    -1.9470    -1.0050 C.ar  1 <1>   0.1600 
 27 C       13.9530    -1.6360    -0.4820 C.ar  1 <1>  -0.1500 
 28 H        3.4210    -0.9850     0.9650 H     1 <1>   0.1500 
 29 H        3.5310     3.7060    -0.5250 H     1 <1>   0.1500 
 30 H       -0.0110     4.0900    -1.1870 H     1 <1>   0.0800 
 31 H        1.6010     3.9270    -1.8750 H     1 <1>   0.0800 
 32 H        1.3910     4.5630    -0.2330 H     1 <1>   0.0800 
 33 H        6.7070     2.1910     0.4760 H     1 <1>   0.3700 
 34 H        7.0000    -1.3920     1.5440 H     1 <1>   0.0800 
 35 H        5.5870    -1.8390     0.5960 H     1 <1>   0.0800 
 36 H        5.3990    -1.2490     2.2580 H     1 <1>   0.0800 
 37 H        8.0680     4.8590     0.0770 H     1 <1>   0.0800 
 38 H        8.2430     4.3300    -1.5700 H     1 <1>   0.0800 
 39 H       10.0070     3.9780     1.0460 H     1 <1>   0.0800 
 40 H       10.5890     3.6100    -0.5550 H     1 <1>   0.0800 
 41 H        9.2800     2.1570    -2.0170 H     1 <1>   0.0800 
 42 H        7.7600     1.5100    -1.4710 H     1 <1>   0.0800 
 43 H       10.3720     1.7010     1.7770 H     1 <1>   0.0800 
 44 H       11.8290     2.3290     1.0700 H     1 <1>   0.0800 
 45 H        9.5330    -0.1740    -1.4520 H     1 <1>   0.0800 
 46 H        8.8740     0.0780     0.1390 H     1 <1>   0.0800 
 47 H       15.0100    -0.1470     0.6070 H     1 <1>   0.1500 
 48 H       12.5810    -2.8750    -1.5310 H     1 <1>   0.1500 
 49 H       14.7890    -2.3000    -0.5850 H     1 <1>   0.1500 
@<TRIPOS>BOND
  1   1   2  1   
  2   2   3  ar  
  3   2   4  ar  
  4   3   5  1   
  5   3   6  ar  
  6   4   7  ar  
  7   4  28  1   
  8   5   8  1   
  9   6   9  ar  
 10   6  29  1   
 11   7   9  ar  
 12   7  10  1   
 13   8  30  1   
 14   8  31  1   
 15   8  32  1   
 16   9  11  1   
 17  10  12  1   
 18  11  13  am  
 19  11  33  1   
 20  12  34  1   
 21  12  35  1   
 22  12  36  1   
 23  13  14  2   
 24  13  15  1   
 25  15  16  1   
 26  15  37  1   
 27  15  38  1   
 28  16  17  1   
 29  16  18  1   
 30  17  19  1   
 31  17  39  1   
 32  17  40  1   
 33  18  20  1   
 34  18  41  1   
 35  18  42  1   
 36  19  21  1   
 37  19  43  1   
 38  19  44  1   
 39  20  21  1   
 40  20  45  1   
 41  20  46  1   
 42  21  22  1   
 43  22  23  ar  
 44  22  24  ar  
 45  23  25  ar  
 46  24  26  ar  
 47  25  27  ar  
 48  25  47  1   
 49  26  27  ar  
 50  26  48  1   
 51  27  49  1   
@<TRIPOS>SUBSTRUCTURE
  1 ****  18 GROUP 4 **** **** 0

# MOE 2024.06 (io_trps.svl 2023.06)
