@<TRIPOS>MOLECULE
NONAME
46 48 1 0 0 
SMALL
USER_CHARGES


@<TRIPOS>ATOM
  1 CL      -0.2240    -2.1490    -1.9750 Cl    1 <1>  -0.1770 
  2 C        1.0400    -2.6620    -0.8850 C.ar  1 <1>   0.1770 
  3 C        2.3490    -2.3270    -1.1600 C.ar  1 <1>  -0.1500 
  4 C        0.7030    -3.3970     0.2380 C.ar  1 <1>  -0.1500 
  5 C        3.3590    -2.7310    -0.2990 C.ar  1 <1>   0.1000 
  6 C        1.7070    -3.8030     1.1020 C.ar  1 <1>  -0.1500 
  7 N        4.6750    -2.3920    -0.5830 N.pl3 1 <1>  -0.8380 
  8 C        3.0240    -3.4700     0.8320 C.ar  1 <1>  -0.1500 
  9 C        5.5650    -3.5120    -1.0090 C.3   1 <1>   0.2090 
 10 C        5.3400    -1.4520     0.3720 C.3   1 <1>   0.2090 
 11 C        6.8920    -2.9820    -1.5820 C.3   1 <1>   0.1400 
 12 C        6.6700    -0.9250    -0.1920 C.3   1 <1>   0.1400 
 13 N        7.5610    -2.0520    -0.6190 N.am  1 <1>  -0.6600 
 14 C        8.8670    -2.1250    -0.2010 C.2   1 <1>   0.6900 
 15 O        9.3580    -1.2030     0.4210 O.2   1 <1>  -0.5700 
 16 N        9.5860    -3.2550    -0.4680 N.am  1 <1>  -0.5470 
 17 C       10.9390    -3.5720    -0.2700 C.ar  1 <1>   0.1170 
 18 C       11.3230    -4.9060    -0.1080 C.ar  1 <1>  -0.1430 
 19 C       11.9240    -2.5900    -0.2570 C.ar  1 <1>  -0.1500 
 20 C       12.6610    -5.2240     0.0630 C.ar  1 <1>  -0.1500 
 21 C       10.2950    -6.0310    -0.1060 C.3   1 <1>  -0.0970 
 22 C       13.2560    -2.9160    -0.0840 C.ar  1 <1>  -0.1500 
 23 C       13.6330    -4.2370     0.0750 C.ar  1 <1>  -0.1430 
 24 C       15.0940    -4.6010     0.2670 C.3   1 <1>  -0.0970 
 25 H        2.5940    -1.7550    -2.0340 H     1 <1>   0.1500 
 26 H       -0.3250    -3.6440     0.4270 H     1 <1>   0.1500 
 27 H        1.4630    -4.3750     1.9810 H     1 <1>   0.1500 
 28 H        3.8030    -3.7840     1.5020 H     1 <1>   0.1500 
 29 H        5.0600    -4.0980    -1.7570 H     1 <1>   0.0800 
 30 H        5.7690    -4.1490    -0.1660 H     1 <1>   0.0800 
 31 H        5.5290    -1.9560     1.3040 H     1 <1>   0.0800 
 32 H        4.6830    -0.6230     0.5690 H     1 <1>   0.0800 
 33 H        6.6820    -2.4460    -2.4910 H     1 <1>   0.0800 
 34 H        7.5280    -3.8100    -1.8330 H     1 <1>   0.0800 
 35 H        7.1510    -0.3210     0.5580 H     1 <1>   0.0800 
 36 H        6.4680    -0.2960    -1.0410 H     1 <1>   0.0800 
 37 H        9.0110    -4.0350    -0.7490 H     1 <1>   0.3700 
 38 H       11.6510    -1.5590    -0.3850 H     1 <1>   0.1500 
 39 H       12.9570    -6.2500     0.1910 H     1 <1>   0.1500 
 40 H        9.5450    -5.8420     0.6420 H     1 <1>   0.0800 
 41 H       10.7590    -6.9740     0.1190 H     1 <1>   0.0800 
 42 H        9.8280    -6.1050    -1.0710 H     1 <1>   0.0800 
 43 H       13.9950    -2.1350    -0.0740 H     1 <1>   0.1500 
 44 H       15.3040    -5.5550    -0.1840 H     1 <1>   0.0800 
 45 H       15.3190    -4.6540     1.3160 H     1 <1>   0.0800 
 46 H       15.7290    -3.8630    -0.1890 H     1 <1>   0.0800 
@<TRIPOS>BOND
  1   1   2  1   
  2   2   3  ar  
  3   2   4  ar  
  4   3   5  ar  
  5   3  25  1   
  6   4   6  ar  
  7   4  26  1   
  8   5   7  1   
  9   5   8  ar  
 10   6   8  ar  
 11   6  27  1   
 12   7   9  1   
 13   7  10  1   
 14   8  28  1   
 15   9  11  1   
 16   9  29  1   
 17   9  30  1   
 18  10  12  1   
 19  10  31  1   
 20  10  32  1   
 21  11  13  1   
 22  11  33  1   
 23  11  34  1   
 24  12  13  1   
 25  12  35  1   
 26  12  36  1   
 27  13  14  am  
 28  14  15  2   
 29  14  16  am  
 30  16  17  1   
 31  16  37  1   
 32  17  18  ar  
 33  17  19  ar  
 34  18  20  ar  
 35  18  21  1   
 36  19  22  ar  
 37  19  38  1   
 38  20  23  ar  
 39  20  39  1   
 40  21  40  1   
 41  21  41  1   
 42  21  42  1   
 43  22  23  ar  
 44  22  43  1   
 45  23  24  1   
 46  24  44  1   
 47  24  45  1   
 48  24  46  1   
@<TRIPOS>SUBSTRUCTURE
  1 ****  13 GROUP 4 **** **** 0

# MOE 2024.06 (io_trps.svl 2023.06)
