@<TRIPOS>MOLECULE
NONAME
32 32 1 0 0 
SMALL
USER_CHARGES


@<TRIPOS>ATOM
  1 O       -0.1600    -0.2030    -0.6690 O.2   1 <1>  -0.5700 
  2 C       -0.0550     0.9420    -0.3000 C.2   1 <1>   0.5690 
  3 N        1.1310     1.5790    -0.0620 N.am  1 <1>  -0.5470 
  4 C       -1.3280     1.7530    -0.0760 C.3   1 <1>   0.1810 
  5 C        2.4870     1.2280    -0.1360 C.ar  1 <1>   0.1170 
  6 O       -1.0430     3.0670     0.3530 O.3   1 <1>  -0.5600 
  7 C        3.4730     2.1700     0.1940 C.ar  1 <1>  -0.1430 
  8 C        2.8800    -0.0480    -0.5320 C.ar  1 <1>  -0.1500 
  9 C       -2.1750     3.8460     0.5700 C.3   1 <1>   0.0400 
 10 C        4.8100     1.8000     0.1140 C.ar  1 <1>  -0.1500 
 11 C        3.1760     3.6100     0.6460 C.3   1 <1>   0.0630 
 12 C        4.2140    -0.3990    -0.6060 C.ar  1 <1>  -0.1500 
 13 C        5.1830     0.5290    -0.2820 C.ar  1 <1>  -0.1500 
 14 C        2.4140     3.6690     1.9760 C.3   1 <1>  -0.2400 
 15 C        2.4830     4.4420    -0.4420 C.3   1 <1>  -0.2400 
 16 H        0.9740     2.5430     0.2420 H     1 <1>   0.3700 
 17 H       -1.9250     1.2670     0.6740 H     1 <1>   0.0800 
 18 H       -1.8780     1.8030    -0.9990 H     1 <1>   0.0800 
 19 H        2.1450    -0.7860    -0.7890 H     1 <1>   0.1500 
 20 H       -1.8550     4.8220     0.8920 H     1 <1>   0.0800 
 21 H       -2.7780     3.3920     1.3380 H     1 <1>   0.0800 
 22 H       -2.7300     3.9320    -0.3480 H     1 <1>   0.0800 
 23 H        5.5860     2.5030     0.3600 H     1 <1>   0.1500 
 24 H        4.1210     4.0940     0.8270 H     1 <1>   0.0800 
 25 H        4.4940    -1.3900    -0.9150 H     1 <1>   0.1500 
 26 H        6.2240     0.2630    -0.3380 H     1 <1>   0.1500 
 27 H        1.4040     3.3200     1.8800 H     1 <1>   0.0800 
 28 H        2.3850     4.6810     2.3380 H     1 <1>   0.0800 
 29 H        2.9160     3.0610     2.7080 H     1 <1>   0.0800 
 30 H        1.4750     4.1180    -0.6180 H     1 <1>   0.0800 
 31 H        3.0320     4.3630    -1.3640 H     1 <1>   0.0800 
 32 H        2.4560     5.4770    -0.1510 H     1 <1>   0.0800 
@<TRIPOS>BOND
  1   1   2  2   
  2   2   3  am  
  3   2   4  1   
  4   3   5  1   
  5   3  16  1   
  6   4   6  1   
  7   4  17  1   
  8   4  18  1   
  9   5   7  ar  
 10   5   8  ar  
 11   6   9  1   
 12   7  10  ar  
 13   7  11  1   
 14   8  12  ar  
 15   8  19  1   
 16   9  20  1   
 17   9  21  1   
 18   9  22  1   
 19  10  13  ar  
 20  10  23  1   
 21  11  14  1   
 22  11  15  1   
 23  11  24  1   
 24  12  13  ar  
 25  12  25  1   
 26  13  26  1   
 27  14  27  1   
 28  14  28  1   
 29  14  29  1   
 30  15  30  1   
 31  15  31  1   
 32  15  32  1   
@<TRIPOS>SUBSTRUCTURE
  1 ****   3 GROUP 4 **** **** 0

# MOE 2024.06 (io_trps.svl 2023.06)
