@<TRIPOS>MOLECULE
NONAME
27 27 1 0 0 
SMALL
USER_CHARGES


@<TRIPOS>ATOM
  1 P       -0.6520     0.2140     0.7450 P.3   1 <1>   1.0390 
  2 O        0.7350    -0.0920     0.2800 O.co2 1 <1>  -0.9500 
  3 O       -0.9880     0.2630     2.2020 O.co2 1 <1>  -0.9500 
  4 C       -1.2250     1.7380    -0.0590 C.ar  1 <1>  -0.1390 
  5 C       -1.7160    -1.0270    -0.0050 C.3   1 <1>  -0.1600 
  6 C       -2.1720     2.5650     0.5320 C.ar  1 <1>  -0.1500 
  7 C       -0.7580     2.1210    -1.3100 C.ar  1 <1>  -0.1500 
  8 C       -3.2260    -0.8530     0.2410 C.3   1 <1>  -0.1600 
  9 C       -2.6420     3.7090    -0.0900 C.ar  1 <1>  -0.1500 
 10 C       -1.2150     3.2610    -1.9490 C.ar  1 <1>  -0.1500 
 11 C       -4.0380    -1.9900    -0.3930 C.3   1 <1>  -0.1600 
 12 C       -2.1630     4.0600    -1.3380 C.ar  1 <1>  -0.1500 
 13 C       -5.5360    -1.8010    -0.1430 C.3   1 <1>  -0.2400 
 14 H       -1.4300    -1.9900     0.3720 H     1 <1>   0.0800 
 15 H       -1.5470    -1.0490    -1.0640 H     1 <1>   0.0800 
 16 H       -2.5370     2.2910     1.5090 H     1 <1>   0.1500 
 17 H       -0.0120     1.5000    -1.7790 H     1 <1>   0.1500 
 18 H       -3.5440     0.0900    -0.1660 H     1 <1>   0.0800 
 19 H       -3.3970    -0.8290     1.3050 H     1 <1>   0.0800 
 20 H       -3.3750     4.3220     0.4040 H     1 <1>   0.1500 
 21 H       -0.8270     3.5220    -2.9170 H     1 <1>   0.1500 
 22 H       -3.7230    -2.9310     0.0260 H     1 <1>   0.0800 
 23 H       -3.8530    -2.0150    -1.4530 H     1 <1>   0.0800 
 24 H       -2.5220     4.9470    -1.8270 H     1 <1>   0.1500 
 25 H       -5.7380    -1.7880     0.9140 H     1 <1>   0.0800 
 26 H       -6.0900    -2.6070    -0.5900 H     1 <1>   0.0800 
 27 H       -5.8720    -0.8720    -0.5700 H     1 <1>   0.0800 
@<TRIPOS>BOND
  1   1   2  ar  
  2   1   3  ar  
  3   1   4  1   
  4   1   5  1   
  5   4   6  ar  
  6   4   7  ar  
  7   5   8  1   
  8   5  14  1   
  9   5  15  1   
 10   6   9  ar  
 11   6  16  1   
 12   7  10  ar  
 13   7  17  1   
 14   8  11  1   
 15   8  18  1   
 16   8  19  1   
 17   9  12  ar  
 18   9  20  1   
 19  10  12  ar  
 20  10  21  1   
 21  11  13  1   
 22  11  22  1   
 23  11  23  1   
 24  12  24  1   
 25  13  25  1   
 26  13  26  1   
 27  13  27  1   
@<TRIPOS>SUBSTRUCTURE
  1 ****   4 GROUP 4 **** **** 0

# MOE 2024.06 (io_trps.svl 2023.06)
