@<TRIPOS>MOLECULE
NONAME
28 30 1 0 0 
SMALL
USER_CHARGES


@<TRIPOS>ATOM
  1 CL      -0.0500    -0.0030     0.0430 Cl    1 <1>  -0.1770 
  2 C       -0.1930     1.7180    -0.1680 C.ar  1 <1>   0.4870 
  3 N        0.8990     2.3430    -0.4950 N.ar  1 <1>  -0.6200 
  4 C       -1.4190     2.3610     0.0020 C.ar  1 <1>  -0.1520 
  5 C        0.7750     3.6650    -0.6710 C.ar  1 <1>   0.4700 
  6 N       -2.7080     1.9880     0.3410 N.pl3 1 <1>   0.0480 
  7 C       -1.4130     3.7220    -0.2210 C.ar  1 <1>   0.2560 
  8 N       -0.3040     4.3890    -0.5570 N.ar  1 <1>  -0.5660 
  9 C       -3.4830     3.1110     0.3000 C.2   1 <1>  -0.3320 
 10 C       -3.2180     0.6440     0.7090 C.3   1 <1>   0.0960 
 11 C       -2.7230     4.1950    -0.0360 C.2   1 <1>   0.0190 
 12 C       -4.9800     3.0900     0.5780 C.3   1 <1>   0.0200 
 13 C       -4.2150     0.1210    -0.3340 C.3   1 <1>  -0.1600 
 14 C       -3.0960     5.5680    -0.2000 C.1   1 <1>   0.5380 
 15 C       -5.7230     2.2290    -0.4510 C.3   1 <1>  -0.1600 
 16 C       -5.6260     0.7160    -0.1930 C.3   1 <1>  -0.1600 
 17 N       -3.4390     6.6500    -0.3190 N.1   1 <1>  -0.5570 
 18 H        1.6820     4.1810    -0.9400 H     1 <1>   0.1500 
 19 H       -3.6900     0.7050     1.6730 H     1 <1>   0.0800 
 20 H       -2.4040    -0.0450     0.7970 H     1 <1>   0.0800 
 21 H       -5.3640     4.0940     0.5200 H     1 <1>   0.0800 
 22 H       -5.1720     2.7340     1.5760 H     1 <1>   0.0800 
 23 H       -4.2970    -0.9440    -0.2040 H     1 <1>   0.0800 
 24 H       -3.8310     0.2910    -1.3260 H     1 <1>   0.0800 
 25 H       -5.3620     2.4570    -1.4400 H     1 <1>   0.0800 
 26 H       -6.7640     2.5010    -0.4220 H     1 <1>   0.0800 
 27 H       -6.0110     0.4970     0.7880 H     1 <1>   0.0800 
 28 H       -6.2680     0.2180    -0.9000 H     1 <1>   0.0800 
@<TRIPOS>BOND
  1   1   2  1   
  2   2   3  ar  
  3   2   4  ar  
  4   3   5  ar  
  5   4   6  1   
  6   4   7  ar  
  7   5   8  ar  
  8   5  18  1   
  9   6   9  1   
 10   6  10  1   
 11   7   8  ar  
 12   7  11  1   
 13   9  11  2   
 14   9  12  1   
 15  10  13  1   
 16  10  19  1   
 17  10  20  1   
 18  11  14  1   
 19  12  15  1   
 20  12  21  1   
 21  12  22  1   
 22  13  16  1   
 23  13  23  1   
 24  13  24  1   
 25  14  17  3   
 26  15  16  1   
 27  15  25  1   
 28  15  26  1   
 29  16  27  1   
 30  16  28  1   
@<TRIPOS>SUBSTRUCTURE
  1 ****   6 GROUP 4 **** **** 0

# MOE 2024.06 (io_trps.svl 2023.06)
