@<TRIPOS>MOLECULE
NONAME
51 53 1 0 0 
SMALL
USER_CHARGES


@<TRIPOS>ATOM
  1 O      -10.7880     2.1610    -0.0960 O.2   1 <1>  -0.5700 
  2 C      -11.5990     1.4830     0.5040 C.2   1 <1>   0.5440 
  3 N      -11.2010     0.9250     1.6890 N.am  1 <1>  -0.7300 
  4 C      -12.9430     1.2820    -0.0110 C.ar  1 <1>   0.0860 
  5 C       -9.8990     1.1880     2.3610 C.3   1 <1>   0.1400 
  6 C      -13.5530     2.2480    -0.8070 C.ar  1 <1>  -0.1500 
  7 C      -13.6740     0.1250     0.2670 C.ar  1 <1>  -0.1500 
  8 C       -8.7070     0.7300     1.4910 C.3   1 <1>   0.3430 
  9 C      -14.8360     2.0870    -1.2990 C.ar  1 <1>   0.0820 
 10 C      -14.9580    -0.0500    -0.2190 C.ar  1 <1>  -0.1500 
 11 N       -7.6320     1.7700     1.3610 N.4   1 <1>  -0.9590 
 12 O      -15.3280     3.0970    -2.0590 O.3   1 <1>  -0.3620 
 13 C      -15.5450     0.9280    -1.0000 C.ar  1 <1>  -0.1500 
 14 C       -8.0940     2.9050     0.4680 C.3   1 <1>   0.3430 
 15 C       -6.3700     1.1670     0.7930 C.3   1 <1>   0.3430 
 16 C      -16.6150     3.0280    -2.6310 C.3   1 <1>   0.0400 
 17 C       -7.0080     3.9780     0.2430 C.3   1 <1>   0.2090 
 18 C       -5.2480     2.2110     0.6070 C.3   1 <1>   0.2090 
 19 N       -5.7250     3.3640    -0.2080 N.pl3 1 <1>  -0.8380 
 20 C       -4.7570     4.2440    -0.6750 C.ar  1 <1>   0.1000 
 21 C       -3.9700     4.9930     0.1940 C.ar  1 <1>  -0.1500 
 22 C       -4.5650     4.3890    -2.0420 C.ar  1 <1>  -0.1500 
 23 C       -3.0120     5.8630    -0.2940 C.ar  1 <1>  -0.1500 
 24 C       -3.6090     5.2590    -2.5350 C.ar  1 <1>  -0.1500 
 25 C       -2.8300     5.9970    -1.6600 C.ar  1 <1>  -0.1500 
 26 H      -11.9280     0.5030     2.2750 H     1 <1>   0.3700 
 27 H       -9.8780     0.6560     3.2970 H     1 <1>   0.0800 
 28 H       -9.8340     2.2420     2.5700 H     1 <1>   0.0800 
 29 H      -13.0200     3.1490    -1.0520 H     1 <1>   0.1500 
 30 H      -13.2370    -0.6570     0.8620 H     1 <1>   0.1500 
 31 H       -9.0740     0.4810     0.5080 H     1 <1>   0.0800 
 32 H       -8.2940    -0.1640     1.9260 H     1 <1>   0.0800 
 33 H      -15.5030    -0.9500     0.0090 H     1 <1>   0.1500 
 34 H       -7.4090     2.1650     2.2820 H     1 <1>   0.4500 
 35 H      -16.5420     0.7720    -1.3660 H     1 <1>   0.1500 
 36 H       -8.9680     3.3740     0.8870 H     1 <1>   0.0800 
 37 H       -8.3780     2.5100    -0.4940 H     1 <1>   0.0800 
 38 H       -6.5820     0.7340    -0.1710 H     1 <1>   0.0800 
 39 H       -6.0130     0.3820     1.4380 H     1 <1>   0.0800 
 40 H      -16.7790     3.9300    -3.1920 H     1 <1>   0.0800 
 41 H      -17.3440     2.9500    -1.8430 H     1 <1>   0.0800 
 42 H      -16.6610     2.1770    -3.2870 H     1 <1>   0.0800 
 43 H       -6.8450     4.5300     1.1510 H     1 <1>   0.0800 
 44 H       -7.3490     4.6720    -0.5070 H     1 <1>   0.0800 
 45 H       -4.4120     1.7510     0.1070 H     1 <1>   0.0800 
 46 H       -4.9080     2.5590     1.5670 H     1 <1>   0.0800 
 47 H       -4.1080     4.8970     1.2540 H     1 <1>   0.1500 
 48 H       -5.1720     3.8140    -2.7170 H     1 <1>   0.1500 
 49 H       -2.4060     6.4380     0.3850 H     1 <1>   0.1500 
 50 H       -3.4700     5.3610    -3.5970 H     1 <1>   0.1500 
 51 H       -2.0850     6.6730    -2.0420 H     1 <1>   0.1500 
@<TRIPOS>BOND
  1   1   2  2   
  2   2   3  am  
  3   2   4  1   
  4   3   5  1   
  5   3  26  1   
  6   4   6  ar  
  7   4   7  ar  
  8   5   8  1   
  9   5  27  1   
 10   5  28  1   
 11   6   9  ar  
 12   6  29  1   
 13   7  10  ar  
 14   7  30  1   
 15   8  11  1   
 16   8  31  1   
 17   8  32  1   
 18   9  12  1   
 19   9  13  ar  
 20  10  13  ar  
 21  10  33  1   
 22  11  14  1   
 23  11  15  1   
 24  11  34  1   
 25  12  16  1   
 26  13  35  1   
 27  14  17  1   
 28  14  36  1   
 29  14  37  1   
 30  15  18  1   
 31  15  38  1   
 32  15  39  1   
 33  16  40  1   
 34  16  41  1   
 35  16  42  1   
 36  17  19  1   
 37  17  43  1   
 38  17  44  1   
 39  18  19  1   
 40  18  45  1   
 41  18  46  1   
 42  19  20  1   
 43  20  21  ar  
 44  20  22  ar  
 45  21  23  ar  
 46  21  47  1   
 47  22  24  ar  
 48  22  48  1   
 49  23  25  ar  
 50  23  49  1   
 51  24  25  ar  
 52  24  50  1   
 53  25  51  1   
@<TRIPOS>SUBSTRUCTURE
  1 ****  14 GROUP 4 **** **** 0

# MOE 2024.06 (io_trps.svl 2023.06)
