@<TRIPOS>MOLECULE
NONAME
41 42 1 0 0 
SMALL
USER_CHARGES


@<TRIPOS>ATOM
  1 O       -0.0820     0.4290    -0.3260 O.3   1 <1>  -0.6800 
  2 C       -1.1560     1.2630    -0.5100 C.3   1 <1>   0.2000 
  3 C       -1.5630     1.8170     0.8600 C.3   1 <1>  -0.1600 
  4 C       -2.2720     0.4290    -1.1490 C.3   1 <1>  -0.1600 
  5 C       -2.8970     2.5790     0.7870 C.3   1 <1>  -0.1600 
  6 C       -3.6010     1.1990    -1.2060 C.3   1 <1>  -0.1600 
  7 C       -4.0020     1.7020     0.1880 C.3   1 <1>   0.4230 
  8 N       -5.2380     2.5060     0.1080 N.4   1 <1>  -0.9060 
  9 C       -6.4720     1.7600    -0.2210 C.3   1 <1>   0.4230 
 10 C       -7.5370     2.7950    -0.6030 C.3   1 <1>  -0.1600 
 11 C       -6.8510     0.8640     0.9690 C.3   1 <1>  -0.1600 
 12 C       -8.7320     2.1520    -1.3230 C.3   1 <1>  -0.1600 
 13 C       -8.1690     0.0870     0.8060 C.3   1 <1>  -0.1600 
 14 C       -9.8460     1.6500    -0.3930 C.3   1 <1>  -0.1600 
 15 C       -9.4060     0.9870     0.9210 C.3   1 <1>  -0.1600 
 16 H        0.6930     0.9230     0.0050 H     1 <1>   0.4000 
 17 H       -0.8570     2.0590    -1.1730 H     1 <1>   0.0800 
 18 H       -0.7940     2.4770     1.2230 H     1 <1>   0.0800 
 19 H       -1.6630     0.9990     1.5560 H     1 <1>   0.0800 
 20 H       -2.4090    -0.4730    -0.5750 H     1 <1>   0.0800 
 21 H       -1.9740     0.1480    -2.1440 H     1 <1>   0.0800 
 22 H       -2.7560     3.4600     0.1840 H     1 <1>   0.0800 
 23 H       -3.1700     2.8840     1.7820 H     1 <1>   0.0800 
 24 H       -4.3510     0.5360    -1.5990 H     1 <1>   0.0800 
 25 H       -3.4880     2.0300    -1.8810 H     1 <1>   0.0800 
 26 H       -4.1530     0.8540     0.8380 H     1 <1>   0.0800 
 27 H       -5.1020     3.2380    -0.5950 H     1 <1>   0.4500 
 28 H       -5.3870     2.9800     1.0040 H     1 <1>   0.4500 
 29 H       -6.2950     1.1360    -1.0820 H     1 <1>   0.0800 
 30 H       -7.1030     3.4950    -1.2960 H     1 <1>   0.0800 
 31 H       -7.8750     3.3460     0.2580 H     1 <1>   0.0800 
 32 H       -6.9110     1.4520     1.8680 H     1 <1>   0.0800 
 33 H       -6.0800     0.1280     1.1090 H     1 <1>   0.0800 
 34 H       -8.3920     1.3400    -1.9430 H     1 <1>   0.0800 
 35 H       -9.1720     2.8790    -1.9860 H     1 <1>   0.0800 
 36 H       -8.2200    -0.6360     1.6040 H     1 <1>   0.0800 
 37 H       -8.1860    -0.4660    -0.1180 H     1 <1>   0.0800 
 38 H      -10.4490     0.9490    -0.9470 H     1 <1>   0.0800 
 39 H      -10.4910     2.4770    -0.1440 H     1 <1>   0.0800 
 40 H       -9.2400     1.7430     1.6700 H     1 <1>   0.0800 
 41 H      -10.2310     0.3900     1.2730 H     1 <1>   0.0800 
@<TRIPOS>BOND
  1   1   2  1   
  2   1  16  1   
  3   2   3  1   
  4   2   4  1   
  5   2  17  1   
  6   3   5  1   
  7   3  18  1   
  8   3  19  1   
  9   4   6  1   
 10   4  20  1   
 11   4  21  1   
 12   5   7  1   
 13   5  22  1   
 14   5  23  1   
 15   6   7  1   
 16   6  24  1   
 17   6  25  1   
 18   7   8  1   
 19   7  26  1   
 20   8   9  1   
 21   8  27  1   
 22   8  28  1   
 23   9  10  1   
 24   9  11  1   
 25   9  29  1   
 26  10  12  1   
 27  10  30  1   
 28  10  31  1   
 29  11  13  1   
 30  11  32  1   
 31  11  33  1   
 32  12  14  1   
 33  12  34  1   
 34  12  35  1   
 35  13  15  1   
 36  13  36  1   
 37  13  37  1   
 38  14  15  1   
 39  14  38  1   
 40  14  39  1   
 41  15  40  1   
 42  15  41  1   
@<TRIPOS>SUBSTRUCTURE
  1 ****   8 GROUP 4 **** **** 0

# MOE 2024.06 (io_trps.svl 2023.06)
