@<TRIPOS>MOLECULE
NONAME
39 40 1 0 0 
SMALL
USER_CHARGES


@<TRIPOS>ATOM
  1 BR       2.9070     1.8990    -3.5460 Br    1 <1>  -0.1110 
  2 C        3.7680     1.0650    -2.0420 C.ar  1 <1>   0.1110 
  3 C        3.8840     1.7750    -0.8630 C.ar  1 <1>  -0.1500 
  4 C        4.2470    -0.2230    -2.1780 C.ar  1 <1>  -0.1500 
  5 C        4.5080     1.1700     0.2150 C.ar  1 <1>  -0.1500 
  6 C        4.8690    -0.8170    -1.0930 C.ar  1 <1>  -0.1500 
  7 C        5.0100    -0.1220     0.1030 C.ar  1 <1>  -0.1430 
  8 C        5.7100    -0.7760     1.2940 C.3   1 <1>   0.0440 
  9 C        6.7380     0.1240     1.9740 C.2   1 <1>   0.5690 
 10 O        6.6180     0.2950     3.1630 O.2   1 <1>  -0.5700 
 11 N        7.7700     0.7230     1.2840 N.am  1 <1>  -0.6600 
 12 C        8.6140     1.7690     1.9480 C.3   1 <1>   0.1400 
 13 C        8.0840     0.4950    -0.1620 C.3   1 <1>   0.1400 
 14 C       10.1120     1.5120     1.7130 C.3   1 <1>   0.3430 
 15 C        9.5960     0.2890    -0.3880 C.3   1 <1>   0.3430 
 16 N       10.4310     1.3680     0.2500 N.4   1 <1>  -0.9590 
 17 C       11.8800     1.1590     0.0370 C.3   1 <1>   0.4810 
 18 C       12.1660     1.4740    -1.4130 C.2   1 <1>  -0.2880 
 19 C       12.7510     2.5910    -1.8560 C.2   1 <1>  -0.3000 
 20 H        3.4910     2.7730    -0.7900 H     1 <1>   0.1500 
 21 H        4.1280    -0.7470    -3.1100 H     1 <1>   0.1500 
 22 H        4.5970     1.7110     1.1430 H     1 <1>   0.1500 
 23 H        5.2350    -1.8250    -1.1880 H     1 <1>   0.1500 
 24 H        6.2000    -1.6830     0.9940 H     1 <1>   0.0800 
 25 H        4.9610    -1.0450     2.0170 H     1 <1>   0.0800 
 26 H        8.4330     1.7880     3.0100 H     1 <1>   0.0800 
 27 H        8.3450     2.7360     1.5610 H     1 <1>   0.0800 
 28 H        7.7400     1.3400    -0.7340 H     1 <1>   0.0800 
 29 H        7.5710    -0.3750    -0.5280 H     1 <1>   0.0800 
 30 H       10.3870     0.6120     2.2380 H     1 <1>   0.0800 
 31 H       10.6760     2.3270     2.1350 H     1 <1>   0.0800 
 32 H        9.7860     0.2570    -1.4480 H     1 <1>   0.0800 
 33 H        9.8710    -0.6680     0.0240 H     1 <1>   0.0800 
 34 H       10.2060     2.2550    -0.2200 H     1 <1>   0.4500 
 35 H       12.1710     0.1490     0.2790 H     1 <1>   0.0800 
 36 H       12.4410     1.8380     0.6590 H     1 <1>   0.0800 
 37 H       11.8580     0.6910    -2.0860 H     1 <1>   0.1500 
 38 H       12.9510     2.7900    -2.8980 H     1 <1>   0.1500 
 39 H       13.0890     3.4050    -1.2350 H     1 <1>   0.1500 
@<TRIPOS>BOND
  1   1   2  1   
  2   2   3  ar  
  3   2   4  ar  
  4   3   5  ar  
  5   3  20  1   
  6   4   6  ar  
  7   4  21  1   
  8   5   7  ar  
  9   5  22  1   
 10   6   7  ar  
 11   6  23  1   
 12   7   8  1   
 13   8   9  1   
 14   8  24  1   
 15   8  25  1   
 16   9  10  2   
 17   9  11  am  
 18  11  12  1   
 19  11  13  1   
 20  12  14  1   
 21  12  26  1   
 22  12  27  1   
 23  13  15  1   
 24  13  28  1   
 25  13  29  1   
 26  14  16  1   
 27  14  30  1   
 28  14  31  1   
 29  15  16  1   
 30  15  32  1   
 31  15  33  1   
 32  16  17  1   
 33  16  34  1   
 34  17  18  1   
 35  17  35  1   
 36  17  36  1   
 37  18  19  2   
 38  18  37  1   
 39  19  38  1   
 40  19  39  1   
@<TRIPOS>SUBSTRUCTURE
  1 ****  13 GROUP 4 **** **** 0

# MOE 2024.06 (io_trps.svl 2023.06)
