@<TRIPOS>MOLECULE
NONAME
39 40 1 0 0 
SMALL
USER_CHARGES


@<TRIPOS>ATOM
  1 O       -1.7400     0.9350     1.8650 O.2   1 <1>  -0.5700 
  2 C       -2.2820     1.4790     0.9150 C.2   1 <1>   0.5440 
  3 N       -3.2210     0.8210     0.1680 N.am  1 <1>  -0.4210 
  4 C       -1.9140     2.8330     0.5550 C.ar  1 <1>   0.0860 
  5 N       -3.7710    -0.5210     0.4250 N.3   1 <1>  -0.5490 
  6 C       -0.5770     3.2150     0.4830 C.ar  1 <1>  -0.1500 
  7 C       -2.8820     3.7940     0.2630 C.ar  1 <1>  -0.1500 
  8 C       -5.2530    -0.4230     0.3470 C.3   1 <1>   0.1100 
  9 C       -3.2470    -1.4250    -0.6340 C.3   1 <1>   0.1100 
 10 C       -0.2060     4.4950     0.1130 C.ar  1 <1>   0.0830 
 11 C       -2.5250     5.0850    -0.1060 C.ar  1 <1>   0.0830 
 12 C       -5.8810    -1.8050     0.5610 C.3   1 <1>  -0.1600 
 13 C       -3.8190    -2.8350    -0.4500 C.3   1 <1>  -0.1600 
 14 O        1.1240     4.7560     0.0640 O.3   1 <1>  -0.3630 
 15 C       -1.1880     5.4320    -0.1850 C.ar  1 <1>  -0.1500 
 16 O       -3.4220     6.0590    -0.4000 O.3   1 <1>  -0.3620 
 17 C       -5.3540    -2.8220    -0.4600 C.3   1 <1>  -0.1600 
 18 C        1.6050     6.0430    -0.2560 C.3   1 <1>   0.0400 
 19 C       -4.8060     5.8750    -0.1950 C.3   1 <1>   0.0400 
 20 H       -3.5360     1.2690    -0.6950 H     1 <1>   0.3700 
 21 H        0.1880     2.4970     0.7210 H     1 <1>   0.1500 
 22 H       -3.9150     3.5120     0.3390 H     1 <1>   0.1500 
 23 H       -5.5460    -0.0330    -0.6120 H     1 <1>   0.0800 
 24 H       -5.5980     0.2480     1.1140 H     1 <1>   0.0800 
 25 H       -2.1730    -1.4620    -0.5570 H     1 <1>   0.0800 
 26 H       -3.5100    -1.0460    -1.6060 H     1 <1>   0.0800 
 27 H       -6.9500    -1.7300     0.4800 H     1 <1>   0.0800 
 28 H       -5.6470    -2.1370     1.5580 H     1 <1>   0.0800 
 29 H       -3.4650    -3.2280     0.4880 H     1 <1>   0.0800 
 30 H       -3.4550    -3.4750    -1.2330 H     1 <1>   0.0800 
 31 H       -0.9440     6.4350    -0.4770 H     1 <1>   0.1500 
 32 H       -5.7020    -2.5560    -1.4430 H     1 <1>   0.0800 
 33 H       -5.7290    -3.8040    -0.2260 H     1 <1>   0.0800 
 34 H        2.6790     6.0180    -0.2160 H     1 <1>   0.0800 
 35 H        1.2280     6.7460     0.4650 H     1 <1>   0.0800 
 36 H        1.2820     6.2990    -1.2500 H     1 <1>   0.0800 
 37 H       -5.3030     6.7990    -0.4310 H     1 <1>   0.0800 
 38 H       -4.9770     5.6220     0.8370 H     1 <1>   0.0800 
 39 H       -5.1560     5.0960    -0.8480 H     1 <1>   0.0800 
@<TRIPOS>BOND
  1   1   2  2   
  2   2   3  am  
  3   2   4  1   
  4   3   5  1   
  5   3  20  1   
  6   4   6  ar  
  7   4   7  ar  
  8   5   8  1   
  9   5   9  1   
 10   6  10  ar  
 11   6  21  1   
 12   7  11  ar  
 13   7  22  1   
 14   8  12  1   
 15   8  23  1   
 16   8  24  1   
 17   9  13  1   
 18   9  25  1   
 19   9  26  1   
 20  10  14  1   
 21  10  15  ar  
 22  11  15  ar  
 23  11  16  1   
 24  12  17  1   
 25  12  27  1   
 26  12  28  1   
 27  13  17  1   
 28  13  29  1   
 29  13  30  1   
 30  14  18  1   
 31  15  31  1   
 32  16  19  1   
 33  17  32  1   
 34  17  33  1   
 35  18  34  1   
 36  18  35  1   
 37  18  36  1   
 38  19  37  1   
 39  19  38  1   
 40  19  39  1   
@<TRIPOS>SUBSTRUCTURE
  1 ****   4 GROUP 4 **** **** 0

# MOE 2024.06 (io_trps.svl 2023.06)
