@<TRIPOS>MOLECULE
NONAME
56 57 1 0 0 
SMALL
USER_CHARGES


@<TRIPOS>ATOM
  1 O       -3.2330     0.9180     2.2530 O.2   1 <1>  -0.5700 
  2 C       -3.5330     1.7680     1.4350 C.2   1 <1>   0.7800 
  3 O       -2.7680     2.8520     1.2990 O.3   1 <1>  -0.4300 
  4 N       -4.6360     1.6610     0.6310 N.am  1 <1>  -0.6600 
  5 C       -1.6220     3.0330     2.0990 C.3   1 <1>   0.1200 
  6 C       -4.9780     2.6510    -0.4350 C.3   1 <1>   0.1400 
  7 C       -5.5620     0.4930     0.7150 C.3   1 <1>   0.1400 
  8 C       -0.9780     4.3590     1.7080 C.3   1 <1>  -0.2400 
  9 C       -5.1280     1.9560    -1.7960 C.3   1 <1>   0.1400 
 10 C       -5.7190    -0.1890    -0.6540 C.3   1 <1>   0.1400 
 11 N       -6.0870     0.8110    -1.7060 N.am  1 <1>  -0.6600 
 12 C       -7.3330     0.8600    -2.2930 C.2   1 <1>   0.5440 
 13 O       -7.7400     1.9330    -2.7080 O.2   1 <1>  -0.5700 
 14 C       -8.1800    -0.3120    -2.3810 C.ar  1 <1>   0.0860 
 15 C       -9.4930    -0.2860    -1.8850 C.ar  1 <1>   0.1170 
 16 C       -7.7020    -1.4960    -2.9450 C.ar  1 <1>  -0.1500 
 17 N       -9.9990     0.9060    -1.3530 N.am  1 <1>  -0.5470 
 18 C      -10.2690    -1.4400    -1.9460 C.ar  1 <1>  -0.1500 
 19 C       -8.4840    -2.6330    -3.0020 C.ar  1 <1>  -0.1500 
 20 C      -10.8800     1.1390    -0.3370 C.2   1 <1>   0.5690 
 21 C       -9.7720    -2.6040    -2.4970 C.ar  1 <1>  -0.1500 
 22 O      -11.4430     0.2590     0.2650 O.2   1 <1>  -0.5700 
 23 C      -11.1570     2.5840     0.0380 C.3   1 <1>  -0.0990 
 24 C      -10.1360     3.2230     1.0110 C.3   1 <1>   0.0000 
 25 C      -10.5910     4.6550     1.3240 C.3   1 <1>  -0.2400 
 26 C      -10.0690     2.4320     2.3260 C.3   1 <1>  -0.2400 
 27 C       -8.7290     3.2860     0.3960 C.3   1 <1>  -0.2400 
 28 H       -0.9510     2.2090     1.9240 H     1 <1>   0.0800 
 29 H       -1.9260     3.0400     3.1320 H     1 <1>   0.0800 
 30 H       -4.2220     3.4120    -0.5120 H     1 <1>   0.0800 
 31 H       -5.9050     3.1350    -0.1830 H     1 <1>   0.0800 
 32 H       -6.5250     0.8320     1.0560 H     1 <1>   0.0800 
 33 H       -5.1990    -0.2270     1.4280 H     1 <1>   0.0800 
 34 H       -0.6900     4.3400     0.6720 H     1 <1>   0.0800 
 35 H       -0.0990     4.5250     2.3050 H     1 <1>   0.0800 
 36 H       -1.6650     5.1690     1.8770 H     1 <1>   0.0800 
 37 H       -4.1680     1.5870    -2.1120 H     1 <1>   0.0800 
 38 H       -5.4590     2.6720    -2.5290 H     1 <1>   0.0800 
 39 H       -6.4670    -0.9570    -0.5730 H     1 <1>   0.0800 
 40 H       -4.7890    -0.6590    -0.9230 H     1 <1>   0.0800 
 41 H       -6.7020    -1.5180    -3.3410 H     1 <1>   0.1500 
 42 H       -9.5160     1.7420    -1.7080 H     1 <1>   0.3700 
 43 H      -11.2740    -1.4240    -1.5630 H     1 <1>   0.1500 
 44 H       -8.0990    -3.5390    -3.4390 H     1 <1>   0.1500 
 45 H      -10.3880    -3.4870    -2.5350 H     1 <1>   0.1500 
 46 H      -12.1350     2.6170     0.4850 H     1 <1>   0.0800 
 47 H      -11.2070     3.1650    -0.8640 H     1 <1>   0.0800 
 48 H      -10.6320     5.2460     0.4260 H     1 <1>   0.0800 
 49 H       -9.9090     5.1290     2.0090 H     1 <1>   0.0800 
 50 H      -11.5690     4.6530     1.7740 H     1 <1>   0.0800 
 51 H      -11.0440     2.3660     2.7770 H     1 <1>   0.0800 
 52 H       -9.4040     2.9090     3.0230 H     1 <1>   0.0800 
 53 H       -9.7120     1.4310     2.1560 H     1 <1>   0.0800 
 54 H       -8.7480     3.7920    -0.5540 H     1 <1>   0.0800 
 55 H       -8.3250     2.3010     0.2520 H     1 <1>   0.0800 
 56 H       -8.0610     3.8200     1.0480 H     1 <1>   0.0800 
@<TRIPOS>BOND
  1   1   2  2   
  2   2   3  1   
  3   2   4  am  
  4   3   5  1   
  5   4   6  1   
  6   4   7  1   
  7   5   8  1   
  8   5  28  1   
  9   5  29  1   
 10   6   9  1   
 11   6  30  1   
 12   6  31  1   
 13   7  10  1   
 14   7  32  1   
 15   7  33  1   
 16   8  34  1   
 17   8  35  1   
 18   8  36  1   
 19   9  11  1   
 20   9  37  1   
 21   9  38  1   
 22  10  11  1   
 23  10  39  1   
 24  10  40  1   
 25  11  12  am  
 26  12  13  2   
 27  12  14  1   
 28  14  15  ar  
 29  14  16  ar  
 30  15  17  1   
 31  15  18  ar  
 32  16  19  ar  
 33  16  41  1   
 34  17  20  am  
 35  17  42  1   
 36  18  21  ar  
 37  18  43  1   
 38  19  21  ar  
 39  19  44  1   
 40  20  22  2   
 41  20  23  1   
 42  21  45  1   
 43  23  24  1   
 44  23  46  1   
 45  23  47  1   
 46  24  25  1   
 47  24  26  1   
 48  24  27  1   
 49  25  48  1   
 50  25  49  1   
 51  25  50  1   
 52  26  51  1   
 53  26  52  1   
 54  26  53  1   
 55  27  54  1   
 56  27  55  1   
 57  27  56  1   
@<TRIPOS>SUBSTRUCTURE
  1 ****  11 GROUP 4 **** **** 0

# MOE 2024.06 (io_trps.svl 2023.06)
