@<TRIPOS>MOLECULE
NONAME
44 45 1 0 0 
SMALL
USER_CHARGES


@<TRIPOS>ATOM
  1 BR       1.8950    -1.2720    -1.9900 Br    1 <1>  -0.1110 
  2 C        0.7310    -2.4680    -1.0310 C.ar  1 <1>   0.1110 
  3 C       -0.4960    -2.7830    -1.5830 C.ar  1 <1>  -0.1500 
  4 C        1.1500    -2.9780     0.1810 C.ar  1 <1>  -0.1500 
  5 C       -1.3390    -3.6410    -0.8930 C.ar  1 <1>  -0.1440 
  6 C        0.3080    -3.8360     0.8670 C.ar  1 <1>  -0.1500 
  7 C       -0.9380    -4.1700     0.3350 C.ar  1 <1>   0.0830 
  8 C       -2.6910    -4.0020    -1.4780 C.3   1 <1>   0.4870 
  9 O       -1.8090    -5.0010     0.9710 O.3   1 <1>  -0.3620 
 10 N       -3.7490    -3.5730    -0.5290 N.4   1 <1>  -0.9590 
 11 C       -1.4020    -5.7650     2.0910 C.3   1 <1>   0.0400 
 12 C       -5.0770    -4.1600    -0.8840 C.3   1 <1>   0.3430 
 13 C       -3.7880    -2.0920    -0.3630 C.3   1 <1>   0.3430 
 14 C       -6.1370    -3.8130     0.1670 C.3   1 <1>  -0.0190 
 15 C       -4.8070    -1.7260     0.7180 C.3   1 <1>  -0.1600 
 16 C       -7.4740    -4.3630    -0.2950 C.2   1 <1>   0.6590 
 17 C       -6.2010    -2.2910     0.4090 C.3   1 <1>  -0.1600 
 18 O       -7.6320    -4.7520    -1.4230 O.2   1 <1>  -0.5700 
 19 O       -8.4360    -4.3890     0.6130 O.3   1 <1>  -0.4300 
 20 C       -9.7250    -4.8710     0.3100 C.3   1 <1>   0.1200 
 21 C      -10.5810    -4.7530     1.5670 C.3   1 <1>  -0.2400 
 22 H       -0.7640    -2.3570    -2.5350 H     1 <1>   0.1500 
 23 H        2.1150    -2.7090     0.5760 H     1 <1>   0.1500 
 24 H        0.6430    -4.2260     1.8100 H     1 <1>   0.1500 
 25 H       -2.7340    -5.0710    -1.6170 H     1 <1>   0.0800 
 26 H       -2.8280    -3.5240    -2.4340 H     1 <1>   0.0800 
 27 H       -3.4330    -3.9750     0.3720 H     1 <1>   0.4500 
 28 H       -2.2090    -6.4190     2.3680 H     1 <1>   0.0800 
 29 H       -1.1750    -5.1030     2.9080 H     1 <1>   0.0800 
 30 H       -0.5390    -6.3500     1.8220 H     1 <1>   0.0800 
 31 H       -5.0000    -5.2330    -0.9650 H     1 <1>   0.0800 
 32 H       -5.3970    -3.7780    -1.8400 H     1 <1>   0.0800 
 33 H       -4.0680    -1.6270    -1.2950 H     1 <1>   0.0800 
 34 H       -2.8150    -1.7240    -0.0780 H     1 <1>   0.0800 
 35 H       -5.8860    -4.3110     1.0860 H     1 <1>   0.0800 
 36 H       -4.8670    -0.6530     0.7920 H     1 <1>   0.0800 
 37 H       -4.4620    -2.0920     1.6700 H     1 <1>   0.0800 
 38 H       -6.8690    -2.0800     1.2290 H     1 <1>   0.0800 
 39 H       -6.5980    -1.8050    -0.4670 H     1 <1>   0.0800 
 40 H       -9.6430    -5.8980    -0.0050 H     1 <1>   0.0800 
 41 H      -10.1330    -4.2790    -0.4920 H     1 <1>   0.0800 
 42 H      -10.1590    -5.3420     2.3620 H     1 <1>   0.0800 
 43 H      -11.5730    -5.1150     1.3650 H     1 <1>   0.0800 
 44 H      -10.6490    -3.7250     1.8760 H     1 <1>   0.0800 
@<TRIPOS>BOND
  1   1   2  1   
  2   2   3  ar  
  3   2   4  ar  
  4   3   5  ar  
  5   3  22  1   
  6   4   6  ar  
  7   4  23  1   
  8   5   7  ar  
  9   5   8  1   
 10   6   7  ar  
 11   6  24  1   
 12   7   9  1   
 13   8  10  1   
 14   8  25  1   
 15   8  26  1   
 16   9  11  1   
 17  10  12  1   
 18  10  13  1   
 19  10  27  1   
 20  11  28  1   
 21  11  29  1   
 22  11  30  1   
 23  12  14  1   
 24  12  31  1   
 25  12  32  1   
 26  13  15  1   
 27  13  33  1   
 28  13  34  1   
 29  14  16  1   
 30  14  17  1   
 31  14  35  1   
 32  15  17  1   
 33  15  36  1   
 34  15  37  1   
 35  16  18  2   
 36  16  19  1   
 37  17  38  1   
 38  17  39  1   
 39  19  20  1   
 40  20  21  1   
 41  20  40  1   
 42  20  41  1   
 43  21  42  1   
 44  21  43  1   
 45  21  44  1   
@<TRIPOS>SUBSTRUCTURE
  1 ****  10 GROUP 4 **** **** 0

# MOE 2024.06 (io_trps.svl 2023.06)
