@<TRIPOS>MOLECULE
NONAME
47 50 1 0 0 
SMALL
USER_CHARGES


@<TRIPOS>ATOM
  1 O       -0.2970     0.7330     0.6940 O.3   1 <1>  -0.3630 
  2 C       -1.4130     1.4680     0.9270 C.ar  1 <1>   0.0830 
  3 C        0.9880     1.2550     0.9540 C.3   1 <1>   0.2640 
  4 C       -2.6140     0.9190     0.5160 C.ar  1 <1>  -0.1500 
  5 C       -1.4030     2.7160     1.5430 C.ar  1 <1>  -0.1500 
  6 C        2.0380     0.2620     0.4790 C.ar  1 <1>  -0.1440 
  7 C       -3.8300     1.5780     0.6910 C.ar  1 <1>   0.0280 
  8 C       -2.5960     3.3890     1.7310 C.ar  1 <1>  -0.1500 
  9 C        3.0160    -0.2010     1.3480 C.ar  1 <1>  -0.1500 
 10 C        2.0310    -0.1850    -0.8330 C.ar  1 <1>  -0.1500 
 11 C       -3.7870     2.8260     1.3110 C.ar  1 <1>  -0.1500 
 12 C       -5.0460     0.9450     0.2400 C.2   1 <1>  -0.1780 
 13 C        3.9760    -1.0960     0.9070 C.ar  1 <1>  -0.1500 
 14 C        2.9910    -1.0790    -1.2760 C.ar  1 <1>  -0.1500 
 15 C       -6.2980     1.4230     0.0340 C.2   1 <1>  -0.0380 
 16 C        3.9650    -1.5340    -0.4050 C.ar  1 <1>  -0.1500 
 17 N       -6.7170     2.7440     0.2100 N.pl3 1 <1>  -0.8380 
 18 C       -7.4310     0.5010    -0.4660 C.3   1 <1>   0.3380 
 19 C       -7.1180     3.3370    -1.1000 C.3   1 <1>   0.2090 
 20 C       -7.8560     2.8560     1.1690 C.3   1 <1>   0.2090 
 21 O       -7.0570    -0.1290    -1.6470 O.3   1 <1>  -0.6800 
 22 C       -8.6890     1.3730    -0.7180 C.3   1 <1>  -0.0800 
 23 C       -8.3100     2.5320    -1.6750 C.3   1 <1>  -0.1600 
 24 C       -9.0520     2.0310     0.6340 C.3   1 <1>  -0.1600 
 25 H        1.0920     2.1820     0.4180 H     1 <1>   0.0800 
 26 H        1.0710     1.4270     2.0120 H     1 <1>   0.0800 
 27 H       -2.5980    -0.0440     0.0420 H     1 <1>   0.1500 
 28 H       -0.4950     3.1750     1.8800 H     1 <1>   0.1500 
 29 H       -2.6020     4.3550     2.2050 H     1 <1>   0.1500 
 30 H        3.0360     0.1300     2.3710 H     1 <1>   0.1500 
 31 H        1.2710     0.1620    -1.5130 H     1 <1>   0.1500 
 32 H       -4.7010     3.3650     1.4710 H     1 <1>   0.1500 
 33 H       -4.9020    -0.0970     0.0210 H     1 <1>   0.1500 
 34 H        4.7320    -1.4510     1.5860 H     1 <1>   0.1500 
 35 H        2.9770    -1.4210    -2.2960 H     1 <1>   0.1500 
 36 H        4.7110    -2.2300    -0.7480 H     1 <1>   0.1500 
 37 H       -7.6350    -0.2600     0.2670 H     1 <1>   0.0800 
 38 H       -7.3830     4.3720    -0.9660 H     1 <1>   0.0800 
 39 H       -6.2800     3.2870    -1.7750 H     1 <1>   0.0800 
 40 H       -7.5430     2.4790     2.1280 H     1 <1>   0.0800 
 41 H       -8.1300     3.8900     1.2850 H     1 <1>   0.0800 
 42 H       -7.8070    -0.6380    -1.9980 H     1 <1>   0.4000 
 43 H       -9.5090     0.7860    -1.0930 H     1 <1>   0.0800 
 44 H       -9.1480     3.1890    -1.8210 H     1 <1>   0.0800 
 45 H       -8.0330     2.1440    -2.6390 H     1 <1>   0.0800 
 46 H       -9.3110     1.2780     1.3560 H     1 <1>   0.0800 
 47 H       -9.9060     2.6750     0.5190 H     1 <1>   0.0800 
@<TRIPOS>BOND
  1   1   2  1   
  2   1   3  1   
  3   2   4  ar  
  4   2   5  ar  
  5   3   6  1   
  6   3  25  1   
  7   3  26  1   
  8   4   7  ar  
  9   4  27  1   
 10   5   8  ar  
 11   5  28  1   
 12   6   9  ar  
 13   6  10  ar  
 14   7  11  ar  
 15   7  12  1   
 16   8  11  ar  
 17   8  29  1   
 18   9  13  ar  
 19   9  30  1   
 20  10  14  ar  
 21  10  31  1   
 22  11  32  1   
 23  12  15  2   
 24  12  33  1   
 25  13  16  ar  
 26  13  34  1   
 27  14  16  ar  
 28  14  35  1   
 29  15  17  1   
 30  15  18  1   
 31  16  36  1   
 32  17  19  1   
 33  17  20  1   
 34  18  21  1   
 35  18  22  1   
 36  18  37  1   
 37  19  23  1   
 38  19  38  1   
 39  19  39  1   
 40  20  24  1   
 41  20  40  1   
 42  20  41  1   
 43  21  42  1   
 44  22  23  1   
 45  22  24  1   
 46  22  43  1   
 47  23  44  1   
 48  23  45  1   
 49  24  46  1   
 50  24  47  1   
@<TRIPOS>SUBSTRUCTURE
  1 ****   4 GROUP 4 **** **** 0

# MOE 2024.06 (io_trps.svl 2023.06)
