@<TRIPOS>MOLECULE
NONAME
32 33 1 0 0 
SMALL
USER_CHARGES


@<TRIPOS>ATOM
  1 CL       0.6750    -0.2450     1.7700 Cl    1 <1>  -0.1770 
  2 C        0.5270    -1.5490     0.6020 C.ar  1 <1>   0.1770 
  3 C       -0.6900    -1.7950    -0.0090 C.ar  1 <1>   0.1770 
  4 C        1.6490    -2.3240     0.3120 C.ar  1 <1>   0.1170 
  5 CL      -2.0900    -0.8130     0.3600 Cl    1 <1>  -0.1770 
  6 C       -0.8250    -2.8230    -0.9240 C.ar  1 <1>  -0.1500 
  7 N        2.8690    -2.0450     0.9570 N.am  1 <1>  -0.5470 
  8 C        1.4950    -3.3630    -0.6070 C.ar  1 <1>  -0.1500 
  9 C        0.2760    -3.6090    -1.2190 C.ar  1 <1>  -0.1500 
 10 C        4.1560    -2.3480     0.6260 C.2   1 <1>   0.6900 
 11 O        4.4420    -2.9090    -0.4110 O.2   1 <1>  -0.5700 
 12 N        5.1280    -1.9770     1.4930 N.am  1 <1>  -0.7300 
 13 C        6.5810    -2.2450     1.2940 C.3   1 <1>   0.1400 
 14 C        7.1720    -1.4250     0.1370 C.3   1 <1>   0.2000 
 15 O        8.5570    -1.5250     0.1660 O.3   1 <1>  -0.5600 
 16 C        6.9130     0.0760     0.2060 C.3   1 <1>  -0.1600 
 17 C        9.1180    -0.4880    -0.5710 C.3   1 <1>   0.1200 
 18 C        8.1230     0.6690    -0.5000 C.3   1 <1>  -0.1600 
 19 H       -1.7760    -3.0030    -1.3930 H     1 <1>   0.1500 
 20 H        2.7920    -1.3870     1.7290 H     1 <1>   0.3700 
 21 H        2.3320    -3.9930    -0.8500 H     1 <1>   0.1500 
 22 H        0.1880    -4.4160    -1.9280 H     1 <1>   0.1500 
 23 H        4.8730    -1.6060     2.4060 H     1 <1>   0.3700 
 24 H        6.7200    -3.2920     1.0830 H     1 <1>   0.0800 
 25 H        7.1080    -2.0030     2.2000 H     1 <1>   0.0800 
 26 H        6.8380    -1.8230    -0.8080 H     1 <1>   0.0800 
 27 H        6.8890     0.3950     1.2330 H     1 <1>   0.0800 
 28 H        5.9850     0.3350    -0.2710 H     1 <1>   0.0800 
 29 H        9.2470    -0.8300    -1.5840 H     1 <1>   0.0800 
 30 H       10.0720    -0.2360    -0.1410 H     1 <1>   0.0800 
 31 H        8.5330     1.4970     0.0500 H     1 <1>   0.0800 
 32 H        7.8740     0.9950    -1.4950 H     1 <1>   0.0800 
@<TRIPOS>BOND
  1   1   2  1   
  2   2   3  ar  
  3   2   4  ar  
  4   3   5  1   
  5   3   6  ar  
  6   4   7  1   
  7   4   8  ar  
  8   6   9  ar  
  9   6  19  1   
 10   7  10  am  
 11   7  20  1   
 12   8   9  ar  
 13   8  21  1   
 14   9  22  1   
 15  10  11  2   
 16  10  12  am  
 17  12  13  1   
 18  12  23  1   
 19  13  14  1   
 20  13  24  1   
 21  13  25  1   
 22  14  15  1   
 23  14  16  1   
 24  14  26  1   
 25  15  17  1   
 26  16  18  1   
 27  16  27  1   
 28  16  28  1   
 29  17  18  1   
 30  17  29  1   
 31  17  30  1   
 32  18  31  1   
 33  18  32  1   
@<TRIPOS>SUBSTRUCTURE
  1 ****  10 GROUP 4 **** **** 0

# MOE 2024.06 (io_trps.svl 2023.06)
