@<TRIPOS>MOLECULE
NONAME
45 46 1 0 0 
SMALL
USER_CHARGES


@<TRIPOS>ATOM
  1 O       -1.6780     1.1210     0.4050 O.3   1 <1>  -0.3630 
  2 C       -0.8650     2.0680    -0.1430 C.ar  1 <1>   0.0830 
  3 C       -1.1240     0.1100     1.2310 C.3   1 <1>   0.0400 
  4 C       -1.3100     2.7190    -1.2920 C.ar  1 <1>  -0.1440 
  5 C        0.3670     2.4050     0.4100 C.ar  1 <1>  -0.1500 
  6 C       -0.5220     3.6940    -1.8830 C.ar  1 <1>  -0.1500 
  7 C       -2.6540     2.3710    -1.9000 C.3   1 <1>   0.4870 
  8 C        1.1510     3.3870    -0.1860 C.ar  1 <1>   0.0820 
  9 C        0.7000     4.0240    -1.3290 C.ar  1 <1>  -0.1500 
 10 N       -3.6930     2.6170    -0.8580 N.4   1 <1>  -0.9590 
 11 O        2.3600     3.7800     0.2850 O.3   1 <1>  -0.3620 
 12 C       -4.9840     1.9210    -1.1890 C.3   1 <1>   0.3430 
 13 C       -3.7780     4.0810    -0.5700 C.3   1 <1>   0.3430 
 14 C        2.9710     3.1540     1.3920 C.3   1 <1>   0.0400 
 15 C       -5.7500     1.4140     0.0660 C.3   1 <1>   0.3430 
 16 C       -4.9470     4.4650     0.3400 C.3   1 <1>  -0.1600 
 17 N       -6.2450     2.4670     1.0340 N.4   1 <1>  -0.9590 
 18 C       -5.2390     3.4840     1.4740 C.3   1 <1>   0.3430 
 19 C       -6.8340     1.7980     2.2430 C.3   1 <1>   0.2630 
 20 H       -0.8320     0.5410     2.1730 H     1 <1>   0.0800 
 21 H       -0.2730    -0.3250     0.7340 H     1 <1>   0.0800 
 22 H       -1.8700    -0.6470     1.3950 H     1 <1>   0.0800 
 23 H        0.7170     1.9190     1.2970 H     1 <1>   0.1500 
 24 H       -0.8360     4.2060    -2.7780 H     1 <1>   0.1500 
 25 H       -2.6430     1.3300    -2.1830 H     1 <1>   0.0800 
 26 H       -2.8390     2.9690    -2.7770 H     1 <1>   0.0800 
 27 H        1.3210     4.7790    -1.7800 H     1 <1>   0.1500 
 28 H       -3.2450     2.1560    -0.0430 H     1 <1>   0.4500 
 29 H       -4.7660     1.0590    -1.8000 H     1 <1>   0.0800 
 30 H       -5.6180     2.5710    -1.7700 H     1 <1>   0.0800 
 31 H       -3.8640     4.6320    -1.4940 H     1 <1>   0.0800 
 32 H       -2.8560     4.3930    -0.1010 H     1 <1>   0.0800 
 33 H        3.9280     3.6170     1.5500 H     1 <1>   0.0800 
 34 H        3.1040     2.1090     1.1740 H     1 <1>   0.0800 
 35 H        2.3510     3.2930     2.2600 H     1 <1>   0.0800 
 36 H       -5.1040     0.7290     0.5910 H     1 <1>   0.0800 
 37 H       -6.5970     0.8400    -0.2750 H     1 <1>   0.0800 
 38 H       -5.8300     4.6480    -0.2460 H     1 <1>   0.0800 
 39 H       -4.6870     5.4100     0.7850 H     1 <1>   0.0800 
 40 H       -7.0230     2.9840     0.5910 H     1 <1>   0.4500 
 41 H       -5.6510     4.0420     2.3010 H     1 <1>   0.0800 
 42 H       -4.3330     3.0090     1.8160 H     1 <1>   0.0800 
 43 H       -6.0780     1.2470     2.7780 H     1 <1>   0.0800 
 44 H       -7.6170     1.1150     1.9540 H     1 <1>   0.0800 
 45 H       -7.2580     2.5330     2.9110 H     1 <1>   0.0800 
@<TRIPOS>BOND
  1   1   2  1   
  2   1   3  1   
  3   2   4  ar  
  4   2   5  ar  
  5   3  20  1   
  6   3  21  1   
  7   3  22  1   
  8   4   6  ar  
  9   4   7  1   
 10   5   8  ar  
 11   5  23  1   
 12   6   9  ar  
 13   6  24  1   
 14   7  10  1   
 15   7  25  1   
 16   7  26  1   
 17   8   9  ar  
 18   8  11  1   
 19   9  27  1   
 20  10  12  1   
 21  10  13  1   
 22  10  28  1   
 23  11  14  1   
 24  12  15  1   
 25  12  29  1   
 26  12  30  1   
 27  13  16  1   
 28  13  31  1   
 29  13  32  1   
 30  14  33  1   
 31  14  34  1   
 32  14  35  1   
 33  15  17  1   
 34  15  36  1   
 35  15  37  1   
 36  16  18  1   
 37  16  38  1   
 38  16  39  1   
 39  17  18  1   
 40  17  19  1   
 41  17  40  1   
 42  18  41  1   
 43  18  42  1   
 44  19  43  1   
 45  19  44  1   
 46  19  45  1   
@<TRIPOS>SUBSTRUCTURE
  1 ****   2 GROUP 4 **** **** 0

# MOE 2024.06 (io_trps.svl 2023.06)
