@<TRIPOS>MOLECULE
NONAME
32 35 1 0 0 
SMALL
USER_CHARGES


@<TRIPOS>ATOM
  1 BR      -0.0680     0.5030     0.1440 Br    1 <1>  -0.1110 
  2 C       -1.6690    -0.5350    -0.1080 C.ar  1 <1>   0.1110 
  3 C       -2.8900     0.1050    -0.0490 C.ar  1 <1>  -0.1500 
  4 C       -1.5490    -1.8910    -0.3400 C.ar  1 <1>  -0.1500 
  5 C       -4.0570    -0.6330    -0.2270 C.ar  1 <1>   0.1170 
  6 C       -2.7060    -2.6290    -0.5190 C.ar  1 <1>  -0.1500 
  7 N       -5.3250    -0.0080    -0.1720 N.am  1 <1>  -0.2370 
  8 C       -3.9420    -2.0040    -0.4620 C.ar  1 <1>  -0.1500 
  9 C       -6.4860    -0.5640     0.3500 C.2   1 <1>   0.5690 
 10 C       -5.6220     1.2680    -0.6280 C.2   1 <1>   0.5690 
 11 O       -6.6030    -1.5550     1.0220 O.2   1 <1>  -0.5700 
 12 C       -7.6320     0.2780    -0.1220 C.3   1 <1>  -0.0190 
 13 O       -4.9600     1.9900    -1.3260 O.2   1 <1>  -0.5700 
 14 C       -6.9510     1.6380    -0.0490 C.3   1 <1>  -0.0190 
 15 C       -9.0690     0.6730     0.2670 C.3   1 <1>   0.4180 
 16 C       -8.1510     2.5670    -0.2030 C.3   1 <1>   0.3380 
 17 O       -8.8990     1.9460     0.8010 O.3   1 <1>  -0.5600 
 18 C       -9.6970     1.1140    -1.0380 C.2   1 <1>  -0.2880 
 19 C       -9.8830    -0.2190     1.1890 C.3   1 <1>  -0.2400 
 20 C       -9.0850     2.2520    -1.3590 C.2   1 <1>  -0.2880 
 21 H       -2.9230     1.1640     0.1310 H     1 <1>   0.1500 
 22 H       -0.5790    -2.3540    -0.3790 H     1 <1>   0.1500 
 23 H       -2.6460    -3.6890    -0.7000 H     1 <1>   0.1500 
 24 H       -4.8290    -2.5980    -0.6010 H     1 <1>   0.1500 
 25 H       -7.7060    -0.0470    -1.1490 H     1 <1>   0.0800 
 26 H       -6.6590     1.8390     0.9720 H     1 <1>   0.0800 
 27 H       -8.0030     3.6070     0.0340 H     1 <1>   0.0800 
 28 H      -10.4470     0.5220    -1.5320 H     1 <1>   0.1500 
 29 H       -9.3560    -0.3690     2.1130 H     1 <1>   0.0800 
 30 H      -10.0410    -1.1750     0.7250 H     1 <1>   0.0800 
 31 H      -10.8370     0.2340     1.3860 H     1 <1>   0.0800 
 32 H       -9.1620     2.9070    -2.2090 H     1 <1>   0.1500 
@<TRIPOS>BOND
  1   1   2  1   
  2   2   3  ar  
  3   2   4  ar  
  4   3   5  ar  
  5   3  21  1   
  6   4   6  ar  
  7   4  22  1   
  8   5   7  1   
  9   5   8  ar  
 10   6   8  ar  
 11   6  23  1   
 12   7   9  am  
 13   7  10  am  
 14   8  24  1   
 15   9  11  2   
 16   9  12  1   
 17  10  13  2   
 18  10  14  1   
 19  12  14  1   
 20  12  15  1   
 21  12  25  1   
 22  14  16  1   
 23  14  26  1   
 24  15  17  1   
 25  15  18  1   
 26  15  19  1   
 27  16  17  1   
 28  16  20  1   
 29  16  27  1   
 30  18  20  2   
 31  18  28  1   
 32  19  29  1   
 33  19  30  1   
 34  19  31  1   
 35  20  32  1   
@<TRIPOS>SUBSTRUCTURE
  1 ****   7 GROUP 4 **** **** 0

# MOE 2024.06 (io_trps.svl 2023.06)
