@<TRIPOS>MOLECULE
NONAME
48 48 1 0 0 
SMALL
USER_CHARGES


@<TRIPOS>ATOM
  1 N       -0.1830     0.4380    -0.0110 N.4   1 <1>  -0.9590 
  2 C        1.0330    -0.4600    -0.0300 C.3   1 <1>   0.3430 
  3 C       -1.3990    -0.3140     0.4350 C.3   1 <1>   0.3430 
  4 C       -0.4500     1.0860    -1.3310 C.3   1 <1>   0.3430 
  5 C        2.3830     0.2880    -0.2370 C.3   1 <1>   0.3430 
  6 C       -1.3290    -0.5600     1.9370 C.3   1 <1>  -0.2400 
  7 C       -1.2650     2.3550    -1.1130 C.3   1 <1>  -0.2400 
  8 N        3.6210    -0.5750    -0.0980 N.4   1 <1>  -0.9590 
  9 C        4.9000     0.2180    -0.2080 C.3   1 <1>   0.4230 
 10 C        3.6250    -1.7060    -1.0970 C.3   1 <1>   0.2630 
 11 C        6.1180    -0.7140    -0.0090 C.3   1 <1>  -0.1600 
 12 C        4.9450     1.3780     0.8030 C.3   1 <1>  -0.1600 
 13 C        7.3700    -0.0170     0.5620 C.3   1 <1>  -0.0800 
 14 C        6.2120     2.2370     0.6240 C.3   1 <1>  -0.1600 
 15 C        7.4260     1.4450     0.1100 C.3   1 <1>  -0.1600 
 16 C        8.6450    -0.7650     0.1580 C.3   1 <1>  -0.2400 
 17 H       -0.0610     1.1950     0.6790 H     1 <1>   0.4500 
 18 H        0.9120    -1.1930    -0.8110 H     1 <1>   0.0800 
 19 H        1.0890    -0.9840     0.9090 H     1 <1>   0.0800 
 20 H       -1.4820    -1.2500    -0.0940 H     1 <1>   0.0800 
 21 H       -2.2860     0.2630     0.2260 H     1 <1>   0.0800 
 22 H       -0.9840     0.4100    -1.9830 H     1 <1>   0.0800 
 23 H        0.4760     1.3560    -1.8120 H     1 <1>   0.0800 
 24 H        2.4240     1.0730     0.4980 H     1 <1>   0.0800 
 25 H        2.3860     0.7440    -1.2130 H     1 <1>   0.0800 
 26 H       -0.5240    -1.2200     2.2020 H     1 <1>   0.0800 
 27 H       -2.2450    -1.0280     2.2540 H     1 <1>   0.0800 
 28 H       -1.2370     0.3670     2.4760 H     1 <1>   0.0800 
 29 H       -2.2350     2.1410    -0.7000 H     1 <1>   0.0800 
 30 H       -1.4200     2.8400    -2.0610 H     1 <1>   0.0800 
 31 H       -0.7450     3.0460    -0.4740 H     1 <1>   0.0800 
 32 H        3.6590    -0.9840     0.8490 H     1 <1>   0.4500 
 33 H        4.9700     0.6490    -1.1950 H     1 <1>   0.0800 
 34 H        3.6740    -1.3190    -2.1030 H     1 <1>   0.0800 
 35 H        2.7380    -2.3090    -0.9990 H     1 <1>   0.0800 
 36 H        4.4770    -2.3480    -0.9410 H     1 <1>   0.0800 
 37 H        6.3700    -1.1320    -0.9680 H     1 <1>   0.0800 
 38 H        5.8760    -1.5240     0.6570 H     1 <1>   0.0800 
 39 H        4.9440     0.9750     1.8020 H     1 <1>   0.0800 
 40 H        4.1090     2.0420     0.7030 H     1 <1>   0.0800 
 41 H        7.3140    -0.0270     1.6400 H     1 <1>   0.0800 
 42 H        6.4600     2.6850     1.5730 H     1 <1>   0.0800 
 43 H        6.0190     3.0440    -0.0630 H     1 <1>   0.0800 
 44 H        7.4570     1.4840    -0.9670 H     1 <1>   0.0800 
 45 H        8.3290     1.9100     0.4710 H     1 <1>   0.0800 
 46 H        8.7780    -0.7550    -0.9100 H     1 <1>   0.0800 
 47 H        8.6040    -1.7880     0.4900 H     1 <1>   0.0800 
 48 H        9.5060    -0.3030     0.6090 H     1 <1>   0.0800 
@<TRIPOS>BOND
  1   1   2  1   
  2   1   3  1   
  3   1   4  1   
  4   1  17  1   
  5   2   5  1   
  6   2  18  1   
  7   2  19  1   
  8   3   6  1   
  9   3  20  1   
 10   3  21  1   
 11   4   7  1   
 12   4  22  1   
 13   4  23  1   
 14   5   8  1   
 15   5  24  1   
 16   5  25  1   
 17   6  26  1   
 18   6  27  1   
 19   6  28  1   
 20   7  29  1   
 21   7  30  1   
 22   7  31  1   
 23   8   9  1   
 24   8  10  1   
 25   8  32  1   
 26   9  11  1   
 27   9  12  1   
 28   9  33  1   
 29  10  34  1   
 30  10  35  1   
 31  10  36  1   
 32  11  13  1   
 33  11  37  1   
 34  11  38  1   
 35  12  14  1   
 36  12  39  1   
 37  12  40  1   
 38  13  15  1   
 39  13  16  1   
 40  13  41  1   
 41  14  15  1   
 42  14  42  1   
 43  14  43  1   
 44  15  44  1   
 45  15  45  1   
 46  16  46  1   
 47  16  47  1   
 48  16  48  1   
@<TRIPOS>SUBSTRUCTURE
  1 ****   5 GROUP 4 **** **** 0

# MOE 2024.06 (io_trps.svl 2023.06)
