@<TRIPOS>MOLECULE
NONAME
59 62 1 0 0 
SMALL
USER_CHARGES


@<TRIPOS>ATOM
  1 O        0.2240    -0.6920     0.9200 O.2   1 <1>  -0.5700 
  2 C        0.1710    -1.8820     0.6850 C.2   1 <1>   0.6900 
  3 N       -0.9790    -2.4300     0.1270 N.am  1 <1>  -0.4200 
  4 N        1.2650    -2.6890     0.9630 N.am  1 <1>  -0.4360 
  5 C       -1.0390    -3.7720    -0.2180 C.2   1 <1>   0.7030 
  6 C       -2.1480    -1.5340    -0.1410 C.3   1 <1>   0.0600 
  7 C        1.1940    -4.0230     0.6090 C.2   1 <1>   0.4260 
  8 C        2.4760    -2.1170     1.6230 C.3   1 <1>   0.0600 
  9 O       -2.0340    -4.2390    -0.7450 O.2   1 <1>  -0.5700 
 10 C        0.1050    -4.5970     0.0480 C.2   1 <1>   0.2770 
 11 N        2.1520    -4.9740     0.7320 N.pl3 1 <1>  -0.7000 
 12 N        0.4150    -5.9480    -0.1530 N.pl3 1 <1>  -0.7640 
 13 C        1.6720    -6.1240     0.2650 C.cat 1 <1>   0.6560 
 14 C       -0.6030    -6.8940    -0.7200 C.3   1 <1>   0.4970 
 15 C        2.5440    -7.4000     0.2600 C.3   1 <1>   0.2540 
 16 C       -0.2530    -8.3400    -0.4090 C.ar  1 <1>  -0.1430 
 17 N        4.0220    -7.1430     0.2820 N.3   1 <1>  -0.8100 
 18 C        0.1620    -9.1970    -1.4200 C.ar  1 <1>  -0.1500 
 19 C       -0.3430    -8.8140     0.8930 C.ar  1 <1>  -0.1500 
 20 C        4.7350    -8.3670     0.7480 C.3   1 <1>   0.1100 
 21 C        4.5280    -6.7590    -1.0660 C.3   1 <1>   0.1100 
 22 C        0.5070   -10.5040    -1.1260 C.ar  1 <1>  -0.1500 
 23 C        0.0020   -10.1220     1.1840 C.ar  1 <1>  -0.1500 
 24 C        6.2790    -8.2840     0.6210 C.3   1 <1>   0.3430 
 25 C        6.0630    -6.5320    -1.1020 C.3   1 <1>   0.3430 
 26 C        0.4310   -10.9660     0.1760 C.ar  1 <1>  -0.1500 
 27 N        6.7240    -6.9190     0.1920 N.4   1 <1>  -0.9590 
 28 C        8.2050    -6.8040     0.1650 C.3   1 <1>   0.3430 
 29 C        8.6090    -5.3370     0.0880 C.3   1 <1>  -0.2400 
 30 H       -1.9890    -0.9990    -1.0610 H     1 <1>   0.0800 
 31 H       -2.2600    -0.8210     0.6590 H     1 <1>   0.0800 
 32 H       -3.0610    -2.0990    -0.2160 H     1 <1>   0.0800 
 33 H        2.2070    -1.2670     2.2280 H     1 <1>   0.0800 
 34 H        3.1790    -1.7940     0.8740 H     1 <1>   0.0800 
 35 H        2.9380    -2.8460     2.2640 H     1 <1>   0.0800 
 36 H        3.0920    -4.8720     1.1160 H     1 <1>   0.4500 
 37 H       -0.6780    -6.7460    -1.7840 H     1 <1>   0.0800 
 38 H       -1.5690    -6.6840    -0.2920 H     1 <1>   0.0800 
 39 H        2.3080    -7.9950    -0.6010 H     1 <1>   0.0800 
 40 H        2.2720    -7.9670     1.1340 H     1 <1>   0.0800 
 41 H        0.2180    -8.8630    -2.4430 H     1 <1>   0.1500 
 42 H       -0.6870    -8.1740     1.6890 H     1 <1>   0.1500 
 43 H        4.3980    -9.2260     0.1900 H     1 <1>   0.0800 
 44 H        4.4890    -8.5470     1.7810 H     1 <1>   0.0800 
 45 H        4.0420    -5.8580    -1.3990 H     1 <1>   0.0800 
 46 H        4.2860    -7.5320    -1.7780 H     1 <1>   0.0800 
 47 H        0.8250   -11.1700    -1.9110 H     1 <1>   0.1500 
 48 H       -0.0710   -10.4900     2.1950 H     1 <1>   0.1500 
 49 H        6.6110    -9.0170    -0.0960 H     1 <1>   0.0800 
 50 H        6.7230    -8.5370     1.5710 H     1 <1>   0.0800 
 51 H        6.2550    -5.4930    -1.3100 H     1 <1>   0.0800 
 52 H        6.4820    -7.1050    -1.9130 H     1 <1>   0.0800 
 53 H        0.6940   -11.9860     0.4030 H     1 <1>   0.1500 
 54 H        6.3500    -6.2780     0.9040 H     1 <1>   0.4500 
 55 H        8.6070    -7.3440    -0.6780 H     1 <1>   0.0800 
 56 H        8.6180    -7.2310     1.0660 H     1 <1>   0.0800 
 57 H        8.3080    -4.8920    -0.8430 H     1 <1>   0.0800 
 58 H        9.6810    -5.2660     0.1470 H     1 <1>   0.0800 
 59 H        8.1970    -4.7800     0.9110 H     1 <1>   0.0800 
@<TRIPOS>BOND
  1   1   2  2   
  2   2   3  am  
  3   2   4  am  
  4   3   5  am  
  5   3   6  1   
  6   4   7  1   
  7   4   8  1   
  8   5   9  2   
  9   5  10  1   
 10   6  30  1   
 11   6  31  1   
 12   6  32  1   
 13   7  10  2   
 14   7  11  1   
 15   8  33  1   
 16   8  34  1   
 17   8  35  1   
 18  10  12  1   
 19  11  13  ar  
 20  11  36  1   
 21  12  13  ar  
 22  12  14  1   
 23  13  15  1   
 24  14  16  1   
 25  14  37  1   
 26  14  38  1   
 27  15  17  1   
 28  15  39  1   
 29  15  40  1   
 30  16  18  ar  
 31  16  19  ar  
 32  17  20  1   
 33  17  21  1   
 34  18  22  ar  
 35  18  41  1   
 36  19  23  ar  
 37  19  42  1   
 38  20  24  1   
 39  20  43  1   
 40  20  44  1   
 41  21  25  1   
 42  21  45  1   
 43  21  46  1   
 44  22  26  ar  
 45  22  47  1   
 46  23  26  ar  
 47  23  48  1   
 48  24  27  1   
 49  24  49  1   
 50  24  50  1   
 51  25  27  1   
 52  25  51  1   
 53  25  52  1   
 54  26  53  1   
 55  27  28  1   
 56  27  54  1   
 57  28  29  1   
 58  28  55  1   
 59  28  56  1   
 60  29  57  1   
 61  29  58  1   
 62  29  59  1   
@<TRIPOS>SUBSTRUCTURE
  1 ****  13 GROUP 4 **** **** 0

# MOE 2024.06 (io_trps.svl 2023.06)
