@<TRIPOS>MOLECULE
NONAME
33 34 1 0 0 
SMALL
USER_CHARGES


@<TRIPOS>ATOM
  1 CL       0.2040    -0.4170     2.3550 Cl    1 <1>  -0.1770 
  2 C        0.9910    -1.7360     1.5240 C.ar  1 <1>   0.1770 
  3 C        0.2540    -2.7090     0.8690 C.ar  1 <1>  -0.0090 
  4 C        2.3730    -1.7550     1.5420 C.ar  1 <1>  -0.1500 
  5 S       -1.5570    -2.6450     0.8700 S.o2  1 <1>   1.4470 
  6 C        0.9660    -3.7020     0.1980 C.ar  1 <1>  -0.1500 
  7 C        3.0560    -2.7610     0.8850 C.ar  1 <1>  -0.1500 
  8 O       -1.9780    -1.6920    -0.1330 O.2   1 <1>  -0.6500 
  9 O       -2.0710    -2.5360     2.2190 O.2   1 <1>  -0.6500 
 10 N       -2.0110    -4.1880     0.3220 N.am  1 <1>  -0.8490 
 11 C        2.3580    -3.7510     0.2010 C.ar  1 <1>  -0.1430 
 12 C       -1.9480    -5.1960     1.3890 C.3   1 <1>   0.1960 
 13 C       -3.3390    -4.1780    -0.3020 C.3   1 <1>   0.1960 
 14 C        3.0880    -4.8800    -0.5500 C.3   1 <1>   1.1640 
 15 C       -2.1720    -6.5940     0.8070 C.3   1 <1>  -0.1600 
 16 C       -3.6390    -5.5430    -0.9340 C.3   1 <1>  -0.1600 
 17 F        4.3650    -4.9970    -0.2050 F     1 <1>  -0.3400 
 18 F        3.0690    -4.6940    -1.8620 F     1 <1>  -0.3400 
 19 F        2.5340    -6.0660    -0.3300 F     1 <1>  -0.3400 
 20 C       -3.5220    -6.6800     0.0880 C.3   1 <1>  -0.1600 
 21 H        2.9070    -0.9820     2.0670 H     1 <1>   0.1500 
 22 H        0.4210    -4.4570    -0.3460 H     1 <1>   0.1500 
 23 H        4.1350    -2.7610     0.9090 H     1 <1>   0.1500 
 24 H       -2.6970    -4.9890     2.1370 H     1 <1>   0.0800 
 25 H       -0.9830    -5.1640     1.8670 H     1 <1>   0.0800 
 26 H       -3.3770    -3.4320    -1.0780 H     1 <1>   0.0800 
 27 H       -4.0880    -3.9350     0.4350 H     1 <1>   0.0800 
 28 H       -2.1390    -7.3200     1.6000 H     1 <1>   0.0800 
 29 H       -1.3750    -6.8190     0.1200 H     1 <1>   0.0800 
 30 H       -2.9450    -5.7070    -1.7400 H     1 <1>   0.0800 
 31 H       -4.6300    -5.5310    -1.3520 H     1 <1>   0.0800 
 32 H       -4.3180    -6.5950     0.8080 H     1 <1>   0.0800 
 33 H       -3.6180    -7.6320    -0.4070 H     1 <1>   0.0800 
@<TRIPOS>BOND
  1   1   2  1   
  2   2   3  ar  
  3   2   4  ar  
  4   3   5  1   
  5   3   6  ar  
  6   4   7  ar  
  7   4  21  1   
  8   5   8  2   
  9   5   9  2   
 10   5  10  am  
 11   6  11  ar  
 12   6  22  1   
 13   7  11  ar  
 14   7  23  1   
 15  10  12  1   
 16  10  13  1   
 17  11  14  1   
 18  12  15  1   
 19  12  24  1   
 20  12  25  1   
 21  13  16  1   
 22  13  26  1   
 23  13  27  1   
 24  14  17  1   
 25  14  18  1   
 26  14  19  1   
 27  15  20  1   
 28  15  28  1   
 29  15  29  1   
 30  16  20  1   
 31  16  30  1   
 32  16  31  1   
 33  20  32  1   
 34  20  33  1   
@<TRIPOS>SUBSTRUCTURE
  1 ****   6 GROUP 4 **** **** 0

# MOE 2024.06 (io_trps.svl 2023.06)
