@<TRIPOS>MOLECULE
NONAME
38 39 1 0 0 
SMALL
USER_CHARGES


@<TRIPOS>ATOM
  1 S       -0.5230     0.0590     1.0060 S.3   1 <1>  -0.0800 
  2 C        0.6260     1.1410     0.3160 C.2   1 <1>   0.4340 
  3 C       -1.6930     0.7990    -0.0440 C.2   1 <1>   0.4420 
  4 S        2.3020     1.0310     0.9210 S.3   1 <1>  -0.2860 
  5 N        0.1570     1.9210    -0.5700 N.2   1 <1>  -0.3380 
  6 N       -1.1820     1.7230    -0.7800 N.2   1 <1>  -0.3380 
  7 N       -2.9790     0.3030     0.0350 N.am  1 <1>  -0.4940 
  8 C        3.1810     2.3320    -0.0480 C.3   1 <1>   0.0700 
  9 C       -4.1310     0.7430    -0.5670 C.2   1 <1>   0.5440 
 10 C        4.6460     2.3340     0.3850 C.3   1 <1>  -0.2400 
 11 O       -4.1460     1.8030    -1.1550 O.2   1 <1>  -0.5700 
 12 C       -5.3350    -0.0580    -0.4580 C.ar  1 <1>   0.0860 
 13 C       -6.5790     0.5440    -0.2820 C.ar  1 <1>  -0.1500 
 14 C       -5.2990    -1.4530    -0.5180 C.ar  1 <1>  -0.1500 
 15 C       -7.7380    -0.2000    -0.1500 C.ar  1 <1>   0.0830 
 16 C       -6.4500    -2.2090    -0.3890 C.ar  1 <1>  -0.1500 
 17 O       -8.8910     0.4920     0.0260 O.3   1 <1>  -0.3630 
 18 C       -7.6710    -1.5890    -0.2020 C.ar  1 <1>  -0.1500 
 19 C      -10.1360    -0.1610     0.1200 C.3   1 <1>   0.1200 
 20 C      -11.2220     0.9030     0.2840 C.3   1 <1>  -0.1600 
 21 C      -12.6130     0.2700     0.3950 C.3   1 <1>  -0.2400 
 22 H       -3.0960    -0.4840     0.6660 H     1 <1>   0.3700 
 23 H        2.6990     3.2710     0.1630 H     1 <1>   0.0800 
 24 H        3.0720     2.0860    -1.0900 H     1 <1>   0.0800 
 25 H        4.7220     2.5520     1.4360 H     1 <1>   0.0800 
 26 H        5.1880     3.0840    -0.1620 H     1 <1>   0.0800 
 27 H        5.0920     1.3750     0.1910 H     1 <1>   0.0800 
 28 H       -6.6450     1.6170    -0.2470 H     1 <1>   0.1500 
 29 H       -4.3620    -1.9570    -0.6800 H     1 <1>   0.1500 
 30 H       -6.3990    -3.2840    -0.4380 H     1 <1>   0.1500 
 31 H       -8.5510    -2.1960    -0.1030 H     1 <1>   0.1500 
 32 H      -10.1140    -0.8150     0.9740 H     1 <1>   0.0800 
 33 H      -10.2930    -0.7270    -0.7820 H     1 <1>   0.0800 
 34 H      -11.1990     1.5640    -0.5650 H     1 <1>   0.0800 
 35 H      -11.0210     1.4770     1.1720 H     1 <1>   0.0800 
 36 H      -12.8420    -0.2960    -0.4910 H     1 <1>   0.0800 
 37 H      -13.3570     1.0390     0.5090 H     1 <1>   0.0800 
 38 H      -12.6640    -0.3830     1.2490 H     1 <1>   0.0800 
@<TRIPOS>BOND
  1   1   2  1   
  2   1   3  1   
  3   2   4  1   
  4   2   5  2   
  5   3   6  2   
  6   3   7  1   
  7   4   8  1   
  8   5   6  1   
  9   7   9  am  
 10   7  22  1   
 11   8  10  1   
 12   8  23  1   
 13   8  24  1   
 14   9  11  2   
 15   9  12  1   
 16  10  25  1   
 17  10  26  1   
 18  10  27  1   
 19  12  13  ar  
 20  12  14  ar  
 21  13  15  ar  
 22  13  28  1   
 23  14  16  ar  
 24  14  29  1   
 25  15  17  1   
 26  15  18  ar  
 27  16  18  ar  
 28  16  30  1   
 29  17  19  1   
 30  18  31  1   
 31  19  20  1   
 32  19  32  1   
 33  19  33  1   
 34  20  21  1   
 35  20  34  1   
 36  20  35  1   
 37  21  36  1   
 38  21  37  1   
 39  21  38  1   
@<TRIPOS>SUBSTRUCTURE
  1 ****   9 GROUP 4 **** **** 0

# MOE 2024.06 (io_trps.svl 2023.06)
