@<TRIPOS>MOLECULE
NONAME
42 44 1 0 0 
SMALL
USER_CHARGES


@<TRIPOS>ATOM
  1 S       -0.1800     0.8120     1.5370 S.o2  1 <1>   1.5010 
  2 O       -0.7490     1.8970     2.3070 O.2   1 <1>  -0.6500 
  3 O       -0.6530    -0.5360     1.7630 O.2   1 <1>  -0.6500 
  4 N       -0.4510     1.1720    -0.0950 N.am  1 <1>  -0.8490 
  5 C        1.6240     0.8400     1.6810 C.2   1 <1>  -0.0630 
  6 C       -1.8080     0.8270    -0.5300 C.3   1 <1>   0.1960 
  7 C       -0.1040     2.5610    -0.4700 C.3   1 <1>   0.1960 
  8 C        2.3210     1.2880     2.7450 C.2   1 <1>  -0.1100 
  9 C        2.4840     0.3440     0.6480 C.2   1 <1>  -0.1500 
 10 C       -1.9870     1.0330    -2.0530 C.3   1 <1>   0.1200 
 11 C       -0.8840     3.0930    -1.6950 C.3   1 <1>   0.1200 
 12 S        4.0440     1.1230     2.4990 S.3   1 <1>  -0.0800 
 13 C        3.8160     0.4110     0.9000 C.2   1 <1>  -0.0450 
 14 O       -1.1890     2.0610    -2.5840 O.3   1 <1>  -0.5600 
 15 C        4.9610     0.0210     0.1170 C.2   1 <1>   0.7150 
 16 O        4.8020    -0.4160    -1.0050 O.2   1 <1>  -0.5700 
 17 N        6.2210     0.1610     0.6460 N.am  1 <1>  -0.5470 
 18 C        7.4940    -0.1540     0.1470 C.ar  1 <1>   0.1170 
 19 C        8.6000     0.4750     0.7070 C.ar  1 <1>  -0.1500 
 20 C        7.7120    -1.0800    -0.8680 C.ar  1 <1>  -0.1500 
 21 C        9.8800     0.1960     0.2650 C.ar  1 <1>  -0.1500 
 22 C        8.9920    -1.3600    -1.3130 C.ar  1 <1>  -0.1500 
 23 C       10.0850    -0.7230    -0.7500 C.ar  1 <1>  -0.1440 
 24 C       11.4880    -1.0320    -1.2390 C.3   1 <1>  -0.0970 
 25 H       -2.5220     1.4360     0.0000 H     1 <1>   0.0800 
 26 H       -2.0240    -0.2020    -0.2970 H     1 <1>   0.0800 
 27 H        0.9490     2.6020    -0.6890 H     1 <1>   0.0800 
 28 H       -0.2870     3.2380     0.3470 H     1 <1>   0.0800 
 29 H        1.9870     1.7100     3.6780 H     1 <1>   0.1500 
 30 H        2.0670    -0.0560    -0.2630 H     1 <1>   0.1500 
 31 H       -3.0150     1.2550    -2.2770 H     1 <1>   0.0800 
 32 H       -1.7170     0.1290    -2.5700 H     1 <1>   0.0800 
 33 H       -0.2990     3.8260    -2.2210 H     1 <1>   0.0800 
 34 H       -1.8060     3.5520    -1.3840 H     1 <1>   0.0800 
 35 H        6.2230     0.6080     1.5590 H     1 <1>   0.3700 
 36 H        8.4650     1.1930     1.4950 H     1 <1>   0.1500 
 37 H        6.8840    -1.5950    -1.3190 H     1 <1>   0.1500 
 38 H       10.7200     0.6970     0.7150 H     1 <1>   0.1500 
 39 H        9.1310    -2.0800    -2.1010 H     1 <1>   0.1500 
 40 H       12.1290    -0.1790    -1.1090 H     1 <1>   0.0800 
 41 H       11.4740    -1.2890    -2.2830 H     1 <1>   0.0800 
 42 H       11.8920    -1.8590    -0.6830 H     1 <1>   0.0800 
@<TRIPOS>BOND
  1   1   2  2   
  2   1   3  2   
  3   1   4  am  
  4   1   5  1   
  5   4   6  1   
  6   4   7  1   
  7   5   8  2   
  8   5   9  1   
  9   6  10  1   
 10   6  25  1   
 11   6  26  1   
 12   7  11  1   
 13   7  27  1   
 14   7  28  1   
 15   8  12  1   
 16   8  29  1   
 17   9  13  2   
 18   9  30  1   
 19  10  14  1   
 20  10  31  1   
 21  10  32  1   
 22  11  14  1   
 23  11  33  1   
 24  11  34  1   
 25  12  13  1   
 26  13  15  1   
 27  15  16  2   
 28  15  17  am  
 29  17  18  1   
 30  17  35  1   
 31  18  19  ar  
 32  18  20  ar  
 33  19  21  ar  
 34  19  36  1   
 35  20  22  ar  
 36  20  37  1   
 37  21  23  ar  
 38  21  38  1   
 39  22  23  ar  
 40  22  39  1   
 41  23  24  1   
 42  24  40  1   
 43  24  41  1   
 44  24  42  1   
@<TRIPOS>SUBSTRUCTURE
  1 ****  13 GROUP 4 **** **** 0

# MOE 2024.06 (io_trps.svl 2023.06)
