@<TRIPOS>MOLECULE
NONAME
36 37 1 0 0 
SMALL
USER_CHARGES


@<TRIPOS>ATOM
  1 CL      -0.7960     0.4660    -1.3900 Cl    1 <1>  -0.1770 
  2 C       -2.1600     1.2620    -0.6440 C.ar  1 <1>   0.1770 
  3 C       -3.4170     0.7050    -0.7590 C.ar  1 <1>  -0.1500 
  4 C       -1.9520     2.4380     0.0510 C.ar  1 <1>  -0.1500 
  5 C       -4.5080     1.3320    -0.1690 C.ar  1 <1>   0.1170 
  6 C       -3.0300     3.0720     0.6450 C.ar  1 <1>  -0.1500 
  7 N       -5.8100     0.8100    -0.2480 N.am  1 <1>  -0.5470 
  8 C       -4.3070     2.5250     0.5390 C.ar  1 <1>   0.0830 
  9 C       -6.4110    -0.1280    -1.0340 C.2   1 <1>   0.5690 
 10 O       -5.4090     3.1060     1.1030 O.3   1 <1>  -0.3630 
 11 O       -5.8350    -0.7910    -1.8630 O.2   1 <1>  -0.5700 
 12 C       -7.9170    -0.3230    -0.8350 C.3   1 <1>   0.1710 
 13 C       -5.3040     4.2720     1.8920 C.3   1 <1>   0.0400 
 14 N       -8.5950     0.8340    -0.1770 N.3   1 <1>  -0.8100 
 15 C       -9.9360     0.4600     0.3110 C.3   1 <1>   0.1100 
 16 C       -8.7190     1.9870    -1.0970 C.3   1 <1>   0.1100 
 17 C      -10.6480     1.6690     0.9460 C.3   1 <1>   0.1200 
 18 C       -9.4620     3.1520    -0.4210 C.3   1 <1>   0.1200 
 19 O      -10.7150     2.7320     0.0380 O.3   1 <1>  -0.5600 
 20 H       -3.5350    -0.2120    -1.3050 H     1 <1>   0.1500 
 21 H       -0.9600     2.8470     0.1220 H     1 <1>   0.1500 
 22 H       -2.8520     3.9850     1.1800 H     1 <1>   0.1500 
 23 H       -6.4930     1.3140     0.3330 H     1 <1>   0.3700 
 24 H       -8.0390    -1.1990    -0.2230 H     1 <1>   0.0800 
 25 H       -8.3710    -0.5220    -1.7890 H     1 <1>   0.0800 
 26 H       -6.2870     4.5240     2.2480 H     1 <1>   0.0800 
 27 H       -4.9200     5.0720     1.2840 H     1 <1>   0.0800 
 28 H       -4.6550     4.0720     2.7260 H     1 <1>   0.0800 
 29 H       -9.8460    -0.3190     1.0480 H     1 <1>   0.0800 
 30 H      -10.5380     0.0890    -0.5020 H     1 <1>   0.0800 
 31 H       -9.2590     1.6990    -1.9830 H     1 <1>   0.0800 
 32 H       -7.7430     2.3270    -1.3980 H     1 <1>   0.0800 
 33 H      -10.1200     1.9990     1.8240 H     1 <1>   0.0800 
 34 H      -11.6540     1.4090     1.2210 H     1 <1>   0.0800 
 35 H       -9.6200     3.9520    -1.1220 H     1 <1>   0.0800 
 36 H       -8.8950     3.5270     0.4140 H     1 <1>   0.0800 
@<TRIPOS>BOND
  1   1   2  1   
  2   2   3  ar  
  3   2   4  ar  
  4   3   5  ar  
  5   3  20  1   
  6   4   6  ar  
  7   4  21  1   
  8   5   7  1   
  9   5   8  ar  
 10   6   8  ar  
 11   6  22  1   
 12   7   9  am  
 13   7  23  1   
 14   8  10  1   
 15   9  11  2   
 16   9  12  1   
 17  10  13  1   
 18  12  14  1   
 19  12  24  1   
 20  12  25  1   
 21  13  26  1   
 22  13  27  1   
 23  13  28  1   
 24  14  15  1   
 25  14  16  1   
 26  15  17  1   
 27  15  29  1   
 28  15  30  1   
 29  16  18  1   
 30  16  31  1   
 31  16  32  1   
 32  17  19  1   
 33  17  33  1   
 34  17  34  1   
 35  18  19  1   
 36  18  35  1   
 37  18  36  1   
@<TRIPOS>SUBSTRUCTURE
  1 ****   7 GROUP 4 **** **** 0

# MOE 2024.06 (io_trps.svl 2023.06)
