@<TRIPOS>MOLECULE
NONAME
48 50 1 0 0 
SMALL
USER_CHARGES


@<TRIPOS>ATOM
  1 S       -0.1900     0.0100    -0.1640 S.o2  1 <1>   1.4470 
  2 O        0.1790    -0.8260     0.9570 O.2   1 <1>  -0.6500 
  3 O        0.0430    -0.4610    -1.5120 O.2   1 <1>  -0.6500 
  4 N        0.6570     1.4660     0.0050 N.am  1 <1>  -0.8490 
  5 C       -1.9240     0.5200     0.0210 C.ar  1 <1>  -0.0090 
  6 C        2.0920     1.2330     0.2250 C.3   1 <1>   0.1960 
  7 C        0.5030     2.3530    -1.1620 C.3   1 <1>   0.1960 
  8 C       -2.3190     1.3600     1.0540 C.ar  1 <1>  -0.1500 
  9 C       -2.9060     0.0840    -0.8610 C.ar  1 <1>  -0.1500 
 10 C        2.8670     2.5600     0.3910 C.3   1 <1>   0.2000 
 11 C        1.2790     3.6780    -0.9870 C.3   1 <1>   0.2000 
 12 C       -3.6380     1.7520     1.1970 C.ar  1 <1>  -0.1500 
 13 C       -4.2260     0.4740    -0.7200 C.ar  1 <1>  -0.1500 
 14 O        2.6240     3.4240    -0.6860 O.3   1 <1>  -0.5600 
 15 C        4.3760     2.3380     0.4440 C.3   1 <1>  -0.2400 
 16 C        0.6790     4.6030     0.0790 C.3   1 <1>  -0.2400 
 17 C       -4.6280     1.3160     0.3180 C.ar  1 <1>   0.0860 
 18 C       -6.0090     1.7290     0.4850 C.2   1 <1>   0.5440 
 19 O       -6.2630     2.8390     0.9050 O.2   1 <1>  -0.5700 
 20 N       -7.0200     0.8430     0.1920 N.am  1 <1>  -0.5470 
 21 C       -8.4120     1.0090     0.1440 C.ar  1 <1>   0.1170 
 22 C       -9.2250    -0.1100     0.2950 C.ar  1 <1>  -0.1500 
 23 C       -9.0220     2.2420    -0.0710 C.ar  1 <1>  -0.1500 
 24 C      -10.6030    -0.0040     0.2360 C.ar  1 <1>  -0.1500 
 25 C      -10.4000     2.3530    -0.1290 C.ar  1 <1>  -0.1500 
 26 C      -11.1930     1.2300     0.0240 C.ar  1 <1>  -0.1500 
 27 H        2.5060     0.6800    -0.6030 H     1 <1>   0.0800 
 28 H        2.2290     0.6430     1.1150 H     1 <1>   0.0800 
 29 H       -0.5390     2.5760    -1.3150 H     1 <1>   0.0800 
 30 H        0.8680     1.8630    -2.0500 H     1 <1>   0.0800 
 31 H       -1.5800     1.7120     1.7550 H     1 <1>   0.1500 
 32 H       -2.6280    -0.5680    -1.6740 H     1 <1>   0.1500 
 33 H        2.5530     3.0490     1.2960 H     1 <1>   0.0800 
 34 H        1.2740     4.2020    -1.9260 H     1 <1>   0.0800 
 35 H       -3.9150     2.4100     2.0040 H     1 <1>   0.1500 
 36 H       -4.9520     0.1270    -1.4350 H     1 <1>   0.1500 
 37 H        4.7190     1.8790    -0.4660 H     1 <1>   0.0800 
 38 H        4.6280     1.6990     1.2710 H     1 <1>   0.0800 
 39 H        4.8770     3.2800     0.5760 H     1 <1>   0.0800 
 40 H        0.5750     4.0970     1.0210 H     1 <1>   0.0800 
 41 H       -0.2980     4.9270    -0.2310 H     1 <1>   0.0800 
 42 H        1.3010     5.4710     0.2030 H     1 <1>   0.0800 
 43 H       -6.7100    -0.1180     0.0650 H     1 <1>   0.3700 
 44 H       -8.7810    -1.0730     0.4640 H     1 <1>   0.1500 
 45 H       -8.4220     3.1240    -0.1970 H     1 <1>   0.1500 
 46 H      -11.2180    -0.8780     0.3570 H     1 <1>   0.1500 
 47 H      -10.8530     3.3150    -0.2930 H     1 <1>   0.1500 
 48 H      -12.2650     1.3160    -0.0200 H     1 <1>   0.1500 
@<TRIPOS>BOND
  1   1   2  2   
  2   1   3  2   
  3   1   4  am  
  4   1   5  1   
  5   4   6  1   
  6   4   7  1   
  7   5   8  ar  
  8   5   9  ar  
  9   6  10  1   
 10   6  27  1   
 11   6  28  1   
 12   7  11  1   
 13   7  29  1   
 14   7  30  1   
 15   8  12  ar  
 16   8  31  1   
 17   9  13  ar  
 18   9  32  1   
 19  10  14  1   
 20  10  15  1   
 21  10  33  1   
 22  11  14  1   
 23  11  16  1   
 24  11  34  1   
 25  12  17  ar  
 26  12  35  1   
 27  13  17  ar  
 28  13  36  1   
 29  15  37  1   
 30  15  38  1   
 31  15  39  1   
 32  16  40  1   
 33  16  41  1   
 34  16  42  1   
 35  17  18  1   
 36  18  19  2   
 37  18  20  am  
 38  20  21  1   
 39  20  43  1   
 40  21  22  ar  
 41  21  23  ar  
 42  22  24  ar  
 43  22  44  1   
 44  23  25  ar  
 45  23  45  1   
 46  24  26  ar  
 47  24  46  1   
 48  25  26  ar  
 49  25  47  1   
 50  26  48  1   
@<TRIPOS>SUBSTRUCTURE
  1 ****  12 GROUP 4 **** **** 0

# MOE 2024.06 (io_trps.svl 2023.06)
