@<TRIPOS>MOLECULE
NONAME
43 44 1 0 0 
SMALL
USER_CHARGES


@<TRIPOS>ATOM
  1 N        0.6430    -0.1540     0.4390 N.4   1 <1>  -0.9590 
  2 C        0.3860     1.2850     0.1360 C.3   1 <1>   0.3430 
  3 C        1.6720    -0.7730    -0.4490 C.3   1 <1>   0.3430 
  4 C       -0.6380    -0.9340     0.3620 C.3   1 <1>   0.2630 
  5 C        1.6870     2.0850     0.2290 C.3   1 <1>  -0.1600 
  6 C        2.9830     0.0110    -0.3590 C.3   1 <1>  -0.1600 
  7 C        2.7520     1.4860    -0.6980 C.3   1 <1>   0.4230 
  8 N        4.0410     2.2410    -0.6600 N.4   1 <1>  -0.9590 
  9 C        4.6730     2.4160     0.6850 C.3   1 <1>   0.4860 
 10 C        3.9520     3.5640    -1.3680 C.3   1 <1>   0.2630 
 11 C        6.1220     2.7930     0.4700 C.ar  1 <1>  -0.1430 
 12 C        7.0380     1.8350     0.0570 C.ar  1 <1>  -0.1500 
 13 C        6.5430     4.0990     0.6760 C.ar  1 <1>  -0.1500 
 14 C        8.3610     2.1790    -0.1670 C.ar  1 <1>  -0.1430 
 15 C        7.8640     4.4430     0.4550 C.ar  1 <1>  -0.1500 
 16 C        8.7680     3.4860     0.0330 C.ar  1 <1>  -0.1500 
 17 C        9.3720     1.1380    -0.6170 C.3   1 <1>  -0.0970 
 18 H        0.9700    -0.2290     1.4170 H     1 <1>   0.4500 
 19 H       -0.3340     1.6840     0.8350 H     1 <1>   0.0800 
 20 H       -0.0290     1.3780    -0.8560 H     1 <1>   0.0800 
 21 H        1.3180    -0.7740    -1.4680 H     1 <1>   0.0800 
 22 H        1.8430    -1.7980    -0.1560 H     1 <1>   0.0800 
 23 H       -1.0420    -0.9020    -0.6370 H     1 <1>   0.0800 
 24 H       -1.3700    -0.5240     1.0410 H     1 <1>   0.0800 
 25 H       -0.4690    -1.9650     0.6310 H     1 <1>   0.0800 
 26 H        2.0140     2.0870     1.2530 H     1 <1>   0.0800 
 27 H        1.4740     3.0990    -0.0600 H     1 <1>   0.0800 
 28 H        3.6780    -0.4170    -1.0600 H     1 <1>   0.0800 
 29 H        3.3860    -0.1070     0.6310 H     1 <1>   0.0800 
 30 H        2.3730     1.5290    -1.7080 H     1 <1>   0.0800 
 31 H        4.7440     1.7050    -1.1910 H     1 <1>   0.4500 
 32 H        4.6360     1.4990     1.2480 H     1 <1>   0.0800 
 33 H        4.1690     3.1860     1.2460 H     1 <1>   0.0800 
 34 H        3.3050     4.2400    -0.8330 H     1 <1>   0.0800 
 35 H        3.5690     3.4340    -2.3670 H     1 <1>   0.0800 
 36 H        4.9300     4.0150    -1.4410 H     1 <1>   0.0800 
 37 H        6.7410     0.8110    -0.0890 H     1 <1>   0.1500 
 38 H        5.8610     4.8620     1.0110 H     1 <1>   0.1500 
 39 H        8.1960     5.4560     0.6140 H     1 <1>   0.1500 
 40 H        9.7950     3.7640    -0.1350 H     1 <1>   0.1500 
 41 H        8.8830     0.2780    -1.0360 H     1 <1>   0.0800 
 42 H        9.9670     0.8230     0.2220 H     1 <1>   0.0800 
 43 H       10.0250     1.5540    -1.3640 H     1 <1>   0.0800 
@<TRIPOS>BOND
  1   1   2  1   
  2   1   3  1   
  3   1   4  1   
  4   1  18  1   
  5   2   5  1   
  6   2  19  1   
  7   2  20  1   
  8   3   6  1   
  9   3  21  1   
 10   3  22  1   
 11   4  23  1   
 12   4  24  1   
 13   4  25  1   
 14   5   7  1   
 15   5  26  1   
 16   5  27  1   
 17   6   7  1   
 18   6  28  1   
 19   6  29  1   
 20   7   8  1   
 21   7  30  1   
 22   8   9  1   
 23   8  10  1   
 24   8  31  1   
 25   9  11  1   
 26   9  32  1   
 27   9  33  1   
 28  10  34  1   
 29  10  35  1   
 30  10  36  1   
 31  11  12  ar  
 32  11  13  ar  
 33  12  14  ar  
 34  12  37  1   
 35  13  15  ar  
 36  13  38  1   
 37  14  16  ar  
 38  14  17  1   
 39  15  16  ar  
 40  15  39  1   
 41  16  40  1   
 42  17  41  1   
 43  17  42  1   
 44  17  43  1   
@<TRIPOS>SUBSTRUCTURE
  1 ****   8 GROUP 4 **** **** 0

# MOE 2024.06 (io_trps.svl 2023.06)
