@<TRIPOS>MOLECULE
NONAME
44 46 1 0 0 
SMALL
USER_CHARGES


@<TRIPOS>ATOM
  1 BR       1.6210    -0.4170     3.0520 Br    1 <1>  -0.1110 
  2 C        2.9440    -1.1150     1.8370 C.ar  1 <1>   0.1110 
  3 C        2.5260    -1.6350     0.6260 C.ar  1 <1>  -0.1500 
  4 C        4.2750    -1.0760     2.2050 C.ar  1 <1>  -0.1500 
  5 C        3.4820    -2.1360    -0.2420 C.ar  1 <1>  -0.1500 
  6 C        5.2180    -1.5810     1.3260 C.ar  1 <1>  -0.1500 
  7 C        4.8310    -2.1170     0.1000 C.ar  1 <1>   0.1990 
  8 N        5.7720    -2.6230    -0.7870 N.am  1 <1>  -0.6930 
  9 S        6.6050    -4.1020    -0.4470 S.o2  1 <1>   1.3330 
 10 C        6.4900    -1.6290    -1.6490 C.3   1 <1>   0.2570 
 11 O        6.9890    -4.0940     0.9410 O.2   1 <1>  -0.6500 
 12 O        7.6080    -4.2540    -1.4750 O.2   1 <1>  -0.6500 
 13 C        5.3310    -5.3150    -0.7140 C.3   1 <1>  -0.1350 
 14 C        7.7240    -1.0010    -0.9910 C.2   1 <1>   0.5690 
 15 O        7.6700     0.1510    -0.6270 O.2   1 <1>  -0.5700 
 16 N        8.8440    -1.7500    -0.8330 N.am  1 <1>  -0.7300 
 17 C       10.0460    -1.3510    -0.0850 C.3   1 <1>   0.2200 
 18 C       11.3400    -1.9420    -0.6870 C.3   1 <1>  -0.0800 
 19 C       10.0240    -1.9430     1.3330 C.3   1 <1>  -0.1600 
 20 C       12.2500    -1.9390     0.5330 C.3   1 <1>  -0.1600 
 21 C       11.2060    -3.4610    -0.9230 C.3   1 <1>  -0.1600 
 22 C       11.3140    -2.7790     1.3870 C.3   1 <1>  -0.0800 
 23 C       11.1200    -4.0250     0.5060 C.3   1 <1>  -0.1600 
 24 H        1.4810    -1.6450     0.3740 H     1 <1>   0.1500 
 25 H        4.5670    -0.6610     3.1530 H     1 <1>   0.1500 
 26 H        3.1860    -2.5420    -1.1920 H     1 <1>   0.1500 
 27 H        6.2620    -1.5610     1.5880 H     1 <1>   0.1500 
 28 H        5.8120    -0.8350    -1.9040 H     1 <1>   0.0800 
 29 H        6.7940    -2.1030    -2.5650 H     1 <1>   0.0800 
 30 H        4.9590    -5.2470    -1.7170 H     1 <1>   0.0800 
 31 H        4.5210    -5.1560    -0.0300 H     1 <1>   0.0800 
 32 H        5.7250    -6.3000    -0.5570 H     1 <1>   0.0800 
 33 H        8.8180    -2.7470    -1.0840 H     1 <1>   0.3700 
 34 H       10.1140    -0.2760    -0.0350 H     1 <1>   0.0800 
 35 H       11.7170    -1.3890    -1.5290 H     1 <1>   0.0800 
 36 H        9.1490    -2.5380     1.5260 H     1 <1>   0.0800 
 37 H       10.0740    -1.1460     2.0530 H     1 <1>   0.0800 
 38 H       12.4090    -0.9520     0.9350 H     1 <1>   0.0800 
 39 H       13.1960    -2.4220     0.3530 H     1 <1>   0.0800 
 40 H       12.0910    -3.8330    -1.4090 H     1 <1>   0.0800 
 41 H       10.3550    -3.7310    -1.5230 H     1 <1>   0.0800 
 42 H       11.6580    -2.9930     2.3840 H     1 <1>   0.0800 
 43 H       11.9110    -4.7350     0.6740 H     1 <1>   0.0800 
 44 H       10.1720    -4.5010     0.6920 H     1 <1>   0.0800 
@<TRIPOS>BOND
  1   1   2  1   
  2   2   3  ar  
  3   2   4  ar  
  4   3   5  ar  
  5   3  24  1   
  6   4   6  ar  
  7   4  25  1   
  8   5   7  ar  
  9   5  26  1   
 10   6   7  ar  
 11   6  27  1   
 12   7   8  1   
 13   8   9  am  
 14   8  10  1   
 15   9  11  2   
 16   9  12  2   
 17   9  13  1   
 18  10  14  1   
 19  10  28  1   
 20  10  29  1   
 21  13  30  1   
 22  13  31  1   
 23  13  32  1   
 24  14  15  2   
 25  14  16  am  
 26  16  17  1   
 27  16  33  1   
 28  17  18  1   
 29  17  19  1   
 30  17  34  1   
 31  18  20  1   
 32  18  21  1   
 33  18  35  1   
 34  19  22  1   
 35  19  36  1   
 36  19  37  1   
 37  20  22  1   
 38  20  38  1   
 39  20  39  1   
 40  21  23  1   
 41  21  40  1   
 42  21  41  1   
 43  22  23  1   
 44  22  42  1   
 45  23  43  1   
 46  23  44  1   
@<TRIPOS>SUBSTRUCTURE
  1 ****   8 GROUP 4 **** **** 0

# MOE 2024.06 (io_trps.svl 2023.06)
