@<TRIPOS>MOLECULE
NONAME
35 37 1 0 0 
SMALL
USER_CHARGES


@<TRIPOS>ATOM
  1 S        4.7270     5.4380    -1.2650 S.3   1 <1>  -0.0800 
  2 C        3.2170     6.2820    -0.9230 C.ar  1 <1>   0.2970 
  3 C        4.2040     4.0120    -0.3610 C.2   1 <1>  -0.1400 
  4 N        2.9520     7.4970    -1.3510 N.ar  1 <1>  -0.5670 
  5 C        2.3920     5.4890    -0.1650 C.ar  1 <1>   0.0000 
  6 C        2.9710     4.2070     0.1440 C.2   1 <1>  -0.1500 
  7 C        5.1910     2.8590    -0.3070 C.3   1 <1>   0.0200 
  8 C        1.7600     7.9140    -0.9680 C.ar  1 <1>   0.4700 
  9 C        1.1630     6.0600     0.1610 C.ar  1 <1>   0.4100 
 10 C        4.6490     1.6720     0.4930 C.3   1 <1>  -0.2400 
 11 N        0.8480     7.2770    -0.2440 N.ar  1 <1>  -0.6200 
 12 N        0.2380     5.3740     0.9060 N.pl3 1 <1>  -0.8690 
 13 C       -1.1110     5.8900     1.2860 C.3   1 <1>   0.2090 
 14 C       -2.1050     5.8060     0.1160 C.3   1 <1>   0.2000 
 15 O       -3.3900     6.0890     0.5700 O.3   1 <1>  -0.5600 
 16 C       -2.2400     4.4280    -0.5200 C.3   1 <1>  -0.1600 
 17 C       -4.3300     5.6030    -0.3320 C.3   1 <1>   0.1200 
 18 C       -3.6640     4.4330    -1.0550 C.3   1 <1>  -0.1600 
 19 H        2.4230     3.4980     0.7360 H     1 <1>   0.1500 
 20 H        6.1070     3.2030     0.1420 H     1 <1>   0.0800 
 21 H        5.4130     2.5410    -1.3110 H     1 <1>   0.0800 
 22 H        1.4880     8.9060    -1.2870 H     1 <1>   0.1500 
 23 H        4.4430     1.9690     1.5060 H     1 <1>   0.0800 
 24 H        5.3740     0.8780     0.5090 H     1 <1>   0.0800 
 25 H        3.7440     1.3030     0.0450 H     1 <1>   0.0800 
 26 H        0.4240     4.4010     1.1490 H     1 <1>   0.4000 
 27 H       -1.0260     6.9170     1.5970 H     1 <1>   0.0800 
 28 H       -1.4860     5.3130     2.1120 H     1 <1>   0.0800 
 29 H       -1.8560     6.5420    -0.6290 H     1 <1>   0.0800 
 30 H       -2.1290     3.6670     0.2320 H     1 <1>   0.0800 
 31 H       -1.5050     4.2780    -1.2910 H     1 <1>   0.0800 
 32 H       -4.5780     6.3960    -1.0170 H     1 <1>   0.0800 
 33 H       -5.2050     5.2990     0.2160 H     1 <1>   0.0800 
 34 H       -4.1690     3.5080    -0.8430 H     1 <1>   0.0800 
 35 H       -3.6800     4.6080    -2.1160 H     1 <1>   0.0800 
@<TRIPOS>BOND
  1   1   2  1   
  2   1   3  1   
  3   2   4  ar  
  4   2   5  ar  
  5   3   6  2   
  6   3   7  1   
  7   4   8  ar  
  8   5   6  1   
  9   5   9  ar  
 10   6  19  1   
 11   7  10  1   
 12   7  20  1   
 13   7  21  1   
 14   8  11  ar  
 15   8  22  1   
 16   9  11  ar  
 17   9  12  1   
 18  10  23  1   
 19  10  24  1   
 20  10  25  1   
 21  12  13  1   
 22  12  26  1   
 23  13  14  1   
 24  13  27  1   
 25  13  28  1   
 26  14  15  1   
 27  14  16  1   
 28  14  29  1   
 29  15  17  1   
 30  16  18  1   
 31  16  30  1   
 32  16  31  1   
 33  17  18  1   
 34  17  32  1   
 35  17  33  1   
 36  18  34  1   
 37  18  35  1   
@<TRIPOS>SUBSTRUCTURE
  1 ****   9 GROUP 4 **** **** 0

# MOE 2024.06 (io_trps.svl 2023.06)
