@<TRIPOS>MOLECULE
NONAME
28 28 1 0 0 
SMALL
USER_CHARGES


@<TRIPOS>ATOM
  1 O       -2.0170     0.3130     0.5820 O.2   1 <1>  -0.5700 
  2 C       -1.5820     0.4700    -0.5270 C.2   1 <1>   0.6590 
  3 O       -0.7480    -0.3870    -1.0980 O.3   1 <1>  -0.4300 
  4 C       -1.9100     1.7140    -1.3370 C.3   1 <1>   0.3890 
  5 C       -0.3210    -1.5750    -0.4540 C.3   1 <1>   0.0400 
  6 N       -1.7930     2.9740    -0.5220 N.ar  1 <1>  -0.2100 
  7 C       -0.6040     3.4500    -0.0470 C.ar  1 <1>   0.2180 
  8 C       -2.9400     3.6470    -0.2550 C.ar  1 <1>   0.2110 
  9 C       -0.5750     4.6320     0.6750 C.ar  1 <1>  -0.1500 
 10 C        0.7280     2.7250    -0.2590 C.3   1 <1>  -0.0170 
 11 C       -2.9340     4.8220     0.4670 C.ar  1 <1>  -0.1500 
 12 C       -1.7390     5.3310     0.9380 C.ar  1 <1>  -0.1500 
 13 C        1.1310     1.9120     0.9860 C.3   1 <1>   0.0400 
 14 C        2.1620     0.8990     0.6380 C.1   1 <1>   0.3570 
 15 N        2.9090     0.1080     0.3150 N.1   1 <1>  -0.5570 
 16 H       -2.9110     1.6060    -1.7130 H     1 <1>   0.0800 
 17 H       -1.2520     1.7730    -2.1850 H     1 <1>   0.0800 
 18 H        0.3840    -2.0780    -1.0930 H     1 <1>   0.0800 
 19 H       -1.1750    -2.2070    -0.2790 H     1 <1>   0.0800 
 20 H        0.1510    -1.3250     0.4810 H     1 <1>   0.0800 
 21 H       -3.8820     3.2610    -0.6120 H     1 <1>   0.1500 
 22 H        0.3570     5.0250     1.0480 H     1 <1>   0.1500 
 23 H        1.5000     3.4510    -0.4530 H     1 <1>   0.0800 
 24 H        0.6980     2.0900    -1.1260 H     1 <1>   0.0800 
 25 H       -3.8560     5.3440     0.6670 H     1 <1>   0.1500 
 26 H       -1.7170     6.2520     1.5020 H     1 <1>   0.1500 
 27 H        0.2860     1.3920     1.3980 H     1 <1>   0.0800 
 28 H        1.5220     2.5630     1.7470 H     1 <1>   0.0800 
@<TRIPOS>BOND
  1   1   2  2   
  2   2   3  1   
  3   2   4  1   
  4   3   5  1   
  5   4   6  1   
  6   4  16  1   
  7   4  17  1   
  8   5  18  1   
  9   5  19  1   
 10   5  20  1   
 11   6   7  ar  
 12   6   8  ar  
 13   7   9  ar  
 14   7  10  1   
 15   8  11  ar  
 16   8  21  1   
 17   9  12  ar  
 18   9  22  1   
 19  10  13  1   
 20  10  23  1   
 21  10  24  1   
 22  11  12  ar  
 23  11  25  1   
 24  12  26  1   
 25  13  14  1   
 26  13  27  1   
 27  13  28  1   
 28  14  15  3   
@<TRIPOS>SUBSTRUCTURE
  1 ****   7 GROUP 4 **** **** 0

# MOE 2024.06 (io_trps.svl 2023.06)
