@<TRIPOS>MOLECULE
NONAME
54 58 1 0 0 
SMALL
USER_CHARGES


@<TRIPOS>ATOM
  1 F       -0.0020    -0.4990    -1.6810 F     1 <1>  -0.3400 
  2 C       -1.3220    -0.6140    -1.7600 C.3   1 <1>   0.7380 
  3 F       -1.7790     0.1160    -0.7520 F     1 <1>  -0.3400 
  4 C       -1.7130    -2.0550    -1.5340 C.2   1 <1>  -0.1690 
  5 N       -2.8750    -2.4450    -2.1450 N.pl3 1 <1>   0.6010 
  6 C       -1.0460    -2.9820    -0.7910 C.2   1 <1>  -0.1360 
  7 N       -3.6800    -1.7390    -2.9610 N.2   1 <1>  -0.7070 
  8 C       -3.3240    -3.7310    -1.9830 C.2   1 <1>  -0.0260 
  9 C       -1.5540    -4.3100    -0.6580 C.2   1 <1>   0.3490 
 10 C       -4.6190    -2.5750    -3.2950 C.2   1 <1>   0.1390 
 11 N       -2.6620    -4.6780    -1.2460 N.2   1 <1>  -0.5760 
 12 C       -4.4810    -3.8320    -2.7130 C.2   1 <1>  -0.0860 
 13 C       -0.8640    -5.2750     0.1620 C.ar  1 <1>   0.0860 
 14 C       -5.3470    -4.9550    -2.9020 C.2   1 <1>   0.7160 
 15 C       -0.3640    -6.4530    -0.3900 C.ar  1 <1>  -0.1500 
 16 C       -0.7190    -5.0850     1.5350 C.ar  1 <1>  -0.1500 
 17 O       -5.7650    -5.2220    -4.0120 O.2   1 <1>  -0.5700 
 18 N       -5.7060    -5.7870    -1.8630 N.am  1 <1>  -0.6600 
 19 C        0.2410    -7.4120     0.4000 C.ar  1 <1>  -0.1500 
 20 C       -0.1160    -6.0450     2.3270 C.ar  1 <1>  -0.1500 
 21 C       -5.8440    -5.3370    -0.4420 C.3   1 <1>   0.1400 
 22 C       -5.7030    -7.2670    -2.0660 C.3   1 <1>   0.1400 
 23 C        0.3630    -7.2160     1.7650 C.ar  1 <1>  -0.1430 
 24 C       -4.7700    -5.9770     0.4760 C.3   1 <1>   0.4230 
 25 C       -4.9210    -8.0100    -0.9570 C.3   1 <1>   0.3430 
 26 C        1.0350    -8.2630     2.6360 C.3   1 <1>  -0.0960 
 27 N       -4.0250    -7.1010    -0.1560 N.4   1 <1>  -0.9590 
 28 C       -5.2780    -6.5730     1.7820 C.3   1 <1>  -0.1600 
 29 C       -3.3230    -7.8000     0.9480 C.3   1 <1>   0.3430 
 30 C       -4.1980    -7.5850     2.1830 C.3   1 <1>  -0.1600 
 31 H       -1.6490    -0.1770    -2.6880 H     1 <1>   0.0800 
 32 H       -0.1250    -2.7440    -0.2850 H     1 <1>   0.1500 
 33 H       -5.4270    -2.3180    -3.9640 H     1 <1>   0.1500 
 34 H       -0.4480    -6.6130    -1.4510 H     1 <1>   0.1500 
 35 H       -1.0820    -4.1800     1.9890 H     1 <1>   0.1500 
 36 H        0.6280    -8.3110    -0.0520 H     1 <1>   0.1500 
 37 H       -0.0100    -5.8750     3.3860 H     1 <1>   0.1500 
 38 H       -6.8270    -5.6030    -0.0930 H     1 <1>   0.0800 
 39 H       -5.7680    -4.2660    -0.3800 H     1 <1>   0.0800 
 40 H       -5.2550    -7.4970    -3.0180 H     1 <1>   0.0800 
 41 H       -6.7180    -7.6250    -2.0980 H     1 <1>   0.0800 
 42 H       -4.0570    -5.2080     0.7280 H     1 <1>   0.0800 
 43 H       -4.3410    -8.7980    -1.4070 H     1 <1>   0.0800 
 44 H       -5.6330    -8.4740    -0.2950 H     1 <1>   0.0800 
 45 H        2.0790    -8.0280     2.7450 H     1 <1>   0.0800 
 46 H        0.9470    -9.2400     2.1970 H     1 <1>   0.0800 
 47 H        0.5860    -8.2890     3.6130 H     1 <1>   0.0800 
 48 H       -3.3570    -6.6410    -0.8040 H     1 <1>   0.4500 
 49 H       -6.2150    -7.0780     1.6220 H     1 <1>   0.0800 
 50 H       -5.4180    -5.8120     2.5300 H     1 <1>   0.0800 
 51 H       -2.3580    -7.3470     1.1110 H     1 <1>   0.0800 
 52 H       -3.1860    -8.8480     0.7320 H     1 <1>   0.0800 
 53 H       -4.6360    -8.5130     2.5050 H     1 <1>   0.0800 
 54 H       -3.5880    -7.2030     2.9850 H     1 <1>   0.0800 
@<TRIPOS>BOND
  1   1   2  1   
  2   2   3  1   
  3   2   4  1   
  4   2  31  1   
  5   4   5  1   
  6   4   6  2   
  7   5   7  1   
  8   5   8  1   
  9   6   9  1   
 10   6  32  1   
 11   7  10  2   
 12   8  11  1   
 13   8  12  2   
 14   9  11  2   
 15   9  13  1   
 16  10  12  1   
 17  10  33  1   
 18  12  14  1   
 19  13  15  ar  
 20  13  16  ar  
 21  14  17  2   
 22  14  18  am  
 23  15  19  ar  
 24  15  34  1   
 25  16  20  ar  
 26  16  35  1   
 27  18  21  1   
 28  18  22  1   
 29  19  23  ar  
 30  19  36  1   
 31  20  23  ar  
 32  20  37  1   
 33  21  24  1   
 34  21  38  1   
 35  21  39  1   
 36  22  25  1   
 37  22  40  1   
 38  22  41  1   
 39  23  26  1   
 40  24  27  1   
 41  24  28  1   
 42  24  42  1   
 43  25  27  1   
 44  25  43  1   
 45  25  44  1   
 46  26  45  1   
 47  26  46  1   
 48  26  47  1   
 49  27  29  1   
 50  27  48  1   
 51  28  30  1   
 52  28  49  1   
 53  28  50  1   
 54  29  30  1   
 55  29  51  1   
 56  29  52  1   
 57  30  53  1   
 58  30  54  1   
@<TRIPOS>SUBSTRUCTURE
  1 ****  11 GROUP 4 **** **** 0

# MOE 2024.06 (io_trps.svl 2023.06)
