@<TRIPOS>MOLECULE
NONAME
57 58 1 0 0 
SMALL
USER_CHARGES


@<TRIPOS>ATOM
  1 O       -4.1280    -1.8360     0.7440 O.3   1 <1>  -0.5600 
  2 C       -5.3250    -1.1200     0.8260 C.3   1 <1>   0.2000 
  3 C       -3.4760    -2.0760     1.9550 C.3   1 <1>   0.1200 
  4 C       -6.2000    -1.4140    -0.4240 C.3   1 <1>  -0.0800 
  5 C       -4.9740     0.3750     0.9920 C.3   1 <1>  -0.1600 
  6 C       -2.2280    -2.9050     1.6410 C.3   1 <1>   0.2000 
  7 C       -6.2370    -2.9140    -0.8400 C.3   1 <1>  -0.0800 
  8 C       -5.8500    -0.4480    -1.5740 C.3   1 <1>  -0.1600 
  9 C       -6.0100     1.2940     0.3290 C.3   1 <1>  -0.0800 
 10 O       -1.4750    -2.1990     0.7010 O.3   1 <1>  -0.6800 
 11 C       -2.6180    -4.2730     1.0390 C.3   1 <1>   0.3430 
 12 C       -5.1120    -3.3420    -1.8010 C.3   1 <1>  -0.2400 
 13 C       -7.5850    -3.2660    -1.4870 C.3   1 <1>  -0.2400 
 14 C       -6.0890     1.0250    -1.1880 C.3   1 <1>  -0.1600 
 15 C       -5.6890     2.7690     0.5990 C.3   1 <1>  -0.2400 
 16 N       -1.5130    -4.8070     0.1850 N.4   1 <1>  -0.9590 
 17 C       -2.0230    -5.6450    -0.9340 C.3   1 <1>   0.3430 
 18 C       -0.4380    -5.4680     0.9740 C.3   1 <1>   0.3430 
 19 C       -0.8720    -5.9930    -1.8800 C.3   1 <1>  -0.1600 
 20 C        0.7340    -5.8130     0.0540 C.3   1 <1>  -0.1600 
 21 C        0.2910    -6.6680    -1.1410 C.3   1 <1>  -0.1600 
 22 H       -5.8690    -1.4650     1.6900 H     1 <1>   0.0800 
 23 H       -4.1380    -2.6100     2.6140 H     1 <1>   0.0800 
 24 H       -3.1990    -1.1370     2.4060 H     1 <1>   0.0800 
 25 H       -7.2020    -1.1620    -0.1250 H     1 <1>   0.0800 
 26 H       -4.0160     0.5720     0.5410 H     1 <1>   0.0800 
 27 H       -4.9100     0.6070     2.0400 H     1 <1>   0.0800 
 28 H       -1.6270    -3.0380     2.5230 H     1 <1>   0.0800 
 29 H       -6.1560    -3.5050     0.0560 H     1 <1>   0.0800 
 30 H       -6.4280    -0.6780    -2.4520 H     1 <1>   0.0800 
 31 H       -4.8100    -0.5720    -1.8250 H     1 <1>   0.0800 
 32 H       -6.9730     1.0820     0.7640 H     1 <1>   0.0800 
 33 H       -2.0970    -1.6030     0.2180 H     1 <1>   0.4000 
 34 H       -3.4960    -4.1220     0.4320 H     1 <1>   0.0800 
 35 H       -2.8750    -4.9690     1.8190 H     1 <1>   0.0800 
 36 H       -4.1480    -3.0580    -1.4270 H     1 <1>   0.0800 
 37 H       -5.1300    -4.4090    -1.9360 H     1 <1>   0.0800 
 38 H       -5.2440    -2.8840    -2.7660 H     1 <1>   0.0800 
 39 H       -7.7380    -2.7000    -2.3890 H     1 <1>   0.0800 
 40 H       -8.3950    -3.0560    -0.8110 H     1 <1>   0.0800 
 41 H       -7.6220    -4.3130    -1.7330 H     1 <1>   0.0800 
 42 H       -7.0630     1.3280    -1.5340 H     1 <1>   0.0800 
 43 H       -5.3650     1.6270    -1.7090 H     1 <1>   0.0800 
 44 H       -4.7220     3.0270     0.2050 H     1 <1>   0.0800 
 45 H       -5.6910     2.9640     1.6570 H     1 <1>   0.0800 
 46 H       -6.4280     3.4000     0.1380 H     1 <1>   0.0800 
 47 H       -1.0920    -3.9480    -0.2180 H     1 <1>   0.4500 
 48 H       -2.7850    -5.1110    -1.4780 H     1 <1>   0.0800 
 49 H       -2.4540    -6.5520    -0.5420 H     1 <1>   0.0800 
 50 H       -0.8190    -6.3690     1.4260 H     1 <1>   0.0800 
 51 H       -0.0960    -4.8080     1.7560 H     1 <1>   0.0800 
 52 H       -0.5270    -5.0950    -2.3630 H     1 <1>   0.0800 
 53 H       -1.2360    -6.6510    -2.6500 H     1 <1>   0.0800 
 54 H        1.4800    -6.3460     0.6180 H     1 <1>   0.0800 
 55 H        1.1880    -4.9020    -0.2960 H     1 <1>   0.0800 
 56 H        1.1190    -6.8110    -1.8150 H     1 <1>   0.0800 
 57 H       -0.0190    -7.6400    -0.7920 H     1 <1>   0.0800 
@<TRIPOS>BOND
  1   1   2  1   
  2   1   3  1   
  3   2   4  1   
  4   2   5  1   
  5   2  22  1   
  6   3   6  1   
  7   3  23  1   
  8   3  24  1   
  9   4   7  1   
 10   4   8  1   
 11   4  25  1   
 12   5   9  1   
 13   5  26  1   
 14   5  27  1   
 15   6  10  1   
 16   6  11  1   
 17   6  28  1   
 18   7  12  1   
 19   7  13  1   
 20   7  29  1   
 21   8  14  1   
 22   8  30  1   
 23   8  31  1   
 24   9  14  1   
 25   9  15  1   
 26   9  32  1   
 27  10  33  1   
 28  11  16  1   
 29  11  34  1   
 30  11  35  1   
 31  12  36  1   
 32  12  37  1   
 33  12  38  1   
 34  13  39  1   
 35  13  40  1   
 36  13  41  1   
 37  14  42  1   
 38  14  43  1   
 39  15  44  1   
 40  15  45  1   
 41  15  46  1   
 42  16  17  1   
 43  16  18  1   
 44  16  47  1   
 45  17  19  1   
 46  17  48  1   
 47  17  49  1   
 48  18  20  1   
 49  18  50  1   
 50  18  51  1   
 51  19  21  1   
 52  19  52  1   
 53  19  53  1   
 54  20  21  1   
 55  20  54  1   
 56  20  55  1   
 57  21  56  1   
 58  21  57  1   
@<TRIPOS>SUBSTRUCTURE
  1 ****   1 GROUP 4 **** **** 0

# MOE 2024.06 (io_trps.svl 2023.06)
