@<TRIPOS>MOLECULE
NONAME
32 32 1 0 0 
SMALL
USER_CHARGES


@<TRIPOS>ATOM
  1 S        0.2220     0.3330    -0.4670 S.3   1 <1>  -0.3710 
  2 C        1.3650     1.3550     0.4520 C.2   1 <1>   0.7710 
  3 C       -1.4840     0.8220     0.0510 C.3   1 <1>   0.0700 
  4 O        2.4850     0.9330     0.5930 O.2   1 <1>  -0.5700 
  5 N        0.9710     2.5440     0.9830 N.am  1 <1>  -0.5470 
  6 C       -2.4270    -0.3440    -0.2570 C.3   1 <1>  -0.1600 
  7 C       -0.0030     3.4520     0.5630 C.ar  1 <1>   0.1170 
  8 C       -3.8640    -0.0900     0.2320 C.3   1 <1>  -0.0800 
  9 C       -0.1550     3.7750    -0.7810 C.ar  1 <1>  -0.1500 
 10 C       -0.8330     4.0560     1.4980 C.ar  1 <1>  -0.1500 
 11 C       -4.7230    -1.3350    -0.0180 C.3   1 <1>  -0.2400 
 12 C       -4.5040     1.1220    -0.4610 C.3   1 <1>  -0.2400 
 13 C       -1.1290     4.6700    -1.1830 C.ar  1 <1>  -0.1500 
 14 C       -1.8080     4.9530     1.0980 C.ar  1 <1>  -0.1500 
 15 C       -1.9580     5.2590    -0.2440 C.ar  1 <1>  -0.1500 
 16 H       -1.7530     1.6980    -0.5080 H     1 <1>   0.0800 
 17 H       -1.4550     1.0370     1.1050 H     1 <1>   0.0800 
 18 H        1.6680     2.9150     1.6270 H     1 <1>   0.3700 
 19 H       -2.0440    -1.2260     0.2260 H     1 <1>   0.0800 
 20 H       -2.4290    -0.5220    -1.3180 H     1 <1>   0.0800 
 21 H       -3.8430     0.0940     1.2940 H     1 <1>   0.0800 
 22 H        0.4890     3.3220    -1.5150 H     1 <1>   0.1500 
 23 H       -0.7200     3.8200     2.5410 H     1 <1>   0.1500 
 24 H       -4.7760    -1.5540    -1.0700 H     1 <1>   0.0800 
 25 H       -5.7210    -1.1810     0.3510 H     1 <1>   0.0800 
 26 H       -4.3040    -2.1860     0.4890 H     1 <1>   0.0800 
 27 H       -4.4890     0.9980    -1.5300 H     1 <1>   0.0800 
 28 H       -3.9830     2.0290    -0.2120 H     1 <1>   0.0800 
 29 H       -5.5260     1.2330    -0.1450 H     1 <1>   0.0800 
 30 H       -1.2430     4.9110    -2.2260 H     1 <1>   0.1500 
 31 H       -2.4510     5.4140     1.8290 H     1 <1>   0.1500 
 32 H       -2.7170     5.9570    -0.5560 H     1 <1>   0.1500 
@<TRIPOS>BOND
  1   1   2  1   
  2   1   3  1   
  3   2   4  2   
  4   2   5  am  
  5   3   6  1   
  6   3  16  1   
  7   3  17  1   
  8   5   7  1   
  9   5  18  1   
 10   6   8  1   
 11   6  19  1   
 12   6  20  1   
 13   7   9  ar  
 14   7  10  ar  
 15   8  11  1   
 16   8  12  1   
 17   8  21  1   
 18   9  13  ar  
 19   9  22  1   
 20  10  14  ar  
 21  10  23  1   
 22  11  24  1   
 23  11  25  1   
 24  11  26  1   
 25  12  27  1   
 26  12  28  1   
 27  12  29  1   
 28  13  15  ar  
 29  13  30  1   
 30  14  15  ar  
 31  14  31  1   
 32  15  32  1   
@<TRIPOS>SUBSTRUCTURE
  1 ****   3 GROUP 4 **** **** 0

# MOE 2024.06 (io_trps.svl 2023.06)
