@<TRIPOS>MOLECULE
NONAME
48 50 1 0 0 
SMALL
USER_CHARGES


@<TRIPOS>ATOM
  1 S       -0.5100     0.3450     1.7990 S.o2  1 <1>   1.4470 
  2 O        0.0690    -0.5440     2.7840 O.2   1 <1>  -0.6500 
  3 O       -1.4170     1.3850     2.2340 O.2   1 <1>  -0.6500 
  4 N        0.7930     1.1040     1.0210 N.am  1 <1>  -0.8490 
  5 C       -1.2850    -0.6120     0.4660 C.ar  1 <1>  -0.0090 
  6 C        1.8420     0.1490     0.6520 C.3   1 <1>   0.1960 
  7 C        1.3230     2.2070     1.8260 C.3   1 <1>   0.1960 
  8 C       -1.6310    -0.0090    -0.7370 C.ar  1 <1>  -0.1500 
  9 C       -1.5510    -1.9690     0.6100 C.ar  1 <1>  -0.1500 
 10 C        2.9290     0.8440    -0.1710 C.3   1 <1>  -0.1600 
 11 C        2.4010     2.9630     1.0460 C.3   1 <1>  -0.1600 
 12 C       -2.2130    -0.7320    -1.7640 C.ar  1 <1>  -0.1500 
 13 C       -2.1330    -2.6990    -0.4130 C.ar  1 <1>  -0.1500 
 14 C        3.5400     2.0260     0.6010 C.3   1 <1>  -0.0190 
 15 C       -2.4650    -2.0840    -1.6070 C.ar  1 <1>  -0.1430 
 16 C        4.6130     2.7400    -0.2320 C.2   1 <1>   0.5690 
 17 C       -3.1060    -2.8800    -2.7290 C.3   1 <1>  -0.0970 
 18 O        4.2670     3.6690    -0.9250 O.2   1 <1>  -0.5700 
 19 N        5.9280     2.3380    -0.1970 N.am  1 <1>  -0.6600 
 20 C        6.4750     1.1340     0.5020 C.3   1 <1>   0.1400 
 21 C        6.9890     3.1120    -0.9180 C.3   1 <1>   0.1400 
 22 C        7.3800     0.3180    -0.4390 C.3   1 <1>   0.1200 
 23 C        7.8600     2.1810    -1.7770 C.3   1 <1>   0.1200 
 24 O        8.3670     1.1300    -1.0050 O.3   1 <1>  -0.5600 
 25 H        1.4170    -0.6480     0.0640 H     1 <1>   0.0800 
 26 H        2.2750    -0.2840     1.5400 H     1 <1>   0.0800 
 27 H        1.7280     1.8250     2.7500 H     1 <1>   0.0800 
 28 H        0.5300     2.8960     2.0670 H     1 <1>   0.0800 
 29 H       -1.4390     1.0430    -0.8700 H     1 <1>   0.1500 
 30 H       -1.2990    -2.4620     1.5340 H     1 <1>   0.1500 
 31 H        2.4980     1.1970    -1.0920 H     1 <1>   0.0800 
 32 H        3.6940     0.1320    -0.4210 H     1 <1>   0.0800 
 33 H        2.8000     3.7520     1.6580 H     1 <1>   0.0800 
 34 H        1.9410     3.4200     0.1860 H     1 <1>   0.0800 
 35 H       -2.4700    -0.2360    -2.6840 H     1 <1>   0.1500 
 36 H       -2.3280    -3.7480    -0.2720 H     1 <1>   0.1500 
 37 H        3.9980     1.6580     1.4990 H     1 <1>   0.0800 
 38 H       -2.8300    -2.4720    -3.6850 H     1 <1>   0.0800 
 39 H       -4.1760    -2.8470    -2.6330 H     1 <1>   0.0800 
 40 H       -2.7850    -3.9060    -2.6940 H     1 <1>   0.0800 
 41 H        5.6880     0.4940     0.8520 H     1 <1>   0.0800 
 42 H        7.0520     1.4520     1.3520 H     1 <1>   0.0800 
 43 H        7.6120     3.6110    -0.1970 H     1 <1>   0.0800 
 44 H        6.5530     3.8640    -1.5510 H     1 <1>   0.0800 
 45 H        6.8020    -0.1250    -1.2320 H     1 <1>   0.0800 
 46 H        7.8750    -0.4650     0.1070 H     1 <1>   0.0800 
 47 H        8.6940     2.7250    -2.1820 H     1 <1>   0.0800 
 48 H        7.2860     1.7710    -2.5900 H     1 <1>   0.0800 
@<TRIPOS>BOND
  1   1   2  2   
  2   1   3  2   
  3   1   4  am  
  4   1   5  1   
  5   4   6  1   
  6   4   7  1   
  7   5   8  ar  
  8   5   9  ar  
  9   6  10  1   
 10   6  25  1   
 11   6  26  1   
 12   7  11  1   
 13   7  27  1   
 14   7  28  1   
 15   8  12  ar  
 16   8  29  1   
 17   9  13  ar  
 18   9  30  1   
 19  10  14  1   
 20  10  31  1   
 21  10  32  1   
 22  11  14  1   
 23  11  33  1   
 24  11  34  1   
 25  12  15  ar  
 26  12  35  1   
 27  13  15  ar  
 28  13  36  1   
 29  14  16  1   
 30  14  37  1   
 31  15  17  1   
 32  16  18  2   
 33  16  19  am  
 34  17  38  1   
 35  17  39  1   
 36  17  40  1   
 37  19  20  1   
 38  19  21  1   
 39  20  22  1   
 40  20  41  1   
 41  20  42  1   
 42  21  23  1   
 43  21  43  1   
 44  21  44  1   
 45  22  24  1   
 46  22  45  1   
 47  22  46  1   
 48  23  24  1   
 49  23  47  1   
 50  23  48  1   
@<TRIPOS>SUBSTRUCTURE
  1 ****   6 GROUP 4 **** **** 0

# MOE 2024.06 (io_trps.svl 2023.06)
