@<TRIPOS>MOLECULE
NONAME
41 42 1 0 0 
SMALL
USER_CHARGES


@<TRIPOS>ATOM
  1 O       -0.0850     0.0070    -0.7450 O.2   1 <1>  -0.5700 
  2 C       -0.0040    -0.8750     0.0860 C.2   1 <1>   0.6900 
  3 N        1.1750    -1.4870     0.3890 N.am  1 <1>  -0.5470 
  4 N       -1.1100    -1.2980     0.7480 N.am  1 <1>  -0.7300 
  5 C        2.4890    -1.2160    -0.0200 C.ar  1 <1>   0.1170 
  6 C       -2.4790    -0.7620     0.5440 C.3   1 <1>   0.1400 
  7 C        3.4330    -2.2360     0.0440 C.ar  1 <1>  -0.1500 
  8 C        2.9000     0.0350    -0.4680 C.ar  1 <1>  -0.1500 
  9 C       -3.4410    -1.9040     0.2050 C.3   1 <1>  -0.0220 
 10 C        4.7490    -2.0240    -0.3300 C.ar  1 <1>  -0.1430 
 11 C        4.2120     0.2570    -0.8440 C.ar  1 <1>  -0.1500 
 12 C       -4.8960    -1.4660     0.0410 C.2   1 <1>  -0.2760 
 13 C        5.1360    -0.7710    -0.7750 C.ar  1 <1>  -0.1500 
 14 C        5.7700    -3.1460    -0.2570 C.3   1 <1>  -0.0970 
 15 C       -5.3530    -0.2130     0.1730 C.2   1 <1>  -0.2880 
 16 C       -5.8190    -2.6310    -0.3110 C.3   1 <1>  -0.0220 
 17 C       -6.8020     0.2010    -0.0270 C.3   1 <1>  -0.0220 
 18 C       -7.3010    -2.2720    -0.1330 C.3   1 <1>  -0.1600 
 19 C       -7.6110    -0.8960    -0.7320 C.3   1 <1>  -0.1600 
 20 H        1.0640    -2.3400     0.9210 H     1 <1>   0.3700 
 21 H       -0.9990    -1.9140     1.5490 H     1 <1>   0.3700 
 22 H       -2.4820    -0.0430    -0.2580 H     1 <1>   0.0800 
 23 H       -2.7990    -0.2680     1.4450 H     1 <1>   0.0800 
 24 H        3.1310    -3.2070     0.3890 H     1 <1>   0.1500 
 25 H        2.1950     0.8440    -0.5230 H     1 <1>   0.1500 
 26 H       -3.3920    -2.6390     0.9880 H     1 <1>   0.0800 
 27 H       -3.1130    -2.3600    -0.7120 H     1 <1>   0.0800 
 28 H        4.5130     1.2290    -1.1910 H     1 <1>   0.1500 
 29 H        6.1550    -0.5910    -1.0690 H     1 <1>   0.1500 
 30 H        5.2870    -4.0970    -0.1270 H     1 <1>   0.0800 
 31 H        6.4350    -2.9790     0.5700 H     1 <1>   0.0800 
 32 H        6.3450    -3.1790    -1.1650 H     1 <1>   0.0800 
 33 H       -4.7350     0.6280     0.4320 H     1 <1>   0.1500 
 34 H       -5.5980    -3.4790     0.3130 H     1 <1>   0.0800 
 35 H       -5.6390    -2.9150    -1.3330 H     1 <1>   0.0800 
 36 H       -6.8430     1.1000    -0.6170 H     1 <1>   0.0800 
 37 H       -7.2370     0.4130     0.9350 H     1 <1>   0.0800 
 38 H       -7.5360    -2.2580     0.9170 H     1 <1>   0.0800 
 39 H       -7.9120    -3.0240    -0.6020 H     1 <1>   0.0800 
 40 H       -7.3560    -0.9030    -1.7780 H     1 <1>   0.0800 
 41 H       -8.6620    -0.6820    -0.6460 H     1 <1>   0.0800 
@<TRIPOS>BOND
  1   1   2  2   
  2   2   3  am  
  3   2   4  am  
  4   3   5  1   
  5   3  20  1   
  6   4   6  1   
  7   4  21  1   
  8   5   7  ar  
  9   5   8  ar  
 10   6   9  1   
 11   6  22  1   
 12   6  23  1   
 13   7  10  ar  
 14   7  24  1   
 15   8  11  ar  
 16   8  25  1   
 17   9  12  1   
 18   9  26  1   
 19   9  27  1   
 20  10  13  ar  
 21  10  14  1   
 22  11  13  ar  
 23  11  28  1   
 24  12  15  2   
 25  12  16  1   
 26  13  29  1   
 27  14  30  1   
 28  14  31  1   
 29  14  32  1   
 30  15  17  1   
 31  15  33  1   
 32  16  18  1   
 33  16  34  1   
 34  16  35  1   
 35  17  19  1   
 36  17  36  1   
 37  17  37  1   
 38  18  19  1   
 39  18  38  1   
 40  18  39  1   
 41  19  40  1   
 42  19  41  1   
@<TRIPOS>SUBSTRUCTURE
  1 ****   2 GROUP 4 **** **** 0

# MOE 2024.06 (io_trps.svl 2023.06)
