@<TRIPOS>MOLECULE
NONAME
32 32 1 0 0 
SMALL
USER_CHARGES


@<TRIPOS>ATOM
  1 O        0.2810     0.8600     1.6000 O.2   1 <1>  -0.5700 
  2 C        0.2020     1.7480     0.7830 C.2   1 <1>   0.4950 
  3 C        1.3400     2.2920     0.1040 C.2   1 <1>   0.0290 
  4 C       -1.2060     2.2460     0.5040 C.3   1 <1>  -0.0990 
  5 C        1.1310     3.3820    -0.8090 C.2   1 <1>   0.4950 
  6 C        2.5890     1.7590     0.3490 C.2   1 <1>  -0.0500 
  7 C       -1.2500     3.7080     0.0380 C.3   1 <1>   0.0000 
  8 O        2.0180     3.9810    -1.3770 O.2   1 <1>  -0.5700 
  9 C       -0.2730     3.8650    -1.1350 C.3   1 <1>  -0.0990 
 10 N        3.7530     2.1380    -0.2330 N.pl3 1 <1>  -0.8690 
 11 C       -2.6720     4.0580    -0.4260 C.3   1 <1>  -0.2400 
 12 C       -0.8690     4.6540     1.1910 C.3   1 <1>  -0.2400 
 13 C        5.1230     1.5710     0.0340 C.3   1 <1>   0.2700 
 14 C        6.1420     2.6050     0.5370 C.2   1 <1>   0.5690 
 15 O        7.3120     2.3200     0.5890 O.2   1 <1>  -0.5700 
 16 N        5.7260     3.8310     0.9180 N.am  1 <1>  -0.8000 
 17 H       -1.6330     1.6060    -0.2470 H     1 <1>   0.0800 
 18 H       -1.7990     2.1330     1.3950 H     1 <1>   0.0800 
 19 H        2.6650     0.9560     1.0690 H     1 <1>   0.1500 
 20 H       -0.2260     4.8990    -1.4280 H     1 <1>   0.0800 
 21 H       -0.6220     3.3070    -1.9860 H     1 <1>   0.0800 
 22 H        3.7290     2.8930    -0.9470 H     1 <1>   0.4000 
 23 H       -2.9810     3.4210    -1.2360 H     1 <1>   0.0800 
 24 H       -2.7180     5.0790    -0.7640 H     1 <1>   0.0800 
 25 H       -3.3730     3.9400     0.3820 H     1 <1>   0.0800 
 26 H       -1.5620     4.5500     2.0080 H     1 <1>   0.0800 
 27 H       -0.8970     5.6790     0.8620 H     1 <1>   0.0800 
 28 H        0.1190     4.4550     1.5680 H     1 <1>   0.0800 
 29 H        5.0500     0.7900     0.7690 H     1 <1>   0.0800 
 30 H        5.5040     1.1370    -0.8720 H     1 <1>   0.0800 
 31 H        6.3880     4.5320     1.2490 H     1 <1>   0.3700 
 32 H        4.7350     4.0830     0.8830 H     1 <1>   0.3700 
@<TRIPOS>BOND
  1   1   2  2   
  2   2   3  1   
  3   2   4  1   
  4   3   5  1   
  5   3   6  2   
  6   4   7  1   
  7   4  17  1   
  8   4  18  1   
  9   5   8  2   
 10   5   9  1   
 11   6  10  1   
 12   6  19  1   
 13   7   9  1   
 14   7  11  1   
 15   7  12  1   
 16   9  20  1   
 17   9  21  1   
 18  10  13  1   
 19  10  22  1   
 20  11  23  1   
 21  11  24  1   
 22  11  25  1   
 23  12  26  1   
 24  12  27  1   
 25  12  28  1   
 26  13  14  1   
 27  13  29  1   
 28  13  30  1   
 29  14  15  2   
 30  14  16  am  
 31  16  31  1   
 32  16  32  1   
@<TRIPOS>SUBSTRUCTURE
  1 ****   3 GROUP 4 **** **** 0

# MOE 2024.06 (io_trps.svl 2023.06)
