@<TRIPOS>MOLECULE
NONAME
41 42 1 0 0 
SMALL
USER_CHARGES


@<TRIPOS>ATOM
  1 CL       0.8340    -1.0580     0.6010 Cl    1 <1>  -0.1770 
  2 C       -0.2910     0.2770     0.4640 C.ar  1 <1>   0.1770 
  3 C        0.1310     1.5850     0.6750 C.ar  1 <1>   0.0820 
  4 C       -1.6070    -0.0010     0.1440 C.ar  1 <1>  -0.1500 
  5 O        1.4110     1.8810     0.9920 O.3   1 <1>  -0.3630 
  6 C       -0.7890     2.6170     0.5780 C.ar  1 <1>  -0.1500 
  7 C       -2.5240     1.0350     0.0370 C.ar  1 <1>  -0.1430 
  8 C        2.3190     1.9480    -0.0860 C.3   1 <1>   0.1200 
  9 C       -2.1090     2.3410     0.2580 C.ar  1 <1>  -0.1500 
 10 C       -3.9730     0.7440    -0.3110 C.3   1 <1>  -0.0960 
 11 C        3.7020     2.2780     0.4610 C.3   1 <1>   0.1200 
 12 O        4.5880     2.4040    -0.6250 O.3   1 <1>  -0.3630 
 13 C        5.8750     2.6810    -0.2850 C.ar  1 <1>   0.0830 
 14 C        6.3010     4.0080    -0.2200 C.ar  1 <1>   0.0830 
 15 C        6.7620     1.6360    -0.0210 C.ar  1 <1>   0.0830 
 16 O        5.3890     4.9910    -0.4790 O.3   1 <1>  -0.3630 
 17 C        7.6260     4.2820     0.1090 C.ar  1 <1>  -0.1500 
 18 O        6.2880     0.3570    -0.0900 O.3   1 <1>  -0.3630 
 19 C        8.0820     1.9310     0.3070 C.ar  1 <1>  -0.1500 
 20 C        5.7740     6.3430    -0.5870 C.3   1 <1>   0.0400 
 21 C        8.5080     3.2470     0.3690 C.ar  1 <1>  -0.1500 
 22 C        7.1390    -0.7560     0.0650 C.3   1 <1>   0.0400 
 23 H       -1.9040    -1.0210    -0.0150 H     1 <1>   0.1500 
 24 H       -0.4680     3.6280     0.7530 H     1 <1>   0.1500 
 25 H        1.9890     2.7190    -0.7590 H     1 <1>   0.0800 
 26 H        2.3340     0.9950    -0.5850 H     1 <1>   0.0800 
 27 H       -2.8140     3.1500     0.1840 H     1 <1>   0.1500 
 28 H       -4.0550    -0.1820    -0.8520 H     1 <1>   0.0800 
 29 H       -4.3760     1.5310    -0.9240 H     1 <1>   0.0800 
 30 H       -4.5570     0.6730     0.5890 H     1 <1>   0.0800 
 31 H        4.0560     1.4860     1.0980 H     1 <1>   0.0800 
 32 H        3.6880     3.2130     0.9920 H     1 <1>   0.0800 
 33 H        7.9900     5.2890     0.1710 H     1 <1>   0.1500 
 34 H        8.7930     1.1550     0.5170 H     1 <1>   0.1500 
 35 H        4.9050     6.9150    -0.8580 H     1 <1>   0.0800 
 36 H        6.5240     6.4320    -1.3530 H     1 <1>   0.0800 
 37 H        6.1480     6.6770     0.3640 H     1 <1>   0.0800 
 38 H        9.5300     3.4670     0.6230 H     1 <1>   0.1500 
 39 H        6.5510    -1.6450    -0.0720 H     1 <1>   0.0800 
 40 H        7.5540    -0.7420     1.0570 H     1 <1>   0.0800 
 41 H        7.9120    -0.7110    -0.6810 H     1 <1>   0.0800 
@<TRIPOS>BOND
  1   1   2  1   
  2   2   3  ar  
  3   2   4  ar  
  4   3   5  1   
  5   3   6  ar  
  6   4   7  ar  
  7   4  23  1   
  8   5   8  1   
  9   6   9  ar  
 10   6  24  1   
 11   7   9  ar  
 12   7  10  1   
 13   8  11  1   
 14   8  25  1   
 15   8  26  1   
 16   9  27  1   
 17  10  28  1   
 18  10  29  1   
 19  10  30  1   
 20  11  12  1   
 21  11  31  1   
 22  11  32  1   
 23  12  13  1   
 24  13  14  ar  
 25  13  15  ar  
 26  14  16  1   
 27  14  17  ar  
 28  15  18  1   
 29  15  19  ar  
 30  16  20  1   
 31  17  21  ar  
 32  17  33  1   
 33  18  22  1   
 34  19  21  ar  
 35  19  34  1   
 36  20  35  1   
 37  20  36  1   
 38  20  37  1   
 39  21  38  1   
 40  22  39  1   
 41  22  40  1   
 42  22  41  1   
@<TRIPOS>SUBSTRUCTURE
  1 ****  11 GROUP 4 **** **** 0

# MOE 2024.06 (io_trps.svl 2023.06)
