@<TRIPOS>MOLECULE
NONAME
50 52 1 0 0 
SMALL
USER_CHARGES


@<TRIPOS>ATOM
  1 S       -0.2150     0.0090     1.5250 S.o2  1 <1>   1.4470 
  2 O        0.3670    -1.1170     2.2250 O.2   1 <1>  -0.6500 
  3 O       -0.9590     0.9990     2.2720 O.2   1 <1>  -0.6500 
  4 N        1.0700     0.8120     0.7610 N.am  1 <1>  -0.8490 
  5 C       -1.2290    -0.5710     0.1340 C.ar  1 <1>  -0.0090 
  6 C        1.9910    -0.1230     0.1070 C.3   1 <1>   0.1960 
  7 C        1.7720     1.7010     1.6910 C.3   1 <1>   0.1960 
  8 C       -1.6860    -1.8870     0.0780 C.ar  1 <1>  -0.1500 
  9 C       -1.5750     0.2940    -0.9020 C.ar  1 <1>  -0.1500 
 10 C        3.0400     0.6450    -0.6990 C.3   1 <1>  -0.1600 
 11 C        2.8270     2.5240     0.9470 C.3   1 <1>  -0.1600 
 12 C       -2.4600    -2.3340    -0.9810 C.ar  1 <1>  -0.1500 
 13 C       -2.3480    -0.1330    -1.9690 C.ar  1 <1>  -0.1500 
 14 C        3.8210     1.6230     0.1960 C.3   1 <1>  -0.0190 
 15 C       -2.7770    -1.4450    -1.9880 C.ar  1 <1>   0.1900 
 16 C        4.8280     2.4510    -0.6030 C.2   1 <1>   0.5690 
 17 F       -3.5040    -1.8580    -2.9900 F     1 <1>  -0.1900 
 18 O        4.4440     3.0550    -1.5730 O.2   1 <1>  -0.5700 
 19 N        6.1280     2.4560    -0.1710 N.am  1 <1>  -0.5470 
 20 C        7.2640     3.1250    -0.6630 C.ar  1 <1>   0.1170 
 21 C        8.5400     2.5860    -0.4520 C.ar  1 <1>  -0.1430 
 22 C        7.1440     4.3370    -1.3370 C.ar  1 <1>  -0.1500 
 23 C        9.6510     3.2790    -0.9200 C.ar  1 <1>  -0.1500 
 24 C        8.6820     1.2450     0.2830 C.3   1 <1>  -0.0170 
 25 C        8.2560     5.0120    -1.8000 C.ar  1 <1>  -0.1500 
 26 C        9.5130     4.4810    -1.5890 C.ar  1 <1>  -0.1500 
 27 C       10.0940     0.6480     0.3300 C.3   1 <1>  -0.2400 
 28 H        1.4420    -0.7660    -0.5620 H     1 <1>   0.0800 
 29 H        2.4750    -0.7420     0.8450 H     1 <1>   0.0800 
 30 H        2.2320     1.1200     2.4740 H     1 <1>   0.0800 
 31 H        1.0700     2.3810     2.1460 H     1 <1>   0.0800 
 32 H       -1.4320    -2.5700     0.8730 H     1 <1>   0.1500 
 33 H       -1.2330     1.3160    -0.8690 H     1 <1>   0.1500 
 34 H        2.5440     1.1840    -1.4880 H     1 <1>   0.0800 
 35 H        3.7210    -0.0510    -1.1570 H     1 <1>   0.0800 
 36 H        3.3550     3.1440     1.6490 H     1 <1>   0.0800 
 37 H        2.3280     3.1740     0.2480 H     1 <1>   0.0800 
 38 H       -2.8130    -3.3500    -1.0260 H     1 <1>   0.1500 
 39 H       -2.6150     0.5340    -2.7690 H     1 <1>   0.1500 
 40 H        4.3590     1.0430     0.9250 H     1 <1>   0.0800 
 41 H        6.3260     1.8460     0.6160 H     1 <1>   0.3700 
 42 H        6.1740     4.7670    -1.5030 H     1 <1>   0.1500 
 43 H       10.6470     2.9030    -0.7780 H     1 <1>   0.1500 
 44 H        8.0420     0.5260    -0.1980 H     1 <1>   0.0800 
 45 H        8.3380     1.3720     1.2950 H     1 <1>   0.0800 
 46 H        8.1420     5.9460    -2.3210 H     1 <1>   0.1500 
 47 H       10.3840     5.0030    -1.9470 H     1 <1>   0.1500 
 48 H       10.4730     0.5040    -0.6660 H     1 <1>   0.0800 
 49 H       10.0710    -0.3060     0.8250 H     1 <1>   0.0800 
 50 H       10.7600     1.2940     0.8750 H     1 <1>   0.0800 
@<TRIPOS>BOND
  1   1   2  2   
  2   1   3  2   
  3   1   4  am  
  4   1   5  1   
  5   4   6  1   
  6   4   7  1   
  7   5   8  ar  
  8   5   9  ar  
  9   6  10  1   
 10   6  28  1   
 11   6  29  1   
 12   7  11  1   
 13   7  30  1   
 14   7  31  1   
 15   8  12  ar  
 16   8  32  1   
 17   9  13  ar  
 18   9  33  1   
 19  10  14  1   
 20  10  34  1   
 21  10  35  1   
 22  11  14  1   
 23  11  36  1   
 24  11  37  1   
 25  12  15  ar  
 26  12  38  1   
 27  13  15  ar  
 28  13  39  1   
 29  14  16  1   
 30  14  40  1   
 31  15  17  1   
 32  16  18  2   
 33  16  19  am  
 34  19  20  1   
 35  19  41  1   
 36  20  21  ar  
 37  20  22  ar  
 38  21  23  ar  
 39  21  24  1   
 40  22  25  ar  
 41  22  42  1   
 42  23  26  ar  
 43  23  43  1   
 44  24  27  1   
 45  24  44  1   
 46  24  45  1   
 47  25  26  ar  
 48  25  46  1   
 49  26  47  1   
 50  27  48  1   
 51  27  49  1   
 52  27  50  1   
@<TRIPOS>SUBSTRUCTURE
  1 ****  10 GROUP 4 **** **** 0

# MOE 2024.06 (io_trps.svl 2023.06)
