@<TRIPOS>MOLECULE
NONAME
49 50 1 0 0 
SMALL
USER_CHARGES


@<TRIPOS>ATOM
  1 S       -0.0050    -0.9690     1.7000 S.o2  1 <1>   1.4470 
  2 O       -0.3890    -2.2070     2.3390 O.2   1 <1>  -0.6500 
  3 O        0.0100     0.2510     2.4720 O.2   1 <1>  -0.6500 
  4 N       -1.1550    -0.6740     0.5110 N.am  1 <1>  -0.9140 
  5 C        1.5370    -1.1790     0.7770 C.ar  1 <1>  -0.0090 
  6 C       -2.4840    -0.4680     1.0440 C.3   1 <1>   0.2760 
  7 C        1.9460    -0.2160    -0.1490 C.ar  1 <1>   0.0830 
  8 C        2.3450    -2.2950     0.9910 C.ar  1 <1>  -0.1500 
  9 C       -3.2400    -1.8070     1.0930 C.3   1 <1>  -0.1600 
 10 C       -3.1760     0.5820     0.1660 C.3   1 <1>  -0.1600 
 11 O        1.1410     0.8630    -0.3400 O.3   1 <1>  -0.3630 
 12 C        3.1420    -0.3730    -0.8460 C.ar  1 <1>  -0.1500 
 13 C        3.5360    -2.4610     0.3050 C.ar  1 <1>  -0.1500 
 14 C       -4.1590    -2.0710    -0.1040 C.3   1 <1>   0.5030 
 15 C       -4.6970     0.4110     0.0770 C.3   1 <1>   0.5030 
 16 C        1.6180     2.0300    -0.9800 C.3   1 <1>   0.0400 
 17 C        3.9100    -1.4920    -0.6030 C.ar  1 <1>   0.1900 
 18 N       -5.0630    -0.9420    -0.3590 N.4   1 <1>  -0.9060 
 19 C       -5.0540    -3.2720     0.1900 C.3   1 <1>  -0.2400 
 20 C       -3.3750    -2.3540    -1.3880 C.3   1 <1>  -0.2400 
 21 C       -5.2630     1.3620    -0.9760 C.3   1 <1>  -0.2400 
 22 C       -5.3920     0.6920     1.4120 C.3   1 <1>  -0.2400 
 23 F        5.0310    -1.6400    -1.2540 F     1 <1>  -0.1900 
 24 H       -0.8220     0.2280     0.1590 H     1 <1>   0.4200 
 25 H       -2.4210    -0.0790     2.0500 H     1 <1>   0.0800 
 26 H        2.0390    -3.0430     1.7050 H     1 <1>   0.1500 
 27 H       -3.8290    -1.8240     1.9900 H     1 <1>   0.0800 
 28 H       -2.5510    -2.6260     1.1870 H     1 <1>   0.0800 
 29 H       -2.7730     0.5560    -0.8310 H     1 <1>   0.0800 
 30 H       -2.9530     1.5570     0.5640 H     1 <1>   0.0800 
 31 H        3.4900     0.3390    -1.5690 H     1 <1>   0.1500 
 32 H        4.1620    -3.3210     0.4680 H     1 <1>   0.1500 
 33 H        0.8660     2.7930    -0.8930 H     1 <1>   0.0800 
 34 H        1.7990     1.8140    -2.0180 H     1 <1>   0.0800 
 35 H        2.5210     2.3540    -0.4920 H     1 <1>   0.0800 
 36 H       -5.9660    -1.1670     0.0620 H     1 <1>   0.4500 
 37 H       -5.2140    -0.9120    -1.3690 H     1 <1>   0.4500 
 38 H       -5.6460    -3.1110     1.0740 H     1 <1>   0.0800 
 39 H       -4.4470    -4.1440     0.3630 H     1 <1>   0.0800 
 40 H       -5.7060    -3.4890    -0.6380 H     1 <1>   0.0800 
 41 H       -2.7470    -1.5310    -1.6710 H     1 <1>   0.0800 
 42 H       -4.0330    -2.5900    -2.2060 H     1 <1>   0.0800 
 43 H       -2.7300    -3.2020    -1.2350 H     1 <1>   0.0800 
 44 H       -4.8190     1.1860    -1.9400 H     1 <1>   0.0800 
 45 H       -5.0480     2.3810    -0.7010 H     1 <1>   0.0800 
 46 H       -6.3320     1.2660    -1.0570 H     1 <1>   0.0800 
 47 H       -5.0620     0.0350     2.1930 H     1 <1>   0.0800 
 48 H       -6.4610     0.6090     1.3180 H     1 <1>   0.0800 
 49 H       -5.1750     1.6980     1.7280 H     1 <1>   0.0800 
@<TRIPOS>BOND
  1   1   2  2   
  2   1   3  2   
  3   1   4  am  
  4   1   5  1   
  5   4   6  1   
  6   4  24  1   
  7   5   7  ar  
  8   5   8  ar  
  9   6   9  1   
 10   6  10  1   
 11   6  25  1   
 12   7  11  1   
 13   7  12  ar  
 14   8  13  ar  
 15   8  26  1   
 16   9  14  1   
 17   9  27  1   
 18   9  28  1   
 19  10  15  1   
 20  10  29  1   
 21  10  30  1   
 22  11  16  1   
 23  12  17  ar  
 24  12  31  1   
 25  13  17  ar  
 26  13  32  1   
 27  14  18  1   
 28  14  19  1   
 29  14  20  1   
 30  15  18  1   
 31  15  21  1   
 32  15  22  1   
 33  16  33  1   
 34  16  34  1   
 35  16  35  1   
 36  17  23  1   
 37  18  36  1   
 38  18  37  1   
 39  19  38  1   
 40  19  39  1   
 41  19  40  1   
 42  20  41  1   
 43  20  42  1   
 44  20  43  1   
 45  21  44  1   
 46  21  45  1   
 47  21  46  1   
 48  22  47  1   
 49  22  48  1   
 50  22  49  1   
@<TRIPOS>SUBSTRUCTURE
  1 ****   4 GROUP 4 **** **** 0

# MOE 2024.06 (io_trps.svl 2023.06)
