@<TRIPOS>MOLECULE
NONAME
34 36 1 0 0 
SMALL
USER_CHARGES


@<TRIPOS>ATOM
  1 O       -0.5600    -0.1050     0.0900 O.2   1 <1>  -0.5700 
  2 C       -1.5620    -0.7910     0.0430 C.2   1 <1>   0.7060 
  3 O       -2.7380    -0.1670     0.0690 O.3   1 <1>  -0.2330 
  4 C       -1.5500    -2.2250    -0.0310 C.2   1 <1>  -0.1240 
  5 C       -3.9280    -0.8080     0.0080 C.ar  1 <1>   0.0820 
  6 C       -2.7110    -2.9280    -0.0630 C.2   1 <1>  -0.1670 
  7 C       -0.1770    -2.8960    -0.0620 C.3   1 <1>  -0.0220 
  8 C       -3.9600    -2.2110    -0.0720 C.ar  1 <1>   0.0280 
  9 C       -5.0920    -0.0440     0.0190 C.ar  1 <1>  -0.1440 
 10 C       -2.7280    -4.4580    -0.0980 C.3   1 <1>  -0.0220 
 11 C       -0.2460    -4.3640    -0.4960 C.3   1 <1>  -0.1600 
 12 C       -5.2160    -2.8200    -0.1650 C.ar  1 <1>  -0.1500 
 13 C       -6.3160    -0.6920    -0.0690 C.ar  1 <1>   0.0820 
 14 C       -4.9930     1.4790     0.1170 C.3   1 <1>  -0.0960 
 15 C       -1.3700    -5.0890     0.2490 C.3   1 <1>  -0.0800 
 16 C       -6.3750    -2.0760    -0.1620 C.ar  1 <1>  -0.1500 
 17 O       -7.4670    -0.0040    -0.0710 O.3   1 <1>  -0.5320 
 18 C       -1.3640    -6.5870    -0.0800 C.3   1 <1>  -0.2400 
 19 H        0.2560    -2.8310     0.9220 H     1 <1>   0.0800 
 20 H        0.4730    -2.3680    -0.7390 H     1 <1>   0.0800 
 21 H       -3.0320    -4.7690    -1.0830 H     1 <1>   0.0800 
 22 H       -3.4490    -4.8290     0.6090 H     1 <1>   0.0800 
 23 H        0.7010    -4.8370    -0.2960 H     1 <1>   0.0800 
 24 H       -0.4270    -4.4130    -1.5560 H     1 <1>   0.0800 
 25 H       -5.2980    -3.8880    -0.2450 H     1 <1>   0.1500 
 26 H       -4.3390     1.7550     0.9240 H     1 <1>   0.0800 
 27 H       -5.9490     1.9350     0.2970 H     1 <1>   0.0800 
 28 H       -4.5950     1.8740    -0.8000 H     1 <1>   0.0800 
 29 H       -1.2040    -4.9750     1.3080 H     1 <1>   0.0800 
 30 H       -7.3270    -2.5700    -0.2330 H     1 <1>   0.1500 
 31 H       -8.2590    -0.5650    -0.1410 H     1 <1>   0.4500 
 32 H       -1.5100    -6.7470    -1.1340 H     1 <1>   0.0800 
 33 H       -2.1490    -7.0910     0.4570 H     1 <1>   0.0800 
 34 H       -0.4250    -7.0270     0.2060 H     1 <1>   0.0800 
@<TRIPOS>BOND
  1   1   2  2   
  2   2   3  1   
  3   2   4  1   
  4   3   5  1   
  5   4   6  2   
  6   4   7  1   
  7   5   8  ar  
  8   5   9  ar  
  9   6   8  1   
 10   6  10  1   
 11   7  11  1   
 12   7  19  1   
 13   7  20  1   
 14   8  12  ar  
 15   9  13  ar  
 16   9  14  1   
 17  10  15  1   
 18  10  21  1   
 19  10  22  1   
 20  11  15  1   
 21  11  23  1   
 22  11  24  1   
 23  12  16  ar  
 24  12  25  1   
 25  13  16  ar  
 26  13  17  1   
 27  14  26  1   
 28  14  27  1   
 29  14  28  1   
 30  15  18  1   
 31  15  29  1   
 32  16  30  1   
 33  17  31  1   
 34  18  32  1   
 35  18  33  1   
 36  18  34  1   
@<TRIPOS>SUBSTRUCTURE
  1 ****   8 GROUP 4 **** **** 0

# MOE 2024.06 (io_trps.svl 2023.06)
