@<TRIPOS>MOLECULE
NONAME
41 43 1 0 0 
SMALL
USER_CHARGES


@<TRIPOS>ATOM
  1 O       -1.3510     0.1220    -0.2540 O.3   1 <1>  -0.6800 
  2 C       -1.7530    -0.9200     0.5740 C.3   1 <1>   0.2000 
  3 C       -1.7020    -2.2630    -0.1820 C.3   1 <1>   0.0000 
  4 C       -3.1880    -0.6520     1.0230 C.3   1 <1>  -0.0800 
  5 C       -2.6550    -2.1820    -1.3980 C.3   1 <1>   0.3430 
  6 C       -2.1610    -3.3630     0.7970 C.3   1 <1>   0.1100 
  7 C       -0.2810    -2.5790    -0.7320 C.3   1 <1>  -0.1600 
  8 C       -4.0870    -0.4960    -0.2060 C.3   1 <1>   0.3430 
  9 C       -3.6580    -1.7720     1.9640 C.3   1 <1>   0.1100 
 10 N       -4.0520    -1.6790    -1.1280 N.4   1 <1>  -0.9590 
 11 N       -3.4940    -3.1010     1.3590 N.3   1 <1>  -0.8100 
 12 C        0.8540    -2.7500     0.3070 C.3   1 <1>  -0.0800 
 13 C       -5.0060    -2.7560    -0.6960 C.3   1 <1>   0.3430 
 14 C       -4.6210    -3.5880     0.5470 C.3   1 <1>   0.1100 
 15 C        2.1540    -2.1320    -0.2230 C.3   1 <1>  -0.2400 
 16 C        1.1150    -4.2300     0.6250 C.3   1 <1>  -0.2400 
 17 H       -0.3730     0.1650    -0.2950 H     1 <1>   0.4000 
 18 H       -1.1070    -0.9270     1.4350 H     1 <1>   0.0800 
 19 H       -3.2090     0.2690     1.5770 H     1 <1>   0.0800 
 20 H       -2.1970    -1.5080    -2.1030 H     1 <1>   0.0800 
 21 H       -2.7060    -3.1490    -1.8680 H     1 <1>   0.0800 
 22 H       -1.4730    -3.4090     1.6230 H     1 <1>   0.0800 
 23 H       -2.1480    -4.3270     0.3160 H     1 <1>   0.0800 
 24 H       -0.0090    -1.7900    -1.4120 H     1 <1>   0.0800 
 25 H       -0.3270    -3.4720    -1.3340 H     1 <1>   0.0800 
 26 H       -3.7440     0.3720    -0.7460 H     1 <1>   0.0800 
 27 H       -5.0990    -0.3060     0.1110 H     1 <1>   0.0800 
 28 H       -4.6850    -1.6220     2.2550 H     1 <1>   0.0800 
 29 H       -3.0660    -1.7390     2.8640 H     1 <1>   0.0800 
 30 H       -4.4040    -1.3340    -2.0290 H     1 <1>   0.4500 
 31 H        0.6110    -2.2440     1.2250 H     1 <1>   0.0800 
 32 H       -5.1540    -3.4430    -1.5120 H     1 <1>   0.0800 
 33 H       -5.9660    -2.3060    -0.5010 H     1 <1>   0.0800 
 34 H       -5.4880    -3.6610     1.1800 H     1 <1>   0.0800 
 35 H       -4.4050    -4.5930     0.2280 H     1 <1>   0.0800 
 36 H        2.4540    -2.6040    -1.1430 H     1 <1>   0.0800 
 37 H        2.9470    -2.2560     0.4950 H     1 <1>   0.0800 
 38 H        2.0320    -1.0780    -0.4010 H     1 <1>   0.0800 
 39 H        1.4280    -4.7600    -0.2570 H     1 <1>   0.0800 
 40 H        0.2420    -4.7140     1.0190 H     1 <1>   0.0800 
 41 H        1.8960    -4.3170     1.3610 H     1 <1>   0.0800 
@<TRIPOS>BOND
  1   1   2  1   
  2   1  17  1   
  3   2   3  1   
  4   2   4  1   
  5   2  18  1   
  6   3   5  1   
  7   3   6  1   
  8   3   7  1   
  9   4   8  1   
 10   4   9  1   
 11   4  19  1   
 12   5  10  1   
 13   5  20  1   
 14   5  21  1   
 15   6  11  1   
 16   6  22  1   
 17   6  23  1   
 18   7  12  1   
 19   7  24  1   
 20   7  25  1   
 21   8  10  1   
 22   8  26  1   
 23   8  27  1   
 24   9  11  1   
 25   9  28  1   
 26   9  29  1   
 27  10  13  1   
 28  10  30  1   
 29  11  14  1   
 30  12  15  1   
 31  12  16  1   
 32  12  31  1   
 33  13  14  1   
 34  13  32  1   
 35  13  33  1   
 36  14  34  1   
 37  14  35  1   
 38  15  36  1   
 39  15  37  1   
 40  15  38  1   
 41  16  39  1   
 42  16  40  1   
 43  16  41  1   
@<TRIPOS>SUBSTRUCTURE
  1 ****   3 GROUP 4 **** **** 0

# MOE 2024.06 (io_trps.svl 2023.06)
