@<TRIPOS>MOLECULE
NONAME
31 32 1 0 0 
SMALL
USER_CHARGES


@<TRIPOS>ATOM
  1 S        0.0060     0.3720    -0.8680 S.3   1 <1>  -0.0800 
  2 C        1.4790     0.6470     0.0040 C.2   1 <1>   0.4420 
  3 C        0.0560    -1.2600    -0.2940 C.2   1 <1>   0.1980 
  4 N        1.8800    -0.4060     0.6180 N.2   1 <1>  -0.3380 
  5 N        2.0090     1.9160    -0.0760 N.am  1 <1>  -0.4940 
  6 N        1.0630    -1.4900     0.4430 N.2   1 <1>  -0.3380 
  7 C       -1.0560    -2.2010    -0.7060 C.3   1 <1>   0.0200 
  8 C        3.1270     2.4450     0.5120 C.2   1 <1>   0.7150 
  9 C       -2.2850    -1.9850     0.1730 C.3   1 <1>   0.1200 
 10 O        3.8000     1.7700     1.2630 O.2   1 <1>  -0.5700 
 11 C        3.4690     3.8140     0.2170 C.2   1 <1>  -0.0450 
 12 O       -3.2990    -2.8120    -0.2940 O.3   1 <1>  -0.5600 
 13 S        4.8840     4.5270     1.0040 S.3   1 <1>  -0.0800 
 14 C        2.9090     4.7560    -0.5900 C.2   1 <1>  -0.1500 
 15 C       -4.4690    -2.7480     0.4500 C.3   1 <1>   0.1200 
 16 C        4.6510     6.0650     0.2050 C.2   1 <1>  -0.1100 
 17 C        3.5730     6.0180    -0.5960 C.2   1 <1>  -0.1500 
 18 C       -5.4720    -3.6980    -0.1920 C.3   1 <1>  -0.2400 
 19 H        1.4940     2.5620    -0.6620 H     1 <1>   0.3700 
 20 H       -0.7160    -3.2140    -0.5950 H     1 <1>   0.0800 
 21 H       -1.3080    -2.0290    -1.7360 H     1 <1>   0.0800 
 22 H       -2.6200    -0.9640     0.1160 H     1 <1>   0.0800 
 23 H       -2.0630    -2.2440     1.1950 H     1 <1>   0.0800 
 24 H        2.0350     4.6170    -1.2000 H     1 <1>   0.1500 
 25 H       -4.8410    -1.7360     0.4320 H     1 <1>   0.0800 
 26 H       -4.2570    -3.0470     1.4620 H     1 <1>   0.0800 
 27 H        5.3550     6.8500     0.4230 H     1 <1>   0.1500 
 28 H        3.2150     6.8350    -1.1980 H     1 <1>   0.1500 
 29 H       -5.6670    -3.3990    -1.2060 H     1 <1>   0.0800 
 30 H       -6.3960    -3.6780     0.3560 H     1 <1>   0.0800 
 31 H       -5.0870    -4.7020    -0.1810 H     1 <1>   0.0800 
@<TRIPOS>BOND
  1   1   2  1   
  2   1   3  1   
  3   2   4  2   
  4   2   5  1   
  5   3   6  2   
  6   3   7  1   
  7   4   6  1   
  8   5   8  am  
  9   5  19  1   
 10   7   9  1   
 11   7  20  1   
 12   7  21  1   
 13   8  10  2   
 14   8  11  1   
 15   9  12  1   
 16   9  22  1   
 17   9  23  1   
 18  11  13  1   
 19  11  14  2   
 20  12  15  1   
 21  13  16  1   
 22  14  17  1   
 23  14  24  1   
 24  15  18  1   
 25  15  25  1   
 26  15  26  1   
 27  16  17  2   
 28  16  27  1   
 29  17  28  1   
 30  18  29  1   
 31  18  30  1   
 32  18  31  1   
@<TRIPOS>SUBSTRUCTURE
  1 ****   2 GROUP 4 **** **** 0

# MOE 2024.06 (io_trps.svl 2023.06)
