@<TRIPOS>MOLECULE
NONAME
35 36 1 0 0 
SMALL
USER_CHARGES


@<TRIPOS>ATOM
  1 CL      -2.1160     1.3090    -3.2660 Cl    1 <1>  -0.1770 
  2 C       -2.5990     1.6190    -1.6160 C.ar  1 <1>   0.1770 
  3 C       -1.8910     2.5030    -0.8200 C.ar  1 <1>   0.1770 
  4 C       -3.7100     0.9620    -1.1180 C.ar  1 <1>  -0.1500 
  5 CL      -0.4890     3.3420    -1.4380 Cl    1 <1>  -0.1770 
  6 C       -2.2900     2.7360     0.4830 C.ar  1 <1>  -0.1500 
  7 C       -4.1240     1.1960     0.1880 C.ar  1 <1>  -0.1440 
  8 C       -3.4050     2.0820     0.9850 C.ar  1 <1>  -0.1500 
  9 C       -5.3500     0.4890     0.7420 C.3   1 <1>   0.4870 
 10 N       -6.5690     1.0580     0.1030 N.4   1 <1>  -0.9590 
 11 C       -6.7560     2.5010     0.4330 C.3   1 <1>   0.3430 
 12 C       -7.7800     0.2550     0.4240 C.3   1 <1>   0.3430 
 13 C       -7.9050     3.0640    -0.3990 C.3   1 <1>  -0.1600 
 14 C       -8.9560     0.7600    -0.4100 C.3   1 <1>  -0.1600 
 15 C       -9.2120     2.2680    -0.2140 C.3   1 <1>  -0.0190 
 16 C      -10.2790     2.7600    -1.1880 C.2   1 <1>   0.5690 
 17 O      -10.0840     2.6590    -2.3700 O.2   1 <1>  -0.5700 
 18 N      -11.4220     3.3010    -0.7330 N.am  1 <1>  -0.8000 
 19 H       -4.2280     0.2740    -1.7650 H     1 <1>   0.1500 
 20 H       -1.7270     3.4230     1.0940 H     1 <1>   0.1500 
 21 H       -3.6980     2.2730     2.0050 H     1 <1>   0.1500 
 22 H       -5.3970     0.6140     1.8120 H     1 <1>   0.0800 
 23 H       -5.2770    -0.5650     0.5260 H     1 <1>   0.0800 
 24 H       -6.4240     1.0100    -0.9140 H     1 <1>   0.4500 
 25 H       -5.8560     3.0540     0.2130 H     1 <1>   0.0800 
 26 H       -6.9760     2.6140     1.4830 H     1 <1>   0.0800 
 27 H       -8.0140     0.3430     1.4730 H     1 <1>   0.0800 
 28 H       -7.6080    -0.7860     0.1990 H     1 <1>   0.0800 
 29 H       -7.6170     3.0610    -1.4370 H     1 <1>   0.0800 
 30 H       -8.0710     4.0910    -0.1220 H     1 <1>   0.0800 
 31 H       -9.8420     0.2120    -0.1400 H     1 <1>   0.0800 
 32 H       -8.7610     0.5530    -1.4490 H     1 <1>   0.0800 
 33 H       -9.5680     2.4260     0.7890 H     1 <1>   0.0800 
 34 H      -12.1160     3.6220    -1.4130 H     1 <1>   0.3700 
 35 H      -11.6710     3.4290     0.2470 H     1 <1>   0.3700 
@<TRIPOS>BOND
  1   1   2  1   
  2   2   3  ar  
  3   2   4  ar  
  4   3   5  1   
  5   3   6  ar  
  6   4   7  ar  
  7   4  19  1   
  8   6   8  ar  
  9   6  20  1   
 10   7   8  ar  
 11   7   9  1   
 12   8  21  1   
 13   9  10  1   
 14   9  22  1   
 15   9  23  1   
 16  10  11  1   
 17  10  12  1   
 18  10  24  1   
 19  11  13  1   
 20  11  25  1   
 21  11  26  1   
 22  12  14  1   
 23  12  27  1   
 24  12  28  1   
 25  13  15  1   
 26  13  29  1   
 27  13  30  1   
 28  14  15  1   
 29  14  31  1   
 30  14  32  1   
 31  15  16  1   
 32  15  33  1   
 33  16  17  2   
 34  16  18  am  
 35  18  34  1   
 36  18  35  1   
@<TRIPOS>SUBSTRUCTURE
  1 ****  10 GROUP 4 **** **** 0

# MOE 2024.06 (io_trps.svl 2023.06)
