@<TRIPOS>MOLECULE
NONAME
34 35 1 0 0 
SMALL
USER_CHARGES


@<TRIPOS>ATOM
  1 O        0.2790    -0.2300     0.7740 O.3   1 <1>  -0.5600 
  2 C        1.3930    -0.4030    -0.0460 C.3   1 <1>   0.9010 
  3 C       -0.8610     0.3360     0.1910 C.3   1 <1>   0.0400 
  4 O        1.0690    -1.3070    -1.0610 O.3   1 <1>  -0.5600 
  5 N        2.4510    -0.9920     0.7580 N.2   1 <1>  -0.6960 
  6 C        1.9310     0.9350    -0.6020 C.3   1 <1>   0.0100 
  7 C        0.6930    -2.6030    -0.6800 C.3   1 <1>   0.0400 
  8 C        3.4790    -0.2840     0.6780 C.2   1 <1>   0.5000 
  9 C        1.5040     1.1750    -2.0100 C.1   1 <1>   0.4520 
 10 C        3.3630     0.9470    -0.1800 C.3   1 <1>   0.1050 
 11 C        2.4830     2.1080     0.1960 C.3   1 <1>  -0.1900 
 12 N        4.6190    -0.5990     1.3450 N.pl3 1 <1>  -0.8500 
 13 N        1.1750     1.4310    -3.0680 N.1   1 <1>  -0.5570 
 14 C        4.4400     1.0250    -1.2070 C.1   1 <1>   0.4520 
 15 C        2.7030     3.4790    -0.4930 C.3   1 <1>  -0.0650 
 16 C        2.0380     2.2840     1.6640 C.3   1 <1>  -0.1450 
 17 N        5.2900     1.0940    -1.9600 N.1   1 <1>  -0.5570 
 18 C        3.8380     4.2910     0.1410 C.3   1 <1>  -0.2400 
 19 H       -0.6670     1.3630    -0.0630 H     1 <1>   0.0800 
 20 H       -1.6570     0.2920     0.9130 H     1 <1>   0.0800 
 21 H       -1.1420    -0.2250    -0.6840 H     1 <1>   0.0800 
 22 H        1.5410    -3.1160    -0.2590 H     1 <1>   0.0800 
 23 H        0.3610    -3.1270    -1.5590 H     1 <1>   0.0800 
 24 H       -0.1070    -2.5570     0.0380 H     1 <1>   0.0800 
 25 H        4.6400    -1.4900     1.8470 H     1 <1>   0.4000 
 26 H        5.5210    -0.1530     1.1650 H     1 <1>   0.4000 
 27 H        1.7920     4.0520    -0.4470 H     1 <1>   0.0800 
 28 H        2.9410     3.3570    -1.5370 H     1 <1>   0.0800 
 29 H        1.8060     1.3480     2.1390 H     1 <1>   0.0800 
 30 H        1.1580     2.9020     1.7130 H     1 <1>   0.0800 
 31 H        2.8140     2.7480     2.2450 H     1 <1>   0.0800 
 32 H        3.5890     4.5930     1.1420 H     1 <1>   0.0800 
 33 H        4.0140     5.1800    -0.4390 H     1 <1>   0.0800 
 34 H        4.7490     3.7190     0.1630 H     1 <1>   0.0800 
@<TRIPOS>BOND
  1   1   2  1   
  2   1   3  1   
  3   2   4  1   
  4   2   5  1   
  5   2   6  1   
  6   3  19  1   
  7   3  20  1   
  8   3  21  1   
  9   4   7  1   
 10   5   8  2   
 11   6   9  1   
 12   6  10  1   
 13   6  11  1   
 14   7  22  1   
 15   7  23  1   
 16   7  24  1   
 17   8  10  1   
 18   8  12  1   
 19   9  13  3   
 20  10  11  1   
 21  10  14  1   
 22  11  15  1   
 23  11  16  1   
 24  12  25  1   
 25  12  26  1   
 26  14  17  3   
 27  15  18  1   
 28  15  27  1   
 29  15  28  1   
 30  16  29  1   
 31  16  30  1   
 32  16  31  1   
 33  18  32  1   
 34  18  33  1   
 35  18  34  1   
@<TRIPOS>SUBSTRUCTURE
  1 ****   6 GROUP 4 **** **** 0

# MOE 2024.06 (io_trps.svl 2023.06)
