@<TRIPOS>MOLECULE
NONAME
50 52 1 0 0 
SMALL
USER_CHARGES


@<TRIPOS>ATOM
  1 CL       0.6530    -0.6790    -0.0590 Cl    1 <1>  -0.1770 
  2 C        2.2260    -1.4380    -0.0440 C.ar  1 <1>   0.1770 
  3 C        3.3410    -0.6930    -0.3690 C.ar  1 <1>  -0.1500 
  4 C        2.3230    -2.7740     0.2940 C.ar  1 <1>  -0.1500 
  5 C        4.5960    -1.2900    -0.3590 C.ar  1 <1>   0.1170 
  6 C        3.5680    -3.3810     0.3070 C.ar  1 <1>  -0.1500 
  7 N        5.7660    -0.5860    -0.6860 N.am  1 <1>  -0.5470 
  8 C        4.7050    -2.6450    -0.0190 C.ar  1 <1>   0.0830 
  9 C        6.0920     0.7370    -0.7350 C.2   1 <1>   0.5690 
 10 O        5.9610    -3.1870    -0.0200 O.3   1 <1>  -0.3630 
 11 O        5.3060     1.6380    -0.5650 O.2   1 <1>  -0.5700 
 12 C        7.5620     1.0650    -1.0090 C.3   1 <1>   0.1710 
 13 C        6.1780    -4.5460     0.2900 C.3   1 <1>   0.0400 
 14 N        8.4910    -0.0760    -0.7490 N.3   1 <1>  -0.8100 
 15 C        9.8060     0.1440    -1.3820 C.3   1 <1>   0.1100 
 16 C        8.6680    -0.3120     0.7050 C.3   1 <1>   0.1100 
 17 C       10.7460    -1.0570    -1.1730 C.3   1 <1>   0.1400 
 18 C        9.5580    -1.5360     0.9700 C.3   1 <1>   0.1400 
 19 N       10.8760    -1.3970     0.2790 N.am  1 <1>  -0.6600 
 20 C       12.0640    -1.6530     0.9280 C.2   1 <1>   0.5690 
 21 O       12.0650    -1.9660     2.1000 O.2   1 <1>  -0.5700 
 22 C       13.4230    -1.5270     0.1880 C.3   1 <1>   0.2610 
 23 O       13.4940    -2.4000    -0.9080 O.3   1 <1>  -0.5600 
 24 C       14.6610    -1.9060     1.0020 C.3   1 <1>  -0.1600 
 25 C       13.9410    -3.6500    -0.4880 C.3   1 <1>   0.1200 
 26 C       14.8040    -3.3990     0.7470 C.3   1 <1>  -0.1600 
 27 H        3.2240     0.3420    -0.6300 H     1 <1>   0.1500 
 28 H        1.4340    -3.3260     0.5420 H     1 <1>   0.1500 
 29 H        3.6260    -4.4190     0.5710 H     1 <1>   0.1500 
 30 H        6.5960    -1.1840    -0.7780 H     1 <1>   0.3700 
 31 H        7.8460     1.9150    -0.4150 H     1 <1>   0.0800 
 32 H        7.6290     1.3480    -2.0440 H     1 <1>   0.0800 
 33 H        7.2320    -4.7420     0.2150 H     1 <1>   0.0800 
 34 H        5.6430    -5.1560    -0.4160 H     1 <1>   0.0800 
 35 H        5.8430    -4.7340     1.2950 H     1 <1>   0.0800 
 36 H       10.2670     1.0280    -0.9750 H     1 <1>   0.0800 
 37 H        9.6720     0.2930    -2.4400 H     1 <1>   0.0800 
 38 H        7.7130    -0.4800     1.1710 H     1 <1>   0.0800 
 39 H        9.1150     0.5520     1.1680 H     1 <1>   0.0800 
 40 H       11.7010    -0.8240    -1.6050 H     1 <1>   0.0800 
 41 H       10.3490    -1.9090    -1.6960 H     1 <1>   0.0800 
 42 H        9.0610    -2.4190     0.6080 H     1 <1>   0.0800 
 43 H        9.6960    -1.6450     2.0310 H     1 <1>   0.0800 
 44 H       13.5160    -0.5220    -0.1790 H     1 <1>   0.0800 
 45 H       14.5680    -1.6670     2.0460 H     1 <1>   0.0800 
 46 H       15.5110    -1.3830     0.6010 H     1 <1>   0.0800 
 47 H       14.4960    -4.1050    -1.2890 H     1 <1>   0.0800 
 48 H       13.0800    -4.2510    -0.2440 H     1 <1>   0.0800 
 49 H       14.4190    -3.9680     1.5760 H     1 <1>   0.0800 
 50 H       15.8280    -3.6770     0.5730 H     1 <1>   0.0800 
@<TRIPOS>BOND
  1   1   2  1   
  2   2   3  ar  
  3   2   4  ar  
  4   3   5  ar  
  5   3  27  1   
  6   4   6  ar  
  7   4  28  1   
  8   5   7  1   
  9   5   8  ar  
 10   6   8  ar  
 11   6  29  1   
 12   7   9  am  
 13   7  30  1   
 14   8  10  1   
 15   9  11  2   
 16   9  12  1   
 17  10  13  1   
 18  12  14  1   
 19  12  31  1   
 20  12  32  1   
 21  13  33  1   
 22  13  34  1   
 23  13  35  1   
 24  14  15  1   
 25  14  16  1   
 26  15  17  1   
 27  15  36  1   
 28  15  37  1   
 29  16  18  1   
 30  16  38  1   
 31  16  39  1   
 32  17  19  1   
 33  17  40  1   
 34  17  41  1   
 35  18  19  1   
 36  18  42  1   
 37  18  43  1   
 38  19  20  am  
 39  20  21  2   
 40  20  22  1   
 41  22  23  1   
 42  22  24  1   
 43  22  44  1   
 44  23  25  1   
 45  24  26  1   
 46  24  45  1   
 47  24  46  1   
 48  25  26  1   
 49  25  47  1   
 50  25  48  1   
 51  26  49  1   
 52  26  50  1   
@<TRIPOS>SUBSTRUCTURE
  1 ****  16 GROUP 4 **** **** 0

# MOE 2024.06 (io_trps.svl 2023.06)
