@<TRIPOS>MOLECULE
NONAME
53 55 1 0 0 
SMALL
USER_CHARGES


@<TRIPOS>ATOM
  1 O       -6.4210    -1.4340     0.7880 O.3   1 <1>  -0.6800 
  2 C       -6.4230    -1.5300    -0.6060 C.3   1 <1>   0.2000 
  3 C       -4.9650    -1.5620    -1.1080 C.3   1 <1>   0.3430 
  4 C       -7.2390    -0.3650    -1.1950 C.3   1 <1>   0.2090 
  5 N       -4.1110    -2.3460    -0.1630 N.4   1 <1>  -0.9590 
  6 N       -8.5560    -0.2530    -0.5040 N.pl3 1 <1>  -0.5690 
  7 C       -2.7060    -1.8630    -0.1560 C.3   1 <1>   0.3430 
  8 C       -4.2770    -3.8160    -0.3440 C.3   1 <1>   0.3430 
  9 C       -8.8960     0.9540     0.1290 C.ar  1 <1>   0.1000 
 10 C       -9.4350    -1.3470    -0.5380 C.ar  1 <1>   0.1000 
 11 C       -1.9060    -2.4250     1.0210 C.3   1 <1>  -0.1600 
 12 C       -4.1140    -4.5200     1.0010 C.3   1 <1>  -0.1600 
 13 C       -8.0020     1.6220     0.9630 C.ar  1 <1>  -0.1500 
 14 C      -10.1570     1.5080    -0.0630 C.ar  1 <1>  -0.1500 
 15 C      -10.0300    -1.7960     0.6360 C.ar  1 <1>  -0.1500 
 16 C       -9.7240    -2.0160    -1.7250 C.ar  1 <1>  -0.1500 
 17 C       -1.5730    -3.9170     0.8720 C.3   1 <1>  -0.1600 
 18 C       -2.6650    -4.8640     1.3890 C.3   1 <1>  -0.1600 
 19 C       -8.3560     2.8100     1.5770 C.ar  1 <1>  -0.1500 
 20 C      -10.5160     2.6950     0.5490 C.ar  1 <1>  -0.1500 
 21 C      -10.8670    -2.8960     0.6330 C.ar  1 <1>  -0.1500 
 22 C      -10.5610    -3.1170    -1.7320 C.ar  1 <1>  -0.1500 
 23 C       -9.6140     3.3500     1.3690 C.ar  1 <1>  -0.1500 
 24 C      -11.1300    -3.5620    -0.5510 C.ar  1 <1>  -0.1500 
 25 H       -7.3430    -1.2070     1.0650 H     1 <1>   0.4000 
 26 H       -6.9090    -2.4560    -0.8630 H     1 <1>   0.0800 
 27 H       -4.6070    -0.5460    -1.1500 H     1 <1>   0.0800 
 28 H       -4.9160    -1.9730    -2.1030 H     1 <1>   0.0800 
 29 H       -7.4030    -0.5220    -2.2460 H     1 <1>   0.0800 
 30 H       -6.6940     0.5570    -1.0910 H     1 <1>   0.0800 
 31 H       -4.5350    -2.1250     0.7600 H     1 <1>   0.4500 
 32 H       -2.7050    -0.7880    -0.0800 H     1 <1>   0.0800 
 33 H       -2.2210    -2.1310    -1.0810 H     1 <1>   0.0800 
 34 H       -3.5720    -4.1990    -1.0640 H     1 <1>   0.0800 
 35 H       -5.2730    -4.0180    -0.7040 H     1 <1>   0.0800 
 36 H       -2.4040    -2.2290     1.9540 H     1 <1>   0.0800 
 37 H       -0.9730    -1.8890     1.0470 H     1 <1>   0.0800 
 38 H       -4.6650    -5.4440     0.9630 H     1 <1>   0.0800 
 39 H       -4.5710    -3.9270     1.7750 H     1 <1>   0.0800 
 40 H       -7.0270     1.2130     1.1460 H     1 <1>   0.1500 
 41 H      -10.8620     1.0020    -0.6990 H     1 <1>   0.1500 
 42 H       -9.8380    -1.2750     1.5570 H     1 <1>   0.1500 
 43 H       -9.3090    -1.6680    -2.6510 H     1 <1>   0.1500 
 44 H       -0.6750    -4.1250     1.4300 H     1 <1>   0.0800 
 45 H       -1.3520    -4.1410    -0.1580 H     1 <1>   0.0800 
 46 H       -2.4360    -5.8540     1.0310 H     1 <1>   0.0800 
 47 H       -2.6080    -4.9080     2.4640 H     1 <1>   0.0800 
 48 H       -7.6570     3.3170     2.2190 H     1 <1>   0.1500 
 49 H      -11.4960     3.1100     0.3870 H     1 <1>   0.1500 
 50 H      -11.3180    -3.2330     1.5510 H     1 <1>   0.1500 
 51 H      -10.7780    -3.6270    -2.6550 H     1 <1>   0.1500 
 52 H       -9.8910     4.2740     1.8460 H     1 <1>   0.1500 
 53 H      -11.7820    -4.4180    -0.5540 H     1 <1>   0.1500 
@<TRIPOS>BOND
  1   1   2  1   
  2   1  25  1   
  3   2   3  1   
  4   2   4  1   
  5   2  26  1   
  6   3   5  1   
  7   3  27  1   
  8   3  28  1   
  9   4   6  1   
 10   4  29  1   
 11   4  30  1   
 12   5   7  1   
 13   5   8  1   
 14   5  31  1   
 15   6   9  1   
 16   6  10  1   
 17   7  11  1   
 18   7  32  1   
 19   7  33  1   
 20   8  12  1   
 21   8  34  1   
 22   8  35  1   
 23   9  13  ar  
 24   9  14  ar  
 25  10  15  ar  
 26  10  16  ar  
 27  11  17  1   
 28  11  36  1   
 29  11  37  1   
 30  12  18  1   
 31  12  38  1   
 32  12  39  1   
 33  13  19  ar  
 34  13  40  1   
 35  14  20  ar  
 36  14  41  1   
 37  15  21  ar  
 38  15  42  1   
 39  16  22  ar  
 40  16  43  1   
 41  17  18  1   
 42  17  44  1   
 43  17  45  1   
 44  18  46  1   
 45  18  47  1   
 46  19  23  ar  
 47  19  48  1   
 48  20  23  ar  
 49  20  49  1   
 50  21  24  ar  
 51  21  50  1   
 52  22  24  ar  
 53  22  51  1   
 54  23  52  1   
 55  24  53  1   
@<TRIPOS>SUBSTRUCTURE
  1 ****   1 GROUP 4 **** **** 0

# MOE 2024.06 (io_trps.svl 2023.06)
