@<TRIPOS>MOLECULE
NONAME
37 38 1 0 0 
SMALL
USER_CHARGES


@<TRIPOS>ATOM
  1 S        0.3090     0.0740    -0.6650 S.o2  1 <1>   1.4470 
  2 O        1.6380    -0.2100    -0.1830 O.2   1 <1>  -0.6500 
  3 O        0.1030     0.6420    -1.9730 O.2   1 <1>  -0.6500 
  4 N       -0.1780     1.2930     0.3410 N.am  1 <1>  -0.9780 
  5 C       -0.8490    -1.2770    -0.3160 C.ar  1 <1>  -0.0090 
  6 C       -2.1550    -1.2350    -0.7840 C.ar  1 <1>  -0.1500 
  7 C       -0.4700    -2.3750     0.4430 C.ar  1 <1>  -0.1500 
  8 C       -3.0820    -2.2410    -0.5180 C.ar  1 <1>   0.0860 
  9 C       -1.3640    -3.3930     0.7190 C.ar  1 <1>  -0.1500 
 10 C       -2.6630    -3.3340     0.2460 C.ar  1 <1>  -0.1430 
 11 C       -4.4360    -2.1150    -1.0250 C.2   1 <1>   0.5440 
 12 C       -3.6290    -4.4690     0.5640 C.3   1 <1>  -0.0960 
 13 O       -4.8110    -2.8430    -1.9250 O.2   1 <1>  -0.5700 
 14 N       -5.3060    -1.1790    -0.5080 N.am  1 <1>  -0.6600 
 15 C       -6.6480    -0.9730    -1.1320 C.3   1 <1>   0.1400 
 16 C       -4.9940    -0.3880     0.7220 C.3   1 <1>   0.1400 
 17 C       -7.1700     0.4380    -0.8410 C.3   1 <1>  -0.1600 
 18 C       -6.2760    -0.0810     1.5020 C.3   1 <1>  -0.1600 
 19 C       -7.2920     0.7190     0.6670 C.3   1 <1>  -0.1600 
 20 H       -0.1760     2.1070    -0.2700 H     1 <1>   0.4200 
 21 H        0.6170     1.4080     0.9640 H     1 <1>   0.4200 
 22 H       -2.4720    -0.3950    -1.3780 H     1 <1>   0.1500 
 23 H        0.5370    -2.4370     0.8230 H     1 <1>   0.1500 
 24 H       -1.0380    -4.2350     1.3070 H     1 <1>   0.1500 
 25 H       -4.5080    -4.0830     1.0490 H     1 <1>   0.0800 
 26 H       -3.1760    -5.1990     1.2100 H     1 <1>   0.0800 
 27 H       -3.9270    -4.9590    -0.3470 H     1 <1>   0.0800 
 28 H       -7.3310    -1.7070    -0.7400 H     1 <1>   0.0800 
 29 H       -6.5770    -1.1170    -2.1980 H     1 <1>   0.0800 
 30 H       -4.5140     0.5320     0.4350 H     1 <1>   0.0800 
 31 H       -4.3210    -0.9400     1.3560 H     1 <1>   0.0800 
 32 H       -8.1280     0.5720    -1.3130 H     1 <1>   0.0800 
 33 H       -6.4910     1.1430    -1.2870 H     1 <1>   0.0800 
 34 H       -6.0340     0.4660     2.3960 H     1 <1>   0.0800 
 35 H       -6.7150    -1.0160     1.8040 H     1 <1>   0.0800 
 36 H       -8.2840     0.4690     1.0020 H     1 <1>   0.0800 
 37 H       -7.1490     1.7730     0.8330 H     1 <1>   0.0800 
@<TRIPOS>BOND
  1   1   2  2   
  2   1   3  2   
  3   1   4  am  
  4   1   5  1   
  5   4  20  1   
  6   4  21  1   
  7   5   6  ar  
  8   5   7  ar  
  9   6   8  ar  
 10   6  22  1   
 11   7   9  ar  
 12   7  23  1   
 13   8  10  ar  
 14   8  11  1   
 15   9  10  ar  
 16   9  24  1   
 17  10  12  1   
 18  11  13  2   
 19  11  14  am  
 20  12  25  1   
 21  12  26  1   
 22  12  27  1   
 23  14  15  1   
 24  14  16  1   
 25  15  17  1   
 26  15  28  1   
 27  15  29  1   
 28  16  18  1   
 29  16  30  1   
 30  16  31  1   
 31  17  19  1   
 32  17  32  1   
 33  17  33  1   
 34  18  19  1   
 35  18  34  1   
 36  18  35  1   
 37  19  36  1   
 38  19  37  1   
@<TRIPOS>SUBSTRUCTURE
  1 ****   8 GROUP 4 **** **** 0

# MOE 2024.06 (io_trps.svl 2023.06)
