@<TRIPOS>MOLECULE
NONAME
33 34 1 0 0 
SMALL
USER_CHARGES


@<TRIPOS>ATOM
  1 O       -0.5040    -0.5740    -1.0850 O.2   1 <1>  -0.5700 
  2 C       -0.3970    -1.4920    -0.3150 C.2   1 <1>   0.4950 
  3 C       -1.4970    -2.3340    -0.0470 C.2   1 <1>   0.0020 
  4 C        0.9430    -1.6730     0.3690 C.3   1 <1>  -0.1790 
  5 N       -2.6660    -1.6890     0.2370 N.2   1 <1>   1.5820 
  6 C       -1.5140    -3.7060    -0.0590 C.2   1 <1>  -0.0380 
  7 O       -2.6420    -0.5160     0.7470 O.2   1 <1>  -0.5640 
  8 C       -3.9160    -2.2970     0.1600 C.ar  1 <1>  -0.0040 
  9 N       -2.6880    -4.3330     0.1760 N.pl3 1 <1>  -0.5080 
 10 C       -0.3030    -4.5930    -0.3430 C.3   1 <1>  -0.1020 
 11 C       -3.9210    -3.6830     0.1520 C.ar  1 <1>   0.1000 
 12 C       -5.1360    -1.6030     0.1130 C.ar  1 <1>  -0.1500 
 13 O       -2.6830    -5.5620     0.4360 O.3   1 <1>  -0.6920 
 14 C       -5.1370    -4.3630     0.1070 C.ar  1 <1>  -0.1500 
 15 C       -6.3330    -2.2820     0.0620 C.ar  1 <1>   0.0830 
 16 C       -6.3320    -3.6810     0.0620 C.ar  1 <1>  -0.1500 
 17 O       -7.4580    -1.5310     0.0170 O.3   1 <1>  -0.3630 
 18 C       -8.7360    -2.1240    -0.0220 C.3   1 <1>   0.1200 
 19 C       -9.7730    -1.0070    -0.0610 C.3   1 <1>  -0.2400 
 20 H        0.8890    -2.4180     1.1430 H     1 <1>   0.0800 
 21 H        1.2490    -0.7410     0.8090 H     1 <1>   0.0800 
 22 H        1.6810    -1.9660    -0.3550 H     1 <1>   0.0800 
 23 H       -0.5940    -5.3830    -1.0140 H     1 <1>   0.0800 
 24 H        0.0290    -5.0510     0.5710 H     1 <1>   0.0800 
 25 H        0.5100    -4.0650    -0.8020 H     1 <1>   0.0800 
 26 H       -5.1650    -0.5260     0.1200 H     1 <1>   0.1500 
 27 H       -5.1110    -5.4400     0.1070 H     1 <1>   0.1500 
 28 H       -7.2460    -4.2440     0.0270 H     1 <1>   0.1500 
 29 H       -8.8600    -2.7280     0.8610 H     1 <1>   0.0800 
 30 H       -8.8020    -2.7360    -0.9050 H     1 <1>   0.0800 
 31 H       -9.6900    -0.3930     0.8190 H     1 <1>   0.0800 
 32 H      -10.7620    -1.4280    -0.0910 H     1 <1>   0.0800 
 33 H       -9.6320    -0.4000    -0.9370 H     1 <1>   0.0800 
@<TRIPOS>BOND
  1   1   2  2   
  2   2   3  1   
  3   2   4  1   
  4   3   5  1   
  5   3   6  2   
  6   4  20  1   
  7   4  21  1   
  8   4  22  1   
  9   5   7  2   
 10   5   8  1   
 11   6   9  1   
 12   6  10  1   
 13   8  11  ar  
 14   8  12  ar  
 15   9  11  1   
 16   9  13  1   
 17  10  23  1   
 18  10  24  1   
 19  10  25  1   
 20  11  14  ar  
 21  12  15  ar  
 22  12  26  1   
 23  14  16  ar  
 24  14  27  1   
 25  15  16  ar  
 26  15  17  1   
 27  16  28  1   
 28  17  18  1   
 29  18  19  1   
 30  18  29  1   
 31  18  30  1   
 32  19  31  1   
 33  19  32  1   
 34  19  33  1   
@<TRIPOS>SUBSTRUCTURE
  1 ****   8 GROUP 4 **** **** 0

# MOE 2024.06 (io_trps.svl 2023.06)
