@<TRIPOS>MOLECULE
NONAME
45 46 1 0 0 
SMALL
USER_CHARGES


@<TRIPOS>ATOM
  1 O       -1.9800     1.3660     0.2800 O.3   1 <1>  -0.3630 
  2 C       -1.0430     2.2000    -0.2490 C.ar  1 <1>   0.0830 
  3 C       -1.7650     0.6980     1.5070 C.3   1 <1>   0.0400 
  4 C       -1.2980     2.7170    -1.5170 C.ar  1 <1>  -0.1440 
  5 C        0.1250     2.5510     0.4200 C.ar  1 <1>  -0.1500 
  6 C       -0.3850     3.5770    -2.1080 C.ar  1 <1>  -0.1500 
  7 C       -2.5730     2.3450    -2.2480 C.3   1 <1>   0.4870 
  8 C        1.0350     3.4180    -0.1760 C.ar  1 <1>   0.0820 
  9 C        0.7720     3.9240    -1.4380 C.ar  1 <1>  -0.1500 
 10 N       -3.7290     2.8300    -1.4590 N.4   1 <1>  -0.9590 
 11 O        2.1940     3.8150     0.4030 O.3   1 <1>  -0.3620 
 12 C       -5.0590     2.3160    -1.9100 C.3   1 <1>   0.3430 
 13 C       -3.7470     4.3080    -1.2200 C.3   1 <1>   0.3430 
 14 C        2.6010     3.3280     1.6630 C.3   1 <1>   0.0400 
 15 C       -6.2010     2.7980    -0.9810 C.3   1 <1>   0.1100 
 16 C       -4.8820     4.7060    -0.2440 C.3   1 <1>   0.1100 
 17 N       -5.7030     3.5510     0.1980 N.3   1 <1>  -0.8100 
 18 C       -6.8010     4.0010     1.0810 C.3   1 <1>   0.1100 
 19 C       -7.4010     2.8380     1.8800 C.3   1 <1>   0.1200 
 20 O       -8.3930     3.3260     2.7160 O.3   1 <1>  -0.6800 
 21 H       -1.6760     1.4260     2.2940 H     1 <1>   0.0800 
 22 H       -0.8710     0.1030     1.4320 H     1 <1>   0.0800 
 23 H       -2.6090     0.0590     1.6980 H     1 <1>   0.0800 
 24 H        0.3300     2.1610     1.3950 H     1 <1>   0.1500 
 25 H       -0.5570     3.9840    -3.0910 H     1 <1>   0.1500 
 26 H       -2.6180     1.2720    -2.3440 H     1 <1>   0.0800 
 27 H       -2.5800     2.7830    -3.2320 H     1 <1>   0.0800 
 28 H        1.4880     4.5900    -1.8880 H     1 <1>   0.1500 
 29 H       -3.5950     2.4330    -0.5110 H     1 <1>   0.4500 
 30 H       -5.0470     1.2390    -1.9140 H     1 <1>   0.0800 
 31 H       -5.2610     2.6450    -2.9160 H     1 <1>   0.0800 
 32 H       -3.8800     4.8310    -2.1520 H     1 <1>   0.0800 
 33 H       -2.8050     4.6230    -0.8000 H     1 <1>   0.0800 
 34 H        3.5550     3.7650     1.8960 H     1 <1>   0.0800 
 35 H        2.6930     2.2580     1.6120 H     1 <1>   0.0800 
 36 H        1.8770     3.6210     2.4020 H     1 <1>   0.0800 
 37 H       -6.7560     1.9340    -0.6560 H     1 <1>   0.0800 
 38 H       -6.8760     3.4160    -1.5480 H     1 <1>   0.0800 
 39 H       -5.5100     5.4400    -0.7220 H     1 <1>   0.0800 
 40 H       -4.4400     5.1770     0.6180 H     1 <1>   0.0800 
 41 H       -7.5730     4.4760     0.4980 H     1 <1>   0.0800 
 42 H       -6.4130     4.7180     1.7840 H     1 <1>   0.0800 
 43 H       -6.6530     2.3570     2.4860 H     1 <1>   0.0800 
 44 H       -7.8620     2.1170     1.2290 H     1 <1>   0.0800 
 45 H       -8.0110     3.8410     3.4530 H     1 <1>   0.4000 
@<TRIPOS>BOND
  1   1   2  1   
  2   1   3  1   
  3   2   4  ar  
  4   2   5  ar  
  5   3  21  1   
  6   3  22  1   
  7   3  23  1   
  8   4   6  ar  
  9   4   7  1   
 10   5   8  ar  
 11   5  24  1   
 12   6   9  ar  
 13   6  25  1   
 14   7  10  1   
 15   7  26  1   
 16   7  27  1   
 17   8   9  ar  
 18   8  11  1   
 19   9  28  1   
 20  10  12  1   
 21  10  13  1   
 22  10  29  1   
 23  11  14  1   
 24  12  15  1   
 25  12  30  1   
 26  12  31  1   
 27  13  16  1   
 28  13  32  1   
 29  13  33  1   
 30  14  34  1   
 31  14  35  1   
 32  14  36  1   
 33  15  17  1   
 34  15  37  1   
 35  15  38  1   
 36  16  17  1   
 37  16  39  1   
 38  16  40  1   
 39  17  18  1   
 40  18  19  1   
 41  18  41  1   
 42  18  42  1   
 43  19  20  1   
 44  19  43  1   
 45  19  44  1   
 46  20  45  1   
@<TRIPOS>SUBSTRUCTURE
  1 ****  10 GROUP 4 **** **** 0

# MOE 2024.06 (io_trps.svl 2023.06)
