@<TRIPOS>MOLECULE
NONAME
34 36 1 0 0 
SMALL
USER_CHARGES


@<TRIPOS>ATOM
  1 O       -0.7610    -0.5990     0.6700 O.co2 1 <1>  -0.9000 
  2 C       -1.2950    -1.6850     0.4270 C.2   1 <1>   0.9060 
  3 O       -0.8340    -2.4820    -0.3980 O.co2 1 <1>  -0.9000 
  4 C       -2.5320    -2.0780     1.2040 C.3   1 <1>  -0.2660 
  5 C       -3.8770    -1.6680     0.5640 C.3   1 <1>   0.0000 
  6 C       -3.9780    -0.1330     0.4080 C.3   1 <1>  -0.1600 
  7 C       -4.0540    -2.3150    -0.8280 C.3   1 <1>  -0.1600 
  8 C       -5.0330    -2.1420     1.4730 C.3   1 <1>  -0.1600 
  9 C       -5.3370     0.2770    -0.1980 C.3   1 <1>   0.0000 
 10 C       -5.4140    -1.9290    -1.4400 C.3   1 <1>  -0.0800 
 11 C       -6.3980    -1.7550     0.8740 C.3   1 <1>  -0.0800 
 12 C       -5.4860    -0.3960    -1.5790 C.3   1 <1>  -0.1600 
 13 C       -6.4670    -0.2240     0.7250 C.3   1 <1>  -0.1600 
 14 C       -5.4090     1.8020    -0.3440 C.3   1 <1>  -0.2400 
 15 C       -6.5440    -2.4090    -0.5120 C.3   1 <1>  -0.1600 
 16 H       -2.4460    -1.6350     2.1760 H     1 <1>   0.0800 
 17 H       -2.5010    -3.1430     1.3250 H     1 <1>   0.0800 
 18 H       -3.1820     0.2140    -0.2280 H     1 <1>   0.0800 
 19 H       -3.8440     0.3330     1.3670 H     1 <1>   0.0800 
 20 H       -3.9780    -3.3840    -0.7440 H     1 <1>   0.0800 
 21 H       -3.2630    -1.9900    -1.4830 H     1 <1>   0.0800 
 22 H       -4.9300    -1.6990     2.4480 H     1 <1>   0.0800 
 23 H       -4.9820    -3.2100     1.5920 H     1 <1>   0.0800 
 24 H       -5.5140    -2.3870    -2.4090 H     1 <1>   0.0800 
 25 H       -7.1870    -2.0940     1.5220 H     1 <1>   0.0800 
 26 H       -4.6970    -0.0620    -2.2310 H     1 <1>   0.0800 
 27 H       -6.4230    -0.1180    -2.0250 H     1 <1>   0.0800 
 28 H       -7.4230     0.0550     0.3190 H     1 <1>   0.0800 
 29 H       -6.3740     0.2340     1.6940 H     1 <1>   0.0800 
 30 H       -4.6180     2.1510    -0.9830 H     1 <1>   0.0800 
 31 H       -5.3010     2.2740     0.6170 H     1 <1>   0.0800 
 32 H       -6.3510     2.0970    -0.7690 H     1 <1>   0.0800 
 33 H       -6.5020    -3.4800    -0.4160 H     1 <1>   0.0800 
 34 H       -7.4980    -2.1530    -0.9380 H     1 <1>   0.0800 
@<TRIPOS>BOND
  1   1   2  ar  
  2   2   3  ar  
  3   2   4  1   
  4   4   5  1   
  5   4  16  1   
  6   4  17  1   
  7   5   6  1   
  8   5   7  1   
  9   5   8  1   
 10   6   9  1   
 11   6  18  1   
 12   6  19  1   
 13   7  10  1   
 14   7  20  1   
 15   7  21  1   
 16   8  11  1   
 17   8  22  1   
 18   8  23  1   
 19   9  12  1   
 20   9  13  1   
 21   9  14  1   
 22  10  12  1   
 23  10  15  1   
 24  10  24  1   
 25  11  13  1   
 26  11  15  1   
 27  11  25  1   
 28  12  26  1   
 29  12  27  1   
 30  13  28  1   
 31  13  29  1   
 32  14  30  1   
 33  14  31  1   
 34  14  32  1   
 35  15  33  1   
 36  15  34  1   
@<TRIPOS>SUBSTRUCTURE
  1 ****   5 GROUP 4 **** **** 0

# MOE 2024.06 (io_trps.svl 2023.06)
