@<TRIPOS>MOLECULE
NONAME
35 36 1 0 0 
SMALL
USER_CHARGES


@<TRIPOS>ATOM
  1 O        1.4620    -1.8600    -1.5350 O.2   1 <1>  -0.5700 
  2 C        1.2710    -2.6140    -0.6110 C.2   1 <1>   0.5690 
  3 N        0.0210    -2.8550    -0.1380 N.am  1 <1>  -0.7300 
  4 C        2.4980    -3.2890     0.0290 C.3   1 <1>   0.4040 
  5 C       -1.2100    -2.3090    -0.7400 C.3   1 <1>   0.2840 
  6 N        3.7890    -2.5490    -0.2370 N.4   1 <1>  -0.9590 
  7 C       -2.3540    -3.1890    -0.2800 C.ar  1 <1>  -0.1440 
  8 C        5.0260    -3.2760     0.1220 C.3   1 <1>   0.3430 
  9 C        3.8580    -1.2240     0.4230 C.3   1 <1>   0.3430 
 10 C       -3.0730    -2.8660     0.8620 C.ar  1 <1>  -0.1500 
 11 C       -2.6830    -4.3340    -0.9900 C.ar  1 <1>  -0.1500 
 12 C        6.0900    -2.1880     0.1990 C.3   1 <1>  -0.1600 
 13 C        5.3360    -0.8650     0.3770 C.3   1 <1>  -0.1600 
 14 C       -4.1080    -3.6800     1.2880 C.ar  1 <1>  -0.1500 
 15 C       -3.7180    -5.1480    -0.5640 C.ar  1 <1>  -0.1500 
 16 C       -4.4310    -4.8220     0.5760 C.ar  1 <1>  -0.1500 
 17 H       -0.1830    -3.5240     0.6090 H     1 <1>   0.3700 
 18 H        2.5690    -4.2840    -0.3760 H     1 <1>   0.0800 
 19 H        2.3370    -3.3690     1.0900 H     1 <1>   0.0800 
 20 H       -1.1350    -2.3150    -1.8150 H     1 <1>   0.0800 
 21 H       -1.3580    -1.2940    -0.4110 H     1 <1>   0.0800 
 22 H        3.7970    -2.3480    -1.2520 H     1 <1>   0.4500 
 23 H        5.2770    -4.0280    -0.6110 H     1 <1>   0.0800 
 24 H        4.9140    -3.7380     1.0900 H     1 <1>   0.0800 
 25 H        3.5370    -1.3060     1.4490 H     1 <1>   0.0800 
 26 H        3.2500    -0.4930    -0.0890 H     1 <1>   0.0800 
 27 H       -2.8350    -1.9800     1.4250 H     1 <1>   0.1500 
 28 H       -2.1360    -4.5980    -1.8800 H     1 <1>   0.1500 
 29 H        6.6630    -2.1730    -0.7120 H     1 <1>   0.0800 
 30 H        6.7610    -2.3780     1.0190 H     1 <1>   0.0800 
 31 H        5.6280    -0.3550     1.2790 H     1 <1>   0.0800 
 32 H        5.5240    -0.2120    -0.4590 H     1 <1>   0.0800 
 33 H       -4.6650    -3.4250     2.1740 H     1 <1>   0.1500 
 34 H       -3.9700    -6.0350    -1.1190 H     1 <1>   0.1500 
 35 H       -5.2360    -5.4540     0.9070 H     1 <1>   0.1500 
@<TRIPOS>BOND
  1   1   2  2   
  2   2   3  am  
  3   2   4  1   
  4   3   5  1   
  5   3  17  1   
  6   4   6  1   
  7   4  18  1   
  8   4  19  1   
  9   5   7  1   
 10   5  20  1   
 11   5  21  1   
 12   6   8  1   
 13   6   9  1   
 14   6  22  1   
 15   7  10  ar  
 16   7  11  ar  
 17   8  12  1   
 18   8  23  1   
 19   8  24  1   
 20   9  13  1   
 21   9  25  1   
 22   9  26  1   
 23  10  14  ar  
 24  10  27  1   
 25  11  15  ar  
 26  11  28  1   
 27  12  13  1   
 28  12  29  1   
 29  12  30  1   
 30  13  31  1   
 31  13  32  1   
 32  14  16  ar  
 33  14  33  1   
 34  15  16  ar  
 35  15  34  1   
 36  16  35  1   
@<TRIPOS>SUBSTRUCTURE
  1 ****   3 GROUP 4 **** **** 0

# MOE 2024.06 (io_trps.svl 2023.06)
