@<TRIPOS>MOLECULE
NONAME
28 29 1 0 0 
SMALL
USER_CHARGES


@<TRIPOS>ATOM
  1 S       -0.1380    -0.1960    -0.2290 S.3   1 <1>  -0.4600 
  2 C        1.4200     0.6240    -0.6540 C.3   1 <1>   0.0700 
  3 C        0.2960    -1.9510    -0.3320 C.3   1 <1>   0.0700 
  4 C        2.5350     0.0760     0.2460 C.3   1 <1>   0.3430 
  5 C        1.5360    -2.2100     0.5340 C.3   1 <1>   0.3430 
  6 N        2.7320    -1.4110     0.0890 N.4   1 <1>  -0.9590 
  7 C        3.9590    -1.8670     0.8020 C.3   1 <1>   0.4860 
  8 C        5.1690    -1.2030     0.1710 C.ar  1 <1>  -0.1440 
  9 C        5.8590    -0.1920     0.8130 C.ar  1 <1>  -0.1500 
 10 C        5.6400    -1.5720    -1.0760 C.ar  1 <1>  -0.1500 
 11 C        6.9440     0.3980     0.1870 C.ar  1 <1>   0.1600 
 12 C        6.7360    -0.9160    -1.6120 C.ar  1 <1>   0.1600 
 13 N        7.3870     0.0630    -1.0110 N.ar  1 <1>  -0.6200 
 14 H        1.2740     1.6780    -0.4930 H     1 <1>   0.0800 
 15 H        1.6180     0.4450    -1.6960 H     1 <1>   0.0800 
 16 H        0.4670    -2.1910    -1.3670 H     1 <1>   0.0800 
 17 H       -0.5530    -2.5050     0.0300 H     1 <1>   0.0800 
 18 H        2.2950     0.3060     1.2720 H     1 <1>   0.0800 
 19 H        3.4480     0.5920    -0.0030 H     1 <1>   0.0800 
 20 H        1.7670    -3.2620     0.4890 H     1 <1>   0.0800 
 21 H        1.2980    -1.9680     1.5570 H     1 <1>   0.0800 
 22 H        2.8920    -1.5880    -0.9100 H     1 <1>   0.4500 
 23 H        4.0620    -2.9370     0.7200 H     1 <1>   0.0800 
 24 H        3.9020    -1.6100     1.8470 H     1 <1>   0.0800 
 25 H        5.5780     0.1510     1.7930 H     1 <1>   0.1500 
 26 H        5.1830    -2.3620    -1.6440 H     1 <1>   0.1500 
 27 H        7.4770     1.1860     0.6960 H     1 <1>   0.1500 
 28 H        7.0980    -1.2100    -2.5840 H     1 <1>   0.1500 
@<TRIPOS>BOND
  1   1   2  1   
  2   1   3  1   
  3   2   4  1   
  4   2  14  1   
  5   2  15  1   
  6   3   5  1   
  7   3  16  1   
  8   3  17  1   
  9   4   6  1   
 10   4  18  1   
 11   4  19  1   
 12   5   6  1   
 13   5  20  1   
 14   5  21  1   
 15   6   7  1   
 16   6  22  1   
 17   7   8  1   
 18   7  23  1   
 19   7  24  1   
 20   8   9  ar  
 21   8  10  ar  
 22   9  11  ar  
 23   9  25  1   
 24  10  12  ar  
 25  10  26  1   
 26  11  13  ar  
 27  11  27  1   
 28  12  13  ar  
 29  12  28  1   
@<TRIPOS>SUBSTRUCTURE
  1 ****   6 GROUP 4 **** **** 0

# MOE 2024.06 (io_trps.svl 2023.06)
