@<TRIPOS>MOLECULE
NONAME
54 56 1 0 0 
SMALL
USER_CHARGES


@<TRIPOS>ATOM
  1 O       -1.7190     1.0210     0.1640 O.3   1 <1>  -0.3630 
  2 C       -0.9960     2.1510     0.3970 C.ar  1 <1>   0.0830 
  3 C       -1.1770    -0.0530    -0.5810 C.3   1 <1>   0.0400 
  4 C       -1.4910     3.0420     1.3460 C.ar  1 <1>  -0.1440 
  5 C        0.1880     2.4420    -0.2740 C.ar  1 <1>  -0.1500 
  6 C       -0.8020     4.2130     1.6200 C.ar  1 <1>  -0.1500 
  7 C       -2.7810     2.7360     2.0810 C.3   1 <1>   0.4870 
  8 C        0.8730     3.6200     0.0030 C.ar  1 <1>   0.0820 
  9 C        0.3720     4.4980     0.9490 C.ar  1 <1>  -0.1500 
 10 N       -3.8760     2.6440     1.0850 N.4   1 <1>  -0.9590 
 11 O        2.0300     3.9850    -0.6030 O.3   1 <1>  -0.3620 
 12 C       -4.1000     3.9440     0.3550 C.3   1 <1>   0.3430 
 13 C       -5.1510     2.1040     1.6730 C.3   1 <1>   0.3430 
 14 C        2.6870     3.1420    -1.5240 C.3   1 <1>   0.0400 
 15 C       -5.2160     3.8490    -0.7070 C.3   1 <1>   0.2090 
 16 C       -6.2640     1.9480     0.6170 C.3   1 <1>   0.2090 
 17 N       -6.4500     3.2020    -0.1680 N.pl3 1 <1>  -0.8380 
 18 C       -7.5520     3.9970     0.1500 C.ar  1 <1>   0.1000 
 19 C       -8.7910     3.8120    -0.4760 C.ar  1 <1>  -0.1430 
 20 C       -7.4260     4.9800     1.1250 C.ar  1 <1>  -0.1500 
 21 C       -9.8790     4.5950    -0.0990 C.ar  1 <1>  -0.1430 
 22 C       -8.9450     2.7500    -1.5670 C.3   1 <1>  -0.0970 
 23 C       -8.5020     5.7630     1.4860 C.ar  1 <1>  -0.1500 
 24 C       -9.7250     5.5680     0.8760 C.ar  1 <1>  -0.1500 
 25 C      -11.2580     4.4240    -0.7250 C.3   1 <1>  -0.0970 
 26 H       -1.0390     0.2590    -1.6020 H     1 <1>   0.0800 
 27 H       -1.8680    -0.8760    -0.5440 H     1 <1>   0.0800 
 28 H       -0.2390    -0.3480    -0.1420 H     1 <1>   0.0800 
 29 H        0.5770     1.7670    -1.0090 H     1 <1>   0.1500 
 30 H       -1.1610     4.9150     2.3550 H     1 <1>   0.1500 
 31 H       -2.9930     3.5080     2.8030 H     1 <1>   0.0800 
 32 H       -2.6730     1.7970     2.5980 H     1 <1>   0.0800 
 33 H        0.9160     5.4040     1.1550 H     1 <1>   0.1500 
 34 H       -3.5210     1.9660     0.3900 H     1 <1>   0.4500 
 35 H       -3.1880     4.2570    -0.1270 H     1 <1>   0.0800 
 36 H       -4.3750     4.7090     1.0610 H     1 <1>   0.0800 
 37 H       -5.5090     2.7750     2.4360 H     1 <1>   0.0800 
 38 H       -4.9690     1.1460     2.1310 H     1 <1>   0.0800 
 39 H        3.5900     3.6330    -1.8390 H     1 <1>   0.0800 
 40 H        2.0460     2.9800    -2.3720 H     1 <1>   0.0800 
 41 H        2.9290     2.2130    -1.0380 H     1 <1>   0.0800 
 42 H       -4.8640     3.2800    -1.5500 H     1 <1>   0.0800 
 43 H       -5.4580     4.8370    -1.0630 H     1 <1>   0.0800 
 44 H       -7.1890     1.6940     1.1080 H     1 <1>   0.0800 
 45 H       -6.0210     1.1450    -0.0550 H     1 <1>   0.0800 
 46 H       -6.4850     5.1340     1.6110 H     1 <1>   0.1500 
 47 H       -8.0090     2.5470    -2.0520 H     1 <1>   0.0800 
 48 H       -9.6260     3.0760    -2.3310 H     1 <1>   0.0800 
 49 H       -9.3140     1.8390    -1.1350 H     1 <1>   0.0800 
 50 H       -8.3960     6.5230     2.2410 H     1 <1>   0.1500 
 51 H      -10.5590     6.1820     1.1680 H     1 <1>   0.1500 
 52 H      -11.5460     3.3890    -0.7150 H     1 <1>   0.0800 
 53 H      -11.2450     4.7780    -1.7400 H     1 <1>   0.0800 
 54 H      -12.0000     4.9800    -0.1820 H     1 <1>   0.0800 
@<TRIPOS>BOND
  1   1   2  1   
  2   1   3  1   
  3   2   4  ar  
  4   2   5  ar  
  5   3  26  1   
  6   3  27  1   
  7   3  28  1   
  8   4   6  ar  
  9   4   7  1   
 10   5   8  ar  
 11   5  29  1   
 12   6   9  ar  
 13   6  30  1   
 14   7  10  1   
 15   7  31  1   
 16   7  32  1   
 17   8   9  ar  
 18   8  11  1   
 19   9  33  1   
 20  10  12  1   
 21  10  13  1   
 22  10  34  1   
 23  11  14  1   
 24  12  15  1   
 25  12  35  1   
 26  12  36  1   
 27  13  16  1   
 28  13  37  1   
 29  13  38  1   
 30  14  39  1   
 31  14  40  1   
 32  14  41  1   
 33  15  17  1   
 34  15  42  1   
 35  15  43  1   
 36  16  17  1   
 37  16  44  1   
 38  16  45  1   
 39  17  18  1   
 40  18  19  ar  
 41  18  20  ar  
 42  19  21  ar  
 43  19  22  1   
 44  20  23  ar  
 45  20  46  1   
 46  21  24  ar  
 47  21  25  1   
 48  22  47  1   
 49  22  48  1   
 50  22  49  1   
 51  23  24  ar  
 52  23  50  1   
 53  24  51  1   
 54  25  52  1   
 55  25  53  1   
 56  25  54  1   
@<TRIPOS>SUBSTRUCTURE
  1 ****  12 GROUP 4 **** **** 0

# MOE 2024.06 (io_trps.svl 2023.06)
