@<TRIPOS>MOLECULE
NONAME
45 45 1 0 0 
SMALL
USER_CHARGES


@<TRIPOS>ATOM
  1 F       -2.2880     1.1850     1.5440 F     1 <1>  -0.1900 
  2 C       -1.3950     1.9410     0.9600 C.ar  1 <1>   0.1900 
  3 C       -1.6930     2.4830    -0.2850 C.ar  1 <1>  -0.1440 
  4 C       -0.2040     2.1780     1.6160 C.ar  1 <1>  -0.1500 
  5 C       -0.7480     3.3000    -0.8970 C.ar  1 <1>  -0.1500 
  6 C       -3.0190     2.1770    -0.9560 C.3   1 <1>   0.4870 
  7 C        0.7070     2.9960     0.9790 C.ar  1 <1>   0.1900 
  8 C        0.4590     3.5590    -0.2610 C.ar  1 <1>  -0.1500 
  9 N       -4.1270     2.6940    -0.0930 N.4   1 <1>  -0.9590 
 10 F        1.8430     3.2480     1.5670 F     1 <1>  -0.1900 
 11 C       -5.4350     2.0140    -0.4280 C.3   1 <1>   0.3430 
 12 C       -4.1470     4.1890    -0.1660 C.3   1 <1>   0.3430 
 13 C       -6.3500     1.7460     0.8050 C.3   1 <1>   0.3430 
 14 C       -5.0020     4.7760     0.9490 C.3   1 <1>  -0.2400 
 15 N       -7.6030     0.9460     0.5200 N.4   1 <1>  -0.9590 
 16 C       -7.3110    -0.4870     0.2130 C.3   1 <1>   0.3430 
 17 C       -8.5290     1.5530    -0.4890 C.3   1 <1>   0.3430 
 18 C       -8.5330    -1.3380     0.5340 C.3   1 <1>  -0.2400 
 19 C       -9.0440     2.8960     0.0150 C.3   1 <1>  -0.2400 
 20 H        0.0130     1.7500     2.5790 H     1 <1>   0.1500 
 21 H       -0.9260     3.7380    -1.8660 H     1 <1>   0.1500 
 22 H       -3.1010     1.1070    -1.0700 H     1 <1>   0.0800 
 23 H       -3.0560     2.6280    -1.9350 H     1 <1>   0.0800 
 24 H        1.2060     4.1880    -0.7170 H     1 <1>   0.1500 
 25 H       -3.8200     2.4400     0.8610 H     1 <1>   0.4500 
 26 H       -5.2190     1.0610    -0.8830 H     1 <1>   0.0800 
 27 H       -5.9700     2.6110    -1.1480 H     1 <1>   0.0800 
 28 H       -4.5150     4.5170    -1.1260 H     1 <1>   0.0800 
 29 H       -3.1420     4.5670    -0.0520 H     1 <1>   0.0800 
 30 H       -6.6380     2.6900     1.2320 H     1 <1>   0.0800 
 31 H       -5.7730     1.2180     1.5470 H     1 <1>   0.0800 
 32 H       -6.0490     4.6160     0.7730 H     1 <1>   0.0800 
 33 H       -4.8480     5.8410     0.9740 H     1 <1>   0.0800 
 34 H       -4.7150     4.3860     1.9090 H     1 <1>   0.0800 
 35 H       -8.1450     0.9200     1.4000 H     1 <1>   0.4500 
 36 H       -6.4890    -0.8320     0.8210 H     1 <1>   0.0800 
 37 H       -7.0410    -0.6070    -0.8250 H     1 <1>   0.0800 
 38 H       -9.3750     0.9020    -0.6440 H     1 <1>   0.0800 
 39 H       -8.0320     1.6770    -1.4380 H     1 <1>   0.0800 
 40 H       -8.8260    -1.2230     1.5630 H     1 <1>   0.0800 
 41 H       -8.2880    -2.3750     0.3800 H     1 <1>   0.0800 
 42 H       -9.3640    -1.1070    -0.1080 H     1 <1>   0.0800 
 43 H       -9.5200     2.7900     0.9740 H     1 <1>   0.0800 
 44 H       -9.7850     3.2640    -0.6740 H     1 <1>   0.0800 
 45 H       -8.2650     3.6320     0.0710 H     1 <1>   0.0800 
@<TRIPOS>BOND
  1   1   2  1   
  2   2   3  ar  
  3   2   4  ar  
  4   3   5  ar  
  5   3   6  1   
  6   4   7  ar  
  7   4  20  1   
  8   5   8  ar  
  9   5  21  1   
 10   6   9  1   
 11   6  22  1   
 12   6  23  1   
 13   7   8  ar  
 14   7  10  1   
 15   8  24  1   
 16   9  11  1   
 17   9  12  1   
 18   9  25  1   
 19  11  13  1   
 20  11  26  1   
 21  11  27  1   
 22  12  14  1   
 23  12  28  1   
 24  12  29  1   
 25  13  15  1   
 26  13  30  1   
 27  13  31  1   
 28  14  32  1   
 29  14  33  1   
 30  14  34  1   
 31  15  16  1   
 32  15  17  1   
 33  15  35  1   
 34  16  18  1   
 35  16  36  1   
 36  16  37  1   
 37  17  19  1   
 38  17  38  1   
 39  17  39  1   
 40  18  40  1   
 41  18  41  1   
 42  18  42  1   
 43  19  43  1   
 44  19  44  1   
 45  19  45  1   
@<TRIPOS>SUBSTRUCTURE
  1 ****   9 GROUP 4 **** **** 0

# MOE 2024.06 (io_trps.svl 2023.06)
