@<TRIPOS>MOLECULE
NONAME
33 34 1 0 0 
SMALL
USER_CHARGES


@<TRIPOS>ATOM
  1 F       -0.7250     1.8690    -0.1580 F     1 <1>  -0.3400 
  2 C       -1.7110     0.9960    -0.0160 C.3   1 <1>   1.3000 
  3 F       -1.7030     0.5750     1.2430 F     1 <1>  -0.3400 
  4 F       -1.4520    -0.0410    -0.8040 F     1 <1>  -0.3400 
  5 O       -2.9460     1.5980    -0.3480 O.3   1 <1>  -0.3630 
  6 C       -4.0540     0.8350    -0.2600 C.ar  1 <1>   0.0830 
  7 C       -4.4880     0.1180    -1.3630 C.ar  1 <1>  -0.1500 
  8 C       -4.7660     0.7840     0.9270 C.ar  1 <1>  -0.1500 
  9 C       -5.6300    -0.6580    -1.2750 C.ar  1 <1>  -0.1500 
 10 C       -5.9070     0.0070     1.0150 C.ar  1 <1>  -0.1500 
 11 C       -6.3480    -0.7150    -0.0870 C.ar  1 <1>  -0.1430 
 12 C       -7.6100    -1.5550     0.0000 C.3   1 <1>   0.4870 
 13 N       -8.7890    -0.6500     0.0370 N.4   1 <1>  -0.9590 
 14 C      -10.0910    -1.3640     0.2610 C.3   1 <1>   0.3430 
 15 C       -8.8800     0.2770    -1.1430 C.3   1 <1>   0.3430 
 16 C      -11.2890    -0.3860     0.2220 C.3   1 <1>   0.1200 
 17 C      -10.0960     1.2250    -1.0170 C.3   1 <1>   0.1200 
 18 O      -10.8510     0.9430     0.1330 O.3   1 <1>  -0.5600 
 19 H       -3.9320     0.1680    -2.2840 H     1 <1>   0.1500 
 20 H       -4.4250     1.3490     1.7780 H     1 <1>   0.1500 
 21 H       -5.9450    -1.2150    -2.1420 H     1 <1>   0.1500 
 22 H       -6.4390    -0.0260     1.9510 H     1 <1>   0.1500 
 23 H       -7.5750    -2.1570     0.8930 H     1 <1>   0.0800 
 24 H       -7.6710    -2.2120    -0.8520 H     1 <1>   0.0800 
 25 H       -8.6770    -0.0170     0.8410 H     1 <1>   0.4500 
 26 H      -10.0780    -1.8580     1.2190 H     1 <1>   0.0800 
 27 H      -10.2360    -2.1200    -0.4920 H     1 <1>   0.0800 
 28 H       -8.9710    -0.2910    -2.0530 H     1 <1>   0.0800 
 29 H       -7.9830     0.8700    -1.2200 H     1 <1>   0.0800 
 30 H      -11.8760    -0.4800     1.1190 H     1 <1>   0.0800 
 31 H      -11.9270    -0.5950    -0.6200 H     1 <1>   0.0800 
 32 H      -10.7360     1.1420    -1.8790 H     1 <1>   0.0800 
 33 H       -9.7620     2.2460    -0.9450 H     1 <1>   0.0800 
@<TRIPOS>BOND
  1   1   2  1   
  2   2   3  1   
  3   2   4  1   
  4   2   5  1   
  5   5   6  1   
  6   6   7  ar  
  7   6   8  ar  
  8   7   9  ar  
  9   7  19  1   
 10   8  10  ar  
 11   8  20  1   
 12   9  11  ar  
 13   9  21  1   
 14  10  11  ar  
 15  10  22  1   
 16  11  12  1   
 17  12  13  1   
 18  12  23  1   
 19  12  24  1   
 20  13  14  1   
 21  13  15  1   
 22  13  25  1   
 23  14  16  1   
 24  14  26  1   
 25  14  27  1   
 26  15  17  1   
 27  15  28  1   
 28  15  29  1   
 29  16  18  1   
 30  16  30  1   
 31  16  31  1   
 32  17  18  1   
 33  17  32  1   
 34  17  33  1   
@<TRIPOS>SUBSTRUCTURE
  1 ****  11 GROUP 4 **** **** 0

# MOE 2024.06 (io_trps.svl 2023.06)
