@<TRIPOS>MOLECULE
NONAME
52 53 1 0 0 
SMALL
USER_CHARGES


@<TRIPOS>ATOM
  1 O       -1.6700    -0.3230     1.5000 O.3   1 <1>  -0.3630 
  2 C       -2.1870     0.4440     0.4930 C.ar  1 <1>   0.0830 
  3 C       -0.3600    -0.8430     1.3840 C.3   1 <1>   0.0400 
  4 C       -3.4810     0.1630     0.0270 C.ar  1 <1>   0.0830 
  5 C       -1.4810     1.5320    -0.0420 C.ar  1 <1>   0.0820 
  6 O       -4.2530    -0.8830     0.4640 O.3   1 <1>  -0.3630 
  7 C       -4.0670     0.9840    -0.9320 C.ar  1 <1>  -0.1430 
  8 O       -0.2360     1.8250     0.4350 O.3   1 <1>  -0.3630 
  9 C       -2.0730     2.3120    -1.0330 C.ar  1 <1>  -0.1500 
 10 C       -3.6600    -2.1380     0.7450 C.3   1 <1>   0.0400 
 11 C       -3.3560     2.0440    -1.4690 C.ar  1 <1>  -0.1500 
 12 C       -5.4920     0.7300    -1.3780 C.3   1 <1>   0.4860 
 13 C        0.4770     2.9790     0.0450 C.3   1 <1>   0.0400 
 14 N       -6.3780     0.8520    -0.1760 N.4   1 <1>  -0.9590 
 15 C       -7.7340     0.2350    -0.3270 C.3   1 <1>   0.4230 
 16 C       -6.3700     2.2810     0.2940 C.3   1 <1>   0.2630 
 17 C       -8.5530     0.4230     0.9600 C.3   1 <1>  -0.1600 
 18 C       -7.6070    -1.2650    -0.6390 C.3   1 <1>  -0.1600 
 19 C       -9.9000    -0.2970     0.8970 C.3   1 <1>   0.3430 
 20 C       -8.9680    -1.9630    -0.6770 C.3   1 <1>   0.3430 
 21 N       -9.6930    -1.7410     0.6040 N.4   1 <1>  -0.9590 
 22 C      -11.0080    -2.4620     0.5900 C.3   1 <1>   0.2630 
 23 H        0.3340    -0.1320     1.7940 H     1 <1>   0.0800 
 24 H       -0.1410    -1.0330     0.3480 H     1 <1>   0.0800 
 25 H       -0.3100    -1.7580     1.9470 H     1 <1>   0.0800 
 26 H       -1.5510     3.1400    -1.4750 H     1 <1>   0.1500 
 27 H       -3.2930    -2.1320     1.7570 H     1 <1>   0.0800 
 28 H       -2.8530    -2.3140     0.0550 H     1 <1>   0.0800 
 29 H       -4.4060    -2.9040     0.6390 H     1 <1>   0.0800 
 30 H       -3.7860     2.6750    -2.2290 H     1 <1>   0.1500 
 31 H       -5.5370    -0.2630    -1.7910 H     1 <1>   0.0800 
 32 H       -5.7830     1.4370    -2.1380 H     1 <1>   0.0800 
 33 H        1.3970     3.0050     0.6010 H     1 <1>   0.0800 
 34 H       -0.1110     3.8500     0.2750 H     1 <1>   0.0800 
 35 H        0.6910     2.9210    -1.0080 H     1 <1>   0.0800 
 36 H       -5.8440     0.3050     0.5280 H     1 <1>   0.4500 
 37 H       -8.2530     0.7200    -1.1400 H     1 <1>   0.0800 
 38 H       -6.8890     2.9140    -0.4070 H     1 <1>   0.0800 
 39 H       -5.3560     2.6380     0.3920 H     1 <1>   0.0800 
 40 H       -6.8410     2.3680     1.2590 H     1 <1>   0.0800 
 41 H       -8.7640     1.4660     1.1160 H     1 <1>   0.0800 
 42 H       -8.0030     0.0600     1.8110 H     1 <1>   0.0800 
 43 H       -6.9890    -1.7490     0.0960 H     1 <1>   0.0800 
 44 H       -7.1570    -1.4110    -1.6030 H     1 <1>   0.0800 
 45 H      -10.5160     0.1470     0.1300 H     1 <1>   0.0800 
 46 H      -10.4120    -0.1840     1.8410 H     1 <1>   0.0800 
 47 H       -8.8250    -3.0210    -0.8390 H     1 <1>   0.0800 
 48 H       -9.5530    -1.5770    -1.4980 H     1 <1>   0.0800 
 49 H       -9.1360    -2.1530     1.3700 H     1 <1>   0.4500 
 50 H      -11.6440    -2.0780    -0.1930 H     1 <1>   0.0800 
 51 H      -11.5150    -2.3390     1.5340 H     1 <1>   0.0800 
 52 H      -10.8580    -3.5170     0.4220 H     1 <1>   0.0800 
@<TRIPOS>BOND
  1   1   2  1   
  2   1   3  1   
  3   2   4  ar  
  4   2   5  ar  
  5   3  23  1   
  6   3  24  1   
  7   3  25  1   
  8   4   6  1   
  9   4   7  ar  
 10   5   8  1   
 11   5   9  ar  
 12   6  10  1   
 13   7  11  ar  
 14   7  12  1   
 15   8  13  1   
 16   9  11  ar  
 17   9  26  1   
 18  10  27  1   
 19  10  28  1   
 20  10  29  1   
 21  11  30  1   
 22  12  14  1   
 23  12  31  1   
 24  12  32  1   
 25  13  33  1   
 26  13  34  1   
 27  13  35  1   
 28  14  15  1   
 29  14  16  1   
 30  14  36  1   
 31  15  17  1   
 32  15  18  1   
 33  15  37  1   
 34  16  38  1   
 35  16  39  1   
 36  16  40  1   
 37  17  19  1   
 38  17  41  1   
 39  17  42  1   
 40  18  20  1   
 41  18  43  1   
 42  18  44  1   
 43  19  21  1   
 44  19  45  1   
 45  19  46  1   
 46  20  21  1   
 47  20  47  1   
 48  20  48  1   
 49  21  22  1   
 50  21  49  1   
 51  22  50  1   
 52  22  51  1   
 53  22  52  1   
@<TRIPOS>SUBSTRUCTURE
  1 ****   6 GROUP 4 **** **** 0

# MOE 2024.06 (io_trps.svl 2023.06)
