@<TRIPOS>MOLECULE
NONAME
30 30 1 0 0 
SMALL
USER_CHARGES


@<TRIPOS>ATOM
  1 S        2.1970     1.1750     2.3930 S.2   1 <1>  -0.6770 
  2 P        1.9730     0.6810     0.5350 P.3   1 <1>   0.6770 
  3 C        1.4770     2.0270    -0.5050 C.3   1 <1>  -0.0170 
  4 C        3.4740     0.0570    -0.1750 C.3   1 <1>  -0.1600 
  5 C        0.7590    -0.5930     0.3010 C.3   1 <1>  -0.1600 
  6 C        0.0090     2.4130    -0.3770 C.ar  1 <1>  -0.1440 
  7 C        4.6460     1.0510    -0.1940 C.3   1 <1>  -0.2400 
  8 C        1.0420    -1.9100     1.0390 C.3   1 <1>  -0.2400 
  9 C       -0.4580     2.9880     0.7940 C.ar  1 <1>  -0.1500 
 10 C       -0.8760     2.1870    -1.4220 C.ar  1 <1>  -0.1500 
 11 C       -1.7930     3.3320     0.9220 C.ar  1 <1>  -0.1500 
 12 C       -2.2110     2.5310    -1.2950 C.ar  1 <1>  -0.1500 
 13 C       -2.6700     3.1030    -0.1220 C.ar  1 <1>  -0.1500 
 14 H        1.6660     1.7940    -1.5360 H     1 <1>   0.0800 
 15 H        2.0610     2.9020    -0.2870 H     1 <1>   0.0800 
 16 H        3.3120    -0.2760    -1.1840 H     1 <1>   0.0800 
 17 H        3.8060    -0.8030     0.3780 H     1 <1>   0.0800 
 18 H        0.6400    -0.8200    -0.7420 H     1 <1>   0.0800 
 19 H       -0.1980    -0.2420     0.6440 H     1 <1>   0.0800 
 20 H        4.4150     1.9100    -0.7980 H     1 <1>   0.0800 
 21 H        5.5260     0.5790    -0.5950 H     1 <1>   0.0800 
 22 H        4.8670     1.3830     0.8070 H     1 <1>   0.0800 
 23 H        1.9480    -2.3660     0.6830 H     1 <1>   0.0800 
 24 H        0.2300    -2.6010     0.8870 H     1 <1>   0.0800 
 25 H        1.1390    -1.7290     2.0970 H     1 <1>   0.0800 
 26 H        0.2130     3.1690     1.6180 H     1 <1>   0.1500 
 27 H       -0.5370     1.7440    -2.3420 H     1 <1>   0.1500 
 28 H       -2.1460     3.7750     1.8370 H     1 <1>   0.1500 
 29 H       -2.8930     2.3550    -2.1080 H     1 <1>   0.1500 
 30 H       -3.7080     3.3710    -0.0220 H     1 <1>   0.1500 
@<TRIPOS>BOND
  1   1   2  2   
  2   2   3  1   
  3   2   4  1   
  4   2   5  1   
  5   3   6  1   
  6   3  14  1   
  7   3  15  1   
  8   4   7  1   
  9   4  16  1   
 10   4  17  1   
 11   5   8  1   
 12   5  18  1   
 13   5  19  1   
 14   6   9  ar  
 15   6  10  ar  
 16   7  20  1   
 17   7  21  1   
 18   7  22  1   
 19   8  23  1   
 20   8  24  1   
 21   8  25  1   
 22   9  11  ar  
 23   9  26  1   
 24  10  12  ar  
 25  10  27  1   
 26  11  13  ar  
 27  11  28  1   
 28  12  13  ar  
 29  12  29  1   
 30  13  30  1   
@<TRIPOS>SUBSTRUCTURE
  1 ****   6 GROUP 4 **** **** 0

# MOE 2024.06 (io_trps.svl 2023.06)
