@<TRIPOS>MOLECULE
NONAME
53 57 1 0 0 
SMALL
USER_CHARGES


@<TRIPOS>ATOM
  1 S        0.7650     0.4230     2.0720 S.o2  1 <1>   1.4470 
  2 O        1.7300     1.1940     2.8240 O.2   1 <1>  -0.6500 
  3 O        0.0760    -0.6460     2.7570 O.2   1 <1>  -0.6500 
  4 N        1.6170    -0.4090     0.8830 N.am  1 <1>  -0.9140 
  5 C       -0.4530     1.4630     1.2140 C.ar  1 <1>  -0.0090 
  6 C        2.8540     0.2390     0.4030 C.3   1 <1>   0.1960 
  7 C       -1.2050     0.9670     0.1560 C.ar  1 <1>  -0.1500 
  8 C       -0.6760     2.7780     1.6040 C.ar  1 <1>  -0.1500 
  9 C        2.6440     1.4560    -0.5290 C.3   1 <1>   0.4180 
 10 C       -2.1370     1.7560    -0.4970 C.ar  1 <1>  -0.1500 
 11 C       -1.6060     3.5730     0.9570 C.ar  1 <1>  -0.1500 
 12 O        2.0410     2.5530     0.0870 O.3   1 <1>  -0.5600 
 13 C        1.6580     1.3420    -1.6780 C.2   1 <1>  -0.2880 
 14 C        3.8830     2.0950    -1.1790 C.3   1 <1>  -0.0190 
 15 C       -2.3410     3.0660    -0.1010 C.ar  1 <1>  -0.1430 
 16 C        2.0060     3.4810    -0.9580 C.3   1 <1>   0.3380 
 17 C        1.3130     2.5920    -1.9780 C.2   1 <1>  -0.2880 
 18 C        5.3580     2.1960    -0.9520 C.2   1 <1>   0.5690 
 19 C        3.5220     3.5770    -1.0820 C.3   1 <1>  -0.0190 
 20 C       -3.3640     3.9310    -0.8140 C.3   1 <1>  -0.0970 
 21 O        6.0340     1.3610    -0.4110 O.2   1 <1>  -0.5700 
 22 N        5.7630     3.3650    -1.5460 N.am  1 <1>  -0.4200 
 23 C        4.6800     4.1560    -1.8380 C.2   1 <1>   0.5690 
 24 C        7.1530     3.8410    -1.5900 C.3   1 <1>   0.2840 
 25 O        4.6590     5.1520    -2.5120 O.2   1 <1>  -0.5700 
 26 C        7.4310     4.6340    -0.3250 C.ar  1 <1>  -0.1430 
 27 C        7.8990     3.9940     0.8130 C.ar  1 <1>  -0.1500 
 28 C        7.2040     6.0020    -0.2940 C.ar  1 <1>  -0.1500 
 29 C        8.1440     4.7160     1.9680 C.ar  1 <1>  -0.1500 
 30 C        7.4490     6.7240     0.8610 C.ar  1 <1>  -0.1500 
 31 C        7.9200     6.0810     1.9930 C.ar  1 <1>  -0.1500 
 32 H        1.8710    -1.2650     1.3720 H     1 <1>   0.4200 
 33 H        3.4070    -0.4940    -0.1580 H     1 <1>   0.0800 
 34 H        3.4770     0.5310     1.2310 H     1 <1>   0.0800 
 35 H       -1.0550    -0.0500    -0.1620 H     1 <1>   0.1500 
 36 H       -0.1060     3.1850     2.4210 H     1 <1>   0.1500 
 37 H       -2.7010     1.3440    -1.3150 H     1 <1>   0.1500 
 38 H       -1.7540     4.5880     1.2830 H     1 <1>   0.1500 
 39 H        1.3960     0.3880    -2.0990 H     1 <1>   0.1500 
 40 H        3.8590     1.7790    -2.2100 H     1 <1>   0.0800 
 41 H        1.4760     4.3660    -0.6460 H     1 <1>   0.0800 
 42 H        0.6720     3.0090    -2.7350 H     1 <1>   0.1500 
 43 H        3.7770     3.9410    -0.0960 H     1 <1>   0.0800 
 44 H       -4.3340     3.7800    -0.3780 H     1 <1>   0.0800 
 45 H       -3.4080     3.6760    -1.8580 H     1 <1>   0.0800 
 46 H       -3.1040     4.9710    -0.7310 H     1 <1>   0.0800 
 47 H        7.2930     4.4610    -2.4590 H     1 <1>   0.0800 
 48 H        7.8220     3.0000    -1.6580 H     1 <1>   0.0800 
 49 H        8.0690     2.9300     0.8070 H     1 <1>   0.1500 
 50 H        6.8300     6.5100    -1.1670 H     1 <1>   0.1500 
 51 H        8.5070     4.2140     2.8480 H     1 <1>   0.1500 
 52 H        7.2720     7.7850     0.8800 H     1 <1>   0.1500 
 53 H        8.1100     6.6410     2.8910 H     1 <1>   0.1500 
@<TRIPOS>BOND
  1   1   2  2   
  2   1   3  2   
  3   1   4  am  
  4   1   5  1   
  5   4   6  1   
  6   4  32  1   
  7   5   7  ar  
  8   5   8  ar  
  9   6   9  1   
 10   6  33  1   
 11   6  34  1   
 12   7  10  ar  
 13   7  35  1   
 14   8  11  ar  
 15   8  36  1   
 16   9  12  1   
 17   9  13  1   
 18   9  14  1   
 19  10  15  ar  
 20  10  37  1   
 21  11  15  ar  
 22  11  38  1   
 23  12  16  1   
 24  13  17  2   
 25  13  39  1   
 26  14  18  1   
 27  14  19  1   
 28  14  40  1   
 29  15  20  1   
 30  16  17  1   
 31  16  19  1   
 32  16  41  1   
 33  17  42  1   
 34  18  21  2   
 35  18  22  am  
 36  19  23  1   
 37  19  43  1   
 38  20  44  1   
 39  20  45  1   
 40  20  46  1   
 41  22  23  am  
 42  22  24  1   
 43  23  25  2   
 44  24  26  1   
 45  24  47  1   
 46  24  48  1   
 47  26  27  ar  
 48  26  28  ar  
 49  27  29  ar  
 50  27  49  1   
 51  28  30  ar  
 52  28  50  1   
 53  29  31  ar  
 54  29  51  1   
 55  30  31  ar  
 56  30  52  1   
 57  31  53  1   
@<TRIPOS>SUBSTRUCTURE
  1 ****  12 GROUP 4 **** **** 0

# MOE 2024.06 (io_trps.svl 2023.06)
