@<TRIPOS>MOLECULE
NONAME
35 36 1 0 0 
SMALL
USER_CHARGES


@<TRIPOS>ATOM
  1 BR       0.5240     0.1110    -1.7800 Br    1 <1>  -0.1110 
  2 C       -0.9080     0.8850    -0.7400 C.ar  1 <1>   0.1110 
  3 C       -0.7430     2.1300    -0.1410 C.ar  1 <1>   0.0820 
  4 C       -2.0830     0.1680    -0.6210 C.ar  1 <1>  -0.1500 
  5 O        0.4060     2.8330    -0.2560 O.3   1 <1>  -0.3630 
  6 C       -1.7980     2.6690     0.5780 C.ar  1 <1>  -0.1500 
  7 C       -3.1270     0.7140     0.1100 C.ar  1 <1>  -0.1500 
  8 C        1.4810     2.4210     0.5490 C.3   1 <1>   0.1200 
  9 C       -2.9830     1.9600     0.7040 C.ar  1 <1>  -0.1500 
 10 C        2.7630     2.8690    -0.1500 C.3   1 <1>  -0.1600 
 11 C        3.9940     2.3850     0.6110 C.3   1 <1>   0.3430 
 12 N        5.2270     2.7050    -0.1580 N.4   1 <1>  -0.9590 
 13 C        6.4440     2.0790     0.4130 C.3   1 <1>   0.3430 
 14 C        5.5280     4.1560    -0.2600 C.3   1 <1>   0.3430 
 15 C        7.5950     2.8640    -0.2010 C.3   1 <1>  -0.1600 
 16 C        7.0050     4.2120    -0.6240 C.3   1 <1>  -0.1600 
 17 H       -2.1820    -0.7930    -1.0930 H     1 <1>   0.1500 
 18 H       -1.6920     3.6380     1.0320 H     1 <1>   0.1500 
 19 H       -4.0520     0.1730     0.2140 H     1 <1>   0.1500 
 20 H        1.4510     1.3490     0.6540 H     1 <1>   0.0800 
 21 H        1.3670     2.8820     1.5160 H     1 <1>   0.0800 
 22 H       -3.8000     2.3820     1.2650 H     1 <1>   0.1500 
 23 H        2.7580     3.9420    -0.2120 H     1 <1>   0.0800 
 24 H        2.7680     2.4510    -1.1420 H     1 <1>   0.0800 
 25 H        3.9240     1.3180     0.7480 H     1 <1>   0.0800 
 26 H        4.0320     2.8490     1.5840 H     1 <1>   0.0800 
 27 H        5.1210     2.3470    -1.1180 H     1 <1>   0.4500 
 28 H        6.5050     1.0290     0.1760 H     1 <1>   0.0800 
 29 H        6.4540     2.2080     1.4840 H     1 <1>   0.0800 
 30 H        5.3750     4.6290     0.6970 H     1 <1>   0.0800 
 31 H        4.9140     4.6410    -1.0030 H     1 <1>   0.0800 
 32 H        7.9790     2.3370    -1.0580 H     1 <1>   0.0800 
 33 H        8.3930     2.9810     0.5120 H     1 <1>   0.0800 
 34 H        7.4840     5.0340    -0.1200 H     1 <1>   0.0800 
 35 H        7.1150     4.3550    -1.6860 H     1 <1>   0.0800 
@<TRIPOS>BOND
  1   1   2  1   
  2   2   3  ar  
  3   2   4  ar  
  4   3   5  1   
  5   3   6  ar  
  6   4   7  ar  
  7   4  17  1   
  8   5   8  1   
  9   6   9  ar  
 10   6  18  1   
 11   7   9  ar  
 12   7  19  1   
 13   8  10  1   
 14   8  20  1   
 15   8  21  1   
 16   9  22  1   
 17  10  11  1   
 18  10  23  1   
 19  10  24  1   
 20  11  12  1   
 21  11  25  1   
 22  11  26  1   
 23  12  13  1   
 24  12  14  1   
 25  12  27  1   
 26  13  15  1   
 27  13  28  1   
 28  13  29  1   
 29  14  16  1   
 30  14  30  1   
 31  14  31  1   
 32  15  16  1   
 33  15  32  1   
 34  15  33  1   
 35  16  34  1   
 36  16  35  1   
@<TRIPOS>SUBSTRUCTURE
  1 ****   8 GROUP 4 **** **** 0

# MOE 2024.06 (io_trps.svl 2023.06)
