@<TRIPOS>MOLECULE
NONAME
33 34 1 0 0 
SMALL
USER_CHARGES


@<TRIPOS>ATOM
  1 O       -0.2450     0.7780     1.4830 O.3   1 <1>  -0.6800 
  2 C       -0.3320     1.8350     0.5960 C.3   1 <1>   0.1200 
  3 C        1.0420     2.5230     0.5070 C.3   1 <1>  -0.0800 
  4 C        1.0400     3.6960    -0.5090 C.3   1 <1>   0.5670 
  5 C        2.1260     1.4690     0.1810 C.3   1 <1>   0.1200 
  6 N        2.2490     4.5340    -0.3410 N.4   1 <1>  -0.9060 
  7 C       -0.1860     4.6060    -0.4390 C.ar  1 <1>  -0.1440 
  8 O        3.3610     2.0680    -0.0490 O.3   1 <1>  -0.6800 
  9 C        2.2560     5.3230     0.9200 C.3   1 <1>   0.3430 
 10 C       -0.1690     5.8040     0.2710 C.ar  1 <1>  -0.1440 
 11 C       -1.3420     4.2400    -1.1190 C.ar  1 <1>  -0.1500 
 12 C        1.0920     6.3160     0.9560 C.3   1 <1>  -0.0170 
 13 C       -1.3100     6.5870     0.3310 C.ar  1 <1>  -0.1500 
 14 C       -2.4760     5.0290    -1.0590 C.ar  1 <1>  -0.1500 
 15 C       -2.4620     6.2000    -0.3270 C.ar  1 <1>  -0.1500 
 16 H       -1.1220     0.3670     1.6370 H     1 <1>   0.4000 
 17 H       -1.0840     2.5120     0.9710 H     1 <1>   0.0800 
 18 H       -0.6420     1.4420    -0.3580 H     1 <1>   0.0800 
 19 H        1.2280     2.9060     1.4920 H     1 <1>   0.0800 
 20 H        1.0620     3.2630    -1.4960 H     1 <1>   0.0800 
 21 H        1.8610     0.9050    -0.6980 H     1 <1>   0.0800 
 22 H        2.2400     0.7840     1.0060 H     1 <1>   0.0800 
 23 H        2.3350     5.1490    -1.1550 H     1 <1>   0.4500 
 24 H        3.0350     3.8570    -0.3360 H     1 <1>   0.4500 
 25 H        4.0590     1.3740    -0.0880 H     1 <1>   0.4000 
 26 H        3.1880     5.8580     1.0190 H     1 <1>   0.0800 
 27 H        2.1720     4.6560     1.7620 H     1 <1>   0.0800 
 28 H       -1.3820     3.3380    -1.7050 H     1 <1>   0.1500 
 29 H        1.4000     7.2240     0.4680 H     1 <1>   0.0800 
 30 H        0.8760     6.5620     1.9810 H     1 <1>   0.0800 
 31 H       -1.3120     7.5120     0.8840 H     1 <1>   0.1500 
 32 H       -3.3710     4.7360    -1.5810 H     1 <1>   0.1500 
 33 H       -3.3460     6.8140    -0.2750 H     1 <1>   0.1500 
@<TRIPOS>BOND
  1   1   2  1   
  2   1  16  1   
  3   2   3  1   
  4   2  17  1   
  5   2  18  1   
  6   3   4  1   
  7   3   5  1   
  8   3  19  1   
  9   4   6  1   
 10   4   7  1   
 11   4  20  1   
 12   5   8  1   
 13   5  21  1   
 14   5  22  1   
 15   6   9  1   
 16   6  23  1   
 17   6  24  1   
 18   7  10  ar  
 19   7  11  ar  
 20   8  25  1   
 21   9  12  1   
 22   9  26  1   
 23   9  27  1   
 24  10  12  1   
 25  10  13  ar  
 26  11  14  ar  
 27  11  28  1   
 28  12  29  1   
 29  12  30  1   
 30  13  15  ar  
 31  13  31  1   
 32  14  15  ar  
 33  14  32  1   
 34  15  33  1   
@<TRIPOS>SUBSTRUCTURE
  1 ****   7 GROUP 4 **** **** 0

# MOE 2024.06 (io_trps.svl 2023.06)
