@<TRIPOS>MOLECULE
NONAME
42 43 1 0 0 
SMALL
USER_CHARGES


@<TRIPOS>ATOM
  1 O        0.3370    -3.4900    -0.9560 O.2   1 <1>  -0.5700 
  2 C       -0.0980    -2.5150    -0.3910 C.2   1 <1>   0.5690 
  3 N        0.6760    -1.4460    -0.0860 N.am  1 <1>  -0.7300 
  4 C       -1.5620    -2.4800     0.0100 C.3   1 <1>   0.0440 
  5 C        2.0910    -1.2670    -0.4270 C.3   1 <1>   0.2200 
  6 C       -2.2800    -1.2300    -0.5030 C.ar  1 <1>  -0.1440 
  7 C        2.8820    -1.0300     0.8620 C.3   1 <1>  -0.1600 
  8 C        2.2170    -0.0780    -1.3840 C.3   1 <1>  -0.1600 
  9 C       -2.1970    -0.0120     0.1720 C.ar  1 <1>   0.0830 
 10 C       -3.0280    -1.3150    -1.6670 C.ar  1 <1>  -0.1500 
 11 C        4.3560    -0.7160     0.5600 C.3   1 <1>  -0.1600 
 12 C        3.6900     0.2370    -1.6880 C.3   1 <1>  -0.1600 
 13 O       -1.4390     0.0390     1.3010 O.3   1 <1>  -0.3630 
 14 C       -2.8740     1.0990    -0.3260 C.ar  1 <1>  -0.1500 
 15 C       -3.6960    -0.2070    -2.1580 C.ar  1 <1>  -0.1500 
 16 C        4.4890     0.4800    -0.3970 C.3   1 <1>  -0.0800 
 17 C       -1.3880     1.1940     2.1100 C.3   1 <1>   0.0400 
 18 C       -3.6210     0.9990    -1.4860 C.ar  1 <1>  -0.1500 
 19 C        5.9630     0.7430    -0.7220 C.3   1 <1>  -0.2400 
 20 H        0.2120    -0.6450     0.3560 H     1 <1>   0.3700 
 21 H       -1.6230    -2.5270     1.0810 H     1 <1>   0.0800 
 22 H       -2.0430    -3.3600    -0.3740 H     1 <1>   0.0800 
 23 H        2.4610    -2.1550    -0.9140 H     1 <1>   0.0800 
 24 H        2.8250    -1.9100     1.4780 H     1 <1>   0.0800 
 25 H        2.4520    -0.2050     1.4020 H     1 <1>   0.0800 
 26 H        1.7560     0.7890    -0.9440 H     1 <1>   0.0800 
 27 H        1.7050    -0.3080    -2.3020 H     1 <1>   0.0800 
 28 H       -3.0920    -2.2470    -2.2030 H     1 <1>   0.1500 
 29 H        4.8150    -1.5840     0.1170 H     1 <1>   0.0800 
 30 H        4.8700    -0.5050     1.4810 H     1 <1>   0.0800 
 31 H        3.7440     1.1070    -2.3190 H     1 <1>   0.0800 
 32 H        4.1210    -0.5890    -2.2280 H     1 <1>   0.0800 
 33 H       -2.8320     2.0500     0.1690 H     1 <1>   0.1500 
 34 H       -4.2740    -0.2860    -3.0630 H     1 <1>   0.1500 
 35 H        4.0900     1.3540     0.0920 H     1 <1>   0.0800 
 36 H       -0.7710     0.9790     2.9630 H     1 <1>   0.0800 
 37 H       -2.3850     1.4370     2.4330 H     1 <1>   0.0800 
 38 H       -0.9600     2.0010     1.5420 H     1 <1>   0.0800 
 39 H       -4.1420     1.8590    -1.8690 H     1 <1>   0.1500 
 40 H        6.4020    -0.1080    -1.2130 H     1 <1>   0.0800 
 41 H        6.5140     0.9410     0.1800 H     1 <1>   0.0800 
 42 H        6.0550     1.5980    -1.3690 H     1 <1>   0.0800 
@<TRIPOS>BOND
  1   1   2  2   
  2   2   3  am  
  3   2   4  1   
  4   3   5  1   
  5   3  20  1   
  6   4   6  1   
  7   4  21  1   
  8   4  22  1   
  9   5   7  1   
 10   5   8  1   
 11   5  23  1   
 12   6   9  ar  
 13   6  10  ar  
 14   7  11  1   
 15   7  24  1   
 16   7  25  1   
 17   8  12  1   
 18   8  26  1   
 19   8  27  1   
 20   9  13  1   
 21   9  14  ar  
 22  10  15  ar  
 23  10  28  1   
 24  11  16  1   
 25  11  29  1   
 26  11  30  1   
 27  12  16  1   
 28  12  31  1   
 29  12  32  1   
 30  13  17  1   
 31  14  18  ar  
 32  14  33  1   
 33  15  18  ar  
 34  15  34  1   
 35  16  19  1   
 36  16  35  1   
 37  17  36  1   
 38  17  37  1   
 39  17  38  1   
 40  18  39  1   
 41  19  40  1   
 42  19  41  1   
 43  19  42  1   
@<TRIPOS>SUBSTRUCTURE
  1 ****   3 GROUP 4 **** **** 0

# MOE 2024.06 (io_trps.svl 2023.06)
