@<TRIPOS>MOLECULE
NONAME
41 43 1 0 0 
SMALL
USER_CHARGES


@<TRIPOS>ATOM
  1 O       -0.3990    -0.3320    -1.6000 O.2   1 <1>  -0.5700 
  2 C       -1.4180    -0.2930    -0.9550 C.2   1 <1>   0.4950 
  3 C       -2.0120    -1.4150    -0.3110 C.2   1 <1>  -0.1240 
  4 C       -2.1150     1.0530    -0.8260 C.3   1 <1>  -0.0990 
  5 C       -3.2170    -1.3700     0.3080 C.2   1 <1>  -0.0380 
  6 C       -1.2080    -2.7190    -0.3220 C.3   1 <1>   0.3760 
  7 C       -3.6410     0.9000    -0.7180 C.3   1 <1>  -0.1600 
  8 N       -3.7680    -2.4840     0.8880 N.pl3 1 <1>  -0.6000 
  9 C       -4.0360    -0.0900     0.3890 C.3   1 <1>  -0.0220 
 10 C       -2.0200    -3.9400     0.1420 C.2   1 <1>  -0.1240 
 11 C        0.0020    -2.5680     0.6020 C.2   1 <1>  -0.0400 
 12 C       -3.2310    -3.7440     0.7370 C.2   1 <1>  -0.0380 
 13 C       -1.3640    -5.1930    -0.0880 C.2   1 <1>   0.7060 
 14 O        1.0670    -3.3230     0.4000 O.3   1 <1>  -0.2800 
 15 C        0.2040    -1.7550     1.6650 C.2   1 <1>  -0.1500 
 16 C       -4.1390    -4.8390     1.2750 C.3   1 <1>  -0.1020 
 17 O       -1.4700    -6.1580     0.6470 O.2   1 <1>  -0.5700 
 18 O       -0.6140    -5.3160    -1.1920 O.3   1 <1>  -0.4300 
 19 C        1.9610    -3.0130     1.3160 C.2   1 <1>  -0.0100 
 20 C        1.4910    -2.0470     2.1320 C.2   1 <1>  -0.1500 
 21 C        0.1210    -6.4820    -1.5000 C.3   1 <1>   0.1200 
 22 C        1.4700    -6.4210    -0.7850 C.3   1 <1>  -0.2400 
 23 H       -1.8730     1.6560    -1.6830 H     1 <1>   0.0800 
 24 H       -1.7310     1.5470     0.0470 H     1 <1>   0.0800 
 25 H       -0.8610    -2.8720    -1.3290 H     1 <1>   0.0800 
 26 H       -4.0160     0.5310    -1.6580 H     1 <1>   0.0800 
 27 H       -4.0960     1.8580    -0.5340 H     1 <1>   0.0800 
 28 H       -4.6650    -2.3980     1.3810 H     1 <1>   0.4000 
 29 H       -3.8810     0.3590     1.3550 H     1 <1>   0.0800 
 30 H       -5.0830    -0.3180     0.2900 H     1 <1>   0.0800 
 31 H       -0.4630    -1.0280     2.0920 H     1 <1>   0.1500 
 32 H       -5.1550    -4.6600     0.9720 H     1 <1>   0.0800 
 33 H       -4.0930    -4.8530     2.3490 H     1 <1>   0.0800 
 34 H       -3.8660    -5.8110     0.9100 H     1 <1>   0.0800 
 35 H        2.9050    -3.5280     1.3130 H     1 <1>   0.1500 
 36 H        1.9730    -1.5790     2.9720 H     1 <1>   0.1500 
 37 H        0.2650    -6.5020    -2.5660 H     1 <1>   0.0800 
 38 H       -0.4440    -7.3510    -1.2070 H     1 <1>   0.0800 
 39 H        2.0120    -5.5450    -1.0930 H     1 <1>   0.0800 
 40 H        2.0510    -7.2910    -1.0310 H     1 <1>   0.0800 
 41 H        1.3250    -6.3970     0.2800 H     1 <1>   0.0800 
@<TRIPOS>BOND
  1   1   2  2   
  2   2   3  1   
  3   2   4  1   
  4   3   5  2   
  5   3   6  1   
  6   4   7  1   
  7   4  23  1   
  8   4  24  1   
  9   5   8  1   
 10   5   9  1   
 11   6  10  1   
 12   6  11  1   
 13   6  25  1   
 14   7   9  1   
 15   7  26  1   
 16   7  27  1   
 17   8  12  1   
 18   8  28  1   
 19   9  29  1   
 20   9  30  1   
 21  10  12  2   
 22  10  13  1   
 23  11  14  1   
 24  11  15  2   
 25  12  16  1   
 26  13  17  2   
 27  13  18  1   
 28  14  19  1   
 29  15  20  1   
 30  15  31  1   
 31  16  32  1   
 32  16  33  1   
 33  16  34  1   
 34  18  21  1   
 35  19  20  2   
 36  19  35  1   
 37  20  36  1   
 38  21  22  1   
 39  21  37  1   
 40  21  38  1   
 41  22  39  1   
 42  22  40  1   
 43  22  41  1   
@<TRIPOS>SUBSTRUCTURE
  1 ****   6 GROUP 4 **** **** 0

# MOE 2024.06 (io_trps.svl 2023.06)
