@<TRIPOS>MOLECULE
NONAME
46 48 1 0 0 
SMALL
USER_CHARGES


@<TRIPOS>ATOM
  1 O       -2.2390    -2.0280     1.0720 O.co2 1 <1>  -0.9000 
  2 C       -3.2540    -1.3740     1.3230 C.2   1 <1>   0.9060 
  3 O       -4.1750    -1.8630     1.9880 O.co2 1 <1>  -0.9000 
  4 C       -3.4130     0.0630     0.8330 C.3   1 <1>  -0.1860 
  5 C       -4.5220     0.1990    -0.2490 C.3   1 <1>  -0.0190 
  6 C       -2.1030     0.7300     0.3650 C.3   1 <1>  -0.1600 
  7 C       -4.5640    -0.9960    -1.2190 C.2   1 <1>   0.5690 
  8 C       -4.4360     1.5390    -1.0270 C.3   1 <1>  -0.1600 
  9 C       -2.2870     2.2400     0.1150 C.3   1 <1>  -0.1600 
 10 O       -3.6980    -1.1300    -2.0520 O.2   1 <1>  -0.5700 
 11 N       -5.5730    -1.9030    -1.1700 N.am  1 <1>  -0.5470 
 12 C       -3.7380     2.6380    -0.2170 C.3   1 <1>  -0.1600 
 13 C       -6.8020    -1.8660    -0.4900 C.ar  1 <1>   0.1170 
 14 C       -7.0580    -2.7410     0.5740 C.ar  1 <1>   0.1000 
 15 C       -7.7860    -0.9730    -0.8890 C.ar  1 <1>  -0.1500 
 16 N       -6.0690    -3.6140     1.0360 N.pl3 1 <1>  -0.6000 
 17 C       -8.2940    -2.7070     1.2010 C.ar  1 <1>  -0.1500 
 18 C       -9.0160    -0.9450    -0.2540 C.ar  1 <1>  -0.1500 
 19 C       -5.5950    -4.7060     0.3170 C.ar  1 <1>   0.1000 
 20 C       -9.2710    -1.8160     0.7920 C.ar  1 <1>  -0.1500 
 21 C       -6.4560    -5.5610    -0.3600 C.ar  1 <1>  -0.1500 
 22 C       -4.2280    -4.9390     0.2520 C.ar  1 <1>  -0.1500 
 23 C       -5.9600    -6.6290    -1.0880 C.ar  1 <1>  -0.1500 
 24 C       -3.7280    -6.0030    -0.4760 C.ar  1 <1>  -0.1500 
 25 C       -4.5940    -6.8510    -1.1470 C.ar  1 <1>  -0.1500 
 26 H       -3.7390     0.6040     1.7010 H     1 <1>   0.0800 
 27 H       -5.4470     0.2080     0.2970 H     1 <1>   0.0800 
 28 H       -1.7850     0.2440    -0.5420 H     1 <1>   0.0800 
 29 H       -1.3310     0.5700     1.0980 H     1 <1>   0.0800 
 30 H       -5.4260     1.8530    -1.3040 H     1 <1>   0.0800 
 31 H       -3.8760     1.3960    -1.9350 H     1 <1>   0.0800 
 32 H       -1.6410     2.5270    -0.6960 H     1 <1>   0.0800 
 33 H       -1.9740     2.7850     0.9880 H     1 <1>   0.0800 
 34 H       -5.2470    -2.8430    -1.4050 H     1 <1>   0.3700 
 35 H       -4.2840     2.7960     0.6970 H     1 <1>   0.0800 
 36 H       -3.7410     3.5630    -0.7670 H     1 <1>   0.0800 
 37 H       -7.5830    -0.3030    -1.7040 H     1 <1>   0.1500 
 38 H       -5.2980    -3.0810     1.5130 H     1 <1>   0.4000 
 39 H       -8.4730    -3.3800     2.0190 H     1 <1>   0.1500 
 40 H       -9.7720    -0.2490    -0.5730 H     1 <1>   0.1500 
 41 H      -10.2250    -1.8000     1.2900 H     1 <1>   0.1500 
 42 H       -7.5130    -5.3790    -0.3100 H     1 <1>   0.1500 
 43 H       -3.5540    -4.2710     0.7690 H     1 <1>   0.1500 
 44 H       -6.6360    -7.2840    -1.6080 H     1 <1>   0.1500 
 45 H       -2.6650    -6.1600    -0.5170 H     1 <1>   0.1500 
 46 H       -4.2040    -7.6780    -1.7130 H     1 <1>   0.1500 
@<TRIPOS>BOND
  1   1   2  ar  
  2   2   3  ar  
  3   2   4  1   
  4   4   5  1   
  5   4   6  1   
  6   4  26  1   
  7   5   7  1   
  8   5   8  1   
  9   5  27  1   
 10   6   9  1   
 11   6  28  1   
 12   6  29  1   
 13   7  10  2   
 14   7  11  am  
 15   8  12  1   
 16   8  30  1   
 17   8  31  1   
 18   9  12  1   
 19   9  32  1   
 20   9  33  1   
 21  11  13  1   
 22  11  34  1   
 23  12  35  1   
 24  12  36  1   
 25  13  14  ar  
 26  13  15  ar  
 27  14  16  1   
 28  14  17  ar  
 29  15  18  ar  
 30  15  37  1   
 31  16  19  1   
 32  16  38  1   
 33  17  20  ar  
 34  17  39  1   
 35  18  20  ar  
 36  18  40  1   
 37  19  21  ar  
 38  19  22  ar  
 39  20  41  1   
 40  21  23  ar  
 41  21  42  1   
 42  22  24  ar  
 43  22  43  1   
 44  23  25  ar  
 45  23  44  1   
 46  24  25  ar  
 47  24  45  1   
 48  25  46  1   
@<TRIPOS>SUBSTRUCTURE
  1 ****  11 GROUP 4 **** **** 0

# MOE 2024.06 (io_trps.svl 2023.06)
