@<TRIPOS>MOLECULE
NONAME
63 64 1 0 0 
SMALL
USER_CHARGES


@<TRIPOS>ATOM
  1 O        0.9330     6.8700     0.0650 O.3   1 <1>  -0.5600 
  2 C        2.0080     7.7400     0.2190 C.3   1 <1>   0.2000 
  3 C       -0.3030     7.4790    -0.1560 C.3   1 <1>   0.1200 
  4 C        2.5750     8.0920    -1.1600 C.3   1 <1>  -0.1600 
  5 C        3.0560     7.0170     1.0640 C.3   1 <1>  -0.1600 
  6 C       -1.3650     6.3910    -0.3550 C.3   1 <1>   0.2000 
  7 C        3.8600     8.9260    -1.0360 C.3   1 <1>  -0.1600 
  8 C        4.3390     7.8500     1.1970 C.3   1 <1>  -0.1600 
  9 O       -2.5920     7.0150    -0.5750 O.3   1 <1>  -0.6800 
 10 C       -1.4510     5.4230     0.8550 C.3   1 <1>   0.1100 
 11 C        4.9400     8.2170    -0.1820 C.3   1 <1>  -0.0800 
 12 N       -2.2600     4.1890     0.6670 N.3   1 <1>  -0.8100 
 13 C        6.2950     9.0010    -0.0950 C.3   1 <1>   0.0000 
 14 C       -3.6910     4.4130     0.3620 C.3   1 <1>   0.1100 
 15 C       -1.6490     3.2390    -0.2980 C.3   1 <1>   0.1100 
 16 C        7.3440     8.1850     0.6840 C.3   1 <1>  -0.2400 
 17 C        6.1520    10.3690     0.5960 C.3   1 <1>  -0.2400 
 18 C        6.8750     9.2400    -1.5020 C.3   1 <1>  -0.2400 
 19 C       -4.5050     3.0980     0.4240 C.3   1 <1>   0.3430 
 20 C       -2.5180     1.9790    -0.5270 C.3   1 <1>   0.3430 
 21 N       -3.6080     1.8960     0.5000 N.4   1 <1>  -0.9590 
 22 C       -4.3130     0.5790     0.5180 C.3   1 <1>   0.3430 
 23 C       -3.6060    -0.4490     1.4290 C.3   1 <1>   0.1200 
 24 O       -2.2290    -0.4420     1.2210 O.3   1 <1>  -0.6800 
 25 H        1.6830     8.6270     0.7360 H     1 <1>   0.0800 
 26 H       -0.2370     8.0880    -1.0410 H     1 <1>   0.0800 
 27 H       -0.5380     8.0860     0.7000 H     1 <1>   0.0800 
 28 H        1.8530     8.6530    -1.7240 H     1 <1>   0.0800 
 29 H        2.7960     7.1840    -1.6930 H     1 <1>   0.0800 
 30 H        3.2940     6.0740     0.6020 H     1 <1>   0.0800 
 31 H        2.6510     6.8240     2.0410 H     1 <1>   0.0800 
 32 H       -1.1170     5.8490    -1.2490 H     1 <1>   0.0800 
 33 H        3.6110     9.8750    -0.5960 H     1 <1>   0.0800 
 34 H        4.2250     9.1070    -2.0300 H     1 <1>   0.0800 
 35 H        5.0390     7.2750     1.7730 H     1 <1>   0.0800 
 36 H        4.1110     8.7450     1.7490 H     1 <1>   0.0800 
 37 H       -2.8310     7.5730     0.1900 H     1 <1>   0.4000 
 38 H       -1.8260     5.9640     1.7060 H     1 <1>   0.0800 
 39 H       -0.4510     5.1150     1.1090 H     1 <1>   0.0800 
 40 H        5.1580     7.2860    -0.6780 H     1 <1>   0.0800 
 41 H       -3.7920     4.8300    -0.6250 H     1 <1>   0.0800 
 42 H       -4.1070     5.1210     1.0590 H     1 <1>   0.0800 
 43 H       -0.6870     2.9330     0.0780 H     1 <1>   0.0800 
 44 H       -1.4870     3.7180    -1.2470 H     1 <1>   0.0800 
 45 H        7.0860     8.1040     1.7230 H     1 <1>   0.0800 
 46 H        8.3090     8.6570     0.6310 H     1 <1>   0.0800 
 47 H        7.4330     7.1940     0.2730 H     1 <1>   0.0800 
 48 H        5.8020    10.2590     1.6060 H     1 <1>   0.0800 
 49 H        5.4700    11.0040     0.0630 H     1 <1>   0.0800 
 50 H        7.1040    10.8680     0.6330 H     1 <1>   0.0800 
 51 H        6.9350     8.3150    -2.0480 H     1 <1>   0.0800 
 52 H        7.8650     9.6560    -1.4390 H     1 <1>   0.0800 
 53 H        6.2740     9.9320    -2.0620 H     1 <1>   0.0800 
 54 H       -5.1380     3.0370    -0.4450 H     1 <1>   0.0800 
 55 H       -5.1410     3.1270     1.2930 H     1 <1>   0.0800 
 56 H       -1.8880     1.1070    -0.4800 H     1 <1>   0.0800 
 57 H       -2.9490     2.0210    -1.5130 H     1 <1>   0.0800 
 58 H       -3.0830     2.0060     1.3820 H     1 <1>   0.4500 
 59 H       -4.3720     0.1850    -0.4830 H     1 <1>   0.0800 
 60 H       -5.3200     0.7100     0.8770 H     1 <1>   0.0800 
 61 H       -3.9770    -1.4400     1.2270 H     1 <1>   0.0800 
 62 H       -3.7890    -0.2140     2.4640 H     1 <1>   0.0800 
 63 H       -1.7820    -1.1110     1.7830 H     1 <1>   0.4000 
@<TRIPOS>BOND
  1   1   2  1   
  2   1   3  1   
  3   2   4  1   
  4   2   5  1   
  5   2  25  1   
  6   3   6  1   
  7   3  26  1   
  8   3  27  1   
  9   4   7  1   
 10   4  28  1   
 11   4  29  1   
 12   5   8  1   
 13   5  30  1   
 14   5  31  1   
 15   6   9  1   
 16   6  10  1   
 17   6  32  1   
 18   7  11  1   
 19   7  33  1   
 20   7  34  1   
 21   8  11  1   
 22   8  35  1   
 23   8  36  1   
 24   9  37  1   
 25  10  12  1   
 26  10  38  1   
 27  10  39  1   
 28  11  13  1   
 29  11  40  1   
 30  12  14  1   
 31  12  15  1   
 32  13  16  1   
 33  13  17  1   
 34  13  18  1   
 35  14  19  1   
 36  14  41  1   
 37  14  42  1   
 38  15  20  1   
 39  15  43  1   
 40  15  44  1   
 41  16  45  1   
 42  16  46  1   
 43  16  47  1   
 44  17  48  1   
 45  17  49  1   
 46  17  50  1   
 47  18  51  1   
 48  18  52  1   
 49  18  53  1   
 50  19  21  1   
 51  19  54  1   
 52  19  55  1   
 53  20  21  1   
 54  20  56  1   
 55  20  57  1   
 56  21  22  1   
 57  21  58  1   
 58  22  23  1   
 59  22  59  1   
 60  22  60  1   
 61  23  24  1   
 62  23  61  1   
 63  23  62  1   
 64  24  63  1   
@<TRIPOS>SUBSTRUCTURE
  1 ****   1 GROUP 4 **** **** 0

# MOE 2024.06 (io_trps.svl 2023.06)
