@<TRIPOS>MOLECULE
NONAME
40 41 1 0 0 
SMALL
USER_CHARGES


@<TRIPOS>ATOM
  1 I       -0.5720     0.1520    -0.6590 I     1 <1>  -0.0810 
  2 C       -0.1160    -1.7050     0.2770 C.ar  1 <1>   0.0810 
  3 C        1.1460    -2.2390     0.1100 C.ar  1 <1>  -0.1500 
  4 C       -1.0980    -2.3220     1.0300 C.ar  1 <1>  -0.1500 
  5 C        1.4540    -3.4530     0.7170 C.ar  1 <1>   0.1170 
  6 C       -0.7910    -3.5270     1.6370 C.ar  1 <1>  -0.1500 
  7 N        2.7140    -4.0630     0.6090 N.am  1 <1>  -0.5470 
  8 C        0.4710    -4.0810     1.4800 C.ar  1 <1>  -0.1500 
  9 C        3.6950    -3.9260    -0.3360 C.2   1 <1>   0.5690 
 10 O        3.5850    -3.2260    -1.3130 O.2   1 <1>  -0.5700 
 11 C        4.9790    -4.7210    -0.1490 C.3   1 <1>  -0.0190 
 12 C        6.1960    -3.7980    -0.3020 C.3   1 <1>   0.1960 
 13 C        5.0600    -5.9000    -1.1360 C.3   1 <1>  -0.1600 
 14 N        7.4450    -4.5540    -0.1070 N.am  1 <1>  -0.8490 
 15 C        6.4220    -6.5980    -1.0170 C.3   1 <1>  -0.1600 
 16 S        8.7930    -3.5260    -0.0610 S.o2  1 <1>   1.3330 
 17 C        7.5730    -5.5930    -1.1370 C.3   1 <1>   0.1960 
 18 O        8.4330    -2.3540     0.7060 O.2   1 <1>  -0.6500 
 19 O        9.2780    -3.3810    -1.4160 O.2   1 <1>  -0.6500 
 20 C        9.9840    -4.4700     0.9030 C.3   1 <1>  -0.0550 
 21 C       11.3300    -3.7570     1.1250 C.3   1 <1>  -0.2400 
 22 H        1.8740    -1.7150    -0.4810 H     1 <1>   0.1500 
 23 H       -2.0710    -1.8760     1.1390 H     1 <1>   0.1500 
 24 H       -1.5340    -4.0330     2.2300 H     1 <1>   0.1500 
 25 H        2.9110    -4.7460     1.3370 H     1 <1>   0.3700 
 26 H        0.6880    -5.0190     1.9570 H     1 <1>   0.1500 
 27 H        4.9990    -5.1080     0.8530 H     1 <1>   0.0800 
 28 H        6.1200    -3.0150     0.4340 H     1 <1>   0.0800 
 29 H        6.1970    -3.3360    -1.2770 H     1 <1>   0.0800 
 30 H        4.9390    -5.5290    -2.1410 H     1 <1>   0.0800 
 31 H        4.2670    -6.6020    -0.9440 H     1 <1>   0.0800 
 32 H        6.5150    -7.3390    -1.7910 H     1 <1>   0.0800 
 33 H        6.4960    -7.1010    -0.0690 H     1 <1>   0.0800 
 34 H        8.5070    -6.1150    -1.0190 H     1 <1>   0.0800 
 35 H        7.5640    -5.1420    -2.1170 H     1 <1>   0.0800 
 36 H       10.1720    -5.4030     0.4110 H     1 <1>   0.0800 
 37 H        9.5510    -4.6890     1.8600 H     1 <1>   0.0800 
 38 H       11.7970    -3.5450     0.1790 H     1 <1>   0.0800 
 39 H       11.9890    -4.3760     1.7080 H     1 <1>   0.0800 
 40 H       11.1740    -2.8280     1.6460 H     1 <1>   0.0800 
@<TRIPOS>BOND
  1   1   2  1   
  2   2   3  ar  
  3   2   4  ar  
  4   3   5  ar  
  5   3  22  1   
  6   4   6  ar  
  7   4  23  1   
  8   5   7  1   
  9   5   8  ar  
 10   6   8  ar  
 11   6  24  1   
 12   7   9  am  
 13   7  25  1   
 14   8  26  1   
 15   9  10  2   
 16   9  11  1   
 17  11  12  1   
 18  11  13  1   
 19  11  27  1   
 20  12  14  1   
 21  12  28  1   
 22  12  29  1   
 23  13  15  1   
 24  13  30  1   
 25  13  31  1   
 26  14  16  am  
 27  14  17  1   
 28  15  17  1   
 29  15  32  1   
 30  15  33  1   
 31  16  18  2   
 32  16  19  2   
 33  16  20  1   
 34  17  34  1   
 35  17  35  1   
 36  20  21  1   
 37  20  36  1   
 38  20  37  1   
 39  21  38  1   
 40  21  39  1   
 41  21  40  1   
@<TRIPOS>SUBSTRUCTURE
  1 ****   9 GROUP 4 **** **** 0

# MOE 2024.06 (io_trps.svl 2023.06)
