@<TRIPOS>MOLECULE
NONAME
22 23 1 0 0 
SMALL
USER_CHARGES


@<TRIPOS>ATOM
  1 S        1.2980     7.1630     0.1890 S.3   1 <1>  -0.0800 
  2 C       -0.2550     6.4190     0.0560 C.ar  1 <1>   0.6310 
  3 C        2.0520     5.5880     0.0680 C.2   1 <1>   0.1980 
  4 N       -0.0940     5.0860    -0.0650 N.ar  1 <1>   0.2320 
  5 N       -1.3940     7.0950     0.0750 N.ar  1 <1>  -0.5670 
  6 N        1.2270     4.6280    -0.0560 N.2   1 <1>  -0.2910 
  7 C        3.5650     5.5400     0.1240 C.3   1 <1>  -0.0600 
  8 C       -1.2060     4.3180    -0.1830 C.ar  1 <1>   0.2440 
  9 C       -2.4720     6.3480    -0.0390 C.ar  1 <1>   0.1670 
 10 C       -2.4220     4.9580    -0.1700 C.ar  1 <1>  -0.1500 
 11 C       -1.0830     2.8050    -0.3230 C.3   1 <1>  -0.0960 
 12 C       -3.8060     7.0700    -0.0230 C.3   1 <1>  -0.0970 
 13 H        3.9830     6.1140    -0.6840 H     1 <1>   0.0800 
 14 H        3.9100     4.5250     0.0400 H     1 <1>   0.0800 
 15 H        3.9140     5.9470     1.0560 H     1 <1>   0.0800 
 16 H       -3.3390     4.4000    -0.2600 H     1 <1>   0.1500 
 17 H       -0.5160     2.5570    -1.2030 H     1 <1>   0.0800 
 18 H       -2.0530     2.3480    -0.4050 H     1 <1>   0.0800 
 19 H       -0.5860     2.3910     0.5360 H     1 <1>   0.0800 
 20 H       -3.8480     7.7750    -0.8350 H     1 <1>   0.0800 
 21 H       -3.9170     7.6090     0.9010 H     1 <1>   0.0800 
 22 H       -4.6270     6.3840    -0.1220 H     1 <1>   0.0800 
@<TRIPOS>BOND
  1   1   2  1   
  2   1   3  1   
  3   2   4  ar  
  4   2   5  ar  
  5   3   6  2   
  6   3   7  1   
  7   4   6  1   
  8   4   8  ar  
  9   5   9  ar  
 10   7  13  1   
 11   7  14  1   
 12   7  15  1   
 13   8  10  ar  
 14   8  11  1   
 15   9  10  ar  
 16   9  12  1   
 17  10  16  1   
 18  11  17  1   
 19  11  18  1   
 20  11  19  1   
 21  12  20  1   
 22  12  21  1   
 23  12  22  1   
@<TRIPOS>SUBSTRUCTURE
  1 ****   4 GROUP 4 **** **** 0

# MOE 2024.06 (io_trps.svl 2023.06)
