@<TRIPOS>MOLECULE
NONAME
47 49 1 0 0 
SMALL
USER_CHARGES


@<TRIPOS>ATOM
  1 S        0.4250     0.2450    -0.1590 S.o2  1 <1>   1.4470 
  2 O        1.3180     0.0260    -1.2780 O.2   1 <1>  -0.6500 
  3 O        0.8180    -0.2250     1.1480 O.2   1 <1>  -0.6500 
  4 N        0.2560     1.9640    -0.0500 N.am  1 <1>  -0.6930 
  5 C       -1.2510    -0.3010    -0.5820 C.ar  1 <1>  -0.0090 
  6 C       -0.5600     2.5270     0.9250 C.ar  1 <1>   0.1990 
  7 C        1.3610     2.8060    -0.6040 C.3   1 <1>   0.2570 
  8 C       -2.2240    -0.4390     0.4010 C.ar  1 <1>  -0.1500 
  9 C       -1.6170    -0.5640    -1.8980 C.ar  1 <1>  -0.1500 
 10 C       -1.8480     2.9950     0.6340 C.ar  1 <1>  -0.1430 
 11 C       -0.0810     2.6160     2.2260 C.ar  1 <1>  -0.1500 
 12 C        2.7120     2.6410     0.1010 C.2   1 <1>   0.5690 
 13 C       -3.5150    -0.8280     0.0870 C.ar  1 <1>  -0.1500 
 14 C       -2.9050    -0.9540    -2.2220 C.ar  1 <1>  -0.1500 
 15 C       -2.6350     3.5200     1.6550 C.ar  1 <1>  -0.1430 
 16 C       -2.4060     2.9320    -0.7910 C.3   1 <1>  -0.0960 
 17 C       -0.8590     3.1460     3.2320 C.ar  1 <1>  -0.1500 
 18 O        3.1030     3.5310     0.8210 O.2   1 <1>  -0.5700 
 19 N        3.4410     1.5130    -0.1160 N.am  1 <1>  -0.5790 
 20 C       -3.8560    -1.0870    -1.2270 C.ar  1 <1>  -0.1500 
 21 C       -2.1340     3.5940     2.9460 C.ar  1 <1>  -0.1500 
 22 C       -4.0510     4.0240     1.4040 C.3   1 <1>  -0.0970 
 23 C        4.6980     1.1580     0.5500 C.3   1 <1>   0.0490 
 24 C        5.5750     0.1430    -0.1040 C.3   1 <1>  -0.2000 
 25 C        4.8040    -0.2110     1.1320 C.3   1 <1>  -0.2000 
 26 H        1.0750     3.8400    -0.5310 H     1 <1>   0.0800 
 27 H        1.4870     2.5800    -1.6470 H     1 <1>   0.0800 
 28 H       -1.9680    -0.2340     1.4280 H     1 <1>   0.1500 
 29 H       -0.8850    -0.4640    -2.6820 H     1 <1>   0.1500 
 30 H        0.9110     2.2620     2.4490 H     1 <1>   0.1500 
 31 H       -4.2510    -0.9290     0.8670 H     1 <1>   0.1500 
 32 H       -3.1680    -1.1560    -3.2460 H     1 <1>   0.1500 
 33 H       -1.6500     2.7100    -1.5200 H     1 <1>   0.0800 
 34 H       -2.8420     3.8760    -1.0630 H     1 <1>   0.0800 
 35 H       -3.1630     2.1710    -0.8510 H     1 <1>   0.0800 
 36 H       -0.4750     3.2090     4.2350 H     1 <1>   0.1500 
 37 H        3.0270     0.7580    -0.6800 H     1 <1>   0.3700 
 38 H       -4.8590    -1.3920    -1.4750 H     1 <1>   0.1500 
 39 H       -2.7340     4.0030     3.7410 H     1 <1>   0.1500 
 40 H       -4.0240     4.9120     0.7990 H     1 <1>   0.0800 
 41 H       -4.5470     4.2610     2.3280 H     1 <1>   0.0800 
 42 H       -4.6310     3.2710     0.9010 H     1 <1>   0.0800 
 43 H        5.1500     1.9810     1.0830 H     1 <1>   0.1000 
 44 H        6.6420     0.2530    -0.0230 H     1 <1>   0.1000 
 45 H        5.2710    -0.2800    -1.0450 H     1 <1>   0.1000 
 46 H        3.9500    -0.8630     1.0610 H     1 <1>   0.1000 
 47 H        5.3440    -0.3360     2.0550 H     1 <1>   0.1000 
@<TRIPOS>BOND
  1   1   2  2   
  2   1   3  2   
  3   1   4  am  
  4   1   5  1   
  5   4   6  1   
  6   4   7  1   
  7   5   8  ar  
  8   5   9  ar  
  9   6  10  ar  
 10   6  11  ar  
 11   7  12  1   
 12   7  26  1   
 13   7  27  1   
 14   8  13  ar  
 15   8  28  1   
 16   9  14  ar  
 17   9  29  1   
 18  10  15  ar  
 19  10  16  1   
 20  11  17  ar  
 21  11  30  1   
 22  12  18  2   
 23  12  19  am  
 24  13  20  ar  
 25  13  31  1   
 26  14  20  ar  
 27  14  32  1   
 28  15  21  ar  
 29  15  22  1   
 30  16  33  1   
 31  16  34  1   
 32  16  35  1   
 33  17  21  ar  
 34  17  36  1   
 35  19  23  1   
 36  19  37  1   
 37  20  38  1   
 38  21  39  1   
 39  22  40  1   
 40  22  41  1   
 41  22  42  1   
 42  23  24  1   
 43  23  25  1   
 44  23  43  1   
 45  24  25  1   
 46  24  44  1   
 47  24  45  1   
 48  25  46  1   
 49  25  47  1   
@<TRIPOS>SUBSTRUCTURE
  1 ****   4 GROUP 4 **** **** 0

# MOE 2024.06 (io_trps.svl 2023.06)
