@<TRIPOS>MOLECULE
NONAME
57 59 1 0 0 
SMALL
USER_CHARGES


@<TRIPOS>ATOM
  1 S        0.2580    -0.1930    -0.5090 S.o2  1 <1>   1.4470 
  2 O        0.6740     0.0410    -1.8760 O.2   1 <1>  -0.6500 
  3 O        0.0230     0.9390     0.3610 O.2   1 <1>  -0.6500 
  4 N        1.4910    -1.1040     0.2140 N.am  1 <1>  -0.8490 
  5 C       -1.1700    -1.3100    -0.4580 C.ar  1 <1>  -0.0090 
  6 C        1.9140    -2.2390    -0.6280 C.3   1 <1>   0.1960 
  7 C        2.6480    -0.2570     0.5410 C.3   1 <1>   0.1960 
  8 C       -1.6740    -1.7670     0.7530 C.ar  1 <1>  -0.1500 
  9 C       -1.7880    -1.7480    -1.6240 C.ar  1 <1>  -0.1500 
 10 C        2.9900    -3.0890     0.0670 C.3   1 <1>   0.1400 
 11 C        3.7580    -1.0480     1.2580 C.3   1 <1>   0.1400 
 12 C       -2.7530    -2.6330     0.8030 C.ar  1 <1>  -0.1500 
 13 C       -2.8670    -2.6140    -1.5820 C.ar  1 <1>  -0.1500 
 14 N        4.1640    -2.2470     0.4600 N.am  1 <1>  -0.6600 
 15 C       -3.3570    -3.0620    -0.3670 C.ar  1 <1>  -0.1430 
 16 C        5.4340    -2.5580     0.0320 C.2   1 <1>   0.5690 
 17 C       -4.5420    -4.0130    -0.3170 C.3   1 <1>  -0.0160 
 18 O        5.6230    -3.4880    -0.7170 O.2   1 <1>  -0.5700 
 19 C        6.6490    -1.7300     0.4750 C.3   1 <1>  -0.0190 
 20 C       -4.0650    -5.4670    -0.3470 C.3   1 <1>  -0.2400 
 21 C        6.8520    -0.5150    -0.4500 C.3   1 <1>  -0.1600 
 22 C        7.9510    -2.5570     0.5280 C.3   1 <1>  -0.1600 
 23 C        8.0540     0.3290    -0.0170 C.3   1 <1>   0.1400 
 24 C        9.1460    -1.7020     0.9550 C.3   1 <1>   0.1400 
 25 N        9.2710    -0.5260     0.0480 N.am  1 <1>  -0.6600 
 26 C       10.4290    -0.3030    -0.6540 C.2   1 <1>   0.5690 
 27 O       11.4080    -0.9970    -0.5230 O.2   1 <1>  -0.5700 
 28 C       10.5280     0.8410    -1.6360 C.3   1 <1>  -0.1790 
 29 H        2.3080    -1.8820    -1.5670 H     1 <1>   0.0800 
 30 H        1.0670    -2.8680    -0.8420 H     1 <1>   0.0800 
 31 H        2.3340     0.5460     1.1860 H     1 <1>   0.0800 
 32 H        3.0470     0.1800    -0.3600 H     1 <1>   0.0800 
 33 H       -1.2120    -1.4390     1.6700 H     1 <1>   0.1500 
 34 H       -1.4220    -1.4080    -2.5780 H     1 <1>   0.1500 
 35 H        3.2920    -3.8810    -0.5970 H     1 <1>   0.0800 
 36 H        2.5700    -3.5420     0.9470 H     1 <1>   0.0800 
 37 H        3.3900    -1.3720     2.2160 H     1 <1>   0.0800 
 38 H        4.5870    -0.3890     1.4290 H     1 <1>   0.0800 
 39 H       -3.1200    -2.9710     1.7560 H     1 <1>   0.1500 
 40 H       -3.3250    -2.9380    -2.5000 H     1 <1>   0.1500 
 41 H       -5.1920    -3.8280    -1.1550 H     1 <1>   0.0800 
 42 H       -5.1100    -3.8380     0.5800 H     1 <1>   0.0800 
 43 H        6.4710    -1.3840     1.4750 H     1 <1>   0.0800 
 44 H       -3.5100    -5.6560    -1.2490 H     1 <1>   0.0800 
 45 H       -4.9080    -6.1340    -0.3120 H     1 <1>   0.0800 
 46 H       -3.4300    -5.6670     0.4970 H     1 <1>   0.0800 
 47 H        5.9710     0.1010    -0.4520 H     1 <1>   0.0800 
 48 H        7.0110    -0.8560    -1.4590 H     1 <1>   0.0800 
 49 H        8.1620    -2.9770    -0.4410 H     1 <1>   0.0800 
 50 H        7.8330    -3.3740     1.2160 H     1 <1>   0.0800 
 51 H        7.8740     0.7470     0.9590 H     1 <1>   0.0800 
 52 H        8.1840     1.1440    -0.7050 H     1 <1>   0.0800 
 53 H       10.0400    -2.3020     0.9280 H     1 <1>   0.0800 
 54 H        9.0130    -1.3540     1.9650 H     1 <1>   0.0800 
 55 H        9.7670     0.7450    -2.3870 H     1 <1>   0.0800 
 56 H       11.4890     0.8220    -2.1170 H     1 <1>   0.0800 
 57 H       10.4210     1.7760    -1.1190 H     1 <1>   0.0800 
@<TRIPOS>BOND
  1   1   2  2   
  2   1   3  2   
  3   1   4  am  
  4   1   5  1   
  5   4   6  1   
  6   4   7  1   
  7   5   8  ar  
  8   5   9  ar  
  9   6  10  1   
 10   6  29  1   
 11   6  30  1   
 12   7  11  1   
 13   7  31  1   
 14   7  32  1   
 15   8  12  ar  
 16   8  33  1   
 17   9  13  ar  
 18   9  34  1   
 19  10  14  1   
 20  10  35  1   
 21  10  36  1   
 22  11  14  1   
 23  11  37  1   
 24  11  38  1   
 25  12  15  ar  
 26  12  39  1   
 27  13  15  ar  
 28  13  40  1   
 29  14  16  am  
 30  15  17  1   
 31  16  18  2   
 32  16  19  1   
 33  17  20  1   
 34  17  41  1   
 35  17  42  1   
 36  19  21  1   
 37  19  22  1   
 38  19  43  1   
 39  20  44  1   
 40  20  45  1   
 41  20  46  1   
 42  21  23  1   
 43  21  47  1   
 44  21  48  1   
 45  22  24  1   
 46  22  49  1   
 47  22  50  1   
 48  23  25  1   
 49  23  51  1   
 50  23  52  1   
 51  24  25  1   
 52  24  53  1   
 53  24  54  1   
 54  25  26  am  
 55  26  27  2   
 56  26  28  1   
 57  28  55  1   
 58  28  56  1   
 59  28  57  1   
@<TRIPOS>SUBSTRUCTURE
  1 ****  14 GROUP 4 **** **** 0

# MOE 2024.06 (io_trps.svl 2023.06)
