@<TRIPOS>MOLECULE
NONAME
39 39 1 0 0 
SMALL
USER_CHARGES


@<TRIPOS>ATOM
  1 P        0.1550     0.1800    -0.1620 P.3   1 <1>   1.2420 
  2 O       -0.4970     1.3370    -0.7840 O.2   1 <1>  -0.7000 
  3 O        0.8620     0.5130     1.2470 O.3   1 <1>  -0.5510 
  4 O        1.4080    -0.2890    -1.0550 O.3   1 <1>  -0.5510 
  5 C       -0.8410    -1.3440    -0.0190 C.3   1 <1>   0.3640 
  6 C        0.6030     1.6910     1.9310 C.3   1 <1>   0.1200 
  7 C        2.4540     0.5820    -1.2850 C.3   1 <1>   0.1200 
  8 N       -2.2940    -1.3180     0.4220 N.am  1 <1>  -0.6600 
  9 C       -0.1550    -2.4920     0.7290 C.ar  1 <1>  -0.1440 
 10 C        1.6000     2.7560     1.4830 C.3   1 <1>  -0.2400 
 11 C        3.4450    -0.1170    -2.2070 C.3   1 <1>  -0.2400 
 12 C       -2.7650    -0.5100     1.4140 C.2   1 <1>   0.5700 
 13 C       -3.1820    -2.3200    -0.2260 C.3   1 <1>   0.0600 
 14 C        0.0100    -2.4470     2.1070 C.ar  1 <1>  -0.1500 
 15 C        0.3190    -3.5970     0.0330 C.ar  1 <1>  -0.1500 
 16 O       -2.0750     0.2310     2.0660 O.2   1 <1>  -0.5700 
 17 C        0.6290    -3.4870     2.7780 C.ar  1 <1>  -0.1500 
 18 C        0.9390    -4.6380     0.7020 C.ar  1 <1>  -0.1500 
 19 C        1.0930    -4.5850     2.0760 C.ar  1 <1>  -0.1500 
 20 H       -0.8980    -1.6790    -1.0370 H     1 <1>   0.0800 
 21 H        0.7190     1.4880     2.9810 H     1 <1>   0.0800 
 22 H       -0.4110     2.0050     1.7440 H     1 <1>   0.0800 
 23 H        2.9150     0.8250    -0.3420 H     1 <1>   0.0800 
 24 H        2.0630     1.4760    -1.7440 H     1 <1>   0.0800 
 25 H        2.6060     2.4160     1.6500 H     1 <1>   0.0800 
 26 H        1.4430     3.6540     2.0510 H     1 <1>   0.0800 
 27 H        1.4580     2.9880     0.4420 H     1 <1>   0.0800 
 28 H        3.8140    -1.0130    -1.7410 H     1 <1>   0.0800 
 29 H        4.2770     0.5340    -2.4060 H     1 <1>   0.0800 
 30 H        2.9720    -0.3630    -3.1410 H     1 <1>   0.0800 
 31 H       -3.8170    -0.5470     1.6390 H     1 <1>   0.0600 
 32 H       -2.7970    -3.3110    -0.0560 H     1 <1>   0.0800 
 33 H       -3.2310    -2.1350    -1.2850 H     1 <1>   0.0800 
 34 H       -4.1770    -2.2630     0.1820 H     1 <1>   0.0800 
 35 H       -0.3400    -1.5970     2.6680 H     1 <1>   0.1500 
 36 H        0.2150    -3.6570    -1.0360 H     1 <1>   0.1500 
 37 H        0.7510    -3.4390     3.8460 H     1 <1>   0.1500 
 38 H        1.3030    -5.4900     0.1550 H     1 <1>   0.1500 
 39 H        1.5750    -5.3930     2.5970 H     1 <1>   0.1500 
@<TRIPOS>BOND
  1   1   2  2   
  2   1   3  1   
  3   1   4  1   
  4   1   5  1   
  5   3   6  1   
  6   4   7  1   
  7   5   8  1   
  8   5   9  1   
  9   5  20  1   
 10   6  10  1   
 11   6  21  1   
 12   6  22  1   
 13   7  11  1   
 14   7  23  1   
 15   7  24  1   
 16   8  12  am  
 17   8  13  1   
 18   9  14  ar  
 19   9  15  ar  
 20  10  25  1   
 21  10  26  1   
 22  10  27  1   
 23  11  28  1   
 24  11  29  1   
 25  11  30  1   
 26  12  16  2   
 27  12  31  1   
 28  13  32  1   
 29  13  33  1   
 30  13  34  1   
 31  14  17  ar  
 32  14  35  1   
 33  15  18  ar  
 34  15  36  1   
 35  17  19  ar  
 36  17  37  1   
 37  18  19  ar  
 38  18  38  1   
 39  19  39  1   
@<TRIPOS>SUBSTRUCTURE
  1 ****   5 GROUP 4 **** **** 0

# MOE 2024.06 (io_trps.svl 2023.06)
