@<TRIPOS>MOLECULE
NONAME
44 47 1 0 0 
SMALL
USER_CHARGES


@<TRIPOS>ATOM
  1 N      -10.0970     2.2030     0.7900 N.pl3 1 <1>  -0.7040 
  2 C       -9.3490     3.1360     0.2170 C.cat 1 <1>   1.0690 
  3 C      -11.4240     2.5940     0.6410 C.ar  1 <1>   0.3020 
  4 N      -10.0900     4.0930    -0.2940 N.pl3 1 <1>  -0.7680 
  5 N       -8.0370     3.3370     0.0560 N.pl3 1 <1>  -0.5970 
  6 C      -11.4200     3.7980    -0.0470 C.ar  1 <1>   0.3020 
  7 C      -12.6190     2.0110     1.0440 C.ar  1 <1>  -0.1180 
  8 C       -9.2820     5.1750    -0.8790 C.3   1 <1>   0.3470 
  9 C       -7.8420     4.6580    -0.6300 C.3   1 <1>   0.1600 
 10 C       -6.8860     2.5540     0.6000 C.3   1 <1>   0.1600 
 11 C      -12.6070     4.4530    -0.3510 C.ar  1 <1>  -0.1180 
 12 C      -13.8020     2.6610     0.7430 C.ar  1 <1>  -0.1580 
 13 C       -5.9740     2.0040    -0.5220 C.3   1 <1>   0.3360 
 14 C      -13.7960     3.8740     0.0500 C.ar  1 <1>  -0.1580 
 15 N       -4.8350     1.1770    -0.0100 N.4   1 <1>  -0.9610 
 16 C       -3.8330     1.9670     0.7720 C.3   1 <1>   0.3360 
 17 C       -4.1600     0.4730    -1.1440 C.3   1 <1>   0.3360 
 18 C       -2.7920     1.0230     1.3740 C.3   1 <1>  -0.1680 
 19 C       -3.1280    -0.5120    -0.5950 C.3   1 <1>  -0.1680 
 20 C       -2.0930     0.1900     0.2930 C.3   1 <1>  -0.1680 
 21 H       -9.7880     1.3680     1.2800 H     1 <1>   0.4440 
 22 H      -12.6230     1.0770     1.5780 H     1 <1>   0.1420 
 23 H       -9.4600     6.1070    -0.3700 H     1 <1>   0.0710 
 24 H       -9.4880     5.2820    -1.9310 H     1 <1>   0.0710 
 25 H       -7.3190     4.5370    -1.5640 H     1 <1>   0.0710 
 26 H       -7.3010     5.3420     0.0020 H     1 <1>   0.0710 
 27 H       -7.2630     1.7310     1.1820 H     1 <1>   0.0710 
 28 H       -6.3170     3.1970     1.2490 H     1 <1>   0.0710 
 29 H      -12.5940     5.3870    -0.8840 H     1 <1>   0.1420 
 30 H      -14.7450     2.2330     1.0430 H     1 <1>   0.1420 
 31 H       -5.5780     2.8270    -1.0930 H     1 <1>   0.0710 
 32 H       -6.5730     1.3960    -1.1800 H     1 <1>   0.0710 
 33 H      -14.7340     4.3580    -0.1700 H     1 <1>   0.1420 
 34 H       -5.1760     0.4300     0.6110 H     1 <1>   0.4440 
 35 H       -4.3180     2.5070     1.5690 H     1 <1>   0.0710 
 36 H       -3.3420     2.6770     0.1260 H     1 <1>   0.0710 
 37 H       -3.6690     1.1910    -1.7810 H     1 <1>   0.0710 
 38 H       -4.8860    -0.0650    -1.7320 H     1 <1>   0.0710 
 39 H       -3.2640     0.3740     2.0900 H     1 <1>   0.0710 
 40 H       -2.0550     1.6030     1.9030 H     1 <1>   0.0710 
 41 H       -2.6220    -0.9860    -1.4190 H     1 <1>   0.0710 
 42 H       -3.6270    -1.2850    -0.0380 H     1 <1>   0.0710 
 43 H       -1.4480    -0.5410     0.7520 H     1 <1>   0.0710 
 44 H       -1.4780     0.8330    -0.3140 H     1 <1>   0.0710 
@<TRIPOS>BOND
  1   1   2  ar  
  2   1   3  1   
  3   1  21  1   
  4   2   4  ar  
  5   2   5  ar  
  6   3   6  ar  
  7   3   7  ar  
  8   4   6  1   
  9   4   8  1   
 10   5   9  1   
 11   5  10  1   
 12   6  11  ar  
 13   7  12  ar  
 14   7  22  1   
 15   8   9  1   
 16   8  23  1   
 17   8  24  1   
 18   9  25  1   
 19   9  26  1   
 20  10  13  1   
 21  10  27  1   
 22  10  28  1   
 23  11  14  ar  
 24  11  29  1   
 25  12  14  ar  
 26  12  30  1   
 27  13  15  1   
 28  13  31  1   
 29  13  32  1   
 30  14  33  1   
 31  15  16  1   
 32  15  17  1   
 33  15  34  1   
 34  16  18  1   
 35  16  35  1   
 36  16  36  1   
 37  17  19  1   
 38  17  37  1   
 39  17  38  1   
 40  18  20  1   
 41  18  39  1   
 42  18  40  1   
 43  19  20  1   
 44  19  41  1   
 45  19  42  1   
 46  20  43  1   
 47  20  44  1   
@<TRIPOS>SUBSTRUCTURE
  1 ****   5 GROUP 4 **** **** 0

# MOE 2024.06 (io_trps.svl 2023.06)
