@<TRIPOS>MOLECULE
NONAME
48 50 1 0 0 
SMALL
USER_CHARGES


@<TRIPOS>ATOM
  1 O        0.6680     0.3000     0.2110 O.2   1 <1>  -0.5700 
  2 C        1.0740     1.3560    -0.2260 C.2   1 <1>   0.6340 
  3 O        2.3270     1.4170    -0.6890 O.3   1 <1>  -0.4300 
  4 C        0.2710     2.5630    -0.2680 C.ar  1 <1>   0.0860 
  5 C        3.1820     0.2870    -0.6650 C.3   1 <1>   0.1200 
  6 C       -1.0450     2.5650     0.1960 C.ar  1 <1>  -0.1500 
  7 C        0.7710     3.7660    -0.7690 C.ar  1 <1>  -0.1500 
  8 C        4.5360     0.6690    -1.2670 C.3   1 <1>   0.2000 
  9 C       -1.8310     3.7110     0.1760 C.ar  1 <1>   0.0830 
 10 C        0.0120     4.9190    -0.8100 C.ar  1 <1>   0.0820 
 11 O        5.4150    -0.4230    -1.1260 O.3   1 <1>  -0.2170 
 12 C        5.2610     1.7970    -0.5400 C.3   1 <1>  -0.0990 
 13 O       -3.1210     3.7140     0.6230 O.3   1 <1>  -0.3630 
 14 C       -1.2980     4.9050    -0.3150 C.ar  1 <1>   0.0830 
 15 O        0.6330     6.0100    -1.3370 O.3   1 <1>  -0.3620 
 16 N        6.5260    -0.1150    -0.4970 N.2   1 <1>  -0.5130 
 17 C        6.5320     1.1010    -0.1360 C.2   1 <1>   0.3030 
 18 C       -3.7940     2.5230     0.9660 C.3   1 <1>   0.0400 
 19 O       -2.0500     6.0350    -0.3030 O.3   1 <1>  -0.3630 
 20 C       -0.0840     6.8920    -2.1760 C.3   1 <1>   0.0400 
 21 C        7.5850     1.7950     0.5780 C.ar  1 <1>   0.0860 
 22 C       -2.1840     6.6790     0.9430 C.3   1 <1>   0.0400 
 23 C        7.4970     3.1450     0.9330 C.ar  1 <1>  -0.1500 
 24 C        8.7510     1.1200     0.9460 C.ar  1 <1>  -0.1500 
 25 C        8.5170     3.7830     1.6150 C.ar  1 <1>  -0.1500 
 26 C        9.7740     1.7520     1.6280 C.ar  1 <1>  -0.1500 
 27 C        9.6590     3.0880     1.9650 C.ar  1 <1>  -0.1500 
 28 H        2.7240    -0.4990    -1.2390 H     1 <1>   0.0800 
 29 H        3.2990    -0.0260     0.3590 H     1 <1>   0.0800 
 30 H       -1.4350     1.6400     0.5780 H     1 <1>   0.1500 
 31 H        1.7780     3.8130    -1.1440 H     1 <1>   0.1500 
 32 H        4.4450     0.8710    -2.3190 H     1 <1>   0.0800 
 33 H        4.7160     2.1360     0.3210 H     1 <1>   0.0800 
 34 H        5.4530     2.6160    -1.2090 H     1 <1>   0.0800 
 35 H       -4.8100     2.7730     1.2110 H     1 <1>   0.0800 
 36 H       -3.3120     2.0810     1.8210 H     1 <1>   0.0800 
 37 H       -3.7770     1.8550     0.1230 H     1 <1>   0.0800 
 38 H        0.6200     7.4100    -2.8010 H     1 <1>   0.0800 
 39 H       -0.6140     7.6000    -1.5650 H     1 <1>   0.0800 
 40 H       -0.7700     6.3260    -2.7820 H     1 <1>   0.0800 
 41 H       -2.7640     7.5720     0.7990 H     1 <1>   0.0800 
 42 H       -1.2040     6.9290     1.3100 H     1 <1>   0.0800 
 43 H       -2.6870     6.0220     1.6290 H     1 <1>   0.0800 
 44 H        6.6240     3.7160     0.6770 H     1 <1>   0.1500 
 45 H        8.8540     0.0790     0.6900 H     1 <1>   0.1500 
 46 H        8.4250     4.8240     1.8760 H     1 <1>   0.1500 
 47 H       10.6600     1.2030     1.8970 H     1 <1>   0.1500 
 48 H       10.4540     3.5820     2.4960 H     1 <1>   0.1500 
@<TRIPOS>BOND
  1   1   2  2   
  2   2   3  1   
  3   2   4  1   
  4   3   5  1   
  5   4   6  ar  
  6   4   7  ar  
  7   5   8  1   
  8   5  28  1   
  9   5  29  1   
 10   6   9  ar  
 11   6  30  1   
 12   7  10  ar  
 13   7  31  1   
 14   8  11  1   
 15   8  12  1   
 16   8  32  1   
 17   9  13  1   
 18   9  14  ar  
 19  10  14  ar  
 20  10  15  1   
 21  11  16  1   
 22  12  17  1   
 23  12  33  1   
 24  12  34  1   
 25  13  18  1   
 26  14  19  1   
 27  15  20  1   
 28  16  17  2   
 29  17  21  1   
 30  18  35  1   
 31  18  36  1   
 32  18  37  1   
 33  19  22  1   
 34  20  38  1   
 35  20  39  1   
 36  20  40  1   
 37  21  23  ar  
 38  21  24  ar  
 39  22  41  1   
 40  22  42  1   
 41  22  43  1   
 42  23  25  ar  
 43  23  44  1   
 44  24  26  ar  
 45  24  45  1   
 46  25  27  ar  
 47  25  46  1   
 48  26  27  ar  
 49  26  47  1   
 50  27  48  1   
@<TRIPOS>SUBSTRUCTURE
  1 ****   3 GROUP 4 **** **** 0

# MOE 2024.06 (io_trps.svl 2023.06)
