@<TRIPOS>MOLECULE
NONAME
32 33 1 0 0 
SMALL
USER_CHARGES


@<TRIPOS>ATOM
  1 CL      -0.0030    -0.1970    -0.6850 Cl    1 <1>  -0.1770 
  2 C        1.5540     0.5520    -0.4320 C.ar  1 <1>   0.1770 
  3 C        2.7030    -0.1630    -0.7160 C.ar  1 <1>  -0.1500 
  4 C        1.6140     1.8460     0.0490 C.ar  1 <1>  -0.1500 
  5 C        3.9400     0.4290    -0.5160 C.ar  1 <1>  -0.1500 
  6 C        2.8510     2.4350     0.2480 C.ar  1 <1>  -0.1500 
  7 C        4.0160     1.7350    -0.0320 C.ar  1 <1>   0.0830 
  8 O        5.1830     2.3880     0.1920 O.3   1 <1>  -0.3630 
  9 C        6.4260     1.7750    -0.0570 C.3   1 <1>   0.1200 
 10 C        7.5250     2.7760     0.3000 C.3   1 <1>  -0.1600 
 11 C        8.9200     2.1810     0.0590 C.3   1 <1>  -0.1600 
 12 C       10.0210     3.1860     0.4190 C.3   1 <1>   0.0960 
 13 N       11.3510     2.5920     0.1860 N.pl3 1 <1>   0.0480 
 14 C       12.1260     1.9240     1.0690 C.2   1 <1>   0.0360 
 15 C       12.0560     2.5870    -0.9590 C.2   1 <1>  -0.3020 
 16 N       13.2460     1.5050     0.5750 N.2   1 <1>  -0.5650 
 17 C       13.2040     1.9230    -0.7040 C.2   1 <1>   0.0770 
 18 H        2.6250    -1.1680    -1.0890 H     1 <1>   0.1500 
 19 H        0.7060     2.3810     0.2630 H     1 <1>   0.1500 
 20 H        4.8230    -0.1380    -0.7420 H     1 <1>   0.1500 
 21 H        2.9210     3.4410     0.6210 H     1 <1>   0.1500 
 22 H        6.4720     1.5120    -1.1000 H     1 <1>   0.0800 
 23 H        6.4990     0.8930     0.5560 H     1 <1>   0.0800 
 24 H        7.4230     3.0480     1.3360 H     1 <1>   0.0800 
 25 H        7.4000     3.6590    -0.3040 H     1 <1>   0.0800 
 26 H        9.0170     1.9070    -0.9780 H     1 <1>   0.0800 
 27 H        9.0390     1.2950     0.6600 H     1 <1>   0.0800 
 28 H        9.9450     3.4670     1.4550 H     1 <1>   0.0800 
 29 H        9.9290     4.0720    -0.1840 H     1 <1>   0.0800 
 30 H       11.8220     1.7620     2.0880 H     1 <1>   0.1500 
 31 H       11.7150     3.0420    -1.8700 H     1 <1>   0.1500 
 32 H       14.0160     1.7200    -1.3830 H     1 <1>   0.1500 
@<TRIPOS>BOND
  1   1   2  1   
  2   2   3  ar  
  3   2   4  ar  
  4   3   5  ar  
  5   3  18  1   
  6   4   6  ar  
  7   4  19  1   
  8   5   7  ar  
  9   5  20  1   
 10   6   7  ar  
 11   6  21  1   
 12   7   8  1   
 13   8   9  1   
 14   9  10  1   
 15   9  22  1   
 16   9  23  1   
 17  10  11  1   
 18  10  24  1   
 19  10  25  1   
 20  11  12  1   
 21  11  26  1   
 22  11  27  1   
 23  12  13  1   
 24  12  28  1   
 25  12  29  1   
 26  13  14  1   
 27  13  15  1   
 28  14  16  2   
 29  14  30  1   
 30  15  17  2   
 31  15  31  1   
 32  16  17  1   
 33  17  32  1   
@<TRIPOS>SUBSTRUCTURE
  1 ****   9 GROUP 4 **** **** 0

# MOE 2024.06 (io_trps.svl 2023.06)
