@<TRIPOS>MOLECULE
NONAME
27 29 1 0 0 
SMALL
USER_CHARGES


@<TRIPOS>ATOM
  1 O       -1.1910    -0.3850     1.6470 O.2   1 <1>  -0.5700 
  2 C       -1.9890    -1.0300     1.0300 C.2   1 <1>   0.4480 
  3 C       -1.7020    -2.1960     0.0880 C.3   1 <1>  -0.0450 
  4 C       -3.4790    -0.7160     1.1440 C.3   1 <1>  -0.0190 
  5 C       -0.1930    -2.4620     0.0160 C.2   1 <1>   0.9060 
  6 C       -2.4800    -3.4350     0.6170 C.3   1 <1>  -0.1600 
  7 C       -2.2880    -1.8330    -1.3070 C.3   1 <1>  -0.1600 
  8 C       -4.2160    -1.9610     1.6750 C.3   1 <1>  -0.1600 
  9 C       -4.0240    -0.3560    -0.2520 C.3   1 <1>  -0.1600 
 10 O        0.4800    -1.9200    -0.8730 O.co2 1 <1>  -0.9000 
 11 O        0.3150    -3.2970     0.7800 O.co2 1 <1>  -0.9000 
 12 C       -3.9900    -3.1460     0.7160 C.3   1 <1>  -0.0800 
 13 C       -3.7980    -1.5350    -1.2170 C.3   1 <1>  -0.0800 
 14 C       -4.5270    -2.7800    -0.6800 C.3   1 <1>  -0.1600 
 15 H       -3.6170     0.1100     1.8180 H     1 <1>   0.0800 
 16 H       -2.0990    -3.7030     1.5880 H     1 <1>   0.0800 
 17 H       -2.3010    -4.2720    -0.0360 H     1 <1>   0.0800 
 18 H       -1.7730    -0.9690    -1.6930 H     1 <1>   0.0800 
 19 H       -2.1070    -2.6430    -1.9910 H     1 <1>   0.0800 
 20 H       -5.2680    -1.7550     1.7680 H     1 <1>   0.0800 
 21 H       -3.8390    -2.2090     2.6530 H     1 <1>   0.0800 
 22 H       -3.5130     0.5170    -0.6210 H     1 <1>   0.0800 
 23 H       -5.0730    -0.1250    -0.1900 H     1 <1>   0.0800 
 24 H       -4.5000    -4.0180     1.0870 H     1 <1>   0.0800 
 25 H       -4.1740    -1.2850    -2.1950 H     1 <1>   0.0800 
 26 H       -5.5840    -2.5910    -0.6270 H     1 <1>   0.0800 
 27 H       -4.3750    -3.6060    -1.3530 H     1 <1>   0.0800 
@<TRIPOS>BOND
  1   1   2  2   
  2   2   3  1   
  3   2   4  1   
  4   3   5  1   
  5   3   6  1   
  6   3   7  1   
  7   4   8  1   
  8   4   9  1   
  9   4  15  1   
 10   5  10  ar  
 11   5  11  ar  
 12   6  12  1   
 13   6  16  1   
 14   6  17  1   
 15   7  13  1   
 16   7  18  1   
 17   7  19  1   
 18   8  12  1   
 19   8  20  1   
 20   8  21  1   
 21   9  13  1   
 22   9  22  1   
 23   9  23  1   
 24  12  14  1   
 25  12  24  1   
 26  13  14  1   
 27  13  25  1   
 28  14  26  1   
 29  14  27  1   
@<TRIPOS>SUBSTRUCTURE
  1 ****   3 GROUP 4 **** **** 0

# MOE 2024.06 (io_trps.svl 2023.06)
