@<TRIPOS>MOLECULE
NONAME
37 37 1 0 0 
SMALL
USER_CHARGES


@<TRIPOS>ATOM
  1 S       -0.2680     0.4090    -0.0730 S.o2  1 <1>   1.4470 
  2 O       -0.0480     0.8930     1.2720 O.2   1 <1>  -0.6500 
  3 O       -0.1790     1.3120    -1.1970 O.2   1 <1>  -0.6500 
  4 N        0.9220    -0.7330    -0.3890 N.am  1 <1>  -0.9140 
  5 C       -1.8030    -0.5520    -0.1470 C.ar  1 <1>  -0.0090 
  6 C        2.2470    -0.3320     0.0750 C.3   1 <1>   0.1160 
  7 C       -1.9830    -1.6670     0.6620 C.ar  1 <1>  -0.1500 
  8 C       -2.8370    -0.2000    -1.0060 C.ar  1 <1>  -0.1500 
  9 C       -3.1520    -2.4050     0.6170 C.ar  1 <1>  -0.1500 
 10 C       -4.0100    -0.9330    -1.0570 C.ar  1 <1>  -0.1500 
 11 C       -4.1740    -2.0410    -0.2430 C.ar  1 <1>  -0.1430 
 12 C       -5.4600    -2.8480    -0.2800 C.3   1 <1>  -0.0170 
 13 C       -6.4180    -2.3700     0.8160 C.3   1 <1>  -0.0990 
 14 C       -7.6840    -3.1950     0.8250 C.2   1 <1>   0.5690 
 15 O       -7.6410    -4.3200     1.2570 O.2   1 <1>  -0.5700 
 16 N       -8.8240    -2.6530     0.3390 N.am  1 <1>  -0.7300 
 17 C      -10.1220    -3.3370     0.3080 C.3   1 <1>   0.2780 
 18 C      -11.1850    -2.2860     0.5400 C.2   1 <1>  -0.2880 
 19 C      -12.1150    -1.9140    -0.3460 C.2   1 <1>  -0.3000 
 20 H        0.9490    -0.7620    -1.4080 H     1 <1>   0.4200 
 21 H        2.2550    -0.2600     1.1510 H     1 <1>   0.0800 
 22 H        2.5170     0.6250    -0.3400 H     1 <1>   0.0800 
 23 H        2.9770    -1.0650    -0.2250 H     1 <1>   0.0800 
 24 H       -1.1960    -1.9580     1.3370 H     1 <1>   0.1500 
 25 H       -2.7240     0.6610    -1.6450 H     1 <1>   0.1500 
 26 H       -3.2640    -3.2640     1.2570 H     1 <1>   0.1500 
 27 H       -4.7930    -0.6350    -1.7320 H     1 <1>   0.1500 
 28 H       -5.2350    -3.8910    -0.1320 H     1 <1>   0.0800 
 29 H       -5.9300    -2.7510    -1.2430 H     1 <1>   0.0800 
 30 H       -6.6550    -1.3330     0.6690 H     1 <1>   0.0800 
 31 H       -5.9440    -2.4700     1.7760 H     1 <1>   0.0800 
 32 H       -8.8470    -1.6990    -0.0210 H     1 <1>   0.3700 
 33 H      -10.1660    -4.0940     1.0740 H     1 <1>   0.0800 
 34 H      -10.2550    -3.8060    -0.6520 H     1 <1>   0.0800 
 35 H      -11.1170    -1.8550     1.5240 H     1 <1>   0.1500 
 36 H      -12.8620    -1.1630    -0.1520 H     1 <1>   0.1500 
 37 H      -12.2110    -2.3250    -1.3370 H     1 <1>   0.1500 
@<TRIPOS>BOND
  1   1   2  2   
  2   1   3  2   
  3   1   4  am  
  4   1   5  1   
  5   4   6  1   
  6   4  20  1   
  7   5   7  ar  
  8   5   8  ar  
  9   6  21  1   
 10   6  22  1   
 11   6  23  1   
 12   7   9  ar  
 13   7  24  1   
 14   8  10  ar  
 15   8  25  1   
 16   9  11  ar  
 17   9  26  1   
 18  10  11  ar  
 19  10  27  1   
 20  11  12  1   
 21  12  13  1   
 22  12  28  1   
 23  12  29  1   
 24  13  14  1   
 25  13  30  1   
 26  13  31  1   
 27  14  15  2   
 28  14  16  am  
 29  16  17  1   
 30  16  32  1   
 31  17  18  1   
 32  17  33  1   
 33  17  34  1   
 34  18  19  2   
 35  18  35  1   
 36  19  36  1   
 37  19  37  1   
@<TRIPOS>SUBSTRUCTURE
  1 ****  11 GROUP 4 **** **** 0

# MOE 2024.06 (io_trps.svl 2023.06)
