@<TRIPOS>MOLECULE
NONAME
43 45 1 0 0 
SMALL
USER_CHARGES


@<TRIPOS>ATOM
  1 CL      -0.2720     2.1140     2.3340 Cl    1 <1>  -0.1770 
  2 C        0.8450     2.3490     1.0080 C.ar  1 <1>   0.1770 
  3 C        0.3720     2.4250    -0.2960 C.ar  1 <1>  -0.1440 
  4 C        2.1900     2.4560     1.2980 C.ar  1 <1>  -0.1500 
  5 C        1.2910     2.6120    -1.3180 C.ar  1 <1>  -0.1500 
  6 C       -1.1130     2.3070    -0.6060 C.3   1 <1>  -0.0960 
  7 C        3.1060     2.6430     0.2750 C.ar  1 <1>   0.1000 
  8 C        2.6410     2.7200    -1.0340 C.ar  1 <1>  -0.1500 
  9 N        4.4570     2.7520     0.5780 N.pl3 1 <1>  -0.8380 
 10 C        5.3400     1.6700     0.0400 C.3   1 <1>   0.2090 
 11 C        5.0580     4.1060     0.3890 C.3   1 <1>   0.2090 
 12 C        6.7420     1.7400     0.6680 C.3   1 <1>   0.1400 
 13 C        6.4670     4.1890     1.0030 C.3   1 <1>   0.1400 
 14 N        7.3450     3.0950     0.4880 N.am  1 <1>  -0.6600 
 15 C        8.1900     3.3310    -0.5640 C.2   1 <1>   0.6900 
 16 O        8.1570     2.5970    -1.5380 O.2   1 <1>  -0.5700 
 17 N        9.0580     4.3910    -0.5330 N.am  1 <1>  -0.6600 
 18 C        9.6670     4.8890     0.7210 C.3   1 <1>   0.1400 
 19 C        9.9220     4.7070    -1.6920 C.3   1 <1>   0.1400 
 20 C       11.0860     5.2900     0.3370 C.3   1 <1>  -0.1600 
 21 C       10.9940     5.6420    -1.1440 C.3   1 <1>  -0.1600 
 22 H        2.5350     2.3940     2.3120 H     1 <1>   0.1500 
 23 H        0.9610     2.6750    -2.3410 H     1 <1>   0.1500 
 24 H       -1.4830     1.3560    -0.2660 H     1 <1>   0.0800 
 25 H       -1.2950     2.3870    -1.6620 H     1 <1>   0.0800 
 26 H       -1.6550     3.0880    -0.1040 H     1 <1>   0.0800 
 27 H        3.3470     2.8650    -1.8300 H     1 <1>   0.1500 
 28 H        5.4310     1.7700    -1.0280 H     1 <1>   0.0800 
 29 H        4.8990     0.7120     0.2520 H     1 <1>   0.0800 
 30 H        4.4230     4.8430     0.8490 H     1 <1>   0.0800 
 31 H        5.1200     4.3280    -0.6630 H     1 <1>   0.0800 
 32 H        7.3740     0.9950     0.2160 H     1 <1>   0.0800 
 33 H        6.6700     1.5210     1.7180 H     1 <1>   0.0800 
 34 H        6.3920     4.1080     2.0730 H     1 <1>   0.0800 
 35 H        6.8900     5.1480     0.7670 H     1 <1>   0.0800 
 36 H        9.6640     4.1290     1.4850 H     1 <1>   0.0800 
 37 H        9.1170     5.7490     1.0610 H     1 <1>   0.0800 
 38 H        9.3490     5.1700    -2.4770 H     1 <1>   0.0800 
 39 H       10.3680     3.7980    -2.0610 H     1 <1>   0.0800 
 40 H       11.7360     4.4430     0.4710 H     1 <1>   0.0800 
 41 H       11.4470     6.1090     0.9330 H     1 <1>   0.0800 
 42 H       10.6640     6.6590    -1.2610 H     1 <1>   0.0800 
 43 H       11.9320     5.5160    -1.6560 H     1 <1>   0.0800 
@<TRIPOS>BOND
  1   1   2  1   
  2   2   3  ar  
  3   2   4  ar  
  4   3   5  ar  
  5   3   6  1   
  6   4   7  ar  
  7   4  22  1   
  8   5   8  ar  
  9   5  23  1   
 10   6  24  1   
 11   6  25  1   
 12   6  26  1   
 13   7   8  ar  
 14   7   9  1   
 15   8  27  1   
 16   9  10  1   
 17   9  11  1   
 18  10  12  1   
 19  10  28  1   
 20  10  29  1   
 21  11  13  1   
 22  11  30  1   
 23  11  31  1   
 24  12  14  1   
 25  12  32  1   
 26  12  33  1   
 27  13  14  1   
 28  13  34  1   
 29  13  35  1   
 30  14  15  am  
 31  15  16  2   
 32  15  17  am  
 33  17  18  1   
 34  17  19  1   
 35  18  20  1   
 36  18  36  1   
 37  18  37  1   
 38  19  21  1   
 39  19  38  1   
 40  19  39  1   
 41  20  21  1   
 42  20  40  1   
 43  20  41  1   
 44  21  42  1   
 45  21  43  1   
@<TRIPOS>SUBSTRUCTURE
  1 ****  11 GROUP 4 **** **** 0

# MOE 2024.06 (io_trps.svl 2023.06)
