@<TRIPOS>MOLECULE
NONAME
32 33 1 0 0 
SMALL
USER_CHARGES


@<TRIPOS>ATOM
  1 S        0.2410    -0.2060    -1.3320 S.o2  1 <1>   1.2040 
  2 O        1.1710    -1.2430    -1.7280 O.2   1 <1>  -0.6500 
  3 O       -0.3530     0.6060    -2.3750 O.2   1 <1>  -0.6500 
  4 C       -1.0990    -0.9510    -0.3640 C.ar  1 <1>  -0.0090 
  5 C        1.0690     0.9110    -0.1670 C.3   1 <1>   0.3050 
  6 C       -2.3800    -0.4100    -0.3820 C.ar  1 <1>  -0.1500 
  7 C       -0.8770    -2.0650     0.4400 C.ar  1 <1>  -0.1500 
  8 C        1.5520     0.0680     0.9630 C.1   1 <1>   0.3570 
  9 C        2.2820     1.6070    -0.8420 C.3   1 <1>  -0.1600 
 10 C        0.1060     2.0030     0.3800 C.3   1 <1>  -0.1600 
 11 C       -3.4000    -0.9500     0.3820 C.ar  1 <1>  -0.1500 
 12 C       -1.8910    -2.6100     1.2070 C.ar  1 <1>  -0.1500 
 13 N        1.8990    -0.5670     1.8420 N.1   1 <1>  -0.5570 
 14 C        2.9790     2.6450     0.0540 C.3   1 <1>  -0.1600 
 15 C        0.8000     3.0430     1.2780 C.3   1 <1>  -0.1600 
 16 C       -3.1550    -2.0510     1.1800 C.ar  1 <1>  -0.1500 
 17 C        1.9840     3.6950     0.5570 C.3   1 <1>  -0.1600 
 18 H       -2.5900     0.4440    -1.0050 H     1 <1>   0.1500 
 19 H        0.1010    -2.5170     0.4710 H     1 <1>   0.1500 
 20 H        1.9410     2.1020    -1.7360 H     1 <1>   0.0800 
 21 H        3.0000     0.8630    -1.1480 H     1 <1>   0.0800 
 22 H       -0.6920     1.5450     0.9380 H     1 <1>   0.0800 
 23 H       -0.3400     2.5200    -0.4530 H     1 <1>   0.0800 
 24 H       -4.3850    -0.5160     0.3530 H     1 <1>   0.1500 
 25 H       -1.6950    -3.4700     1.8250 H     1 <1>   0.1500 
 26 H        3.7610     3.1330    -0.5040 H     1 <1>   0.0800 
 27 H        3.4420     2.1560     0.8960 H     1 <1>   0.0800 
 28 H        1.1470     2.5760     2.1860 H     1 <1>   0.0800 
 29 H        0.0910     3.8040     1.5590 H     1 <1>   0.0800 
 30 H       -3.9450    -2.4750     1.7770 H     1 <1>   0.1500 
 31 H        1.6210     4.2730    -0.2770 H     1 <1>   0.0800 
 32 H        2.4850     4.3720     1.2290 H     1 <1>   0.0800 
@<TRIPOS>BOND
  1   1   2  2   
  2   1   3  2   
  3   1   4  1   
  4   1   5  1   
  5   4   6  ar  
  6   4   7  ar  
  7   5   8  1   
  8   5   9  1   
  9   5  10  1   
 10   6  11  ar  
 11   6  18  1   
 12   7  12  ar  
 13   7  19  1   
 14   8  13  3   
 15   9  14  1   
 16   9  20  1   
 17   9  21  1   
 18  10  15  1   
 19  10  22  1   
 20  10  23  1   
 21  11  16  ar  
 22  11  24  1   
 23  12  16  ar  
 24  12  25  1   
 25  14  17  1   
 26  14  26  1   
 27  14  27  1   
 28  15  17  1   
 29  15  28  1   
 30  15  29  1   
 31  16  30  1   
 32  17  31  1   
 33  17  32  1   
@<TRIPOS>SUBSTRUCTURE
  1 ****   5 GROUP 4 **** **** 0

# MOE 2024.06 (io_trps.svl 2023.06)
