@<TRIPOS>MOLECULE
NONAME
28 27 1 0 0 
SMALL
USER_CHARGES


@<TRIPOS>ATOM
  1 O       -7.7860    -0.4920     1.1110 O.co2 1 <1>  -0.9000 
  2 C       -8.2450    -0.1250     0.0280 C.2   1 <1>   0.9060 
  3 O       -7.8030    -0.5930    -1.0240 O.co2 1 <1>  -0.9000 
  4 C       -8.8260     1.2580    -0.0380 C.3   1 <1>  -0.2660 
  5 C       -7.7710     2.3220     0.3780 C.3   1 <1>  -0.1600 
  6 C       -6.3880     2.2290    -0.3190 C.3   1 <1>   0.4230 
  7 N       -5.7800     0.9120    -0.0910 N.4   1 <1>  -0.8530 
  8 C       -5.3990     3.2870     0.1920 C.3   1 <1>  -0.1600 
  9 C       -5.7950     4.7250    -0.1840 C.3   1 <1>  -0.1600 
 10 C       -4.7090     5.7220     0.2340 C.3   1 <1>  -0.1600 
 11 C       -5.1060     7.1540    -0.1360 C.3   1 <1>  -0.2400 
 12 H       -9.6750     1.2980     0.6170 H     1 <1>   0.0800 
 13 H       -9.1620     1.4350    -1.0430 H     1 <1>   0.0800 
 14 H       -7.6240     2.2530     1.4420 H     1 <1>   0.0800 
 15 H       -8.2010     3.2870     0.1830 H     1 <1>   0.0800 
 16 H       -6.5230     2.3650    -1.3810 H     1 <1>   0.0800 
 17 H       -6.1320     0.5110     0.8020 H     1 <1>   0.4500 
 18 H       -4.7750     0.8230    -0.1910 H     1 <1>   0.4500 
 19 H       -6.2630     0.2320    -0.7290 H     1 <1>   0.4500 
 20 H       -4.4320     3.0900    -0.2380 H     1 <1>   0.0800 
 21 H       -5.3140     3.2140     1.2630 H     1 <1>   0.0800 
 22 H       -6.7160     4.9970     0.3030 H     1 <1>   0.0800 
 23 H       -5.9460     4.7930    -1.2490 H     1 <1>   0.0800 
 24 H       -3.7790     5.4790    -0.2530 H     1 <1>   0.0800 
 25 H       -4.5520     5.6660     1.2980 H     1 <1>   0.0800 
 26 H       -5.2470     7.2440    -1.1990 H     1 <1>   0.0800 
 27 H       -4.3320     7.8390     0.1630 H     1 <1>   0.0800 
 28 H       -6.0190     7.4330     0.3600 H     1 <1>   0.0800 
@<TRIPOS>BOND
  1   1   2  ar  
  2   2   3  ar  
  3   2   4  1   
  4   4   5  1   
  5   4  12  1   
  6   4  13  1   
  7   5   6  1   
  8   5  14  1   
  9   5  15  1   
 10   6   7  1   
 11   6   8  1   
 12   6  16  1   
 13   7  17  1   
 14   7  18  1   
 15   7  19  1   
 16   8   9  1   
 17   8  20  1   
 18   8  21  1   
 19   9  10  1   
 20   9  22  1   
 21   9  23  1   
 22  10  11  1   
 23  10  24  1   
 24  10  25  1   
 25  11  26  1   
 26  11  27  1   
 27  11  28  1   
@<TRIPOS>SUBSTRUCTURE
  1 ****   6 GROUP 4 **** **** 0

# MOE 2024.06 (io_trps.svl 2023.06)
