@<TRIPOS>MOLECULE
NONAME
46 48 1 0 0 
SMALL
USER_CHARGES


@<TRIPOS>ATOM
  1 F       -0.5350    -2.1430    -1.9110 F     1 <1>  -0.1900 
  2 C       -1.6430    -2.0250    -1.2320 C.ar  1 <1>   0.1900 
  3 C       -2.0380    -3.0730    -0.4240 C.ar  1 <1>  -0.1500 
  4 C       -2.3790    -0.8630    -1.3500 C.ar  1 <1>  -0.1500 
  5 C       -3.2220    -2.9590     0.2920 C.ar  1 <1>  -0.1440 
  6 C       -3.5530    -0.7500    -0.6270 C.ar  1 <1>  -0.1500 
  7 C       -3.9710    -1.7910     0.1900 C.ar  1 <1>  -0.1500 
  8 C       -3.6940    -4.1010     1.1730 C.3   1 <1>   0.4870 
  9 N       -4.7930    -4.8160     0.4750 N.4   1 <1>  -0.9590 
 10 C       -5.4500    -5.8300     1.3690 C.3   1 <1>   0.3430 
 11 C       -4.3220    -5.4560    -0.8050 C.3   1 <1>   0.3430 
 12 C       -6.5660    -6.5960     0.6350 C.3   1 <1>   0.1100 
 13 C       -5.4530    -6.2360    -1.5070 C.3   1 <1>   0.1100 
 14 N       -6.0570    -7.2300    -0.6000 N.3   1 <1>  -0.8100 
 15 C       -7.0890    -8.0310    -1.2900 C.3   1 <1>   0.2530 
 16 C       -7.5670    -9.1790    -0.3970 C.ar  1 <1>  -0.1430 
 17 C       -8.8800    -9.3120     0.0760 C.ar  1 <1>  -0.1430 
 18 C       -6.6160   -10.1290    -0.0510 C.ar  1 <1>  -0.1500 
 19 C       -9.1860   -10.4030     0.8890 C.ar  1 <1>  -0.1500 
 20 C       -9.9880    -8.2970    -0.2710 C.3   1 <1>   1.1630 
 21 C       -6.9390   -11.2030     0.7550 C.ar  1 <1>  -0.1500 
 22 C       -8.2270   -11.3390     1.2270 C.ar  1 <1>  -0.1500 
 23 F      -10.1880    -8.1950    -1.5790 F     1 <1>  -0.3400 
 24 F       -9.6870    -7.0730     0.1540 F     1 <1>  -0.3400 
 25 F      -11.1700    -8.5830     0.2610 F     1 <1>  -0.3400 
 26 H       -1.4160    -3.9500    -0.3700 H     1 <1>   0.1500 
 27 H       -2.0360    -0.0690    -1.9900 H     1 <1>   0.1500 
 28 H       -4.1390     0.1530    -0.6990 H     1 <1>   0.1500 
 29 H       -4.8850    -1.6690     0.7460 H     1 <1>   0.1500 
 30 H       -4.0460    -3.7030     2.1110 H     1 <1>   0.0800 
 31 H       -2.8780    -4.7760     1.3730 H     1 <1>   0.0800 
 32 H       -5.4950    -4.1150     0.2130 H     1 <1>   0.4500 
 33 H       -5.8670    -5.3440     2.2360 H     1 <1>   0.0800 
 34 H       -4.7190    -6.5460     1.7060 H     1 <1>   0.0800 
 35 H       -3.5200    -6.1440    -0.5930 H     1 <1>   0.0800 
 36 H       -3.9460    -4.7030    -1.4770 H     1 <1>   0.0800 
 37 H       -7.3740    -5.9240     0.4020 H     1 <1>   0.0800 
 38 H       -6.9450    -7.3520     1.3020 H     1 <1>   0.0800 
 39 H       -5.0390    -6.7420    -2.3630 H     1 <1>   0.0800 
 40 H       -6.2040    -5.5490    -1.8590 H     1 <1>   0.0800 
 41 H       -6.6620    -8.4620    -2.1810 H     1 <1>   0.0800 
 42 H       -7.8920    -7.3890    -1.6020 H     1 <1>   0.0800 
 43 H       -5.6060   -10.0310    -0.4120 H     1 <1>   0.1500 
 44 H      -10.1830   -10.5450     1.2750 H     1 <1>   0.1500 
 45 H       -6.1890   -11.9320     1.0130 H     1 <1>   0.1500 
 46 H       -8.4850   -12.1750     1.8550 H     1 <1>   0.1500 
@<TRIPOS>BOND
  1   1   2  1   
  2   2   3  ar  
  3   2   4  ar  
  4   3   5  ar  
  5   3  26  1   
  6   4   6  ar  
  7   4  27  1   
  8   5   7  ar  
  9   5   8  1   
 10   6   7  ar  
 11   6  28  1   
 12   7  29  1   
 13   8   9  1   
 14   8  30  1   
 15   8  31  1   
 16   9  10  1   
 17   9  11  1   
 18   9  32  1   
 19  10  12  1   
 20  10  33  1   
 21  10  34  1   
 22  11  13  1   
 23  11  35  1   
 24  11  36  1   
 25  12  14  1   
 26  12  37  1   
 27  12  38  1   
 28  13  14  1   
 29  13  39  1   
 30  13  40  1   
 31  14  15  1   
 32  15  16  1   
 33  15  41  1   
 34  15  42  1   
 35  16  17  ar  
 36  16  18  ar  
 37  17  19  ar  
 38  17  20  1   
 39  18  21  ar  
 40  18  43  1   
 41  19  22  ar  
 42  19  44  1   
 43  20  23  1   
 44  20  24  1   
 45  20  25  1   
 46  21  22  ar  
 47  21  45  1   
 48  22  46  1   
@<TRIPOS>SUBSTRUCTURE
  1 ****  12 GROUP 4 **** **** 0

# MOE 2024.06 (io_trps.svl 2023.06)
