@<TRIPOS>MOLECULE
NONAME
49 54 1 0 0 
SMALL
USER_CHARGES


@<TRIPOS>ATOM
  1 O        1.9700    -0.3220    -0.3910 O.2   1 <1>  -0.5700 
  2 C        1.8210    -1.4460     0.0270 C.2   1 <1>   0.5690 
  3 N        2.7580    -2.4500     0.0020 N.am  1 <1>  -0.1200 
  4 C        0.5080    -1.9250     0.6290 C.3   1 <1>  -0.0190 
  5 N        4.1740    -2.1980    -0.2440 N.am  1 <1>  -0.4300 
  6 C        2.2890    -3.6610     0.4510 C.2   1 <1>   0.5690 
  7 C        0.8520    -3.5540     0.9400 C.3   1 <1>  -0.0190 
  8 C       -0.8090    -1.8950    -0.3760 C.3   1 <1>   0.0580 
  9 C        5.0510    -1.8270     0.7250 C.2   1 <1>   0.5690 
 10 O        2.8970    -4.7050     0.4480 O.2   1 <1>  -0.5700 
 11 C       -0.2690    -4.4500     0.1130 C.3   1 <1>   0.0580 
 12 C       -1.9170    -2.9050    -0.9900 C.2   1 <1>  -0.2880 
 13 C       -0.4500    -3.1450    -0.0820 C.3   1 <1>  -0.1600 
 14 O        4.6820    -1.6850     1.8720 O.2   1 <1>  -0.5700 
 15 C        6.5260    -1.5890     0.3370 C.3   1 <1>   0.0610 
 16 C       -1.6340    -4.2430    -0.7340 C.2   1 <1>  -0.2880 
 17 C        6.6300    -0.4600    -0.7210 C.3   1 <1>  -0.1600 
 18 C        7.1420    -2.8820    -0.2580 C.3   1 <1>  -0.1600 
 19 C        7.3820    -1.1730     1.5640 C.3   1 <1>  -0.1600 
 20 C        8.0960    -0.2260    -1.1340 C.3   1 <1>  -0.0800 
 21 C        8.6090    -2.6540    -0.6690 C.3   1 <1>  -0.0800 
 22 C        8.8500    -0.9390     1.1640 C.3   1 <1>  -0.0800 
 23 C        8.6720    -1.5290    -1.7190 C.3   1 <1>  -0.1600 
 24 C        8.9130     0.1770     0.1070 C.3   1 <1>  -0.1600 
 25 C        9.4240    -2.2380     0.5690 C.3   1 <1>  -0.1600 
 26 H        0.3220    -1.3780     1.5390 H     1 <1>   0.0800 
 27 H        4.4980    -2.3130    -1.2050 H     1 <1>   0.3700 
 28 H        0.8280    -3.7700     1.9970 H     1 <1>   0.0800 
 29 H       -0.4380    -1.3930    -1.2600 H     1 <1>   0.0800 
 30 H        0.3340    -5.0450    -0.5610 H     1 <1>   0.0800 
 31 H       -2.7520    -2.4850    -1.5280 H     1 <1>   0.1500 
 32 H       -1.1610    -3.1060     0.9060 H     1 <1>   0.0800 
 33 H        0.1800    -3.2000    -1.0680 H     1 <1>   0.0800 
 34 H       -2.1950    -5.1170    -1.0240 H     1 <1>   0.1500 
 35 H        6.2210     0.4500    -0.3170 H     1 <1>   0.0800 
 36 H        6.0580    -0.7100    -1.5960 H     1 <1>   0.0800 
 37 H        6.5850    -3.2030    -1.1190 H     1 <1>   0.0800 
 38 H        7.0920    -3.6720     0.4720 H     1 <1>   0.0800 
 39 H        7.3330    -1.9410     2.3170 H     1 <1>   0.0800 
 40 H        6.9810    -0.2740     1.9980 H     1 <1>   0.0800 
 41 H        8.1460     0.5580    -1.8710 H     1 <1>   0.0800 
 42 H        9.0170    -3.5610    -1.0820 H     1 <1>   0.0800 
 43 H        9.4210    -0.6530     2.0310 H     1 <1>   0.0800 
 44 H        9.6930    -1.3700    -2.0190 H     1 <1>   0.0800 
 45 H        8.1170    -1.8140    -2.5960 H     1 <1>   0.0800 
 46 H        8.5240     1.0920     0.5190 H     1 <1>   0.0800 
 47 H        9.9370     0.3560    -0.1730 H     1 <1>   0.0800 
 48 H       10.4540    -2.0880     0.2950 H     1 <1>   0.0800 
 49 H        9.3930    -3.0210     1.3060 H     1 <1>   0.0800 
@<TRIPOS>BOND
  1   1   2  2   
  2   2   3  am  
  3   2   4  1   
  4   3   5  1   
  5   3   6  am  
  6   4   7  1   
  7   4   8  1   
  8   4  26  1   
  9   5   9  am  
 10   5  27  1   
 11   6   7  1   
 12   6  10  2   
 13   7  11  1   
 14   7  28  1   
 15   8  12  1   
 16   8  13  1   
 17   8  29  1   
 18   9  14  2   
 19   9  15  1   
 20  11  13  1   
 21  11  16  1   
 22  11  30  1   
 23  12  16  2   
 24  12  31  1   
 25  13  32  1   
 26  13  33  1   
 27  15  17  1   
 28  15  18  1   
 29  15  19  1   
 30  16  34  1   
 31  17  20  1   
 32  17  35  1   
 33  17  36  1   
 34  18  21  1   
 35  18  37  1   
 36  18  38  1   
 37  19  22  1   
 38  19  39  1   
 39  19  40  1   
 40  20  23  1   
 41  20  24  1   
 42  20  41  1   
 43  21  23  1   
 44  21  25  1   
 45  21  42  1   
 46  22  24  1   
 47  22  25  1   
 48  22  43  1   
 49  23  44  1   
 50  23  45  1   
 51  24  46  1   
 52  24  47  1   
 53  25  48  1   
 54  25  49  1   
@<TRIPOS>SUBSTRUCTURE
  1 ****   5 GROUP 4 **** **** 0

# MOE 2024.06 (io_trps.svl 2023.06)
