@<TRIPOS>MOLECULE
NONAME
41 42 1 0 0 
SMALL
USER_CHARGES


@<TRIPOS>ATOM
  1 S        0.6570    -0.6510    -1.3910 S.o2  1 <1>   1.4970 
  2 O        0.9930     0.2510    -2.4760 O.2   1 <1>  -0.6500 
  3 O        0.7790    -2.0770    -1.6070 O.2   1 <1>  -0.6500 
  4 N        1.5960    -0.2660    -0.0590 N.2   1 <1>  -0.6380 
  5 C       -1.0420    -0.3080    -0.8350 C.ar  1 <1>  -0.0090 
  6 C        1.6190     0.9280     0.3860 C.2   1 <1>   0.4860 
  7 C       -1.4950    -0.7410     0.4060 C.ar  1 <1>  -0.1500 
  8 C       -1.9360     0.3880    -1.6410 C.ar  1 <1>  -0.1500 
  9 N        2.4010     1.1020     1.5040 N.pl3 1 <1>  -0.5500 
 10 C        0.9480     2.1190    -0.0750 C.2   1 <1>  -0.1360 
 11 C       -2.7840    -0.4760     0.8340 C.ar  1 <1>  -0.1500 
 12 C       -3.2260     0.6570    -1.2190 C.ar  1 <1>  -0.1500 
 13 C        2.5260     2.3010     2.1750 C.2   1 <1>  -0.0500 
 14 C        1.0570     3.3120     0.5680 C.2   1 <1>  -0.1380 
 15 C       -3.6580     0.2290     0.0250 C.ar  1 <1>  -0.1430 
 16 C        1.8680     3.3990     1.7290 C.2   1 <1>  -0.1500 
 17 C        0.3470     4.5670     0.0900 C.3   1 <1>  -0.1020 
 18 C       -5.0750     0.5200     0.4920 C.3   1 <1>  -0.0170 
 19 C       -6.0220    -0.6100     0.0740 C.3   1 <1>  -0.1600 
 20 C       -7.4600    -0.3410     0.5340 C.3   1 <1>  -0.1600 
 21 C       -8.3940    -1.4780     0.1100 C.3   1 <1>  -0.2400 
 22 H       -0.8300    -1.2950     1.0480 H     1 <1>   0.1500 
 23 H       -1.6200     0.7260    -2.6140 H     1 <1>   0.1500 
 24 H        2.8980     0.2620     1.8060 H     1 <1>   0.4000 
 25 H        0.3460     2.0610    -0.9580 H     1 <1>   0.1500 
 26 H       -3.1050    -0.8230     1.8010 H     1 <1>   0.1500 
 27 H       -3.8960     1.1980    -1.8650 H     1 <1>   0.1500 
 28 H        3.1580     2.3230     3.0490 H     1 <1>   0.1500 
 29 H        1.9480     4.3450     2.2350 H     1 <1>   0.1500 
 30 H        1.0690     5.3310    -0.1370 H     1 <1>   0.0800 
 31 H       -0.3130     4.9290     0.8570 H     1 <1>   0.0800 
 32 H       -0.2310     4.3690    -0.7940 H     1 <1>   0.0800 
 33 H       -5.4100     1.4510     0.0670 H     1 <1>   0.0800 
 34 H       -5.0860     0.6280     1.5620 H     1 <1>   0.0800 
 35 H       -5.6740    -1.5360     0.5000 H     1 <1>   0.0800 
 36 H       -5.9990    -0.7110    -0.9980 H     1 <1>   0.0800 
 37 H       -7.8120     0.5820     0.1060 H     1 <1>   0.0800 
 38 H       -7.4870    -0.2440     1.6060 H     1 <1>   0.0800 
 39 H       -8.4020    -1.5800    -0.9610 H     1 <1>   0.0800 
 40 H       -9.3970    -1.2730     0.4410 H     1 <1>   0.0800 
 41 H       -8.0750    -2.4090     0.5440 H     1 <1>   0.0800 
@<TRIPOS>BOND
  1   1   2  2   
  2   1   3  2   
  3   1   4  1   
  4   1   5  1   
  5   4   6  2   
  6   5   7  ar  
  7   5   8  ar  
  8   6   9  1   
  9   6  10  1   
 10   7  11  ar  
 11   7  22  1   
 12   8  12  ar  
 13   8  23  1   
 14   9  13  1   
 15   9  24  1   
 16  10  14  2   
 17  10  25  1   
 18  11  15  ar  
 19  11  26  1   
 20  12  15  ar  
 21  12  27  1   
 22  13  16  2   
 23  13  28  1   
 24  14  16  1   
 25  14  17  1   
 26  15  18  1   
 27  16  29  1   
 28  17  30  1   
 29  17  31  1   
 30  17  32  1   
 31  18  19  1   
 32  18  33  1   
 33  18  34  1   
 34  19  20  1   
 35  19  35  1   
 36  19  36  1   
 37  20  21  1   
 38  20  37  1   
 39  20  38  1   
 40  21  39  1   
 41  21  40  1   
 42  21  41  1   
@<TRIPOS>SUBSTRUCTURE
  1 ****   5 GROUP 4 **** **** 0

# MOE 2024.06 (io_trps.svl 2023.06)
