@<TRIPOS>MOLECULE
NONAME
45 46 1 0 0 
SMALL
USER_CHARGES


@<TRIPOS>ATOM
  1 O        1.6230     0.5840     1.2810 O.3   1 <1>  -0.3620 
  2 C        2.7570     0.4470     0.5500 C.ar  1 <1>   0.0830 
  3 C        1.6280     0.4030     2.6790 C.3   1 <1>   0.0400 
  4 C        2.6610     0.7030    -0.8080 C.ar  1 <1>  -0.1500 
  5 C        3.9860     0.0720     1.0860 C.ar  1 <1>  -0.1500 
  6 C        3.7700     0.5860    -1.6270 C.ar  1 <1>  -0.1500 
  7 C        5.0940    -0.0450     0.2650 C.ar  1 <1>  -0.1500 
  8 C        4.9940     0.2070    -1.0950 C.ar  1 <1>  -0.1430 
  9 C        6.2160     0.0720    -1.9940 C.3   1 <1>   0.3390 
 10 N        7.0480     1.2920    -1.9000 N.pl3 1 <1>  -0.6810 
 11 C        6.5870     2.3790    -2.6580 C.1   1 <1>   0.6830 
 12 C        8.0790     1.4220    -0.9970 C.ar  1 <1>   0.8190 
 13 N        6.1840     3.2160    -3.3160 N.1   1 <1>  -0.5570 
 14 N        8.4960     0.3310    -0.4100 N.ar  1 <1>  -0.6200 
 15 N        8.5650     2.6170    -0.8050 N.ar  1 <1>  -0.6200 
 16 C        9.4790     0.5110     0.4310 C.ar  1 <1>   0.7200 
 17 C        9.5370     2.6770     0.0640 C.ar  1 <1>   0.7200 
 18 N       10.0350     1.6580     0.7100 N.ar  1 <1>  -0.6200 
 19 N        9.9680    -0.6070     1.0790 N.pl3 1 <1>  -0.8380 
 20 N       10.0810     3.9210     0.3140 N.pl3 1 <1>  -0.8380 
 21 C       11.2710    -0.5900     1.8040 C.3   1 <1>   0.1290 
 22 C        9.2570    -1.9170     1.0820 C.3   1 <1>   0.1290 
 23 C       10.9710     4.1830     1.4820 C.3   1 <1>   0.1290 
 24 C        9.7740     5.1090    -0.5350 C.3   1 <1>   0.1290 
 25 H        0.6320     0.5820     3.0430 H     1 <1>   0.0800 
 26 H        2.3110     1.1080     3.1190 H     1 <1>   0.0800 
 27 H        1.9220    -0.6080     2.8990 H     1 <1>   0.0800 
 28 H        1.7110     0.9970    -1.2170 H     1 <1>   0.1500 
 29 H        4.0990    -0.1290     2.1340 H     1 <1>   0.1500 
 30 H        3.6720     0.7980    -2.6770 H     1 <1>   0.1500 
 31 H        6.0400    -0.3290     0.6930 H     1 <1>   0.1500 
 32 H        5.9020    -0.0680    -3.0140 H     1 <1>   0.0800 
 33 H        6.7760    -0.8040    -1.7170 H     1 <1>   0.0800 
 34 H       11.9350     0.1410     1.3750 H     1 <1>   0.0800 
 35 H       11.7450    -1.5530     1.7380 H     1 <1>   0.0800 
 36 H       11.1040    -0.3460     2.8380 H     1 <1>   0.0800 
 37 H        8.2010    -1.7810     0.9240 H     1 <1>   0.0800 
 38 H        9.3940    -2.4070     2.0300 H     1 <1>   0.0800 
 39 H        9.6510    -2.5420     0.2990 H     1 <1>   0.0800 
 40 H       10.7840     3.4740     2.2710 H     1 <1>   0.0800 
 41 H       10.7920     5.1700     1.8680 H     1 <1>   0.0800 
 42 H       11.9990     4.1010     1.1750 H     1 <1>   0.0800 
 43 H        8.9080     5.6160    -0.1440 H     1 <1>   0.0800 
 44 H        9.5740     4.8090    -1.5490 H     1 <1>   0.0800 
 45 H       10.6090     5.7860    -0.5420 H     1 <1>   0.0800 
@<TRIPOS>BOND
  1   1   2  1   
  2   1   3  1   
  3   2   4  ar  
  4   2   5  ar  
  5   3  25  1   
  6   3  26  1   
  7   3  27  1   
  8   4   6  ar  
  9   4  28  1   
 10   5   7  ar  
 11   5  29  1   
 12   6   8  ar  
 13   6  30  1   
 14   7   8  ar  
 15   7  31  1   
 16   8   9  1   
 17   9  10  1   
 18   9  32  1   
 19   9  33  1   
 20  10  11  1   
 21  10  12  1   
 22  11  13  3   
 23  12  14  ar  
 24  12  15  ar  
 25  14  16  ar  
 26  15  17  ar  
 27  16  18  ar  
 28  16  19  1   
 29  17  18  ar  
 30  17  20  1   
 31  19  21  1   
 32  19  22  1   
 33  20  23  1   
 34  20  24  1   
 35  21  34  1   
 36  21  35  1   
 37  21  36  1   
 38  22  37  1   
 39  22  38  1   
 40  22  39  1   
 41  23  40  1   
 42  23  41  1   
 43  23  42  1   
 44  24  43  1   
 45  24  44  1   
 46  24  45  1   
@<TRIPOS>SUBSTRUCTURE
  1 ****  12 GROUP 4 **** **** 0

# MOE 2024.06 (io_trps.svl 2023.06)
