@<TRIPOS>MOLECULE
NONAME
50 53 1 0 0 
SMALL
USER_CHARGES


@<TRIPOS>ATOM
  1 O       -1.7000    -0.7530     1.4820 O.3   1 <1>  -0.3680 
  2 C       -2.2250    -1.2310     0.3270 C.ar  1 <1>   0.0750 
  3 C       -1.4920     0.6290     1.6710 C.3   1 <1>   0.0320 
  4 C       -2.3650    -2.6040     0.2360 C.ar  1 <1>  -0.1570 
  5 C       -2.6210    -0.4300    -0.7390 C.ar  1 <1>  -0.1570 
  6 C       -2.8960    -3.1980    -0.9020 C.ar  1 <1>  -0.1510 
  7 C       -3.1500    -1.0120    -1.8770 C.ar  1 <1>  -0.1570 
  8 C       -3.2890    -2.3870    -1.9600 C.ar  1 <1>  -0.1570 
  9 C       -3.0480    -4.7120    -0.9990 C.3   1 <1>   0.5730 
 10 N       -3.7810    -5.2410     0.1770 N.pl3 1 <1>  -0.4620 
 11 C       -1.6670    -5.3810    -1.0960 C.3   1 <1>  -0.1670 
 12 N       -4.8540    -4.6560     0.8100 N.2   1 <1>  -0.2670 
 13 C       -3.4670    -6.3660     0.7750 C.cat 1 <1>   1.0690 
 14 C       -1.7370    -6.8960    -0.8640 C.3   1 <1>   0.3850 
 15 C       -5.0930    -5.4630     1.7800 C.2   1 <1>   0.7460 
 16 N       -4.2630    -6.5210     1.8010 N.pl3 1 <1>  -0.7040 
 17 N       -2.5130    -7.1840     0.3460 N.pl3 1 <1>  -0.7180 
 18 C       -0.3710    -7.5290    -0.6760 C.ar  1 <1>  -0.1510 
 19 N       -6.0640    -5.3650     2.7190 N.pl3 1 <1>  -0.8980 
 20 C        0.0520    -8.5170    -1.5530 C.ar  1 <1>  -0.1570 
 21 C        0.4620    -7.1550     0.3710 C.ar  1 <1>  -0.1570 
 22 C        1.2840    -9.1230    -1.3830 C.ar  1 <1>  -0.1570 
 23 C        1.6930    -7.7630     0.5370 C.ar  1 <1>  -0.1570 
 24 C        2.1110    -8.7510    -0.3380 C.ar  1 <1>  -0.1510 
 25 C        3.4640    -9.4200    -0.1530 C.3   1 <1>  -0.0250 
 26 C        3.3390   -10.6440     0.7570 C.3   1 <1>  -0.2470 
 27 H       -1.0620     0.7730     2.6450 H     1 <1>   0.0720 
 28 H       -2.4390     1.1360     1.6110 H     1 <1>   0.0720 
 29 H       -0.8150     0.9870     0.9160 H     1 <1>   0.0720 
 30 H       -2.0490    -3.1910     1.0780 H     1 <1>   0.1430 
 31 H       -2.5260     0.6390    -0.7010 H     1 <1>   0.1430 
 32 H       -3.4560    -0.3890    -2.7010 H     1 <1>   0.1430 
 33 H       -3.7060    -2.8080    -2.8580 H     1 <1>   0.1430 
 34 H       -3.6210    -4.9550    -1.8780 H     1 <1>   0.0720 
 35 H       -1.0010    -4.9340    -0.3800 H     1 <1>   0.0720 
 36 H       -1.2460    -5.1880    -2.0660 H     1 <1>   0.0720 
 37 H       -2.2310    -7.3600    -1.7030 H     1 <1>   0.0720 
 38 H       -4.3540    -7.2970     2.4430 H     1 <1>   0.4450 
 39 H       -2.1920    -8.0020     0.8670 H     1 <1>   0.4450 
 40 H       -5.7250    -5.3650     3.6830 H     1 <1>   0.3940 
 41 H       -6.6520    -4.5380     2.5720 H     1 <1>   0.3940 
 42 H       -0.5650    -8.8320    -2.3770 H     1 <1>   0.1430 
 43 H        0.1740    -6.3900     1.0700 H     1 <1>   0.1430 
 44 H        1.6000    -9.8910    -2.0690 H     1 <1>   0.1430 
 45 H        2.3310    -7.4660     1.3520 H     1 <1>   0.1430 
 46 H        4.1590    -8.7210     0.2780 H     1 <1>   0.0720 
 47 H        3.8550    -9.7210    -1.1090 H     1 <1>   0.0720 
 48 H        2.9690   -10.3520     1.7230 H     1 <1>   0.0720 
 49 H        4.2990   -11.1110     0.8810 H     1 <1>   0.0720 
 50 H        2.6590   -11.3570     0.3270 H     1 <1>   0.0720 
@<TRIPOS>BOND
  1   1   2  1   
  2   1   3  1   
  3   2   4  ar  
  4   2   5  ar  
  5   3  27  1   
  6   3  28  1   
  7   3  29  1   
  8   4   6  ar  
  9   4  30  1   
 10   5   7  ar  
 11   5  31  1   
 12   6   8  ar  
 13   6   9  1   
 14   7   8  ar  
 15   7  32  1   
 16   8  33  1   
 17   9  10  1   
 18   9  11  1   
 19   9  34  1   
 20  10  12  1   
 21  10  13  ar  
 22  11  14  1   
 23  11  35  1   
 24  11  36  1   
 25  12  15  2   
 26  13  16  ar  
 27  13  17  ar  
 28  14  17  1   
 29  14  18  1   
 30  14  37  1   
 31  15  16  1   
 32  15  19  1   
 33  16  38  1   
 34  17  39  1   
 35  18  20  ar  
 36  18  21  ar  
 37  19  40  1   
 38  19  41  1   
 39  20  22  ar  
 40  20  42  1   
 41  21  23  ar  
 42  21  43  1   
 43  22  24  ar  
 44  22  44  1   
 45  23  24  ar  
 46  23  45  1   
 47  24  25  1   
 48  25  26  1   
 49  25  46  1   
 50  25  47  1   
 51  26  48  1   
 52  26  49  1   
 53  26  50  1   
@<TRIPOS>SUBSTRUCTURE
  1 ****  11 GROUP 4 **** **** 0

# MOE 2024.06 (io_trps.svl 2023.06)
