@<TRIPOS>MOLECULE
NONAME
33 34 1 0 0 
SMALL
USER_CHARGES


@<TRIPOS>ATOM
  1 BR      -0.0780    -0.5540     1.1540 Br    1 <1>  -0.1110 
  2 C        1.6840    -1.0820     0.5840 C.ar  1 <1>   0.1110 
  3 C        2.3670    -2.0280     1.3230 C.ar  1 <1>  -0.1500 
  4 C        2.2170    -0.5020    -0.5500 C.ar  1 <1>  -0.1500 
  5 C        3.6360    -2.4110     0.9160 C.ar  1 <1>  -0.1440 
  6 C        3.4840    -0.8830    -0.9550 C.ar  1 <1>  -0.1500 
  7 C        4.1990    -1.8350    -0.2240 C.ar  1 <1>   0.0830 
  8 C        4.3990    -3.4560     1.7180 C.3   1 <1>  -0.0960 
  9 O        5.4480    -2.2400    -0.5720 O.3   1 <1>  -0.3630 
 10 C        6.1430    -1.6650    -1.6690 C.3   1 <1>   0.1810 
 11 C        7.5580    -2.2220    -1.7970 C.2   1 <1>   0.5690 
 12 O        7.8730    -2.7200    -2.8540 O.2   1 <1>  -0.5700 
 13 N        8.4550    -2.1230    -0.7640 N.am  1 <1>  -0.6600 
 14 C        8.1750    -1.5760     0.5820 C.3   1 <1>   0.1400 
 15 C        9.8300    -2.6570    -0.8480 C.3   1 <1>   0.1400 
 16 C        9.5330    -1.5400     1.2730 C.3   1 <1>  -0.1600 
 17 C       10.3430    -2.6380     0.5870 C.3   1 <1>  -0.1600 
 18 H        1.9070    -2.4520     2.1970 H     1 <1>   0.1500 
 19 H        1.6520     0.2290    -1.0990 H     1 <1>   0.1500 
 20 H        3.8910    -0.4310    -1.8390 H     1 <1>   0.1500 
 21 H        3.7960    -3.8540     2.5130 H     1 <1>   0.0800 
 22 H        5.2830    -3.0150     2.1430 H     1 <1>   0.0800 
 23 H        4.6940    -4.2660     1.0740 H     1 <1>   0.0800 
 24 H        6.1960    -0.6030    -1.5200 H     1 <1>   0.0800 
 25 H        5.5930    -1.8850    -2.5650 H     1 <1>   0.0800 
 26 H        7.5100    -2.2460     1.1010 H     1 <1>   0.0800 
 27 H        7.7330    -0.5960     0.5230 H     1 <1>   0.0800 
 28 H       10.4190    -2.0080    -1.4740 H     1 <1>   0.0800 
 29 H        9.8300    -3.6530    -1.2610 H     1 <1>   0.0800 
 30 H        9.4470    -1.6940     2.3330 H     1 <1>   0.0800 
 31 H        9.9910    -0.5830     1.0930 H     1 <1>   0.0800 
 32 H       11.4020    -2.4560     0.6290 H     1 <1>   0.0800 
 33 H       10.1320    -3.5880     1.0440 H     1 <1>   0.0800 
@<TRIPOS>BOND
  1   1   2  1   
  2   2   3  ar  
  3   2   4  ar  
  4   3   5  ar  
  5   3  18  1   
  6   4   6  ar  
  7   4  19  1   
  8   5   7  ar  
  9   5   8  1   
 10   6   7  ar  
 11   6  20  1   
 12   7   9  1   
 13   8  21  1   
 14   8  22  1   
 15   8  23  1   
 16   9  10  1   
 17  10  11  1   
 18  10  24  1   
 19  10  25  1   
 20  11  12  2   
 21  11  13  am  
 22  13  14  1   
 23  13  15  1   
 24  14  16  1   
 25  14  26  1   
 26  14  27  1   
 27  15  17  1   
 28  15  28  1   
 29  15  29  1   
 30  16  17  1   
 31  16  30  1   
 32  16  31  1   
 33  17  32  1   
 34  17  33  1   
@<TRIPOS>SUBSTRUCTURE
  1 ****   9 GROUP 4 **** **** 0

# MOE 2024.06 (io_trps.svl 2023.06)
