@<TRIPOS>MOLECULE
NONAME
41 43 1 0 0 
SMALL
USER_CHARGES


@<TRIPOS>ATOM
  1 S       -0.0770     0.4890     1.4990 S.o2  1 <1>   1.4470 
  2 O       -0.3810    -0.3600     2.6300 O.2   1 <1>  -0.6500 
  3 O        0.0790     1.9130     1.7060 O.2   1 <1>  -0.6500 
  4 N       -1.3330     0.2830     0.3830 N.am  1 <1>  -0.8490 
  5 C        1.3690    -0.1750     0.6210 C.ar  1 <1>  -0.0090 
  6 C       -2.6460     0.4850     0.9690 C.3   1 <1>   0.1960 
  7 C       -1.2790     1.1720    -0.7650 C.3   1 <1>   0.1960 
  8 C        2.5570     0.5410     0.5360 C.ar  1 <1>  -0.1500 
  9 C        1.3260    -1.4220     0.0100 C.ar  1 <1>  -0.1500 
 10 C       -3.5780     0.6520    -0.2260 C.3   1 <1>  -0.1600 
 11 C       -2.6670     1.0660    -1.3830 C.3   1 <1>  -0.1600 
 12 C        3.6560     0.0320    -0.1340 C.ar  1 <1>  -0.1500 
 13 C        2.4240    -1.9320    -0.6600 C.ar  1 <1>  -0.1500 
 14 C        3.6180    -1.2210    -0.7430 C.ar  1 <1>   0.0860 
 15 C        4.7650    -1.7690    -1.4450 C.2   1 <1>   0.5440 
 16 O        4.6260    -2.1990    -2.5740 O.2   1 <1>  -0.5700 
 17 N        6.0110    -1.8240    -0.8640 N.am  1 <1>  -0.6600 
 18 C        7.1860    -2.3780    -1.5730 C.3   1 <1>   0.1400 
 19 C        6.2780    -1.7030     0.5870 C.3   1 <1>   0.1400 
 20 C        8.2970    -2.4080    -0.5290 C.3   1 <1>  -0.1600 
 21 C        7.5670    -2.4850     0.8090 C.3   1 <1>  -0.1600 
 22 H       -2.6480     1.3840     1.5640 H     1 <1>   0.0800 
 23 H       -2.9250    -0.3530     1.5860 H     1 <1>   0.0800 
 24 H       -0.5080     0.8730    -1.4550 H     1 <1>   0.0800 
 25 H       -1.1060     2.1880    -0.4470 H     1 <1>   0.0800 
 26 H        2.6210     1.5130     0.9980 H     1 <1>   0.1500 
 27 H        0.4160    -1.9980     0.0600 H     1 <1>   0.1500 
 28 H       -4.3290     1.3940    -0.0180 H     1 <1>   0.0800 
 29 H       -4.0600    -0.2840    -0.4460 H     1 <1>   0.0800 
 30 H       -2.6640     0.3050    -2.1440 H     1 <1>   0.0800 
 31 H       -2.9660     2.0010    -1.8220 H     1 <1>   0.0800 
 32 H        4.5600     0.6130    -0.1950 H     1 <1>   0.1500 
 33 H        2.3640    -2.8970    -1.1340 H     1 <1>   0.1500 
 34 H        7.4460    -1.7630    -2.4180 H     1 <1>   0.0800 
 35 H        6.9560    -3.3740    -1.9120 H     1 <1>   0.0800 
 36 H        5.4670    -2.1060     1.1710 H     1 <1>   0.0800 
 37 H        6.4260    -0.6650     0.8320 H     1 <1>   0.0800 
 38 H        8.8570    -1.4910    -0.5900 H     1 <1>   0.0800 
 39 H        8.9640    -3.2370    -0.6820 H     1 <1>   0.0800 
 40 H        7.3210    -3.5090     1.0320 H     1 <1>   0.0800 
 41 H        8.1480    -2.0800     1.6180 H     1 <1>   0.0800 
@<TRIPOS>BOND
  1   1   2  2   
  2   1   3  2   
  3   1   4  am  
  4   1   5  1   
  5   4   6  1   
  6   4   7  1   
  7   5   8  ar  
  8   5   9  ar  
  9   6  10  1   
 10   6  22  1   
 11   6  23  1   
 12   7  11  1   
 13   7  24  1   
 14   7  25  1   
 15   8  12  ar  
 16   8  26  1   
 17   9  13  ar  
 18   9  27  1   
 19  10  11  1   
 20  10  28  1   
 21  10  29  1   
 22  11  30  1   
 23  11  31  1   
 24  12  14  ar  
 25  12  32  1   
 26  13  14  ar  
 27  13  33  1   
 28  14  15  1   
 29  15  16  2   
 30  15  17  am  
 31  17  18  1   
 32  17  19  1   
 33  18  20  1   
 34  18  34  1   
 35  18  35  1   
 36  19  21  1   
 37  19  36  1   
 38  19  37  1   
 39  20  21  1   
 40  20  38  1   
 41  20  39  1   
 42  21  40  1   
 43  21  41  1   
@<TRIPOS>SUBSTRUCTURE
  1 ****   5 GROUP 4 **** **** 0

# MOE 2024.06 (io_trps.svl 2023.06)
