@<TRIPOS>MOLECULE
NONAME
49 51 1 0 0 
SMALL
USER_CHARGES


@<TRIPOS>ATOM
  1 CL      -0.3680    -0.0090    -1.4810 Cl    1 <1>  -0.1770 
  2 C       -0.2710    -1.0880    -0.1080 C.ar  1 <1>   0.1770 
  3 C        0.6220    -2.1530    -0.0960 C.ar  1 <1>  -0.1440 
  4 C       -1.1200    -0.8430     0.9560 C.ar  1 <1>  -0.1500 
  5 C        0.6230    -2.9930     1.0110 C.ar  1 <1>  -0.1500 
  6 C        1.5650    -2.4370    -1.2640 C.3   1 <1>   0.2540 
  7 C       -1.0940    -1.6790     2.0580 C.ar  1 <1>  -0.1500 
  8 C       -0.2240    -2.7560     2.0810 C.ar  1 <1>  -0.1500 
  9 N        2.9000    -1.8100    -1.1080 N.3   1 <1>  -0.8100 
 10 C        3.6350    -2.2650     0.0880 C.3   1 <1>   0.1100 
 11 C        2.8540    -0.3360    -1.1980 C.3   1 <1>   0.1100 
 12 C        5.0610    -1.6810     0.1240 C.3   1 <1>   0.3430 
 13 C        4.2670     0.2750    -1.1700 C.3   1 <1>   0.3430 
 14 N        5.0450    -0.1820     0.0350 N.4   1 <1>  -0.9590 
 15 C        6.4120     0.3990     0.0600 C.3   1 <1>   0.4860 
 16 C        6.2860     1.9050     0.1610 C.ar  1 <1>  -0.1430 
 17 C        6.5390     2.7030    -0.9460 C.ar  1 <1>  -0.1500 
 18 C        5.9070     2.5000     1.3560 C.ar  1 <1>  -0.1500 
 19 C        6.3990     4.0760    -0.8610 C.ar  1 <1>  -0.1500 
 20 C        5.7680     3.8740     1.4360 C.ar  1 <1>  -0.1500 
 21 C        6.0090     4.6690     0.3280 C.ar  1 <1>  -0.1430 
 22 C        5.8560     6.1790     0.4200 C.3   1 <1>  -0.0170 
 23 C        7.1760     6.8280     0.8400 C.3   1 <1>  -0.2400 
 24 H       -1.7970    -0.0090     0.9190 H     1 <1>   0.1500 
 25 H        1.2810    -3.8440     1.0460 H     1 <1>   0.1500 
 26 H        1.1210    -2.1020    -2.1860 H     1 <1>   0.0800 
 27 H        1.6930    -3.5020    -1.3570 H     1 <1>   0.0800 
 28 H       -1.7520    -1.4980     2.8910 H     1 <1>   0.1500 
 29 H       -0.2120    -3.4130     2.9340 H     1 <1>   0.1500 
 30 H        3.6980    -3.3400     0.0780 H     1 <1>   0.0800 
 31 H        3.1110    -1.9690     0.9810 H     1 <1>   0.0800 
 32 H        2.2760     0.0680    -0.3850 H     1 <1>   0.0800 
 33 H        2.3760    -0.0510    -2.1200 H     1 <1>   0.0800 
 34 H        5.6140    -2.0890    -0.7070 H     1 <1>   0.0800 
 35 H        5.5470    -1.9910     1.0340 H     1 <1>   0.0800 
 36 H        4.1830     1.3500    -1.1690 H     1 <1>   0.0800 
 37 H        4.7820    -0.0180    -2.0700 H     1 <1>   0.0800 
 38 H        4.5460     0.1870     0.8520 H     1 <1>   0.4500 
 39 H        6.9490     0.1320    -0.8350 H     1 <1>   0.0800 
 40 H        6.9590     0.0300     0.9130 H     1 <1>   0.0800 
 41 H        6.8490     2.2720    -1.8830 H     1 <1>   0.1500 
 42 H        5.7200     1.9110     2.2370 H     1 <1>   0.1500 
 43 H        6.5990     4.6890    -1.7240 H     1 <1>   0.1500 
 44 H        5.4750     4.3280     2.3670 H     1 <1>   0.1500 
 45 H        5.0900     6.4260     1.1350 H     1 <1>   0.0800 
 46 H        5.5480     6.5730    -0.5340 H     1 <1>   0.0800 
 47 H        7.4840     6.4570     1.8010 H     1 <1>   0.0800 
 48 H        7.0600     7.8950     0.9020 H     1 <1>   0.0800 
 49 H        7.9450     6.6050     0.1220 H     1 <1>   0.0800 
@<TRIPOS>BOND
  1   1   2  1   
  2   2   3  ar  
  3   2   4  ar  
  4   3   5  ar  
  5   3   6  1   
  6   4   7  ar  
  7   4  24  1   
  8   5   8  ar  
  9   5  25  1   
 10   6   9  1   
 11   6  26  1   
 12   6  27  1   
 13   7   8  ar  
 14   7  28  1   
 15   8  29  1   
 16   9  10  1   
 17   9  11  1   
 18  10  12  1   
 19  10  30  1   
 20  10  31  1   
 21  11  13  1   
 22  11  32  1   
 23  11  33  1   
 24  12  14  1   
 25  12  34  1   
 26  12  35  1   
 27  13  14  1   
 28  13  36  1   
 29  13  37  1   
 30  14  15  1   
 31  14  38  1   
 32  15  16  1   
 33  15  39  1   
 34  15  40  1   
 35  16  17  ar  
 36  16  18  ar  
 37  17  19  ar  
 38  17  41  1   
 39  18  20  ar  
 40  18  42  1   
 41  19  21  ar  
 42  19  43  1   
 43  20  21  ar  
 44  20  44  1   
 45  21  22  1   
 46  22  23  1   
 47  22  45  1   
 48  22  46  1   
 49  23  47  1   
 50  23  48  1   
 51  23  49  1   
@<TRIPOS>SUBSTRUCTURE
  1 ****  13 GROUP 4 **** **** 0

# MOE 2024.06 (io_trps.svl 2023.06)
