@<TRIPOS>MOLECULE
NONAME
37 38 1 0 0 
SMALL
USER_CHARGES


@<TRIPOS>ATOM
  1 O        0.6900    -0.6130     1.3740 O.3   1 <1>  -0.5600 
  2 C        0.8720    -1.9480     1.0010 C.3   1 <1>   0.1200 
  3 C        1.8710     0.1180     1.5390 C.3   1 <1>   0.1200 
  4 C        1.6180    -2.0270    -0.3450 C.3   1 <1>   0.3430 
  5 C        2.6690     0.1440     0.2220 C.3   1 <1>   0.3430 
  6 N        2.9000    -1.2440    -0.3100 N.4   1 <1>  -0.9590 
  7 C        3.5830    -1.2430    -1.6200 C.3   1 <1>   0.4810 
  8 C        4.9990    -0.8020    -1.3550 C.2   1 <1>  -0.2880 
  9 C        6.0210    -1.6440    -1.1290 C.2   1 <1>  -0.1780 
 10 C        7.3940    -1.2970    -0.8380 C.ar  1 <1>   0.0280 
 11 C        8.1880    -2.1080    -0.0150 C.ar  1 <1>   0.0820 
 12 C        7.9640    -0.1440    -1.3740 C.ar  1 <1>  -0.1500 
 13 O        7.6170    -3.2260     0.5100 O.3   1 <1>  -0.3630 
 14 C        9.5090    -1.7540     0.2510 C.ar  1 <1>  -0.1500 
 15 C        9.2740     0.2030    -1.1050 C.ar  1 <1>  -0.1500 
 16 C        8.3530    -4.1490     1.2840 C.3   1 <1>   0.0400 
 17 C       10.0480    -0.6030    -0.2910 C.ar  1 <1>  -0.1500 
 18 H        1.4150    -2.4560     1.7790 H     1 <1>   0.0800 
 19 H       -0.1010    -2.3980     0.9130 H     1 <1>   0.0800 
 20 H        1.5990     1.1180     1.8280 H     1 <1>   0.0800 
 21 H        2.4460    -0.3240     2.3350 H     1 <1>   0.0800 
 22 H        0.9710    -1.6340    -1.1120 H     1 <1>   0.0800 
 23 H        1.8210    -3.0600    -0.5790 H     1 <1>   0.0800 
 24 H        3.6130     0.6370     0.3900 H     1 <1>   0.0800 
 25 H        2.1150     0.7240    -0.4980 H     1 <1>   0.0800 
 26 H        3.5500    -1.7110     0.3380 H     1 <1>   0.4500 
 27 H        3.5960    -2.2430    -2.0240 H     1 <1>   0.0800 
 28 H        3.0940    -0.5870    -2.3220 H     1 <1>   0.0800 
 29 H        5.1190     0.2670    -1.3490 H     1 <1>   0.1500 
 30 H        5.8550    -2.7090    -1.1390 H     1 <1>   0.1500 
 31 H        7.3830     0.4890    -2.0180 H     1 <1>   0.1500 
 32 H       10.1360    -2.3580     0.8790 H     1 <1>   0.1500 
 33 H        9.6960     1.0980    -1.5300 H     1 <1>   0.1500 
 34 H        7.7010    -4.9610     1.5490 H     1 <1>   0.0800 
 35 H        8.7040    -3.6580     2.1750 H     1 <1>   0.0800 
 36 H        9.1760    -4.5200     0.6980 H     1 <1>   0.0800 
 37 H       11.0690    -0.3330    -0.0820 H     1 <1>   0.1500 
@<TRIPOS>BOND
  1   1   2  1   
  2   1   3  1   
  3   2   4  1   
  4   2  18  1   
  5   2  19  1   
  6   3   5  1   
  7   3  20  1   
  8   3  21  1   
  9   4   6  1   
 10   4  22  1   
 11   4  23  1   
 12   5   6  1   
 13   5  24  1   
 14   5  25  1   
 15   6   7  1   
 16   6  26  1   
 17   7   8  1   
 18   7  27  1   
 19   7  28  1   
 20   8   9  2   
 21   8  29  1   
 22   9  10  1   
 23   9  30  1   
 24  10  11  ar  
 25  10  12  ar  
 26  11  13  1   
 27  11  14  ar  
 28  12  15  ar  
 29  12  31  1   
 30  13  16  1   
 31  14  17  ar  
 32  14  32  1   
 33  15  17  ar  
 34  15  33  1   
 35  16  34  1   
 36  16  35  1   
 37  16  36  1   
 38  17  37  1   
@<TRIPOS>SUBSTRUCTURE
  1 ****   9 GROUP 4 **** **** 0

# MOE 2024.06 (io_trps.svl 2023.06)
