@<TRIPOS>MOLECULE
NONAME
41 42 1 0 0 
SMALL
USER_CHARGES


@<TRIPOS>ATOM
  1 CL      -0.4930    -0.7410    -0.6740 Cl    1 <1>  -0.1770 
  2 C       -1.3680     0.7450    -0.3690 C.ar  1 <1>   0.1770 
  3 C       -0.7470     1.9830    -0.5100 C.ar  1 <1>   0.0830 
  4 C       -2.6950     0.6580     0.0100 C.ar  1 <1>  -0.1500 
  5 O        0.5480     2.0980    -0.8810 O.3   1 <1>  -0.3630 
  6 C       -1.4770     3.1390    -0.2840 C.ar  1 <1>  -0.1500 
  7 C       -3.4160     1.8190     0.2450 C.ar  1 <1>  -0.1500 
  8 C        1.5110     1.8580     0.1180 C.3   1 <1>   0.1200 
  9 C       -2.8070     3.0550     0.0960 C.ar  1 <1>  -0.1500 
 10 C        2.8970     2.0120    -0.5070 C.3   1 <1>  -0.1600 
 11 C        4.0040     1.7630     0.5260 C.3   1 <1>  -0.1600 
 12 C        5.3920     1.9170    -0.1090 C.3   1 <1>  -0.1600 
 13 C        6.5110     1.6740     0.9090 C.3   1 <1>   0.0210 
 14 C        7.8690     1.8450     0.2510 C.2   1 <1>  -0.1810 
 15 C        8.5970     3.0300     0.1410 C.2   1 <1>   0.1080 
 16 C        8.6390     0.9120    -0.3520 C.2   1 <1>  -0.3320 
 17 N        9.7240     2.8590    -0.4730 N.2   1 <1>  -0.7070 
 18 C        8.1680     4.3830     0.6620 C.3   1 <1>  -0.0590 
 19 N        9.7490     1.5500    -0.7770 N.pl3 1 <1>   0.3000 
 20 C        8.4010    -0.5720    -0.5700 C.3   1 <1>  -0.0600 
 21 H       -3.1570    -0.3070     0.1170 H     1 <1>   0.1500 
 22 H       -1.0020     4.0950    -0.4070 H     1 <1>   0.1500 
 23 H       -4.4500     1.7600     0.5410 H     1 <1>   0.1500 
 24 H        1.3740     0.8610     0.4990 H     1 <1>   0.0800 
 25 H        1.3620     2.5730     0.9080 H     1 <1>   0.0800 
 26 H       -3.3710     3.9560     0.2740 H     1 <1>   0.1500 
 27 H        2.9930     3.0070    -0.9050 H     1 <1>   0.0800 
 28 H        2.9940     1.3060    -1.3150 H     1 <1>   0.0800 
 29 H        3.9020     0.7680     0.9250 H     1 <1>   0.0800 
 30 H        3.9010     2.4640     1.3370 H     1 <1>   0.0800 
 31 H        5.4960     2.9080    -0.5170 H     1 <1>   0.0800 
 32 H        5.5010     1.2160    -0.9190 H     1 <1>   0.0800 
 33 H        6.4310     0.6790     1.3080 H     1 <1>   0.0800 
 34 H        6.4210     2.3620     1.7300 H     1 <1>   0.0800 
 35 H        7.1680     4.6020     0.3400 H     1 <1>   0.0800 
 36 H        8.8290     5.1420     0.2850 H     1 <1>   0.0800 
 37 H        8.2100     4.3860     1.7350 H     1 <1>   0.0800 
 38 H       10.5380     1.1240    -1.2760 H     1 <1>   0.2700 
 39 H        7.4380    -0.8620    -0.1910 H     1 <1>   0.0800 
 40 H        9.1550    -1.1460    -0.0620 H     1 <1>   0.0800 
 41 H        8.4330    -0.8010    -1.6200 H     1 <1>   0.0800 
@<TRIPOS>BOND
  1   1   2  1   
  2   2   3  ar  
  3   2   4  ar  
  4   3   5  1   
  5   3   6  ar  
  6   4   7  ar  
  7   4  21  1   
  8   5   8  1   
  9   6   9  ar  
 10   6  22  1   
 11   7   9  ar  
 12   7  23  1   
 13   8  10  1   
 14   8  24  1   
 15   8  25  1   
 16   9  26  1   
 17  10  11  1   
 18  10  27  1   
 19  10  28  1   
 20  11  12  1   
 21  11  29  1   
 22  11  30  1   
 23  12  13  1   
 24  12  31  1   
 25  12  32  1   
 26  13  14  1   
 27  13  33  1   
 28  13  34  1   
 29  14  15  1   
 30  14  16  2   
 31  15  17  2   
 32  15  18  1   
 33  16  19  1   
 34  16  20  1   
 35  17  19  1   
 36  18  35  1   
 37  18  36  1   
 38  18  37  1   
 39  19  38  1   
 40  20  39  1   
 41  20  40  1   
 42  20  41  1   
@<TRIPOS>SUBSTRUCTURE
  1 ****  10 GROUP 4 **** **** 0

# MOE 2024.06 (io_trps.svl 2023.06)
