@<TRIPOS>MOLECULE
ka-07823
25 25 1 0 0 
SMALL
USER_CHARGES


@<TRIPOS>ATOM
  1 O       -0.4370     1.7900     1.9070 O.3   1 <1>  -0.3630 
  2 C       -1.5570     1.8390     1.1470 C.ar  1 <1>   0.0830 
  3 C        0.6830     1.0710     1.4450 C.3   1 <1>   0.1200 
  4 C       -2.0850     0.7120     0.5250 C.ar  1 <1>  -0.1500 
  5 C       -2.1700     3.0700     0.9860 C.ar  1 <1>  -0.1500 
  6 C        1.1460     1.6890     0.1170 C.3   1 <1>   0.3430 
  7 C       -3.2040     0.8260    -0.2840 C.ar  1 <1>  -0.1440 
  8 C       -3.2870     3.1840     0.1790 C.ar  1 <1>  -0.1500 
  9 N        2.3760     1.0300    -0.4110 N.4   1 <1>  -0.8530 
 10 C       -3.7970     2.0660    -0.4580 C.ar  1 <1>  -0.1500 
 11 C       -3.7990    -0.3900    -0.9730 C.3   1 <1>  -0.0970 
 12 H        0.4090     0.0370     1.3400 H     1 <1>   0.0800 
 13 H        1.4440     1.1660     2.1990 H     1 <1>   0.0800 
 14 H       -1.6460    -0.2540     0.6800 H     1 <1>   0.1500 
 15 H       -1.7760     3.9340     1.4900 H     1 <1>   0.1500 
 16 H        1.3380     2.7390     0.2770 H     1 <1>   0.0800 
 17 H        0.3490     1.5980    -0.6040 H     1 <1>   0.0800 
 18 H       -3.7640     4.1410     0.0490 H     1 <1>   0.1500 
 19 H        3.1600     1.1200     0.2460 H     1 <1>   0.4500 
 20 H        2.6610     1.4650    -1.2970 H     1 <1>   0.4500 
 21 H        2.2170     0.0320    -0.5930 H     1 <1>   0.4500 
 22 H       -4.6680     2.1640    -1.0840 H     1 <1>   0.1500 
 23 H       -3.3270    -1.2960    -0.6380 H     1 <1>   0.0800 
 24 H       -3.6740    -0.3080    -2.0370 H     1 <1>   0.0800 
 25 H       -4.8500    -0.4560    -0.7530 H     1 <1>   0.0800 
@<TRIPOS>BOND
  1   1   2  1   
  2   1   3  1   
  3   2   4  ar  
  4   2   5  ar  
  5   3   6  1   
  6   3  12  1   
  7   3  13  1   
  8   4   7  ar  
  9   4  14  1   
 10   5   8  ar  
 11   5  15  1   
 12   6   9  1   
 13   6  16  1   
 14   6  17  1   
 15   7  10  ar  
 16   7  11  1   
 17   8  10  ar  
 18   8  18  1   
 19   9  19  1   
 20   9  20  1   
 21   9  21  1   
 22  10  22  1   
 23  11  23  1   
 24  11  24  1   
 25  11  25  1   
@<TRIPOS>SUBSTRUCTURE
  1 ****   2 GROUP 4 **** **** 0

# MOE 2024.06 (io_trps.svl 2023.06)
