@<TRIPOS>MOLECULE
NONAME
39 40 1 0 0 
SMALL
USER_CHARGES


@<TRIPOS>ATOM
  1 CL      -2.0600    -1.7220    -1.6640 Cl    1 <1>  -0.1770 
  2 C       -3.2310    -0.5780    -1.0570 C.ar  1 <1>   0.1770 
  3 C       -3.2110    -0.2280     0.2800 C.ar  1 <1>  -0.1500 
  4 C       -4.1630    -0.0370    -1.9220 C.ar  1 <1>  -0.1500 
  5 C       -4.1410     0.6790     0.7570 C.ar  1 <1>  -0.1500 
  6 C       -5.0890     0.8690    -1.4350 C.ar  1 <1>  -0.1500 
  7 C       -5.0940     1.2390    -0.0930 C.ar  1 <1>   0.1170 
  8 N       -6.0600     2.1630     0.3280 N.am  1 <1>  -0.5470 
  9 C       -6.4490     2.6160     1.5590 C.2   1 <1>   0.5690 
 10 O       -5.9630     2.2500     2.6020 O.2   1 <1>  -0.5700 
 11 C       -7.5730     3.6530     1.6040 C.3   1 <1>   0.2010 
 12 N       -8.8500     3.1860     0.9730 N.am  1 <1>  -0.7300 
 13 C       -9.0550     3.0650    -0.3630 C.2   1 <1>   0.5690 
 14 O       -8.1750     3.3180    -1.1520 O.2   1 <1>  -0.5700 
 15 C      -10.4040     2.5670    -0.8760 C.3   1 <1>  -0.0190 
 16 C      -11.5640     3.4820    -0.4320 C.3   1 <1>  -0.1600 
 17 C      -10.6660     1.1070    -0.4530 C.3   1 <1>  -0.1600 
 18 C      -12.9130     2.9730    -0.9580 C.3   1 <1>  -0.1600 
 19 C      -12.0180     0.6040    -0.9780 C.3   1 <1>  -0.1600 
 20 C      -13.1630     1.5210    -0.5310 C.3   1 <1>  -0.1600 
 21 H       -2.4770    -0.6600     0.9350 H     1 <1>   0.1500 
 22 H       -4.1600    -0.3220    -2.9580 H     1 <1>   0.1500 
 23 H       -4.1170     0.9490     1.7970 H     1 <1>   0.1500 
 24 H       -5.8180     1.2950    -2.1040 H     1 <1>   0.1500 
 25 H       -6.6450     2.5430    -0.4310 H     1 <1>   0.3700 
 26 H       -7.2340     4.5380     1.0950 H     1 <1>   0.0800 
 27 H       -7.7610     3.9140     2.6300 H     1 <1>   0.0800 
 28 H       -9.5790     2.8750     1.6180 H     1 <1>   0.3700 
 29 H      -10.3610     2.5940    -1.9510 H     1 <1>   0.0800 
 30 H      -11.3910     4.4800    -0.7990 H     1 <1>   0.0800 
 31 H      -11.6030     3.5280     0.6420 H     1 <1>   0.0800 
 32 H      -10.6570     1.0310     0.6200 H     1 <1>   0.0800 
 33 H       -9.8790     0.4780    -0.8340 H     1 <1>   0.0800 
 34 H      -12.9230     3.0350    -2.0340 H     1 <1>   0.0800 
 35 H      -13.7050     3.6000    -0.5870 H     1 <1>   0.0800 
 36 H      -12.1950    -0.3950    -0.6190 H     1 <1>   0.0800 
 37 H      -11.9920     0.5660    -2.0540 H     1 <1>   0.0800 
 38 H      -14.0890     1.1750    -0.9600 H     1 <1>   0.0800 
 39 H      -13.2610     1.4760     0.5400 H     1 <1>   0.0800 
@<TRIPOS>BOND
  1   1   2  1   
  2   2   3  ar  
  3   2   4  ar  
  4   3   5  ar  
  5   3  21  1   
  6   4   6  ar  
  7   4  22  1   
  8   5   7  ar  
  9   5  23  1   
 10   6   7  ar  
 11   6  24  1   
 12   7   8  1   
 13   8   9  am  
 14   8  25  1   
 15   9  10  2   
 16   9  11  1   
 17  11  12  1   
 18  11  26  1   
 19  11  27  1   
 20  12  13  am  
 21  12  28  1   
 22  13  14  2   
 23  13  15  1   
 24  15  16  1   
 25  15  17  1   
 26  15  29  1   
 27  16  18  1   
 28  16  30  1   
 29  16  31  1   
 30  17  19  1   
 31  17  32  1   
 32  17  33  1   
 33  18  20  1   
 34  18  34  1   
 35  18  35  1   
 36  19  20  1   
 37  19  36  1   
 38  19  37  1   
 39  20  38  1   
 40  20  39  1   
@<TRIPOS>SUBSTRUCTURE
  1 ****   8 GROUP 4 **** **** 0

# MOE 2024.06 (io_trps.svl 2023.06)
