@<TRIPOS>MOLECULE
NONAME
46 47 1 0 0 
SMALL
USER_CHARGES


@<TRIPOS>ATOM
  1 O       -1.5160    -0.9390    -0.2450 O.3   1 <1>  -0.5320 
  2 C       -2.4080     0.0300     0.0070 C.ar  1 <1>   0.0830 
  3 C       -2.2440     1.2690    -0.5840 C.ar  1 <1>  -0.1500 
  4 C       -3.4800    -0.2070     0.8520 C.ar  1 <1>  -0.1500 
  5 C       -3.1560     2.2790    -0.3320 C.ar  1 <1>  -0.1500 
  6 C       -4.3910     0.8050     1.1010 C.ar  1 <1>  -0.1500 
  7 C       -4.2370     2.0520     0.5090 C.ar  1 <1>  -0.1430 
  8 C       -5.2400     3.1600     0.7720 C.3   1 <1>  -0.0170 
  9 C       -6.2550     3.2100    -0.3820 C.3   1 <1>  -0.1600 
 10 C       -7.4030     4.1990    -0.1480 C.3   1 <1>   0.4230 
 11 N       -8.3570     4.0730    -1.2780 N.4   1 <1>  -0.6410 
 12 C       -6.9320     5.6520    -0.0900 C.3   1 <1>  -0.2400 
 13 N       -9.7960     3.8560    -0.9240 N.3   1 <1>  -0.3020 
 14 C      -10.4250     4.9910    -0.2130 C.3   1 <1>   0.1100 
 15 C      -10.0650     2.5520    -0.2780 C.3   1 <1>   0.1100 
 16 C      -11.9460     4.7770    -0.0610 C.3   1 <1>   0.3430 
 17 C      -11.5820     2.3100    -0.1270 C.3   1 <1>   0.3430 
 18 N      -12.2710     3.4510     0.5740 N.4   1 <1>  -0.9590 
 19 C      -13.7550     3.2320     0.5980 C.3   1 <1>   0.2630 
 20 H       -1.7030    -1.7670     0.2310 H     1 <1>   0.4500 
 21 H       -1.4030     1.4350    -1.2340 H     1 <1>   0.1500 
 22 H       -3.6050    -1.1680     1.3150 H     1 <1>   0.1500 
 23 H       -3.0110     3.2390    -0.7950 H     1 <1>   0.1500 
 24 H       -5.2170     0.6120     1.7630 H     1 <1>   0.1500 
 25 H       -4.7080     4.0920     0.8590 H     1 <1>   0.0800 
 26 H       -5.7390     2.9760     1.7080 H     1 <1>   0.0800 
 27 H       -6.6610     2.2200    -0.4950 H     1 <1>   0.0800 
 28 H       -5.7260     3.4620    -1.2860 H     1 <1>   0.0800 
 29 H       -7.9000     3.9460     0.7740 H     1 <1>   0.0800 
 30 H       -8.0220     3.3070    -1.8840 H     1 <1>   0.4500 
 31 H       -8.2530     4.9130    -1.8680 H     1 <1>   0.4500 
 32 H       -6.3550     5.9100    -0.9620 H     1 <1>   0.0800 
 33 H       -6.3070     5.8020     0.7720 H     1 <1>   0.0800 
 34 H       -7.7630     6.3270     0.0010 H     1 <1>   0.0800 
 35 H      -10.2600     5.8970    -0.7720 H     1 <1>   0.0800 
 36 H       -9.9820     5.1130     0.7600 H     1 <1>   0.0800 
 37 H       -9.5980     2.5120     0.6900 H     1 <1>   0.0800 
 38 H       -9.6500     1.7620    -0.8820 H     1 <1>   0.0800 
 39 H      -12.3990     4.8290    -1.0390 H     1 <1>   0.0800 
 40 H      -12.3620     5.5780     0.5310 H     1 <1>   0.0800 
 41 H      -11.7450     1.3940     0.4200 H     1 <1>   0.0800 
 42 H      -12.0090     2.1810    -1.1090 H     1 <1>   0.0800 
 43 H      -11.9550     3.4720     1.5570 H     1 <1>   0.4500 
 44 H      -14.1490     3.2010    -0.4060 H     1 <1>   0.0800 
 45 H      -14.2450     4.0300     1.1330 H     1 <1>   0.0800 
 46 H      -13.9910     2.3010     1.0880 H     1 <1>   0.0800 
@<TRIPOS>BOND
  1   1   2  1   
  2   1  20  1   
  3   2   3  ar  
  4   2   4  ar  
  5   3   5  ar  
  6   3  21  1   
  7   4   6  ar  
  8   4  22  1   
  9   5   7  ar  
 10   5  23  1   
 11   6   7  ar  
 12   6  24  1   
 13   7   8  1   
 14   8   9  1   
 15   8  25  1   
 16   8  26  1   
 17   9  10  1   
 18   9  27  1   
 19   9  28  1   
 20  10  11  1   
 21  10  12  1   
 22  10  29  1   
 23  11  13  1   
 24  11  30  1   
 25  11  31  1   
 26  12  32  1   
 27  12  33  1   
 28  12  34  1   
 29  13  14  1   
 30  13  15  1   
 31  14  16  1   
 32  14  35  1   
 33  14  36  1   
 34  15  17  1   
 35  15  37  1   
 36  15  38  1   
 37  16  18  1   
 38  16  39  1   
 39  16  40  1   
 40  17  18  1   
 41  17  41  1   
 42  17  42  1   
 43  18  19  1   
 44  18  43  1   
 45  19  44  1   
 46  19  45  1   
 47  19  46  1   
@<TRIPOS>SUBSTRUCTURE
  1 ****   9 GROUP 4 **** **** 0

# MOE 2024.06 (io_trps.svl 2023.06)
