@<TRIPOS>MOLECULE
NONAME
42 43 1 0 0 
SMALL
USER_CHARGES


@<TRIPOS>ATOM
  1 F       -0.3420     0.6180    -0.5480 F     1 <1>  -0.1900 
  2 C        0.3320     1.6730    -0.1550 C.ar  1 <1>   0.1900 
  3 C       -0.3400     2.7790     0.3850 C.ar  1 <1>   0.1000 
  4 C        1.7040     1.6310    -0.3120 C.ar  1 <1>  -0.1500 
  5 N       -1.7290     2.8840     0.5690 N.pl3 1 <1>  -0.8380 
  6 C        0.4520     3.8580     0.7630 C.ar  1 <1>  -0.1500 
  7 C        2.4600     2.7250     0.0750 C.ar  1 <1>  -0.1500 
  8 C       -2.5030     3.8660    -0.2530 C.3   1 <1>   0.2090 
  9 C       -2.5450     1.7470     1.1030 C.3   1 <1>   0.2090 
 10 C        1.8290     3.8360     0.6120 C.ar  1 <1>  -0.1500 
 11 C       -3.3270     3.1610    -1.3420 C.3   1 <1>   0.1400 
 12 C       -3.4380     1.0910     0.0290 C.3   1 <1>   0.1400 
 13 N       -4.2030     2.1050    -0.7560 N.am  1 <1>  -0.6600 
 14 C       -5.5150     2.3730    -0.4660 C.2   1 <1>   0.6900 
 15 O       -5.8700     3.5340    -0.3460 O.2   1 <1>  -0.5700 
 16 N       -6.4230     1.3510    -0.3070 N.am  1 <1>  -0.6600 
 17 C       -6.3910     0.1650    -1.2070 C.3   1 <1>   0.1400 
 18 C       -7.7250     1.6160     0.3620 C.3   1 <1>   0.1400 
 19 C       -6.4760    -1.1330    -0.4030 C.3   1 <1>  -0.2400 
 20 C       -7.5580     1.4310     1.8680 C.3   1 <1>  -0.2400 
 21 H        2.1690     0.7590    -0.7320 H     1 <1>   0.1500 
 22 H       -0.0270     4.7210     1.1890 H     1 <1>   0.1500 
 23 H        3.5300     2.7120    -0.0400 H     1 <1>   0.1500 
 24 H       -1.8300     4.5660    -0.7150 H     1 <1>   0.0800 
 25 H       -3.1690     4.4170     0.3880 H     1 <1>   0.0800 
 26 H       -3.1760     2.1220     1.8900 H     1 <1>   0.0800 
 27 H       -1.8970     1.0050     1.5340 H     1 <1>   0.0800 
 28 H        2.4130     4.6870     0.9160 H     1 <1>   0.1500 
 29 H       -2.6580     2.7110    -2.0530 H     1 <1>   0.0800 
 30 H       -3.9260     3.8870    -1.8630 H     1 <1>   0.0800 
 31 H       -4.1140     0.4170     0.5190 H     1 <1>   0.0800 
 32 H       -2.8300     0.5170    -0.6450 H     1 <1>   0.0800 
 33 H       -5.4860     0.1670    -1.7890 H     1 <1>   0.0800 
 34 H       -7.2180     0.2240    -1.8950 H     1 <1>   0.0800 
 35 H       -8.4790     0.9450    -0.0110 H     1 <1>   0.0800 
 36 H       -8.0500     2.6220     0.1530 H     1 <1>   0.0800 
 37 H       -5.6820    -1.1850     0.3180 H     1 <1>   0.0800 
 38 H       -6.3850    -1.9720    -1.0690 H     1 <1>   0.0800 
 39 H       -7.4210    -1.2070     0.1020 H     1 <1>   0.0800 
 40 H       -7.2400     0.4290     2.0900 H     1 <1>   0.0800 
 41 H       -8.4950     1.6140     2.3610 H     1 <1>   0.0800 
 42 H       -6.8320     2.1290     2.2430 H     1 <1>   0.0800 
@<TRIPOS>BOND
  1   1   2  1   
  2   2   3  ar  
  3   2   4  ar  
  4   3   5  1   
  5   3   6  ar  
  6   4   7  ar  
  7   4  21  1   
  8   5   8  1   
  9   5   9  1   
 10   6  10  ar  
 11   6  22  1   
 12   7  10  ar  
 13   7  23  1   
 14   8  11  1   
 15   8  24  1   
 16   8  25  1   
 17   9  12  1   
 18   9  26  1   
 19   9  27  1   
 20  10  28  1   
 21  11  13  1   
 22  11  29  1   
 23  11  30  1   
 24  12  13  1   
 25  12  31  1   
 26  12  32  1   
 27  13  14  am  
 28  14  15  2   
 29  14  16  am  
 30  16  17  1   
 31  16  18  1   
 32  17  19  1   
 33  17  33  1   
 34  17  34  1   
 35  18  20  1   
 36  18  35  1   
 37  18  36  1   
 38  19  37  1   
 39  19  38  1   
 40  19  39  1   
 41  20  40  1   
 42  20  41  1   
 43  20  42  1   
@<TRIPOS>SUBSTRUCTURE
  1 ****  12 GROUP 4 **** **** 0

# MOE 2024.06 (io_trps.svl 2023.06)
