@<TRIPOS>MOLECULE
NONAME
49 50 1 0 0 
SMALL
USER_CHARGES


@<TRIPOS>ATOM
  1 S        0.8450     1.8320     1.4390 S.o2  1 <1>   1.3330 
  2 O        0.9340     0.4420     1.0760 O.2   1 <1>  -0.6500 
  3 O        2.0400     2.5230     1.8680 O.2   1 <1>  -0.6500 
  4 N        0.2570     2.7330     0.0820 N.am  1 <1>  -0.6930 
  5 C       -0.4170     2.0500     2.6750 C.3   1 <1>  -0.1350 
  6 C       -1.0430     2.6010    -0.4080 C.ar  1 <1>   0.1990 
  7 C        1.2120     3.6280    -0.6460 C.3   1 <1>   0.2570 
  8 C       -1.4190     1.5060    -1.1970 C.ar  1 <1>  -0.1440 
  9 C       -1.9960     3.5860    -0.1130 C.ar  1 <1>  -0.1440 
 10 C        2.3450     2.9070    -1.3860 C.2   1 <1>   0.5690 
 11 C       -2.7280     1.3850    -1.6290 C.ar  1 <1>  -0.1500 
 12 C       -0.4430     0.4170    -1.6320 C.3   1 <1>  -0.0970 
 13 C       -3.2980     3.4440    -0.5600 C.ar  1 <1>  -0.1500 
 14 C       -1.6640     4.8510     0.6750 C.3   1 <1>  -0.0960 
 15 O        2.3310     2.9170    -2.5940 O.2   1 <1>  -0.5700 
 16 N        3.3300     2.3060    -0.6490 N.am  1 <1>  -0.5470 
 17 C       -3.6680     2.3440    -1.3090 C.ar  1 <1>  -0.1500 
 18 C        4.4450     1.5480    -1.0330 C.ar  1 <1>   0.1170 
 19 C        4.9670     0.6360    -0.1260 C.ar  1 <1>  -0.1500 
 20 C        5.0630     1.6740    -2.2700 C.ar  1 <1>  -0.1500 
 21 C        6.0760    -0.1370    -0.4300 C.ar  1 <1>  -0.1440 
 22 C        6.1690     0.9080    -2.5850 C.ar  1 <1>  -0.1500 
 23 C        6.6850     0.0000    -1.6730 C.ar  1 <1>  -0.1440 
 24 C        6.5980    -1.1210     0.6070 C.3   1 <1>  -0.0970 
 25 C        7.9050    -0.8250    -2.0580 C.3   1 <1>  -0.0970 
 26 H       -0.1590     1.5010     3.5590 H     1 <1>   0.0800 
 27 H       -1.3580     1.6880     2.3110 H     1 <1>   0.0800 
 28 H       -0.5160     3.0840     2.9340 H     1 <1>   0.0800 
 29 H        1.6460     4.3220     0.0500 H     1 <1>   0.0800 
 30 H        0.6630     4.2010    -1.3720 H     1 <1>   0.0800 
 31 H       -3.0240     0.5380    -2.2240 H     1 <1>   0.1500 
 32 H       -0.4800    -0.4060    -0.9420 H     1 <1>   0.0800 
 33 H        0.5660     0.7820    -1.6770 H     1 <1>   0.0800 
 34 H       -0.6980     0.0530    -2.6100 H     1 <1>   0.0800 
 35 H       -4.0370     4.1930    -0.3340 H     1 <1>   0.1500 
 36 H       -0.8650     4.6950     1.3730 H     1 <1>   0.0800 
 37 H       -2.5240     5.1860     1.2280 H     1 <1>   0.0800 
 38 H       -1.3740     5.6300    -0.0060 H     1 <1>   0.0800 
 39 H        3.1730     2.3250     0.3670 H     1 <1>   0.3700 
 40 H       -4.6840     2.2390    -1.6510 H     1 <1>   0.1500 
 41 H        4.4880     0.5310     0.8310 H     1 <1>   0.1500 
 42 H        4.6830     2.3730    -2.9910 H     1 <1>   0.1500 
 43 H        6.6260     1.0260    -3.5510 H     1 <1>   0.1500 
 44 H        5.9990    -1.0960     1.4990 H     1 <1>   0.0800 
 45 H        7.6090    -0.8750     0.8720 H     1 <1>   0.0800 
 46 H        6.5700    -2.1200     0.2120 H     1 <1>   0.0800 
 47 H        8.7110    -0.6320    -1.3740 H     1 <1>   0.0800 
 48 H        8.2380    -0.5790    -3.0500 H     1 <1>   0.0800 
 49 H        7.6640    -1.8720    -2.0330 H     1 <1>   0.0800 
@<TRIPOS>BOND
  1   1   2  2   
  2   1   3  2   
  3   1   4  am  
  4   1   5  1   
  5   4   6  1   
  6   4   7  1   
  7   5  26  1   
  8   5  27  1   
  9   5  28  1   
 10   6   8  ar  
 11   6   9  ar  
 12   7  10  1   
 13   7  29  1   
 14   7  30  1   
 15   8  11  ar  
 16   8  12  1   
 17   9  13  ar  
 18   9  14  1   
 19  10  15  2   
 20  10  16  am  
 21  11  17  ar  
 22  11  31  1   
 23  12  32  1   
 24  12  33  1   
 25  12  34  1   
 26  13  17  ar  
 27  13  35  1   
 28  14  36  1   
 29  14  37  1   
 30  14  38  1   
 31  16  18  1   
 32  16  39  1   
 33  17  40  1   
 34  18  19  ar  
 35  18  20  ar  
 36  19  21  ar  
 37  19  41  1   
 38  20  22  ar  
 39  20  42  1   
 40  21  23  ar  
 41  21  24  1   
 42  22  23  ar  
 43  22  43  1   
 44  23  25  1   
 45  24  44  1   
 46  24  45  1   
 47  24  46  1   
 48  25  47  1   
 49  25  48  1   
 50  25  49  1   
@<TRIPOS>SUBSTRUCTURE
  1 ****  10 GROUP 4 **** **** 0

# MOE 2024.06 (io_trps.svl 2023.06)
