@<TRIPOS>MOLECULE
NONAME
38 39 1 0 0 
SMALL
USER_CHARGES


@<TRIPOS>ATOM
  1 CL       0.7590    -0.9520     1.3520 Cl    1 <1>  -0.1770 
  2 C       -0.5660    -1.8840     0.7040 C.ar  1 <1>   0.1770 
  3 C       -1.8490    -1.6270     1.1470 C.ar  1 <1>  -0.1500 
  4 C       -0.3130    -2.8600    -0.2400 C.ar  1 <1>  -0.1500 
  5 C       -2.9090    -2.3630     0.6350 C.ar  1 <1>  -0.1440 
  6 C       -1.3660    -3.5960    -0.7540 C.ar  1 <1>  -0.1500 
  7 C       -2.6690    -3.3500    -0.3200 C.ar  1 <1>   0.0830 
  8 C       -4.3200    -2.1000     1.1150 C.3   1 <1>   0.4870 
  9 O       -3.7460    -4.0310    -0.7960 O.3   1 <1>  -0.3630 
 10 N       -5.0980    -1.6510    -0.0550 N.4   1 <1>  -0.9060 
 11 C       -3.5830    -5.1910    -1.5920 C.3   1 <1>   0.0400 
 12 C       -6.5430    -1.4960     0.1670 C.3   1 <1>   0.4230 
 13 C       -7.1970    -2.8730     0.3560 C.3   1 <1>  -0.1600 
 14 C       -7.1320    -0.7700    -1.0470 C.3   1 <1>  -0.1600 
 15 C       -8.7240    -2.7530     0.4690 C.3   1 <1>  -0.1600 
 16 C       -8.6580    -0.6410    -0.9310 C.3   1 <1>  -0.1600 
 17 C       -9.3150    -2.0130    -0.7380 C.3   1 <1>  -0.1600 
 18 H       -1.9920    -0.8590     1.8880 H     1 <1>   0.1500 
 19 H        0.6980    -3.0380    -0.5650 H     1 <1>   0.1500 
 20 H       -1.1480    -4.3490    -1.4900 H     1 <1>   0.1500 
 21 H       -4.3240    -1.3480     1.8860 H     1 <1>   0.0800 
 22 H       -4.7310    -3.0140     1.5120 H     1 <1>   0.0800 
 23 H       -4.9370    -2.3710    -0.7760 H     1 <1>   0.4500 
 24 H       -4.6890    -0.7850    -0.4160 H     1 <1>   0.4500 
 25 H       -4.5540    -5.6180    -1.7740 H     1 <1>   0.0800 
 26 H       -2.9700    -5.8990    -1.0620 H     1 <1>   0.0800 
 27 H       -3.1270    -4.9170    -2.5280 H     1 <1>   0.0800 
 28 H       -6.7200    -0.8950     1.0460 H     1 <1>   0.0800 
 29 H       -6.8320    -3.3450     1.2510 H     1 <1>   0.0800 
 30 H       -6.9650    -3.5060    -0.4840 H     1 <1>   0.0800 
 31 H       -6.9040    -1.3140    -1.9470 H     1 <1>   0.0800 
 32 H       -6.7110     0.2170    -1.1250 H     1 <1>   0.0800 
 33 H       -8.9820    -2.2230     1.3710 H     1 <1>   0.0800 
 34 H       -9.1610    -3.7350     0.5330 H     1 <1>   0.0800 
 35 H       -9.0520    -0.1800    -1.8220 H     1 <1>   0.0800 
 36 H       -8.9100    -0.0050    -0.0990 H     1 <1>   0.0800 
 37 H      -10.3760    -1.8870    -0.5970 H     1 <1>   0.0800 
 38 H       -9.1770    -2.6070    -1.6260 H     1 <1>   0.0800 
@<TRIPOS>BOND
  1   1   2  1   
  2   2   3  ar  
  3   2   4  ar  
  4   3   5  ar  
  5   3  18  1   
  6   4   6  ar  
  7   4  19  1   
  8   5   7  ar  
  9   5   8  1   
 10   6   7  ar  
 11   6  20  1   
 12   7   9  1   
 13   8  10  1   
 14   8  21  1   
 15   8  22  1   
 16   9  11  1   
 17  10  12  1   
 18  10  23  1   
 19  10  24  1   
 20  11  25  1   
 21  11  26  1   
 22  11  27  1   
 23  12  13  1   
 24  12  14  1   
 25  12  28  1   
 26  13  15  1   
 27  13  29  1   
 28  13  30  1   
 29  14  16  1   
 30  14  31  1   
 31  14  32  1   
 32  15  17  1   
 33  15  33  1   
 34  15  34  1   
 35  16  17  1   
 36  16  35  1   
 37  16  36  1   
 38  17  37  1   
 39  17  38  1   
@<TRIPOS>SUBSTRUCTURE
  1 ****  10 GROUP 4 **** **** 0

# MOE 2024.06 (io_trps.svl 2023.06)
