@<TRIPOS>MOLECULE
NONAME
40 42 1 0 0 
SMALL
USER_CHARGES


@<TRIPOS>ATOM
  1 O        1.0250    -0.1580    -1.8990 O.2   1 <1>  -0.5700 
  2 C        1.5950    -0.8700    -1.1070 C.2   1 <1>   0.5690 
  3 N        1.1220    -1.9790    -0.4780 N.am  1 <1>  -0.2980 
  4 C        2.9990    -0.6610    -0.6370 C.3   1 <1>  -0.0380 
  5 N        2.0420    -2.5410     0.3660 N.2   1 <1>  -0.5120 
  6 C       -0.2440    -2.5280    -0.6700 C.3   1 <1>   0.2200 
  7 C        3.1150    -1.8440     0.3170 C.2   1 <1>   0.3030 
  8 C       -0.9870    -2.6000     0.6670 C.3   1 <1>  -0.1600 
  9 C       -0.1880    -3.9140    -1.3340 C.3   1 <1>  -0.1600 
 10 C        4.3340    -2.0910     1.0540 C.ar  1 <1>   0.0860 
 11 C       -2.4120    -3.1590     0.4630 C.3   1 <1>   0.2800 
 12 C       -1.3270    -4.8240    -0.8580 C.3   1 <1>   0.1200 
 13 C        4.4240    -3.1760     1.9310 C.ar  1 <1>  -0.1500 
 14 C        5.4690    -1.2800     0.9370 C.ar  1 <1>  -0.1500 
 15 O       -2.4630    -4.0510    -0.6140 O.3   1 <1>  -0.5600 
 16 C       -3.3890    -2.0400     0.1030 C.3   1 <1>  -0.2400 
 17 C       -2.9100    -3.8990     1.7060 C.3   1 <1>  -0.2400 
 18 C        5.5740    -3.4400     2.6510 C.ar  1 <1>  -0.1500 
 19 C        6.6230    -1.5390     1.6540 C.ar  1 <1>  -0.1500 
 20 C        6.6780    -2.6200     2.5130 C.ar  1 <1>  -0.1500 
 21 H        3.0870     0.2780    -0.1250 H     1 <1>   0.0800 
 22 H        3.6850    -0.7390    -1.4590 H     1 <1>   0.0800 
 23 H       -0.7910    -1.8670    -1.3190 H     1 <1>   0.0800 
 24 H       -1.0320    -1.6260     1.1190 H     1 <1>   0.0800 
 25 H       -0.4410    -3.2410     1.3360 H     1 <1>   0.0800 
 26 H        0.7430    -4.4060    -1.1170 H     1 <1>   0.0800 
 27 H       -0.2560    -3.7910    -2.3990 H     1 <1>   0.0800 
 28 H       -1.0600    -5.3380     0.0490 H     1 <1>   0.0800 
 29 H       -1.5730    -5.5520    -1.6110 H     1 <1>   0.0800 
 30 H        3.5720    -3.8240     2.0500 H     1 <1>   0.1500 
 31 H        5.4640    -0.4300     0.2800 H     1 <1>   0.1500 
 32 H       -3.0700    -1.5360    -0.7910 H     1 <1>   0.0800 
 33 H       -3.4440    -1.3200     0.8990 H     1 <1>   0.0800 
 34 H       -4.3710    -2.4440    -0.0590 H     1 <1>   0.0800 
 35 H       -2.2510    -4.7090     1.9590 H     1 <1>   0.0800 
 36 H       -3.8960    -4.2910     1.5330 H     1 <1>   0.0800 
 37 H       -2.9520    -3.2250     2.5430 H     1 <1>   0.0800 
 38 H        5.6110    -4.2840     3.3180 H     1 <1>   0.1500 
 39 H        7.4820    -0.8990     1.5460 H     1 <1>   0.1500 
 40 H        7.5760    -2.8230     3.0720 H     1 <1>   0.1500 
@<TRIPOS>BOND
  1   1   2  2   
  2   2   3  am  
  3   2   4  1   
  4   3   5  1   
  5   3   6  1   
  6   4   7  1   
  7   4  21  1   
  8   4  22  1   
  9   5   7  2   
 10   6   8  1   
 11   6   9  1   
 12   6  23  1   
 13   7  10  1   
 14   8  11  1   
 15   8  24  1   
 16   8  25  1   
 17   9  12  1   
 18   9  26  1   
 19   9  27  1   
 20  10  13  ar  
 21  10  14  ar  
 22  11  15  1   
 23  11  16  1   
 24  11  17  1   
 25  12  15  1   
 26  12  28  1   
 27  12  29  1   
 28  13  18  ar  
 29  13  30  1   
 30  14  19  ar  
 31  14  31  1   
 32  16  32  1   
 33  16  33  1   
 34  16  34  1   
 35  17  35  1   
 36  17  36  1   
 37  17  37  1   
 38  18  20  ar  
 39  18  38  1   
 40  19  20  ar  
 41  19  39  1   
 42  20  40  1   
@<TRIPOS>SUBSTRUCTURE
  1 ****   5 GROUP 4 **** **** 0

# MOE 2024.06 (io_trps.svl 2023.06)
