@<TRIPOS>MOLECULE
NONAME
39 40 1 0 0 
SMALL
USER_CHARGES


@<TRIPOS>ATOM
  1 CL      -0.9640     1.4660    -1.3860 Cl    1 <1>  -0.1770 
  2 C       -2.3440     1.4800    -0.3180 C.ar  1 <1>   0.1770 
  3 C       -3.5760     1.0920    -0.7980 C.ar  1 <1>  -0.1500 
  4 C       -2.1720     1.8840     0.9960 C.ar  1 <1>  -0.1500 
  5 C       -4.6910     1.0990     0.0440 C.ar  1 <1>   0.0860 
  6 C       -3.2630     1.8960     1.8440 C.ar  1 <1>  -0.1500 
  7 C       -6.0100     0.7140    -0.3860 C.2   1 <1>   0.4690 
  8 C       -4.5120     1.5070     1.3740 C.ar  1 <1>   0.0830 
  9 O       -6.2600     0.3860    -1.5310 O.2   1 <1>  -0.5700 
 10 C       -7.0490     0.7510     0.5900 C.2   1 <1>  -0.1240 
 11 O       -5.5580     1.5270     2.2300 O.3   1 <1>  -0.1590 
 12 C       -6.7810     1.1460     1.8540 C.2   1 <1>  -0.0730 
 13 C       -8.4220     0.2950     0.1390 C.3   1 <1>   0.4810 
 14 N       -9.2610     1.4520    -0.3040 N.4   1 <1>  -0.9590 
 15 C      -10.6830     1.0390    -0.3510 C.3   1 <1>   0.4810 
 16 C       -8.7900     2.0170    -1.6000 C.3   1 <1>   0.3430 
 17 C      -11.2030     0.8340     1.0680 C.2   1 <1>  -0.2760 
 18 C       -9.4460     3.3710    -1.8520 C.3   1 <1>  -0.2400 
 19 C      -10.6980     1.3540     2.1960 C.2   1 <1>  -0.3000 
 20 C      -12.4430    -0.0500     1.1040 C.3   1 <1>  -0.1020 
 21 H       -3.6750     0.7830    -1.8240 H     1 <1>   0.1500 
 22 H       -1.1960     2.1810     1.3390 H     1 <1>   0.1500 
 23 H       -3.1510     2.2050     2.8700 H     1 <1>   0.1500 
 24 H       -7.5020     1.1850     2.6550 H     1 <1>   0.1500 
 25 H       -8.9030    -0.1980     0.9680 H     1 <1>   0.0800 
 26 H       -8.3250    -0.4230    -0.6610 H     1 <1>   0.0800 
 27 H       -9.2010     2.1810     0.4130 H     1 <1>   0.4500 
 28 H      -10.7730     0.1220    -0.9110 H     1 <1>   0.0800 
 29 H      -11.2860     1.7890    -0.8360 H     1 <1>   0.0800 
 30 H       -9.0040     1.3370    -2.4090 H     1 <1>   0.0800 
 31 H       -7.7230     2.1660    -1.5680 H     1 <1>   0.0800 
 32 H      -10.5030     3.2790    -2.0210 H     1 <1>   0.0800 
 33 H       -9.0150     3.8050    -2.7360 H     1 <1>   0.0800 
 34 H       -9.2650     4.0440    -1.0330 H     1 <1>   0.0800 
 35 H       -9.8460     2.0050     2.2790 H     1 <1>   0.1500 
 36 H      -11.1220     1.1710     3.1720 H     1 <1>   0.1500 
 37 H      -12.2270    -1.0270     0.7090 H     1 <1>   0.0800 
 38 H      -13.2380     0.3900     0.5260 H     1 <1>   0.0800 
 39 H      -12.7980    -0.1710     2.1140 H     1 <1>   0.0800 
@<TRIPOS>BOND
  1   1   2  1   
  2   2   3  ar  
  3   2   4  ar  
  4   3   5  ar  
  5   3  21  1   
  6   4   6  ar  
  7   4  22  1   
  8   5   7  1   
  9   5   8  ar  
 10   6   8  ar  
 11   6  23  1   
 12   7   9  2   
 13   7  10  1   
 14   8  11  1   
 15  10  12  2   
 16  10  13  1   
 17  11  12  1   
 18  12  24  1   
 19  13  14  1   
 20  13  25  1   
 21  13  26  1   
 22  14  15  1   
 23  14  16  1   
 24  14  27  1   
 25  15  17  1   
 26  15  28  1   
 27  15  29  1   
 28  16  18  1   
 29  16  30  1   
 30  16  31  1   
 31  17  19  2   
 32  17  20  1   
 33  18  32  1   
 34  18  33  1   
 35  18  34  1   
 36  19  35  1   
 37  19  36  1   
 38  20  37  1   
 39  20  38  1   
 40  20  39  1   
@<TRIPOS>SUBSTRUCTURE
  1 ****  10 GROUP 4 **** **** 0

# MOE 2024.06 (io_trps.svl 2023.06)
