@<TRIPOS>MOLECULE
NONAME
43 46 1 0 0 
SMALL
USER_CHARGES


@<TRIPOS>ATOM
  1 O       -6.8360     5.9780    -0.9130 O.2   1 <1>  -0.5700 
  2 C       -7.1830     4.9800    -0.3340 C.2   1 <1>   0.4230 
  3 C       -6.2990     3.8590    -0.0830 C.ar  1 <1>   0.0860 
  4 C       -8.6320     4.9470     0.1320 C.3   1 <1>  -0.0990 
  5 C       -4.9660     3.9140    -0.5040 C.ar  1 <1>  -0.1500 
  6 C       -6.7080     2.6900     0.5750 C.ar  1 <1>  -0.1500 
  7 C       -9.3230     6.2760    -0.1960 C.3   1 <1>   0.3430 
  8 C       -4.0900     2.8690    -0.2840 C.ar  1 <1>   0.0830 
  9 C       -5.8400     1.6360     0.7950 C.ar  1 <1>  -0.1500 
 10 N      -10.7360     6.3040     0.2780 N.4   1 <1>  -0.9590 
 11 O       -2.8040     2.9900    -0.7000 O.3   1 <1>  -0.3630 
 12 C       -4.5300     1.7140     0.3620 C.ar  1 <1>   0.0830 
 13 C      -11.6670     5.3830    -0.4550 C.3   1 <1>   0.4860 
 14 C      -11.3350     7.6770     0.1990 C.3   1 <1>   0.4860 
 15 C       -1.8690     2.0680    -0.1700 C.3   1 <1>   0.1200 
 16 O       -3.7020     0.6660     0.5690 O.3   1 <1>  -0.3630 
 17 C      -12.9890     6.0900    -0.3560 C.ar  1 <1>  -0.1430 
 18 C      -12.8010     7.3960     0.0160 C.ar  1 <1>  -0.1430 
 19 C       -2.4730     0.6570    -0.1330 C.3   1 <1>   0.1200 
 20 C      -14.2610     5.5930    -0.5830 C.ar  1 <1>  -0.1500 
 21 C      -13.8770     8.2510     0.1760 C.ar  1 <1>  -0.1500 
 22 C      -15.3450     6.4410    -0.4260 C.ar  1 <1>  -0.1500 
 23 C      -15.1540     7.7630    -0.0490 C.ar  1 <1>  -0.1500 
 24 H       -8.6470     4.7870     1.1950 H     1 <1>   0.0800 
 25 H       -9.1280     4.1360    -0.3680 H     1 <1>   0.0800 
 26 H       -4.5990     4.7900    -1.0120 H     1 <1>   0.1500 
 27 H       -7.7160     2.5810     0.9280 H     1 <1>   0.1500 
 28 H       -9.2860     6.4420    -1.2620 H     1 <1>   0.0800 
 29 H       -8.7660     7.0720     0.2730 H     1 <1>   0.0800 
 30 H       -6.1670     0.7430     1.2990 H     1 <1>   0.1500 
 31 H      -10.7890     6.0420     1.2690 H     1 <1>   0.4500 
 32 H      -11.7050     4.4090     0.0060 H     1 <1>   0.0800 
 33 H      -11.3820     5.2920    -1.4910 H     1 <1>   0.0800 
 34 H      -10.9600     8.2140    -0.6580 H     1 <1>   0.0800 
 35 H      -11.1500     8.2410     1.0990 H     1 <1>   0.0800 
 36 H       -1.6090     2.3900     0.8230 H     1 <1>   0.0800 
 37 H       -0.9910     2.0930    -0.7900 H     1 <1>   0.0800 
 38 H       -1.8120    -0.0290     0.3630 H     1 <1>   0.0800 
 39 H       -2.6620     0.3070    -1.1320 H     1 <1>   0.0800 
 40 H      -14.4210     4.5690    -0.8770 H     1 <1>   0.1500 
 41 H      -13.7400     9.2790     0.4670 H     1 <1>   0.1500 
 42 H      -16.3440     6.0750    -0.5970 H     1 <1>   0.1500 
 43 H      -16.0060     8.4120     0.0700 H     1 <1>   0.1500 
@<TRIPOS>BOND
  1   1   2  2   
  2   2   3  1   
  3   2   4  1   
  4   3   5  ar  
  5   3   6  ar  
  6   4   7  1   
  7   4  24  1   
  8   4  25  1   
  9   5   8  ar  
 10   5  26  1   
 11   6   9  ar  
 12   6  27  1   
 13   7  10  1   
 14   7  28  1   
 15   7  29  1   
 16   8  11  1   
 17   8  12  ar  
 18   9  12  ar  
 19   9  30  1   
 20  10  13  1   
 21  10  14  1   
 22  10  31  1   
 23  11  15  1   
 24  12  16  1   
 25  13  17  1   
 26  13  32  1   
 27  13  33  1   
 28  14  18  1   
 29  14  34  1   
 30  14  35  1   
 31  15  19  1   
 32  15  36  1   
 33  15  37  1   
 34  16  19  1   
 35  17  18  ar  
 36  17  20  ar  
 37  18  21  ar  
 38  19  38  1   
 39  19  39  1   
 40  20  22  ar  
 41  20  40  1   
 42  21  23  ar  
 43  21  41  1   
 44  22  23  ar  
 45  22  42  1   
 46  23  43  1   
@<TRIPOS>SUBSTRUCTURE
  1 ****   4 GROUP 4 **** **** 0

# MOE 2024.06 (io_trps.svl 2023.06)
