@<TRIPOS>MOLECULE
NONAME
52 54 1 0 0 
SMALL
USER_CHARGES


@<TRIPOS>ATOM
  1 S        0.8850     1.0980    -0.6340 S.3   1 <1>  -0.4600 
  2 C        2.4480     0.7730    -1.4890 C.3   1 <1>   0.0700 
  3 C        0.7280    -0.3250     0.4740 C.3   1 <1>   0.0700 
  4 C        3.5410     0.4890    -0.4510 C.3   1 <1>   0.3430 
  5 C        2.0220    -0.4700     1.2870 C.3   1 <1>   0.3430 
  6 N        3.2260    -0.7020     0.4170 N.4   1 <1>  -0.9590 
  7 C        4.4150    -1.0480     1.2490 C.3   1 <1>   0.4810 
  8 C        5.4330    -1.7960     0.3820 C.2   1 <1>  -0.0290 
  9 N        5.1010    -3.1170     0.1070 N.am  1 <1>  -0.5390 
 10 C        6.5840    -1.2580    -0.1180 C.2   1 <1>  -0.1240 
 11 C        5.8560    -3.9460    -0.6540 C.2   1 <1>   0.6900 
 12 C        7.0080     0.1060     0.0080 C.2   1 <1>   0.7060 
 13 C        7.5420    -2.1390    -0.9350 C.3   1 <1>   0.5020 
 14 O        5.5060    -5.0900    -0.8060 O.2   1 <1>  -0.5700 
 15 N        6.9870    -3.4770    -1.1970 N.am  1 <1>  -0.7300 
 16 O        6.3600     0.9270     0.6280 O.2   1 <1>  -0.5700 
 17 O        8.1050     0.5170    -0.6310 O.3   1 <1>  -0.4300 
 18 C        8.9420    -2.3000    -0.3290 C.ar  1 <1>  -0.1440 
 19 C        8.6120     1.8320    -0.5000 C.3   1 <1>   0.0400 
 20 C        9.2100    -2.7950     0.9510 C.ar  1 <1>  -0.1440 
 21 C       10.0120    -1.9180    -1.1330 C.ar  1 <1>  -0.1500 
 22 C       10.5250    -2.8800     1.3850 C.ar  1 <1>  -0.1500 
 23 C        8.1330    -3.2660     1.9200 C.3   1 <1>  -0.0970 
 24 C       11.3200    -2.0080    -0.6950 C.ar  1 <1>  -0.1440 
 25 C       11.5720    -2.4900     0.5740 C.ar  1 <1>  -0.1500 
 26 C       12.4640    -1.5780    -1.5950 C.3   1 <1>  -0.0970 
 27 H        2.6800     1.6530    -2.0640 H     1 <1>   0.0800 
 28 H        2.2970    -0.0600    -2.1520 H     1 <1>   0.0800 
 29 H        0.5290    -1.1940    -0.1280 H     1 <1>   0.0800 
 30 H       -0.1140    -0.1300     1.1150 H     1 <1>   0.0800 
 31 H        3.6750     1.3640     0.1660 H     1 <1>   0.0800 
 32 H        4.4670     0.3190    -0.9750 H     1 <1>   0.0800 
 33 H        1.9030    -1.2950     1.9690 H     1 <1>   0.0800 
 34 H        2.1630     0.4250     1.8720 H     1 <1>   0.0800 
 35 H        3.0500    -1.5050    -0.2020 H     1 <1>   0.4500 
 36 H        4.1220    -1.6950     2.0600 H     1 <1>   0.0800 
 37 H        4.8370    -0.1590     1.6840 H     1 <1>   0.0800 
 38 H        4.3200    -3.6220     0.5300 H     1 <1>   0.3700 
 39 H        7.6480    -1.6700    -1.8990 H     1 <1>   0.0800 
 40 H        7.6400    -4.1640    -1.5740 H     1 <1>   0.3700 
 41 H        9.5140     1.9080    -1.0820 H     1 <1>   0.0800 
 42 H        8.8310     2.0200     0.5380 H     1 <1>   0.0800 
 43 H        7.8790     2.5320    -0.8600 H     1 <1>   0.0800 
 44 H        9.8350    -1.5350    -2.1230 H     1 <1>   0.1500 
 45 H       10.7520    -3.2560     2.3680 H     1 <1>   0.1500 
 46 H        8.5720    -3.6560     2.8210 H     1 <1>   0.0800 
 47 H        7.4940    -2.4500     2.1970 H     1 <1>   0.0800 
 48 H        7.5540    -4.0550     1.4810 H     1 <1>   0.0800 
 49 H       12.5830    -2.5650     0.9360 H     1 <1>   0.1500 
 50 H       12.6230    -0.5190    -1.5000 H     1 <1>   0.0800 
 51 H       12.2410    -1.8060    -2.6220 H     1 <1>   0.0800 
 52 H       13.3690    -2.0900    -1.3250 H     1 <1>   0.0800 
@<TRIPOS>BOND
  1   1   2  1   
  2   1   3  1   
  3   2   4  1   
  4   2  27  1   
  5   2  28  1   
  6   3   5  1   
  7   3  29  1   
  8   3  30  1   
  9   4   6  1   
 10   4  31  1   
 11   4  32  1   
 12   5   6  1   
 13   5  33  1   
 14   5  34  1   
 15   6   7  1   
 16   6  35  1   
 17   7   8  1   
 18   7  36  1   
 19   7  37  1   
 20   8   9  1   
 21   8  10  2   
 22   9  11  am  
 23   9  38  1   
 24  10  12  1   
 25  10  13  1   
 26  11  14  2   
 27  11  15  am  
 28  12  16  2   
 29  12  17  1   
 30  13  15  1   
 31  13  18  1   
 32  13  39  1   
 33  15  40  1   
 34  17  19  1   
 35  18  20  ar  
 36  18  21  ar  
 37  19  41  1   
 38  19  42  1   
 39  19  43  1   
 40  20  22  ar  
 41  20  23  1   
 42  21  24  ar  
 43  21  44  1   
 44  22  25  ar  
 45  22  45  1   
 46  23  46  1   
 47  23  47  1   
 48  23  48  1   
 49  24  25  ar  
 50  24  26  1   
 51  25  49  1   
 52  26  50  1   
 53  26  51  1   
 54  26  52  1   
@<TRIPOS>SUBSTRUCTURE
  1 ****  10 GROUP 4 **** **** 0

# MOE 2024.06 (io_trps.svl 2023.06)
