@<TRIPOS>MOLECULE
NONAME
45 46 1 0 0 
SMALL
USER_CHARGES


@<TRIPOS>ATOM
  1 S        0.2400     0.2890    -1.2080 S.o2  1 <1>   1.4470 
  2 O        0.1270     1.2800    -0.1600 O.2   1 <1>  -0.6500 
  3 O        0.6850     0.6990    -2.5220 O.2   1 <1>  -0.6500 
  4 N        1.3440    -0.8690    -0.6560 N.am  1 <1>  -0.8490 
  5 C       -1.3050    -0.6530    -1.3600 C.ar  1 <1>  -0.0090 
  6 C        1.0490    -1.3760     0.7040 C.3   1 <1>   0.1960 
  7 C        2.7300    -0.3980    -0.7480 C.3   1 <1>   0.1960 
  8 C       -2.1920    -0.7540    -0.2980 C.ar  1 <1>  -0.1500 
  9 C       -1.6220    -1.3250    -2.5350 C.ar  1 <1>  -0.1500 
 10 C        2.2940    -1.8610     1.4920 C.3   1 <1>   0.2000 
 11 C        3.7440    -1.5040    -0.3520 C.3   1 <1>   0.2000 
 12 C       -3.3720    -1.4990    -0.3540 C.ar  1 <1>   0.0860 
 13 C       -2.7820    -2.0680    -2.6350 C.ar  1 <1>  -0.1500 
 14 O        3.2580    -2.3830     0.6290 O.3   1 <1>  -0.5600 
 15 C        1.9540    -2.9550     2.5010 C.3   1 <1>  -0.2400 
 16 C        5.0650    -0.9280     0.1560 C.3   1 <1>  -0.2400 
 17 C       -3.6450    -2.1670    -1.5560 C.ar  1 <1>   0.0830 
 18 C       -4.2380    -1.5500     0.8100 C.2   1 <1>   0.5440 
 19 O       -4.7470    -2.9240    -1.7140 O.3   1 <1>  -0.3630 
 20 O       -3.7650    -1.4660     1.9270 O.2   1 <1>  -0.5700 
 21 N       -5.5930    -1.6780     0.6820 N.am  1 <1>  -0.7300 
 22 C       -4.6690    -4.2600    -1.2670 C.3   1 <1>   0.0400 
 23 C       -6.5850    -1.6970     1.7860 C.3   1 <1>   0.0600 
 24 H        0.3520    -2.1910     0.6140 H     1 <1>   0.0800 
 25 H        0.5720    -0.6170     1.3010 H     1 <1>   0.0800 
 26 H        2.8570     0.4580    -0.1070 H     1 <1>   0.0800 
 27 H        2.9470    -0.0820    -1.7540 H     1 <1>   0.0800 
 28 H       -1.9650    -0.2320     0.6180 H     1 <1>   0.1500 
 29 H       -0.9510    -1.2620    -3.3770 H     1 <1>   0.1500 
 30 H        2.7360    -1.0280     2.0120 H     1 <1>   0.0800 
 31 H        3.9410    -2.1070    -1.2220 H     1 <1>   0.0800 
 32 H       -3.0210    -2.5800    -3.5510 H     1 <1>   0.1500 
 33 H        1.5550    -3.8160     1.9960 H     1 <1>   0.0800 
 34 H        1.2260    -2.5960     3.2050 H     1 <1>   0.0800 
 35 H        2.8400    -3.2400     3.0400 H     1 <1>   0.0800 
 36 H        4.9080    -0.3360     1.0390 H     1 <1>   0.0800 
 37 H        5.5110    -0.3080    -0.6000 H     1 <1>   0.0800 
 38 H        5.7460    -1.7290     0.3830 H     1 <1>   0.0800 
 39 H       -5.9550    -1.8420    -0.2640 H     1 <1>   0.3700 
 40 H       -5.6060    -4.7420    -1.4790 H     1 <1>   0.0800 
 41 H       -4.4830    -4.2660    -0.2070 H     1 <1>   0.0800 
 42 H       -3.8710    -4.7570    -1.7900 H     1 <1>   0.0800 
 43 H       -6.1000    -1.5120     2.7300 H     1 <1>   0.0800 
 44 H       -7.0670    -2.6580     1.8260 H     1 <1>   0.0800 
 45 H       -7.3260    -0.9340     1.6220 H     1 <1>   0.0800 
@<TRIPOS>BOND
  1   1   2  2   
  2   1   3  2   
  3   1   4  am  
  4   1   5  1   
  5   4   6  1   
  6   4   7  1   
  7   5   8  ar  
  8   5   9  ar  
  9   6  10  1   
 10   6  24  1   
 11   6  25  1   
 12   7  11  1   
 13   7  26  1   
 14   7  27  1   
 15   8  12  ar  
 16   8  28  1   
 17   9  13  ar  
 18   9  29  1   
 19  10  14  1   
 20  10  15  1   
 21  10  30  1   
 22  11  14  1   
 23  11  16  1   
 24  11  31  1   
 25  12  17  ar  
 26  12  18  1   
 27  13  17  ar  
 28  13  32  1   
 29  15  33  1   
 30  15  34  1   
 31  15  35  1   
 32  16  36  1   
 33  16  37  1   
 34  16  38  1   
 35  17  19  1   
 36  18  20  2   
 37  18  21  am  
 38  19  22  1   
 39  21  23  1   
 40  21  39  1   
 41  22  40  1   
 42  22  41  1   
 43  22  42  1   
 44  23  43  1   
 45  23  44  1   
 46  23  45  1   
@<TRIPOS>SUBSTRUCTURE
  1 ****   5 GROUP 4 **** **** 0

# MOE 2024.06 (io_trps.svl 2023.06)
