@<TRIPOS>MOLECULE
NONAME
37 38 1 0 0 
SMALL
USER_CHARGES


@<TRIPOS>ATOM
  1 O       -0.8490     0.6390    -1.6260 O.2   1 <1>  -0.5700 
  2 C       -1.6080     0.8790    -0.7190 C.2   1 <1>   0.4230 
  3 C       -2.8380     0.1590    -0.4900 C.ar  1 <1>   0.0860 
  4 C       -1.1750     1.9660     0.2440 C.3   1 <1>  -0.1790 
  5 C       -4.0730     0.8000    -0.4470 C.ar  1 <1>   0.0820 
  6 C       -2.8100    -1.2430    -0.2870 C.ar  1 <1>  -0.1440 
  7 O       -4.0690     2.1460    -0.4760 O.3   1 <1>  -0.3620 
  8 C       -5.3070     0.0860    -0.3660 C.ar  1 <1>   0.0000 
  9 C       -3.9690    -1.9280    -0.0740 C.ar  1 <1>  -0.1500 
 10 C       -1.4880    -2.0050    -0.2890 C.3   1 <1>  -0.0960 
 11 C       -4.4930     2.8630     0.6670 C.3   1 <1>   0.0400 
 12 C       -6.6160     0.6210    -0.5620 C.ar  1 <1>   0.0820 
 13 C       -5.2270    -1.2990    -0.0920 C.ar  1 <1>   0.0000 
 14 O       -6.7340     1.8950    -1.0120 O.3   1 <1>  -0.3630 
 15 C       -7.7400    -0.1440    -0.3320 C.ar  1 <1>  -0.1500 
 16 C       -6.3950    -2.0460     0.1400 C.ar  1 <1>  -0.1500 
 17 C       -7.9180     2.3980    -1.5910 C.3   1 <1>   0.0400 
 18 C       -7.6360    -1.4840     0.0370 C.ar  1 <1>  -0.1430 
 19 C       -8.9000    -2.2860     0.2940 C.3   1 <1>  -0.0970 
 20 H       -1.6190     1.8090     1.2080 H     1 <1>   0.0800 
 21 H       -1.4720     2.9230    -0.1410 H     1 <1>   0.0800 
 22 H       -0.1060     1.9500     0.3470 H     1 <1>   0.0800 
 23 H       -3.9490    -2.9890     0.1010 H     1 <1>   0.1500 
 24 H       -0.8010    -1.5670     0.4120 H     1 <1>   0.0800 
 25 H       -1.0480    -1.9720    -1.2700 H     1 <1>   0.0800 
 26 H       -1.6320    -3.0360    -0.0210 H     1 <1>   0.0800 
 27 H       -3.7460     2.7720     1.4330 H     1 <1>   0.0800 
 28 H       -5.4280     2.4670     1.0220 H     1 <1>   0.0800 
 29 H       -4.6150     3.8930     0.3890 H     1 <1>   0.0800 
 30 H       -8.7260     0.2640    -0.4340 H     1 <1>   0.1500 
 31 H       -6.2920    -3.0840     0.3990 H     1 <1>   0.1500 
 32 H       -7.6990     3.3640    -2.0100 H     1 <1>   0.0800 
 33 H       -8.6680     2.4940    -0.8270 H     1 <1>   0.0800 
 34 H       -8.2390     1.7270    -2.3680 H     1 <1>   0.0800 
 35 H       -9.5050    -2.3110    -0.5940 H     1 <1>   0.0800 
 36 H       -9.4660    -1.8340     1.0890 H     1 <1>   0.0800 
 37 H       -8.6630    -3.2970     0.5750 H     1 <1>   0.0800 
@<TRIPOS>BOND
  1   1   2  2   
  2   2   3  1   
  3   2   4  1   
  4   3   5  ar  
  5   3   6  ar  
  6   4  20  1   
  7   4  21  1   
  8   4  22  1   
  9   5   7  1   
 10   5   8  ar  
 11   6   9  ar  
 12   6  10  1   
 13   7  11  1   
 14   8  12  ar  
 15   8  13  ar  
 16   9  13  ar  
 17   9  23  1   
 18  10  24  1   
 19  10  25  1   
 20  10  26  1   
 21  11  27  1   
 22  11  28  1   
 23  11  29  1   
 24  12  14  1   
 25  12  15  ar  
 26  13  16  ar  
 27  14  17  1   
 28  15  18  ar  
 29  15  30  1   
 30  16  18  ar  
 31  16  31  1   
 32  17  32  1   
 33  17  33  1   
 34  17  34  1   
 35  18  19  1   
 36  19  35  1   
 37  19  36  1   
 38  19  37  1   
@<TRIPOS>SUBSTRUCTURE
  1 ****   8 GROUP 4 **** **** 0

# MOE 2024.06 (io_trps.svl 2023.06)
