@<TRIPOS>MOLECULE
NONAME
39 39 1 0 0 
SMALL
USER_CHARGES


@<TRIPOS>ATOM
  1 BR       1.4730    -0.2640    -1.3370 Br    1 <1>  -0.1110 
  2 C        0.6110    -1.8580    -0.6760 C.ar  1 <1>   0.1110 
  3 C        1.1790    -2.5810     0.3600 C.ar  1 <1>   0.0830 
  4 C       -0.5780    -2.2380    -1.2670 C.ar  1 <1>  -0.1500 
  5 O        2.3370    -2.1970     0.9350 O.3   1 <1>  -0.5330 
  6 C        0.5390    -3.7300     0.8150 C.ar  1 <1>   0.0830 
  7 C       -1.2310    -3.3730    -0.8030 C.ar  1 <1>  -0.1430 
  8 O        1.1400    -4.4170     1.8270 O.3   1 <1>  -0.3630 
  9 C       -0.6660    -4.1180     0.2290 C.ar  1 <1>  -0.1500 
 10 C       -2.5540    -3.7890    -1.4190 C.3   1 <1>   0.4860 
 11 C        0.7280    -5.7180     2.1870 C.3   1 <1>   0.0400 
 12 N       -3.6570    -3.3770    -0.5050 N.4   1 <1>  -0.9590 
 13 C       -4.9370    -4.0500    -0.9080 C.3   1 <1>   0.3430 
 14 C       -3.7750    -1.8870    -0.4550 C.3   1 <1>   0.3430 
 15 C       -5.6500    -4.7110     0.2800 C.3   1 <1>   0.1200 
 16 C       -4.7060    -1.4400     0.6730 C.3   1 <1>  -0.1600 
 17 O       -6.7560    -5.3720    -0.2170 O.3   1 <1>  -0.6800 
 18 C       -4.6630     0.0830     0.8400 C.3   1 <1>  -0.2400 
 19 H       -0.9680    -1.6410    -2.0730 H     1 <1>   0.1500 
 20 H        2.5940    -2.8300     1.6350 H     1 <1>   0.4500 
 21 H       -1.1640    -5.0040     0.5760 H     1 <1>   0.1500 
 22 H       -2.5600    -4.8590    -1.5490 H     1 <1>   0.0800 
 23 H       -2.6760    -3.3290    -2.3860 H     1 <1>   0.0800 
 24 H        1.4120    -6.0910     2.9290 H     1 <1>   0.0800 
 25 H        0.7570    -6.3500     1.3170 H     1 <1>   0.0800 
 26 H       -0.2630    -5.6720     2.6030 H     1 <1>   0.0800 
 27 H       -3.3810    -3.6910     0.4330 H     1 <1>   0.4500 
 28 H       -4.7320    -4.8210    -1.6330 H     1 <1>   0.0800 
 29 H       -5.6030    -3.3350    -1.3620 H     1 <1>   0.0800 
 30 H       -4.1380    -1.5090    -1.3980 H     1 <1>   0.0800 
 31 H       -2.8030    -1.4550    -0.2760 H     1 <1>   0.0800 
 32 H       -5.9910    -3.9830     0.9950 H     1 <1>   0.0800 
 33 H       -5.0170    -5.4400     0.7570 H     1 <1>   0.0800 
 34 H       -4.4020    -1.8920     1.6020 H     1 <1>   0.0800 
 35 H       -5.7200    -1.7240     0.4560 H     1 <1>   0.0800 
 36 H       -7.2760    -5.8060     0.4940 H     1 <1>   0.4000 
 37 H       -3.6680     0.4150     1.0840 H     1 <1>   0.0800 
 38 H       -5.3210     0.3850     1.6380 H     1 <1>   0.0800 
 39 H       -4.9820     0.5780    -0.0610 H     1 <1>   0.0800 
@<TRIPOS>BOND
  1   1   2  1   
  2   2   3  ar  
  3   2   4  ar  
  4   3   5  1   
  5   3   6  ar  
  6   4   7  ar  
  7   4  19  1   
  8   5  20  1   
  9   6   8  1   
 10   6   9  ar  
 11   7   9  ar  
 12   7  10  1   
 13   8  11  1   
 14   9  21  1   
 15  10  12  1   
 16  10  22  1   
 17  10  23  1   
 18  11  24  1   
 19  11  25  1   
 20  11  26  1   
 21  12  13  1   
 22  12  14  1   
 23  12  27  1   
 24  13  15  1   
 25  13  28  1   
 26  13  29  1   
 27  14  16  1   
 28  14  30  1   
 29  14  31  1   
 30  15  17  1   
 31  15  32  1   
 32  15  33  1   
 33  16  18  1   
 34  16  34  1   
 35  16  35  1   
 36  17  36  1   
 37  18  37  1   
 38  18  38  1   
 39  18  39  1   
@<TRIPOS>SUBSTRUCTURE
  1 ****   7 GROUP 4 **** **** 0

# MOE 2024.06 (io_trps.svl 2023.06)
