@<TRIPOS>MOLECULE
ka-07200
42 44 1 0 0 
SMALL
USER_CHARGES


@<TRIPOS>ATOM
  1 O        1.0610     3.4000     1.1580 O.2   1 <1>  -0.5700 
  2 C        0.2820     2.5640     0.7680 C.2   1 <1>   0.5690 
  3 N        0.6770     1.4250     0.1160 N.am  1 <1>  -0.5470 
  4 C       -1.2150     2.7570     1.0470 C.3   1 <1>   0.1250 
  5 C        1.9300     0.9830    -0.3310 C.ar  1 <1>   0.1170 
  6 C       -1.9910     1.4320     0.9310 C.ar  1 <1>  -0.1440 
  7 C       -1.8860     3.9010     0.2360 C.3   1 <1>  -0.0800 
  8 C        3.0110     1.8360    -0.5310 C.ar  1 <1>  -0.1500 
  9 C        2.0970    -0.3690    -0.6060 C.ar  1 <1>  -0.1500 
 10 C       -2.3360     0.7490     2.0900 C.ar  1 <1>  -0.1500 
 11 C       -2.3430     0.8800    -0.2960 C.ar  1 <1>  -0.1500 
 12 C       -1.5630     3.9800    -1.2700 C.3   1 <1>  -0.1600 
 13 C       -1.5690     5.3000     0.7790 C.3   1 <1>  -0.1600 
 14 C        4.2240     1.3510    -0.9870 C.ar  1 <1>  -0.1500 
 15 C        3.3070    -0.8590    -1.0630 C.ar  1 <1>  -0.1500 
 16 C       -3.0160    -0.4550     2.0270 C.ar  1 <1>  -0.1500 
 17 C       -3.0240    -0.3230    -0.3610 C.ar  1 <1>  -0.1500 
 18 C       -1.3630     5.4620    -1.6060 C.3   1 <1>  -0.1600 
 19 C       -1.8560     6.2340    -0.3880 C.3   1 <1>  -0.1600 
 20 C        4.3740     0.0010    -1.2540 C.ar  1 <1>  -0.1500 
 21 C       -3.3610    -0.9920     0.8010 C.ar  1 <1>  -0.1500 
 22 H       -0.0810     0.7500    -0.0030 H     1 <1>   0.3700 
 23 H       -1.2730     3.0560     2.0770 H     1 <1>   0.0800 
 24 H       -2.9530     3.7810     0.3280 H     1 <1>   0.0800 
 25 H        2.9100     2.8870    -0.3320 H     1 <1>   0.1500 
 26 H        1.2760    -1.0470    -0.4590 H     1 <1>   0.1500 
 27 H       -2.0760     1.1460     3.0560 H     1 <1>   0.1500 
 28 H       -2.0920     1.3720    -1.2170 H     1 <1>   0.1500 
 29 H       -2.3870     3.5880    -1.8400 H     1 <1>   0.0800 
 30 H       -0.6730     3.4350    -1.5330 H     1 <1>   0.0800 
 31 H       -0.5270     5.3820     1.0380 H     1 <1>   0.0800 
 32 H       -2.1630     5.5440     1.6430 H     1 <1>   0.0800 
 33 H        5.0500     2.0250    -1.1330 H     1 <1>   0.1500 
 34 H        3.4220    -1.9090    -1.2700 H     1 <1>   0.1500 
 35 H       -3.2780    -0.9730     2.9330 H     1 <1>   0.1500 
 36 H       -3.2930    -0.7390    -1.3170 H     1 <1>   0.1500 
 37 H       -1.8900     5.7490    -2.5000 H     1 <1>   0.0800 
 38 H       -0.3120     5.6540    -1.7420 H     1 <1>   0.0800 
 39 H       -1.3570     7.1820    -0.2800 H     1 <1>   0.0800 
 40 H       -2.9180     6.3970    -0.4670 H     1 <1>   0.0800 
 41 H        5.3170    -0.3770    -1.6080 H     1 <1>   0.1500 
 42 H       -3.8920    -1.9280     0.7510 H     1 <1>   0.1500 
@<TRIPOS>BOND
  1   1   2  2   
  2   2   3  am  
  3   2   4  1   
  4   3   5  1   
  5   3  22  1   
  6   4   6  1   
  7   4   7  1   
  8   4  23  1   
  9   5   8  ar  
 10   5   9  ar  
 11   6  10  ar  
 12   6  11  ar  
 13   7  12  1   
 14   7  13  1   
 15   7  24  1   
 16   8  14  ar  
 17   8  25  1   
 18   9  15  ar  
 19   9  26  1   
 20  10  16  ar  
 21  10  27  1   
 22  11  17  ar  
 23  11  28  1   
 24  12  18  1   
 25  12  29  1   
 26  12  30  1   
 27  13  19  1   
 28  13  31  1   
 29  13  32  1   
 30  14  20  ar  
 31  14  33  1   
 32  15  20  ar  
 33  15  34  1   
 34  16  21  ar  
 35  16  35  1   
 36  17  21  ar  
 37  17  36  1   
 38  18  19  1   
 39  18  37  1   
 40  18  38  1   
 41  19  39  1   
 42  19  40  1   
 43  20  41  1   
 44  21  42  1   
@<TRIPOS>SUBSTRUCTURE
  1 ****   3 GROUP 4 **** **** 0

# MOE 2024.06 (io_trps.svl 2023.06)
