@<TRIPOS>MOLECULE
NONAME
50 53 1 0 0 
SMALL
USER_CHARGES


@<TRIPOS>ATOM
  1 O       -1.4740    -0.7720    -2.5280 O.2   1 <1>  -0.5700 
  2 C       -1.3420    -1.2020    -1.4090 C.2   1 <1>   0.5690 
  3 N       -2.0550    -0.7220    -0.3600 N.am  1 <1>  -0.7300 
  4 C       -0.3450    -2.3300    -1.1630 C.3   1 <1>  -0.0190 
  5 C       -3.0550     0.3610    -0.4140 C.3   1 <1>   0.2200 
  6 C       -1.0630    -3.6330    -0.7590 C.3   1 <1>  -0.1600 
  7 C        0.7160    -1.9400    -0.1130 C.3   1 <1>  -0.1600 
  8 C       -2.6090     1.5390     0.4800 C.3   1 <1>  -0.0800 
  9 C       -4.4260    -0.1590     0.0670 C.3   1 <1>  -0.0800 
 10 C       -0.0660    -4.7570    -0.4640 C.3   1 <1>   0.1400 
 11 C        1.6770    -3.0960     0.1730 C.3   1 <1>   0.1400 
 12 C       -2.5480     1.1110     1.9650 C.3   1 <1>  -0.1600 
 13 C       -3.6420     2.6760     0.3390 C.3   1 <1>  -0.1600 
 14 C       -4.3640    -0.5850     1.5520 C.3   1 <1>  -0.1600 
 15 C       -5.4560     0.9810    -0.0730 C.3   1 <1>  -0.1600 
 16 N        0.8910    -4.2930     0.5770 N.am  1 <1>  -0.6600 
 17 C       -3.9300     0.6080     2.4260 C.3   1 <1>  -0.0800 
 18 C       -5.0320     2.1860     0.7910 C.3   1 <1>  -0.0800 
 19 C        1.0330    -4.8440     1.8250 C.2   1 <1>   0.5690 
 20 C       -4.9560     1.7460     2.2650 C.3   1 <1>  -0.1600 
 21 O        1.7900    -4.3900     2.6470 O.2   1 <1>  -0.5700 
 22 C        0.2270    -6.0570     2.2290 C.3   1 <1>  -0.1790 
 23 H       -1.9050    -1.1050     0.5720 H     1 <1>   0.3700 
 24 H        0.1660    -2.5090    -2.0930 H     1 <1>   0.0800 
 25 H       -3.1440     0.7040    -1.4320 H     1 <1>   0.0800 
 26 H       -1.7180    -3.9400    -1.5560 H     1 <1>   0.0800 
 27 H       -1.6660    -3.4700     0.1160 H     1 <1>   0.0800 
 28 H        0.2460    -1.6580     0.8130 H     1 <1>   0.0800 
 29 H        1.2770    -1.0920    -0.4660 H     1 <1>   0.0800 
 30 H       -1.6470     1.8910     0.1520 H     1 <1>   0.0800 
 31 H       -4.7290    -0.9880    -0.5480 H     1 <1>   0.0800 
 32 H        0.4820    -5.0040    -1.3580 H     1 <1>   0.0800 
 33 H       -0.5970    -5.6370    -0.1490 H     1 <1>   0.0800 
 34 H        2.3670    -2.8100     0.9490 H     1 <1>   0.0800 
 35 H        2.2490    -3.3300    -0.7090 H     1 <1>   0.0800 
 36 H       -2.2490     1.9500     2.5690 H     1 <1>   0.0800 
 37 H       -1.8100     0.3410     2.1040 H     1 <1>   0.0800 
 38 H       -3.3410     3.5190     0.9360 H     1 <1>   0.0800 
 39 H       -3.6870     3.0030    -0.6860 H     1 <1>   0.0800 
 40 H       -5.3330    -0.9300     1.8690 H     1 <1>   0.0800 
 41 H       -3.6780    -1.4030     1.6800 H     1 <1>   0.0800 
 42 H       -6.4280     0.6360     0.2350 H     1 <1>   0.0800 
 43 H       -5.5300     1.2810    -1.1040 H     1 <1>   0.0800 
 44 H       -3.8820     0.3060     3.4590 H     1 <1>   0.0800 
 45 H       -5.7510     2.9810     0.6860 H     1 <1>   0.0800 
 46 H       -4.6720     2.5820     2.8810 H     1 <1>   0.0800 
 47 H       -5.9240     1.4120     2.5960 H     1 <1>   0.0800 
 48 H        0.4440    -6.8750     1.5690 H     1 <1>   0.0800 
 49 H       -0.8210    -5.8260     2.1970 H     1 <1>   0.0800 
 50 H        0.4860    -6.3460     3.2310 H     1 <1>   0.0800 
@<TRIPOS>BOND
  1   1   2  2   
  2   2   3  am  
  3   2   4  1   
  4   3   5  1   
  5   3  23  1   
  6   4   6  1   
  7   4   7  1   
  8   4  24  1   
  9   5   8  1   
 10   5   9  1   
 11   5  25  1   
 12   6  10  1   
 13   6  26  1   
 14   6  27  1   
 15   7  11  1   
 16   7  28  1   
 17   7  29  1   
 18   8  12  1   
 19   8  13  1   
 20   8  30  1   
 21   9  14  1   
 22   9  15  1   
 23   9  31  1   
 24  10  16  1   
 25  10  32  1   
 26  10  33  1   
 27  11  16  1   
 28  11  34  1   
 29  11  35  1   
 30  12  17  1   
 31  12  36  1   
 32  12  37  1   
 33  13  18  1   
 34  13  38  1   
 35  13  39  1   
 36  14  17  1   
 37  14  40  1   
 38  14  41  1   
 39  15  18  1   
 40  15  42  1   
 41  15  43  1   
 42  16  19  am  
 43  17  20  1   
 44  17  44  1   
 45  18  20  1   
 46  18  45  1   
 47  19  21  2   
 48  19  22  1   
 49  20  46  1   
 50  20  47  1   
 51  22  48  1   
 52  22  49  1   
 53  22  50  1   
@<TRIPOS>SUBSTRUCTURE
  1 ****   3 GROUP 4 **** **** 0

# MOE 2024.06 (io_trps.svl 2023.06)
