@<TRIPOS>MOLECULE
NONAME
26 26 1 0 0 
SMALL
USER_CHARGES


@<TRIPOS>ATOM
  1 I       -0.3890    -0.0270    -1.8170 I     1 <1>  -0.0270 
  2 C       -2.1110     0.0580    -0.5320 C.2   1 <1>   0.0270 
  3 C       -2.4290     1.1250     0.2940 C.2   1 <1>   0.1080 
  4 C       -3.0620    -0.8830    -0.3740 C.2   1 <1>  -0.3320 
  5 N       -3.5230     0.8800     0.9470 N.2   1 <1>  -0.7070 
  6 C       -1.6510     2.4120     0.4580 C.3   1 <1>  -0.0590 
  7 N       -3.9250    -0.3500     0.5330 N.pl3 1 <1>   0.3140 
  8 C       -3.2150    -2.2550    -1.0200 C.3   1 <1>  -0.0600 
  9 C       -5.1310    -0.9870     1.1080 C.3   1 <1>   0.0960 
 10 C       -6.3150    -0.9740     0.1340 C.3   1 <1>  -0.1600 
 11 C       -7.5140    -1.7420     0.7180 C.3   1 <1>  -0.2660 
 12 C       -8.6240    -1.9210    -0.2910 C.2   1 <1>   0.9060 
 13 O       -8.4740    -2.7700    -1.1740 O.co2 1 <1>  -0.9000 
 14 O       -9.6340    -1.2200    -0.1910 O.co2 1 <1>  -0.9000 
 15 H       -0.6660     2.1990     0.8270 H     1 <1>   0.0800 
 16 H       -2.1550     3.0530     1.1590 H     1 <1>   0.0800 
 17 H       -1.5800     2.9180    -0.4860 H     1 <1>   0.0800 
 18 H       -2.3470    -2.5030    -1.6020 H     1 <1>   0.0800 
 19 H       -4.0700    -2.2660    -1.6730 H     1 <1>   0.0800 
 20 H       -3.3430    -3.0100    -0.2660 H     1 <1>   0.0800 
 21 H       -5.3960    -0.4570     2.0050 H     1 <1>   0.0800 
 22 H       -4.8830    -1.9970     1.3730 H     1 <1>   0.0800 
 23 H       -6.0360    -1.4400    -0.7950 H     1 <1>   0.0800 
 24 H       -6.6100     0.0410    -0.0730 H     1 <1>   0.0800 
 25 H       -7.9130    -1.2220     1.5680 H     1 <1>   0.0800 
 26 H       -7.2130    -2.7250     1.0260 H     1 <1>   0.0800 
@<TRIPOS>BOND
  1   1   2  1   
  2   2   3  1   
  3   2   4  2   
  4   3   5  2   
  5   3   6  1   
  6   4   7  1   
  7   4   8  1   
  8   5   7  1   
  9   6  15  1   
 10   6  16  1   
 11   6  17  1   
 12   7   9  1   
 13   8  18  1   
 14   8  19  1   
 15   8  20  1   
 16   9  10  1   
 17   9  21  1   
 18   9  22  1   
 19  10  11  1   
 20  10  23  1   
 21  10  24  1   
 22  11  12  1   
 23  11  25  1   
 24  11  26  1   
 25  12  13  ar  
 26  12  14  ar  
@<TRIPOS>SUBSTRUCTURE
  1 ****   7 GROUP 4 **** **** 0

# MOE 2024.06 (io_trps.svl 2023.06)
