@<TRIPOS>MOLECULE
NONAME
36 37 1 0 0 
SMALL
USER_CHARGES


@<TRIPOS>ATOM
  1 O       -0.6530    -0.0240     0.0050 O.2   1 <1>  -0.5700 
  2 C       -1.6360    -0.7360     0.0040 C.2   1 <1>   0.7060 
  3 O       -2.8380    -0.1630     0.0030 O.3   1 <1>  -0.2330 
  4 C       -1.5700    -2.1580     0.0030 C.2   1 <1>  -0.1360 
  5 C       -3.9980    -0.8630     0.0020 C.ar  1 <1>   0.0820 
  6 C       -2.6820    -2.9320     0.0020 C.2   1 <1>  -0.1670 
  7 C       -3.9620    -2.2700     0.0010 C.ar  1 <1>   0.0280 
  8 C       -5.2030    -0.1610     0.0010 C.ar  1 <1>  -0.1440 
  9 C       -2.6430    -4.4650     0.0010 C.3   1 <1>  -0.0220 
 10 C       -5.1880    -2.9410     0.0000 C.ar  1 <1>  -0.1500 
 11 C       -6.4020    -0.8630     0.0000 C.ar  1 <1>   0.0830 
 12 C       -5.2410     1.3680     0.0020 C.3   1 <1>  -0.0960 
 13 C       -1.2380    -5.0850     0.0020 C.3   1 <1>  -0.1600 
 14 C       -6.3830    -2.2570     0.0000 C.ar  1 <1>  -0.1500 
 15 O       -7.5560    -0.1500     0.0000 O.3   1 <1>  -0.3630 
 16 C       -1.3040    -6.6160     0.0010 C.3   1 <1>  -0.2400 
 17 C       -8.8240    -0.7610    -0.0010 C.3   1 <1>   0.1200 
 18 C       -9.8780     0.3410    -0.0010 C.3   1 <1>  -0.2400 
 19 H       -0.5710    -2.5470     0.0040 H     1 <1>   0.1500 
 20 H       -3.1670    -4.8180    -0.8700 H     1 <1>   0.0800 
 21 H       -3.1690    -4.8190     0.8710 H     1 <1>   0.0800 
 22 H       -5.2190    -4.0140    -0.0010 H     1 <1>   0.1500 
 23 H       -4.2620     1.8090     0.0000 H     1 <1>   0.0800 
 24 H       -5.7630     1.7140     0.8760 H     1 <1>   0.0800 
 25 H       -5.7680     1.7150    -0.8690 H     1 <1>   0.0800 
 26 H       -0.7000    -4.7610     0.8760 H     1 <1>   0.0800 
 27 H       -0.6990    -4.7600    -0.8720 H     1 <1>   0.0800 
 28 H       -7.2960    -2.8210    -0.0010 H     1 <1>   0.1500 
 29 H       -1.8200    -6.9730     0.8750 H     1 <1>   0.0800 
 30 H       -0.3090    -7.0270     0.0010 H     1 <1>   0.0800 
 31 H       -1.8180    -6.9720    -0.8750 H     1 <1>   0.0800 
 32 H       -8.9100    -1.3700     0.8830 H     1 <1>   0.0800 
 33 H       -8.9090    -1.3690    -0.8860 H     1 <1>   0.0800 
 34 H       -9.7730     0.9520     0.8780 H     1 <1>   0.0800 
 35 H      -10.8600    -0.0940    -0.0020 H     1 <1>   0.0800 
 36 H       -9.7720     0.9530    -0.8790 H     1 <1>   0.0800 
@<TRIPOS>BOND
  1   1   2  2   
  2   2   3  1   
  3   2   4  1   
  4   3   5  1   
  5   4   6  2   
  6   4  19  1   
  7   5   7  ar  
  8   5   8  ar  
  9   6   7  1   
 10   6   9  1   
 11   7  10  ar  
 12   8  11  ar  
 13   8  12  1   
 14   9  13  1   
 15   9  20  1   
 16   9  21  1   
 17  10  14  ar  
 18  10  22  1   
 19  11  14  ar  
 20  11  15  1   
 21  12  23  1   
 22  12  24  1   
 23  12  25  1   
 24  13  16  1   
 25  13  26  1   
 26  13  27  1   
 27  14  28  1   
 28  15  17  1   
 29  16  29  1   
 30  16  30  1   
 31  16  31  1   
 32  17  18  1   
 33  17  32  1   
 34  17  33  1   
 35  18  34  1   
 36  18  35  1   
 37  18  36  1   
@<TRIPOS>SUBSTRUCTURE
  1 ****   7 GROUP 4 **** **** 0

# MOE 2024.06 (io_trps.svl 2023.06)
