@<TRIPOS>MOLECULE
NONAME
46 47 1 0 0 
SMALL
USER_CHARGES


@<TRIPOS>ATOM
  1 O        0.6860     0.1840     0.8760 O.3   1 <1>  -0.6800 
  2 C        1.8240     0.9710     0.9500 C.3   1 <1>   0.1200 
  3 C        2.9200     0.3100     0.1080 C.3   1 <1>   0.1100 
  4 N        4.1750     1.0940     0.1200 N.3   1 <1>  -0.8100 
  5 C        5.3170     0.2430    -0.2880 C.3   1 <1>   0.1100 
  6 C        4.0990     2.2880    -0.7560 C.3   1 <1>   0.1100 
  7 C        6.6400     1.0360    -0.4160 C.3   1 <1>   0.3430 
  8 C        5.4090     3.1150    -0.7330 C.3   1 <1>   0.3430 
  9 N        6.4850     2.4480     0.0850 N.4   1 <1>  -0.9590 
 10 C        7.7710     3.2080     0.1810 C.3   1 <1>   0.4230 
 11 C        8.8220     2.4240     0.9960 C.3   1 <1>  -0.1600 
 12 C        7.5870     4.6240     0.7550 C.3   1 <1>  -0.1600 
 13 C        9.9510     1.9080     0.0940 C.3   1 <1>  -0.1600 
 14 C        8.5290     5.6420     0.0870 C.3   1 <1>  -0.1600 
 15 C       11.0380     2.9610    -0.1870 C.3   1 <1>  -0.1600 
 16 C       10.0340     5.3310     0.1930 C.3   1 <1>  -0.1600 
 17 C       10.5680     4.2880    -0.8160 C.3   1 <1>  -0.1600 
 18 H       -0.0260     0.5420     1.4430 H     1 <1>   0.4000 
 19 H        2.1270     1.0320     1.9810 H     1 <1>   0.0800 
 20 H        1.5740     1.9470     0.5750 H     1 <1>   0.0800 
 21 H        2.5720     0.1800    -0.9030 H     1 <1>   0.0800 
 22 H        3.1040    -0.6640     0.5310 H     1 <1>   0.0800 
 23 H        5.1040    -0.2360    -1.2300 H     1 <1>   0.0800 
 24 H        5.4520    -0.5360     0.4440 H     1 <1>   0.0800 
 25 H        3.2910     2.9230    -0.4400 H     1 <1>   0.0800 
 26 H        3.8920     1.9850    -1.7690 H     1 <1>   0.0800 
 27 H        6.9430     1.0510    -1.4500 H     1 <1>   0.0800 
 28 H        7.4030     0.5150     0.1350 H     1 <1>   0.0800 
 29 H        5.1760     4.0840    -0.3270 H     1 <1>   0.0800 
 30 H        5.7520     3.2620    -1.7440 H     1 <1>   0.0800 
 31 H        6.0740     2.3440     1.0240 H     1 <1>   0.4500 
 32 H        8.1470     3.3220    -0.8220 H     1 <1>   0.0800 
 33 H        8.3710     1.6070     1.5280 H     1 <1>   0.0800 
 34 H        9.2710     3.0410     1.7540 H     1 <1>   0.0800 
 35 H        7.7580     4.6260     1.8180 H     1 <1>   0.0800 
 36 H        6.5900     4.9900     0.6130 H     1 <1>   0.0800 
 37 H        9.5560     1.5390    -0.8370 H     1 <1>   0.0800 
 38 H       10.4280     1.0760     0.5860 H     1 <1>   0.0800 
 39 H        8.3600     6.5960     0.5590 H     1 <1>   0.0800 
 40 H        8.2640     5.7640    -0.9500 H     1 <1>   0.0800 
 41 H       11.7480     2.5120    -0.8620 H     1 <1>   0.0800 
 42 H       11.5790     3.1700     0.7210 H     1 <1>   0.0800 
 43 H       10.2940     5.0690     1.2040 H     1 <1>   0.0800 
 44 H       10.5520     6.2530    -0.0110 H     1 <1>   0.0800 
 45 H        9.8730     4.1100    -1.6170 H     1 <1>   0.0800 
 46 H       11.4370     4.7260    -1.2780 H     1 <1>   0.0800 
@<TRIPOS>BOND
  1   1   2  1   
  2   1  18  1   
  3   2   3  1   
  4   2  19  1   
  5   2  20  1   
  6   3   4  1   
  7   3  21  1   
  8   3  22  1   
  9   4   5  1   
 10   4   6  1   
 11   5   7  1   
 12   5  23  1   
 13   5  24  1   
 14   6   8  1   
 15   6  25  1   
 16   6  26  1   
 17   7   9  1   
 18   7  27  1   
 19   7  28  1   
 20   8   9  1   
 21   8  29  1   
 22   8  30  1   
 23   9  10  1   
 24   9  31  1   
 25  10  11  1   
 26  10  12  1   
 27  10  32  1   
 28  11  13  1   
 29  11  33  1   
 30  11  34  1   
 31  12  14  1   
 32  12  35  1   
 33  12  36  1   
 34  13  15  1   
 35  13  37  1   
 36  13  38  1   
 37  14  16  1   
 38  14  39  1   
 39  14  40  1   
 40  15  17  1   
 41  15  41  1   
 42  15  42  1   
 43  16  17  1   
 44  16  43  1   
 45  16  44  1   
 46  17  45  1   
 47  17  46  1   
@<TRIPOS>SUBSTRUCTURE
  1 ****   9 GROUP 4 **** **** 0

# MOE 2024.06 (io_trps.svl 2023.06)
