@<TRIPOS>MOLECULE
NONAME
41 42 1 0 0 
SMALL
USER_CHARGES


@<TRIPOS>ATOM
  1 P        0.2080     0.0950     0.7270 P.3   1 <1>   0.9000 
  2 O       -1.2270    -0.0680     0.3510 O.co2 1 <1>  -0.9500 
  3 O        0.5330     0.7480     2.0340 O.co2 1 <1>  -0.9500 
  4 C        1.1000    -1.4580     0.5460 C.3   1 <1>  -0.0800 
  5 C        0.9010     1.2870    -0.4420 C.3   1 <1>   0.3430 
  6 C        2.6190    -1.2950     0.6860 C.3   1 <1>   0.2000 
  7 C        0.7400    -2.2900    -0.7130 C.3   1 <1>  -0.1600 
  8 N        0.5490     2.6640     0.0400 N.4   1 <1>  -0.9590 
  9 O        3.1230    -0.7120    -0.4670 O.3   1 <1>  -0.6800 
 10 C        3.3150    -2.6580     0.8530 C.3   1 <1>  -0.1600 
 11 C        1.7630    -3.3950    -1.0550 C.3   1 <1>  -0.1600 
 12 C       -0.8850     2.9600    -0.2200 C.3   1 <1>   0.3430 
 13 C        1.5110     3.7150    -0.3490 C.3   1 <1>   0.3430 
 14 C        2.5810    -3.8330     0.1680 C.3   1 <1>  -0.1600 
 15 C       -1.2650     4.2780     0.4570 C.3   1 <1>  -0.1600 
 16 C        1.1360     5.0310     0.3360 C.3   1 <1>  -0.1600 
 17 C       -0.3230     5.4250     0.0630 C.3   1 <1>  -0.1600 
 18 H        0.8010    -2.0590     1.3840 H     1 <1>   0.0800 
 19 H        0.5480     1.1400    -1.4450 H     1 <1>   0.0800 
 20 H        1.9720     1.2190    -0.4500 H     1 <1>   0.0800 
 21 H        2.8550    -0.6470     1.5160 H     1 <1>   0.0800 
 22 H        0.6350    -1.6390    -1.5630 H     1 <1>   0.0800 
 23 H       -0.2270    -2.7340    -0.5440 H     1 <1>   0.0800 
 24 H        0.5930     2.4900     1.0760 H     1 <1>   0.4500 
 25 H        3.1270    -1.3980    -1.1630 H     1 <1>   0.4000 
 26 H        3.3680    -2.8780     1.9050 H     1 <1>   0.0800 
 27 H        4.3300    -2.5920     0.4990 H     1 <1>   0.0800 
 28 H        2.4370    -3.0410    -1.8150 H     1 <1>   0.0800 
 29 H        1.2440    -4.2440    -1.4660 H     1 <1>   0.0800 
 30 H       -1.5040     2.1660     0.1710 H     1 <1>   0.0800 
 31 H       -1.0560     3.0300    -1.2810 H     1 <1>   0.0800 
 32 H        1.4870     3.8450    -1.4180 H     1 <1>   0.0800 
 33 H        2.5070     3.4240    -0.0580 H     1 <1>   0.0800 
 34 H        1.9040    -4.2790     0.8790 H     1 <1>   0.0800 
 35 H        3.2920    -4.5900    -0.1140 H     1 <1>   0.0800 
 36 H       -1.2420     4.1320     1.5240 H     1 <1>   0.0800 
 37 H       -2.2760     4.5280     0.1890 H     1 <1>   0.0800 
 38 H        1.7910     5.8090    -0.0130 H     1 <1>   0.0800 
 39 H        1.2920     4.9270     1.3960 H     1 <1>   0.0800 
 40 H       -0.5740     6.3100     0.6230 H     1 <1>   0.0800 
 41 H       -0.4470     5.6480    -0.9840 H     1 <1>   0.0800 
@<TRIPOS>BOND
  1   1   2  ar  
  2   1   3  ar  
  3   1   4  1   
  4   1   5  1   
  5   4   6  1   
  6   4   7  1   
  7   4  18  1   
  8   5   8  1   
  9   5  19  1   
 10   5  20  1   
 11   6   9  1   
 12   6  10  1   
 13   6  21  1   
 14   7  11  1   
 15   7  22  1   
 16   7  23  1   
 17   8  12  1   
 18   8  13  1   
 19   8  24  1   
 20   9  25  1   
 21  10  14  1   
 22  10  26  1   
 23  10  27  1   
 24  11  14  1   
 25  11  28  1   
 26  11  29  1   
 27  12  15  1   
 28  12  30  1   
 29  12  31  1   
 30  13  16  1   
 31  13  32  1   
 32  13  33  1   
 33  14  34  1   
 34  14  35  1   
 35  15  17  1   
 36  15  36  1   
 37  15  37  1   
 38  16  17  1   
 39  16  38  1   
 40  16  39  1   
 41  17  40  1   
 42  17  41  1   
@<TRIPOS>SUBSTRUCTURE
  1 ****   5 GROUP 4 **** **** 0

# MOE 2024.06 (io_trps.svl 2023.06)
