@<TRIPOS>MOLECULE
NONAME
47 49 1 0 0 
SMALL
USER_CHARGES


@<TRIPOS>ATOM
  1 S       -0.1520     0.1830    -0.6430 S.o2  1 <1>   1.4470 
  2 O        0.2040    -1.0180     0.0800 O.2   1 <1>  -0.6500 
  3 O        0.0550     0.2360    -2.0750 O.2   1 <1>  -0.6500 
  4 N        0.7220     1.4670     0.0340 N.am  1 <1>  -0.8490 
  5 C       -1.8780     0.6040    -0.2570 C.ar  1 <1>  -0.0090 
  6 C        2.1440     1.1280     0.1720 C.3   1 <1>   0.1960 
  7 C        0.5540     2.7090    -0.7290 C.3   1 <1>   0.1960 
  8 C       -2.8770     0.5220    -1.2200 C.ar  1 <1>  -0.1500 
  9 C       -2.2490     1.0140     1.0170 C.ar  1 <1>  -0.1500 
 10 C        2.9000     2.2360     0.9250 C.3   1 <1>  -0.0800 
 11 C        1.2290     3.8720     0.0030 C.3   1 <1>  -0.1600 
 12 C       -4.1910     0.8390    -0.9230 C.ar  1 <1>  -0.1500 
 13 C       -3.5620     1.3320     1.3160 C.ar  1 <1>  -0.1500 
 14 C        2.7190     3.5940     0.2300 C.3   1 <1>  -0.1600 
 15 C        4.3910     1.8950     1.0490 C.3   1 <1>  -0.2400 
 16 C       -4.5690     1.2460     0.3560 C.ar  1 <1>   0.0860 
 17 C       -5.9450     1.5700     0.6870 C.2   1 <1>   0.5440 
 18 O       -6.1870     2.4440     1.4950 O.2   1 <1>  -0.5700 
 19 N       -6.9660     0.8580     0.1010 N.am  1 <1>  -0.5470 
 20 C       -8.3580     1.0320     0.1400 C.ar  1 <1>   0.1170 
 21 C       -9.1760    -0.0620    -0.1250 C.ar  1 <1>  -0.1500 
 22 C       -8.9630     2.2570     0.4090 C.ar  1 <1>  -0.1500 
 23 C      -10.5540     0.0600    -0.1180 C.ar  1 <1>  -0.1500 
 24 C      -10.3400     2.3830     0.4180 C.ar  1 <1>  -0.1500 
 25 C      -11.1390     1.2840     0.1540 C.ar  1 <1>  -0.1500 
 26 H        2.5790     0.9790    -0.8030 H     1 <1>   0.0800 
 27 H        2.2450     0.2100     0.7270 H     1 <1>   0.0800 
 28 H       -0.4940     2.9300    -0.8420 H     1 <1>   0.0800 
 29 H        0.9830     2.5990    -1.7120 H     1 <1>   0.0800 
 30 H       -2.6170     0.2090    -2.2190 H     1 <1>   0.1500 
 31 H       -1.4950     1.0870     1.7840 H     1 <1>   0.1500 
 32 H        2.4870     2.2980     1.9180 H     1 <1>   0.0800 
 33 H        0.7360     4.0210     0.9480 H     1 <1>   0.0800 
 34 H        1.1130     4.7720    -0.5740 H     1 <1>   0.0800 
 35 H       -4.9300     0.7780    -1.7030 H     1 <1>   0.1500 
 36 H       -3.8190     1.6530     2.3120 H     1 <1>   0.1500 
 37 H        3.2260     3.5840    -0.7210 H     1 <1>   0.0800 
 38 H        3.1490     4.3770     0.8300 H     1 <1>   0.0800 
 39 H        4.8460     1.8130     0.0770 H     1 <1>   0.0800 
 40 H        4.5170     0.9610     1.5680 H     1 <1>   0.0800 
 41 H        4.9030     2.6610     1.6050 H     1 <1>   0.0800 
 42 H       -6.6640     0.0140    -0.3800 H     1 <1>   0.3700 
 43 H       -8.7360    -1.0190    -0.3340 H     1 <1>   0.1500 
 44 H       -8.3580     3.1210     0.6120 H     1 <1>   0.1500 
 45 H      -11.1730    -0.7960    -0.3230 H     1 <1>   0.1500 
 46 H      -10.7890     3.3380     0.6310 H     1 <1>   0.1500 
 47 H      -12.2110     1.3830     0.1610 H     1 <1>   0.1500 
@<TRIPOS>BOND
  1   1   2  2   
  2   1   3  2   
  3   1   4  am  
  4   1   5  1   
  5   4   6  1   
  6   4   7  1   
  7   5   8  ar  
  8   5   9  ar  
  9   6  10  1   
 10   6  26  1   
 11   6  27  1   
 12   7  11  1   
 13   7  28  1   
 14   7  29  1   
 15   8  12  ar  
 16   8  30  1   
 17   9  13  ar  
 18   9  31  1   
 19  10  14  1   
 20  10  15  1   
 21  10  32  1   
 22  11  14  1   
 23  11  33  1   
 24  11  34  1   
 25  12  16  ar  
 26  12  35  1   
 27  13  16  ar  
 28  13  36  1   
 29  14  37  1   
 30  14  38  1   
 31  15  39  1   
 32  15  40  1   
 33  15  41  1   
 34  16  17  1   
 35  17  18  2   
 36  17  19  am  
 37  19  20  1   
 38  19  42  1   
 39  20  21  ar  
 40  20  22  ar  
 41  21  23  ar  
 42  21  43  1   
 43  22  24  ar  
 44  22  44  1   
 45  23  25  ar  
 46  23  45  1   
 47  24  25  ar  
 48  24  46  1   
 49  25  47  1   
@<TRIPOS>SUBSTRUCTURE
  1 ****  13 GROUP 4 **** **** 0

# MOE 2024.06 (io_trps.svl 2023.06)
