@<TRIPOS>MOLECULE
NONAME
47 48 1 0 0 
SMALL
USER_CHARGES


@<TRIPOS>ATOM
  1 O       -0.5380     0.0050    -0.5640 O.3   1 <1>  -0.3630 
  2 C       -1.6290    -0.6690    -0.1130 C.ar  1 <1>   0.0830 
  3 C        0.2690    -0.4890    -1.6090 C.3   1 <1>   0.0400 
  4 C       -2.3130    -0.1340     0.9710 C.ar  1 <1>  -0.1440 
  5 C       -2.0760    -1.8560    -0.6870 C.ar  1 <1>  -0.1500 
  6 C       -3.4340    -0.7820     1.4570 C.ar  1 <1>  -0.1500 
  7 C       -1.8340     1.1560     1.6240 C.3   1 <1>  -0.0960 
  8 C       -3.1970    -2.5080    -0.2000 C.ar  1 <1>  -0.1430 
  9 C       -3.8900    -1.9570     0.8750 C.ar  1 <1>  -0.1430 
 10 C       -3.6180    -3.8120    -0.8700 C.3   1 <1>  -0.0970 
 11 C       -5.1520    -2.5890     1.4300 C.3   1 <1>   0.4860 
 12 N       -6.2590    -2.3130     0.4800 N.4   1 <1>  -0.9590 
 13 C       -6.5620    -0.8600     0.3540 C.3   1 <1>   0.3430 
 14 C       -7.4840    -3.1260     0.7650 C.3   1 <1>   0.3430 
 15 C       -7.3960    -0.6240    -0.9190 C.3   1 <1>  -0.0800 
 16 C       -8.7260    -2.6210    -0.0050 C.3   1 <1>  -0.0800 
 17 C       -8.3360    -1.8060    -1.2530 C.3   1 <1>  -0.1600 
 18 C       -6.4810    -0.3210    -2.1150 C.3   1 <1>  -0.2400 
 19 C       -9.6700    -1.8210     0.9100 C.3   1 <1>  -0.2400 
 20 H        1.0780     0.2030    -1.7600 H     1 <1>   0.0800 
 21 H       -0.3220    -0.5590    -2.5040 H     1 <1>   0.0800 
 22 H        0.6600    -1.4500    -1.3250 H     1 <1>   0.0800 
 23 H       -1.5500    -2.2810    -1.5200 H     1 <1>   0.1500 
 24 H       -3.9520    -0.3570     2.3000 H     1 <1>   0.1500 
 25 H       -1.8450     1.9550     0.9040 H     1 <1>   0.0800 
 26 H       -0.8270     1.0300     1.9790 H     1 <1>   0.0800 
 27 H       -2.4570     1.4330     2.4550 H     1 <1>   0.0800 
 28 H       -2.7990    -4.2250    -1.4330 H     1 <1>   0.0800 
 29 H       -4.4320    -3.6400    -1.5490 H     1 <1>   0.0800 
 30 H       -3.9050    -4.5470    -0.1400 H     1 <1>   0.0800 
 31 H       -5.3790    -2.1780     2.3990 H     1 <1>   0.0800 
 32 H       -5.0030    -3.6510     1.5340 H     1 <1>   0.0800 
 33 H       -5.9040    -2.5780    -0.4460 H     1 <1>   0.4500 
 34 H       -5.6540    -0.2820     0.2920 H     1 <1>   0.0800 
 35 H       -7.1130    -0.5310     1.2190 H     1 <1>   0.0800 
 36 H       -7.7010    -3.1050     1.8210 H     1 <1>   0.0800 
 37 H       -7.2960    -4.1510     0.4900 H     1 <1>   0.0800 
 38 H       -7.9970     0.2520    -0.7410 H     1 <1>   0.0800 
 39 H       -9.2770    -3.4880    -0.3300 H     1 <1>   0.0800 
 40 H       -7.8460    -2.4740    -1.9430 H     1 <1>   0.0800 
 41 H       -9.2170    -1.4390    -1.7520 H     1 <1>   0.0800 
 42 H       -5.8260    -1.1470    -2.3290 H     1 <1>   0.0800 
 43 H       -5.8760     0.5470    -1.9160 H     1 <1>   0.0800 
 44 H       -7.0710    -0.1180    -2.9930 H     1 <1>   0.0800 
 45 H       -9.2050    -0.9360     1.3040 H     1 <1>   0.0800 
 46 H       -9.9950    -2.4290     1.7370 H     1 <1>   0.0800 
 47 H      -10.5470    -1.5210     0.3620 H     1 <1>   0.0800 
@<TRIPOS>BOND
  1   1   2  1   
  2   1   3  1   
  3   2   4  ar  
  4   2   5  ar  
  5   3  20  1   
  6   3  21  1   
  7   3  22  1   
  8   4   6  ar  
  9   4   7  1   
 10   5   8  ar  
 11   5  23  1   
 12   6   9  ar  
 13   6  24  1   
 14   7  25  1   
 15   7  26  1   
 16   7  27  1   
 17   8   9  ar  
 18   8  10  1   
 19   9  11  1   
 20  10  28  1   
 21  10  29  1   
 22  10  30  1   
 23  11  12  1   
 24  11  31  1   
 25  11  32  1   
 26  12  13  1   
 27  12  14  1   
 28  12  33  1   
 29  13  15  1   
 30  13  34  1   
 31  13  35  1   
 32  14  16  1   
 33  14  36  1   
 34  14  37  1   
 35  15  17  1   
 36  15  18  1   
 37  15  38  1   
 38  16  17  1   
 39  16  19  1   
 40  16  39  1   
 41  17  40  1   
 42  17  41  1   
 43  18  42  1   
 44  18  43  1   
 45  18  44  1   
 46  19  45  1   
 47  19  46  1   
 48  19  47  1   
@<TRIPOS>SUBSTRUCTURE
  1 ****   9 GROUP 4 **** **** 0

# MOE 2024.06 (io_trps.svl 2023.06)
