@<TRIPOS>MOLECULE
NONAME
29 29 1 0 0 
SMALL
USER_CHARGES


@<TRIPOS>ATOM
  1 CL      -0.5630     0.3630    -0.2050 Cl    1 <1>  -0.1770 
  2 C        0.4630     1.7650    -0.0010 C.ar  1 <1>   0.1770 
  3 C       -0.0990     3.0190     0.1700 C.ar  1 <1>   0.0830 
  4 C        1.8340     1.5900    -0.0200 C.ar  1 <1>  -0.1500 
  5 O       -1.4490     3.1670     0.1770 O.3   1 <1>  -0.2330 
  6 C        0.7410     4.1160     0.3370 C.ar  1 <1>   0.0830 
  7 C        2.6820     2.6820     0.1410 C.ar  1 <1>   0.0730 
  8 C       -2.1010     3.7500    -0.8230 C.2   1 <1>   0.6590 
  9 O        0.2090     5.3450     0.5340 O.3   1 <1>  -0.3630 
 10 C        2.1180     3.9420     0.3230 C.ar  1 <1>  -0.1500 
 11 C        4.1070     2.5130     0.1230 C.1   1 <1>   0.4840 
 12 O       -1.5630     4.0990    -1.8430 O.2   1 <1>  -0.5700 
 13 C       -3.5860     3.9620    -0.6020 C.3   1 <1>  -0.0990 
 14 C        0.5090     6.3380    -0.4230 C.3   1 <1>   0.0400 
 15 N        5.2390     2.3790     0.1100 N.1   1 <1>  -0.5570 
 16 C       -3.8630     5.0680     0.4300 C.3   1 <1>  -0.1600 
 17 C       -5.3660     5.2760     0.6350 C.3   1 <1>  -0.2400 
 18 H        2.2370     0.6020    -0.1600 H     1 <1>   0.1500 
 19 H        2.7590     4.7940     0.4650 H     1 <1>   0.1500 
 20 H       -4.0180     3.0350    -0.2720 H     1 <1>   0.0800 
 21 H       -4.0360     4.2250    -1.5420 H     1 <1>   0.0800 
 22 H       -0.1080     7.1950    -0.2210 H     1 <1>   0.0800 
 23 H        0.2900     5.9550    -1.4050 H     1 <1>   0.0800 
 24 H        1.5460     6.6080    -0.3440 H     1 <1>   0.0800 
 25 H       -3.4180     5.9900     0.0930 H     1 <1>   0.0800 
 26 H       -3.4080     4.8080     1.3720 H     1 <1>   0.0800 
 27 H       -5.8380     5.5630    -0.2890 H     1 <1>   0.0800 
 28 H       -5.5340     6.0540     1.3590 H     1 <1>   0.0800 
 29 H       -5.8270     4.3720     0.9940 H     1 <1>   0.0800 
@<TRIPOS>BOND
  1   1   2  1   
  2   2   3  ar  
  3   2   4  ar  
  4   3   5  1   
  5   3   6  ar  
  6   4   7  ar  
  7   4  18  1   
  8   5   8  1   
  9   6   9  1   
 10   6  10  ar  
 11   7  10  ar  
 12   7  11  1   
 13   8  12  2   
 14   8  13  1   
 15   9  14  1   
 16  10  19  1   
 17  11  15  3   
 18  13  16  1   
 19  13  20  1   
 20  13  21  1   
 21  14  22  1   
 22  14  23  1   
 23  14  24  1   
 24  16  17  1   
 25  16  25  1   
 26  16  26  1   
 27  17  27  1   
 28  17  28  1   
 29  17  29  1   
@<TRIPOS>SUBSTRUCTURE
  1 ****   3 GROUP 4 **** **** 0

# MOE 2024.06 (io_trps.svl 2023.06)
