@<TRIPOS>MOLECULE
NONAME
35 35 1 0 0 
SMALL
USER_CHARGES


@<TRIPOS>ATOM
  1 O        0.1250    -0.2700     0.0340 O.3   1 <1>  -0.3630 
  2 C       -1.1270    -0.7940     0.0220 C.ar  1 <1>   0.0820 
  3 C        1.2630    -1.0920     0.0430 C.3   1 <1>   0.1200 
  4 C       -1.3980    -2.1600     0.0190 C.ar  1 <1>  -0.1500 
  5 C       -2.1770     0.1090     0.0110 C.ar  1 <1>  -0.1500 
  6 C        2.4820    -0.1680     0.0540 C.3   1 <1>  -0.1600 
  7 C       -2.7080    -2.6130     0.0060 C.ar  1 <1>  -0.1440 
  8 C       -3.4850    -0.3390    -0.0040 C.ar  1 <1>  -0.1500 
  9 C        3.7780    -0.9690     0.0640 C.3   1 <1>   0.3430 
 10 C       -3.7490    -1.6980    -0.0060 C.ar  1 <1>  -0.1500 
 11 C       -3.0080    -4.1020     0.0010 C.3   1 <1>  -0.0960 
 12 N        4.9230    -0.0250     0.0730 N.4   1 <1>  -0.9060 
 13 C        6.2370    -0.7370     0.0840 C.3   1 <1>   0.3430 
 14 C        7.4200     0.2410     0.0940 C.3   1 <1>   0.1200 
 15 O        8.5780    -0.5130     0.1030 O.3   1 <1>  -0.6800 
 16 H        1.2410    -1.7050    -0.8430 H     1 <1>   0.0800 
 17 H        1.2260    -1.7060     0.9270 H     1 <1>   0.0800 
 18 H       -0.6080    -2.8840     0.0250 H     1 <1>   0.1500 
 19 H       -1.9660     1.1630     0.0130 H     1 <1>   0.1500 
 20 H        2.4270     0.4500     0.9330 H     1 <1>   0.0800 
 21 H        2.4420     0.4520    -0.8250 H     1 <1>   0.0800 
 22 H       -4.2970     0.3670    -0.0130 H     1 <1>   0.1500 
 23 H        3.8240    -1.5970    -0.8120 H     1 <1>   0.0800 
 24 H        3.8100    -1.5980     0.9400 H     1 <1>   0.0800 
 25 H       -4.7700    -2.0390    -0.0190 H     1 <1>   0.1500 
 26 H       -2.2220    -4.6480     0.4910 H     1 <1>   0.0800 
 27 H       -3.0970    -4.4510    -1.0120 H     1 <1>   0.0800 
 28 H       -3.9300    -4.3000     0.5180 H     1 <1>   0.0800 
 29 H        4.8490     0.5830     0.9000 H     1 <1>   0.4500 
 30 H        4.8630     0.5830    -0.7540 H     1 <1>   0.4500 
 31 H        6.3190    -1.3630    -0.7900 H     1 <1>   0.0800 
 32 H        6.3040    -1.3630     0.9590 H     1 <1>   0.0800 
 33 H        7.4150     0.8530     0.9800 H     1 <1>   0.0800 
 34 H        7.4300     0.8540    -0.7910 H     1 <1>   0.0800 
 35 H        9.3840     0.0490     0.1100 H     1 <1>   0.4000 
@<TRIPOS>BOND
  1   1   2  1   
  2   1   3  1   
  3   2   4  ar  
  4   2   5  ar  
  5   3   6  1   
  6   3  16  1   
  7   3  17  1   
  8   4   7  ar  
  9   4  18  1   
 10   5   8  ar  
 11   5  19  1   
 12   6   9  1   
 13   6  20  1   
 14   6  21  1   
 15   7  10  ar  
 16   7  11  1   
 17   8  10  ar  
 18   8  22  1   
 19   9  12  1   
 20   9  23  1   
 21   9  24  1   
 22  10  25  1   
 23  11  26  1   
 24  11  27  1   
 25  11  28  1   
 26  12  13  1   
 27  12  29  1   
 28  12  30  1   
 29  13  14  1   
 30  13  31  1   
 31  13  32  1   
 32  14  15  1   
 33  14  33  1   
 34  14  34  1   
 35  15  35  1   
@<TRIPOS>SUBSTRUCTURE
  1 ****   3 GROUP 4 **** **** 0

# MOE 2024.06 (io_trps.svl 2023.06)
