@<TRIPOS>MOLECULE
NONAME
52 55 1 0 0 
SMALL
USER_CHARGES


@<TRIPOS>ATOM
  1 O        0.6020     0.6820    -2.3760 O.2   1 <1>  -0.5700 
  2 C        0.9150     1.5600    -1.5780 C.2   1 <1>   0.7160 
  3 N        2.1820     1.5900    -1.0070 N.am  1 <1>  -0.2290 
  4 C        0.0040     2.5710    -1.1960 C.2   1 <1>  -0.0860 
  5 C        2.4870     2.6010    -0.0770 C.2   1 <1>   0.4960 
  6 C        3.1480     0.6380    -1.3350 C.2   1 <1>  -0.0410 
  7 C        0.4010     3.5110    -0.2830 C.2   1 <1>  -0.0260 
  8 C       -1.3130     2.8880    -1.5430 C.2   1 <1>  -0.1500 
  9 N        1.6310     3.5320     0.2820 N.2   1 <1>  -0.5760 
 10 C        3.8060     2.5930     0.4950 C.2   1 <1>  -0.1240 
 11 C        4.3840     0.6500    -0.7840 C.2   1 <1>  -0.1500 
 12 N       -0.6190     4.3830    -0.0610 N.pl3 1 <1>   0.0480 
 13 C       -1.6990     3.9980    -0.8360 C.2   1 <1>  -0.2370 
 14 C        4.7240     1.6500     0.1530 C.2   1 <1>  -0.1500 
 15 C        4.1800     3.6710     1.5090 C.3   1 <1>  -0.1020 
 16 C       -0.5530     5.5460     0.8500 C.3   1 <1>   0.0160 
 17 C       -2.9620     4.6890    -0.8660 C.2   1 <1>   0.7150 
 18 O       -3.0050     5.8990    -0.7220 O.2   1 <1>  -0.5700 
 19 N       -4.1470     4.0110    -1.0550 N.am  1 <1>  -0.6600 
 20 C       -4.3650     2.6010    -0.6050 C.3   1 <1>   0.1400 
 21 C       -5.3980     4.7180    -1.4740 C.3   1 <1>   0.1400 
 22 C       -5.4500     2.5260     0.4820 C.3   1 <1>   0.1400 
 23 C       -6.4630     4.6530    -0.3700 C.3   1 <1>   0.1400 
 24 N       -6.6900     3.2400     0.0540 N.am  1 <1>  -0.6600 
 25 C       -7.9160     2.6410    -0.0460 C.2   1 <1>   0.7800 
 26 O       -8.9000     3.2260    -0.4570 O.2   1 <1>  -0.5700 
 27 O       -8.0130     1.3620     0.3210 O.3   1 <1>  -0.4300 
 28 C       -9.2440     0.6800     0.2450 C.3   1 <1>   0.1200 
 29 C       -9.0210    -0.7510     0.7230 C.3   1 <1>  -0.2400 
 30 H        2.8670    -0.1160    -2.0540 H     1 <1>   0.1500 
 31 H       -1.8960     2.3330    -2.2590 H     1 <1>   0.1500 
 32 H        5.1260    -0.0870    -1.0420 H     1 <1>   0.1500 
 33 H        5.7150     1.6320     0.5740 H     1 <1>   0.1500 
 34 H        3.5210     3.6200     2.3580 H     1 <1>   0.0800 
 35 H        4.0850     4.6440     1.0600 H     1 <1>   0.0800 
 36 H        5.1910     3.5510     1.8540 H     1 <1>   0.0800 
 37 H        0.3460     5.5020     1.4360 H     1 <1>   0.0800 
 38 H       -1.4060     5.5380     1.5020 H     1 <1>   0.0800 
 39 H       -0.5560     6.4490     0.2670 H     1 <1>   0.0800 
 40 H       -3.4580     2.1830    -0.2080 H     1 <1>   0.0800 
 41 H       -4.6650     2.0050    -1.4490 H     1 <1>   0.0800 
 42 H       -5.7840     4.2510    -2.3630 H     1 <1>   0.0800 
 43 H       -5.1930     5.7470    -1.7110 H     1 <1>   0.0800 
 44 H       -5.0790     2.9840     1.3830 H     1 <1>   0.0800 
 45 H       -5.6580     1.4940     0.7020 H     1 <1>   0.0800 
 46 H       -7.3770     5.0920    -0.7320 H     1 <1>   0.0800 
 47 H       -6.1320     5.2290     0.4760 H     1 <1>   0.0800 
 48 H       -9.5810     0.6990    -0.7780 H     1 <1>   0.0800 
 49 H       -9.9560     1.1920     0.8700 H     1 <1>   0.0800 
 50 H       -8.2990    -1.2430     0.0970 H     1 <1>   0.0800 
 51 H       -9.9460    -1.2970     0.6730 H     1 <1>   0.0800 
 52 H       -8.6780    -0.7520     1.7420 H     1 <1>   0.0800 
@<TRIPOS>BOND
  1   1   2  2   
  2   2   3  am  
  3   2   4  1   
  4   3   5  1   
  5   3   6  1   
  6   4   7  2   
  7   4   8  1   
  8   5   9  2   
  9   5  10  1   
 10   6  11  2   
 11   6  30  1   
 12   7   9  1   
 13   7  12  1   
 14   8  13  2   
 15   8  31  1   
 16  10  14  2   
 17  10  15  1   
 18  11  14  1   
 19  11  32  1   
 20  12  13  1   
 21  12  16  1   
 22  13  17  1   
 23  14  33  1   
 24  15  34  1   
 25  15  35  1   
 26  15  36  1   
 27  16  37  1   
 28  16  38  1   
 29  16  39  1   
 30  17  18  2   
 31  17  19  am  
 32  19  20  1   
 33  19  21  1   
 34  20  22  1   
 35  20  40  1   
 36  20  41  1   
 37  21  23  1   
 38  21  42  1   
 39  21  43  1   
 40  22  24  1   
 41  22  44  1   
 42  22  45  1   
 43  23  24  1   
 44  23  46  1   
 45  23  47  1   
 46  24  25  am  
 47  25  26  2   
 48  25  27  1   
 49  27  28  1   
 50  28  29  1   
 51  28  48  1   
 52  28  49  1   
 53  29  50  1   
 54  29  51  1   
 55  29  52  1   
@<TRIPOS>SUBSTRUCTURE
  1 ****  13 GROUP 4 **** **** 0

# MOE 2024.06 (io_trps.svl 2023.06)
