@<TRIPOS>MOLECULE
NONAME
46 48 1 0 0 
SMALL
USER_CHARGES


@<TRIPOS>ATOM
  1 O       -0.0410     0.5590     0.0390 O.2   1 <1>  -0.5700 
  2 C       -0.1810     1.7390     0.3030 C.2   1 <1>   0.5440 
  3 N        0.9350     2.5010     0.5930 N.am  1 <1>  -0.6600 
  4 C       -1.5170     2.3020     0.2930 C.ar  1 <1>   0.0860 
  5 C        2.2720     1.8790     0.8070 C.3   1 <1>   0.1400 
  6 C        0.9550     3.9900     0.5480 C.3   1 <1>   0.1400 
  7 C       -2.0290     2.9960     1.3900 C.ar  1 <1>  -0.1500 
  8 C       -2.3430     2.1600    -0.8220 C.ar  1 <1>  -0.1500 
  9 C        3.2380     2.3360    -0.2900 C.3   1 <1>  -0.1600 
 10 C        1.9190     4.4630    -0.5460 C.3   1 <1>  -0.1600 
 11 C       -3.2990     3.5390     1.3660 C.ar  1 <1>  -0.1500 
 12 C       -3.6160     2.7000    -0.8540 C.ar  1 <1>  -0.1500 
 13 C        3.3240     3.8680    -0.3650 C.3   1 <1>  -0.0800 
 14 C       -4.1030     3.4000     0.2460 C.ar  1 <1>   0.0820 
 15 C        4.2460     4.3020    -1.5090 C.3   1 <1>  -0.2400 
 16 O       -5.3290     3.9640     0.3020 O.3   1 <1>  -0.3630 
 17 C       -6.2510     3.8460    -0.7600 C.3   1 <1>   0.2640 
 18 C       -7.5210     4.6010    -0.4020 C.ar  1 <1>  -0.1430 
 19 C       -7.4720     5.9650    -0.1570 C.ar  1 <1>  -0.1500 
 20 C       -8.7380     3.9400    -0.3240 C.ar  1 <1>  -0.1500 
 21 C       -8.6260     6.6620     0.1580 C.ar  1 <1>  -0.1500 
 22 C       -9.8930     4.6360    -0.0090 C.ar  1 <1>  -0.1500 
 23 C       -9.8370     5.9980     0.2310 C.ar  1 <1>  -0.1500 
 24 H        2.2000     0.8050     0.8010 H     1 <1>   0.0800 
 25 H        2.6450     2.1790     1.7710 H     1 <1>   0.0800 
 26 H        1.2770     4.3640     1.5050 H     1 <1>   0.0800 
 27 H       -0.0230     4.3860     0.3440 H     1 <1>   0.0800 
 28 H       -1.4180     3.1020     2.2700 H     1 <1>   0.1500 
 29 H       -1.9690     1.6130    -1.6690 H     1 <1>   0.1500 
 30 H        2.8980     1.9370    -1.2300 H     1 <1>   0.0800 
 31 H        4.2120     1.9250    -0.0910 H     1 <1>   0.0800 
 32 H        1.9740     5.5360    -0.5240 H     1 <1>   0.0800 
 33 H        1.5190     4.1730    -1.5020 H     1 <1>   0.0800 
 34 H       -3.6820     4.0730     2.2180 H     1 <1>   0.1500 
 35 H       -4.2090     2.5620    -1.7390 H     1 <1>   0.1500 
 36 H        3.7350     4.2340     0.5620 H     1 <1>   0.0800 
 37 H        3.8680     3.9520    -2.4540 H     1 <1>   0.0800 
 38 H        5.2330     3.9000    -1.3650 H     1 <1>   0.0800 
 39 H        4.3190     5.3750    -1.5440 H     1 <1>   0.0800 
 40 H       -6.4540     2.8010    -0.9140 H     1 <1>   0.0800 
 41 H       -5.8070     4.2700    -1.6430 H     1 <1>   0.0800 
 42 H       -6.5320     6.4850    -0.2060 H     1 <1>   0.1500 
 43 H       -8.7960     2.8810    -0.5060 H     1 <1>   0.1500 
 44 H       -8.5790     7.7200     0.3480 H     1 <1>   0.1500 
 45 H      -10.8340     4.1180     0.0510 H     1 <1>   0.1500 
 46 H      -10.7340     6.5390     0.4760 H     1 <1>   0.1500 
@<TRIPOS>BOND
  1   1   2  2   
  2   2   3  am  
  3   2   4  1   
  4   3   5  1   
  5   3   6  1   
  6   4   7  ar  
  7   4   8  ar  
  8   5   9  1   
  9   5  24  1   
 10   5  25  1   
 11   6  10  1   
 12   6  26  1   
 13   6  27  1   
 14   7  11  ar  
 15   7  28  1   
 16   8  12  ar  
 17   8  29  1   
 18   9  13  1   
 19   9  30  1   
 20   9  31  1   
 21  10  13  1   
 22  10  32  1   
 23  10  33  1   
 24  11  14  ar  
 25  11  34  1   
 26  12  14  ar  
 27  12  35  1   
 28  13  15  1   
 29  13  36  1   
 30  14  16  1   
 31  15  37  1   
 32  15  38  1   
 33  15  39  1   
 34  16  17  1   
 35  17  18  1   
 36  17  40  1   
 37  17  41  1   
 38  18  19  ar  
 39  18  20  ar  
 40  19  21  ar  
 41  19  42  1   
 42  20  22  ar  
 43  20  43  1   
 44  21  23  ar  
 45  21  44  1   
 46  22  23  ar  
 47  22  45  1   
 48  23  46  1   
@<TRIPOS>SUBSTRUCTURE
  1 ****  14 GROUP 4 **** **** 0

# MOE 2024.06 (io_trps.svl 2023.06)
