@<TRIPOS>MOLECULE
NONAME
38 39 1 0 0 
SMALL
USER_CHARGES


@<TRIPOS>ATOM
  1 O        0.4560    -0.0610    -0.0790 O.2   1 <1>  -0.5700 
  2 C        0.8100    -1.0880     0.4690 C.2   1 <1>   0.6900 
  3 N        2.1250    -1.2640     0.8250 N.am  1 <1>  -0.6600 
  4 N       -0.0860    -2.0750     0.7680 N.am  1 <1>  -0.5470 
  5 C        2.7720    -2.5960     1.0140 C.3   1 <1>   0.1400 
  6 C        3.0790    -0.1200     0.8340 C.3   1 <1>   0.1400 
  7 C       -1.4350    -2.2490     0.4280 C.ar  1 <1>   0.1170 
  8 C        3.8190    -2.8300    -0.0870 C.3   1 <1>  -0.0190 
  9 C        4.1370    -0.3200    -0.2560 C.3   1 <1>  -0.1600 
 10 C       -2.0250    -1.6370    -0.6730 C.ar  1 <1>  -0.1500 
 11 C       -2.2200    -3.0860     1.2120 C.ar  1 <1>  -0.1500 
 12 C        4.5060    -4.1760     0.1010 C.2   1 <1>   0.5690 
 13 C        4.8440    -1.6780    -0.1210 C.3   1 <1>  -0.1600 
 14 C       -3.3570    -1.8520    -0.9770 C.ar  1 <1>  -0.1500 
 15 C       -3.5520    -3.3050     0.9090 C.ar  1 <1>  -0.1500 
 16 O        4.6210    -4.6580     1.1980 O.2   1 <1>  -0.5700 
 17 N        4.9910    -4.8280    -0.9710 N.am  1 <1>  -0.8000 
 18 C       -4.1290    -2.6890    -0.1890 C.ar  1 <1>  -0.1440 
 19 C       -5.5910    -2.9230    -0.5230 C.3   1 <1>  -0.0970 
 20 H        0.2760    -2.7270     1.4530 H     1 <1>   0.3700 
 21 H        2.0490    -3.3910     0.9790 H     1 <1>   0.0800 
 22 H        3.2470    -2.6190     1.9810 H     1 <1>   0.0800 
 23 H        3.5530    -0.0700     1.7990 H     1 <1>   0.0800 
 24 H        2.5600     0.8100     0.6730 H     1 <1>   0.0800 
 25 H        3.2970    -2.8580    -1.0260 H     1 <1>   0.0800 
 26 H        4.8600     0.4730    -0.1970 H     1 <1>   0.0800 
 27 H        3.6550    -0.2510    -1.2170 H     1 <1>   0.0800 
 28 H       -1.4430    -0.9870    -1.3000 H     1 <1>   0.1500 
 29 H       -1.7890    -3.5700     2.0680 H     1 <1>   0.1500 
 30 H        5.5230    -1.8150    -0.9440 H     1 <1>   0.0800 
 31 H        5.4200    -1.6900     0.7890 H     1 <1>   0.0800 
 32 H       -3.7890    -1.3620    -1.8320 H     1 <1>   0.1500 
 33 H       -4.1400    -3.9550     1.5330 H     1 <1>   0.1500 
 34 H        5.4590    -5.7260    -0.8370 H     1 <1>   0.3700 
 35 H        4.9390    -4.4790    -1.9270 H     1 <1>   0.3700 
 36 H       -5.7460    -2.8660    -1.5850 H     1 <1>   0.0800 
 37 H       -6.1960    -2.1750    -0.0420 H     1 <1>   0.0800 
 38 H       -5.9040    -3.8940    -0.1860 H     1 <1>   0.0800 
@<TRIPOS>BOND
  1   1   2  2   
  2   2   3  am  
  3   2   4  am  
  4   3   5  1   
  5   3   6  1   
  6   4   7  1   
  7   4  20  1   
  8   5   8  1   
  9   5  21  1   
 10   5  22  1   
 11   6   9  1   
 12   6  23  1   
 13   6  24  1   
 14   7  10  ar  
 15   7  11  ar  
 16   8  12  1   
 17   8  13  1   
 18   8  25  1   
 19   9  13  1   
 20   9  26  1   
 21   9  27  1   
 22  10  14  ar  
 23  10  28  1   
 24  11  15  ar  
 25  11  29  1   
 26  12  16  2   
 27  12  17  am  
 28  13  30  1   
 29  13  31  1   
 30  14  18  ar  
 31  14  32  1   
 32  15  18  ar  
 33  15  33  1   
 34  17  34  1   
 35  17  35  1   
 36  18  19  1   
 37  19  36  1   
 38  19  37  1   
 39  19  38  1   
@<TRIPOS>SUBSTRUCTURE
  1 ****   4 GROUP 4 **** **** 0

# MOE 2024.06 (io_trps.svl 2023.06)
