@<TRIPOS>MOLECULE
NONAME
38 39 1 0 0 
SMALL
USER_CHARGES


@<TRIPOS>ATOM
  1 CL       0.3080     0.7490    -1.1930 Cl    1 <1>  -0.1770 
  2 C        1.9980     0.8580    -0.7650 C.ar  1 <1>   0.1770 
  3 C        2.8570     1.5810    -1.5710 C.ar  1 <1>  -0.1500 
  4 C        2.4540     0.2200     0.3730 C.ar  1 <1>  -0.1500 
  5 C        4.1960     1.6650    -1.2280 C.ar  1 <1>  -0.1500 
  6 C        3.7940     0.3100     0.7080 C.ar  1 <1>  -0.1500 
  7 C        4.6840     1.0300    -0.0880 C.ar  1 <1>   0.1170 
  8 N        6.0480     1.1570     0.2150 N.am  1 <1>  -0.5470 
  9 C        6.8810     0.3960     0.9930 C.2   1 <1>   0.5690 
 10 O        6.5260    -0.6050     1.5640 O.2   1 <1>  -0.5700 
 11 C        8.3300     0.8290     1.1520 C.3   1 <1>   0.1310 
 12 S        8.8750     1.9290    -0.2480 S.3   1 <1>  -0.2860 
 13 C       10.5450     2.3760     0.2400 C.2   1 <1>   0.2430 
 14 N       11.0830     1.9930     1.3410 N.2   1 <1>  -0.3380 
 15 N       11.3410     3.1410    -0.5070 N.pl3 1 <1>   0.0480 
 16 N       12.3090     2.5240     1.3470 N.2   1 <1>  -0.3380 
 17 C       12.4480     3.2000     0.2510 C.2   1 <1>   0.0060 
 18 C       11.0610     3.7500    -1.8260 C.3   1 <1>   0.0960 
 19 C       13.7000     3.9720    -0.1540 C.3   1 <1>   0.0200 
 20 C       10.4130     5.1280    -1.6600 C.3   1 <1>  -0.2400 
 21 C       14.7840     3.9820     0.9310 C.3   1 <1>  -0.2400 
 22 H        2.4780     2.0680    -2.4510 H     1 <1>   0.1500 
 23 H        1.7690    -0.3370     0.9850 H     1 <1>   0.1500 
 24 H        4.8650     2.2250    -1.8540 H     1 <1>   0.1500 
 25 H        4.1430    -0.1830     1.5970 H     1 <1>   0.1500 
 26 H        6.5270     1.9130    -0.2750 H     1 <1>   0.3700 
 27 H        8.9800    -0.0260     1.1560 H     1 <1>   0.0800 
 28 H        8.4560     1.3830     2.0640 H     1 <1>   0.0800 
 29 H       10.4050     3.1000    -2.3780 H     1 <1>   0.0800 
 30 H       11.9810     3.8380    -2.3740 H     1 <1>   0.0800 
 31 H       13.4270     4.9890    -0.3750 H     1 <1>   0.0800 
 32 H       14.1070     3.5310    -1.0460 H     1 <1>   0.0800 
 33 H        9.4790     5.0420    -1.1320 H     1 <1>   0.0800 
 34 H       10.2180     5.5580    -2.6260 H     1 <1>   0.0800 
 35 H       11.0660     5.7910    -1.1190 H     1 <1>   0.0800 
 36 H       14.4030     4.4280     1.8320 H     1 <1>   0.0800 
 37 H       15.6390     4.5440     0.6000 H     1 <1>   0.0800 
 38 H       15.0960     2.9760     1.1530 H     1 <1>   0.0800 
@<TRIPOS>BOND
  1   1   2  1   
  2   2   3  ar  
  3   2   4  ar  
  4   3   5  ar  
  5   3  22  1   
  6   4   6  ar  
  7   4  23  1   
  8   5   7  ar  
  9   5  24  1   
 10   6   7  ar  
 11   6  25  1   
 12   7   8  1   
 13   8   9  am  
 14   8  26  1   
 15   9  10  2   
 16   9  11  1   
 17  11  12  1   
 18  11  27  1   
 19  11  28  1   
 20  12  13  1   
 21  13  14  2   
 22  13  15  1   
 23  14  16  1   
 24  15  17  1   
 25  15  18  1   
 26  16  17  2   
 27  17  19  1   
 28  18  20  1   
 29  18  29  1   
 30  18  30  1   
 31  19  21  1   
 32  19  31  1   
 33  19  32  1   
 34  20  33  1   
 35  20  34  1   
 36  20  35  1   
 37  21  36  1   
 38  21  37  1   
 39  21  38  1   
@<TRIPOS>SUBSTRUCTURE
  1 ****  12 GROUP 4 **** **** 0

# MOE 2024.06 (io_trps.svl 2023.06)
