@<TRIPOS>MOLECULE
NONAME
45 47 1 0 0 
SMALL
USER_CHARGES


@<TRIPOS>ATOM
  1 O       -5.4260    -3.8580    -3.1970 O.2   1 <1>  -0.5700 
  2 C       -5.1960    -4.1390    -2.0450 C.2   1 <1>   0.5690 
  3 N       -6.1570    -4.1380    -1.0870 N.am  1 <1>  -0.7300 
  4 C       -3.7700    -4.5100    -1.6280 C.3   1 <1>   0.1710 
  5 C       -7.5700    -3.7240    -1.2540 C.3   1 <1>   0.1400 
  6 N       -3.7020    -5.3540    -0.4010 N.3   1 <1>  -0.9000 
  7 C       -7.9480    -2.5540    -0.3200 C.3   1 <1>   0.0000 
  8 C       -2.3370    -5.6990    -0.0180 C.3   1 <1>   0.2480 
  9 C       -7.7650    -2.9360     1.1700 C.3   1 <1>  -0.1600 
 10 C       -9.4340    -2.1910    -0.5500 C.3   1 <1>  -0.1600 
 11 C       -7.0900    -1.3010    -0.6200 C.3   1 <1>  -0.1600 
 12 C       -1.6820    -4.5090     0.6540 C.2   1 <1>  -0.2880 
 13 C       -8.1820    -1.7680     2.0850 C.3   1 <1>  -0.0800 
 14 C       -9.8610    -1.0220     0.3570 C.3   1 <1>  -0.0800 
 15 C       -7.5040    -0.1280     0.2890 C.3   1 <1>  -0.0800 
 16 C       -1.2720    -4.4740     1.9260 C.2   1 <1>  -0.3000 
 17 C       -9.6610    -1.4260     1.8290 C.3   1 <1>  -0.1600 
 18 C       -7.3130    -0.5380     1.7610 C.3   1 <1>  -0.1600 
 19 C       -8.9860     0.2060     0.0430 C.3   1 <1>  -0.1600 
 20 H       -5.8500    -4.3710    -0.1370 H     1 <1>   0.3700 
 21 H       -3.2370    -3.5910    -1.4680 H     1 <1>   0.0800 
 22 H       -3.3060    -5.0280    -2.4500 H     1 <1>   0.0800 
 23 H       -8.2030    -4.5700    -1.0480 H     1 <1>   0.0800 
 24 H       -7.7350    -3.4320    -2.2780 H     1 <1>   0.0800 
 25 H       -4.2020    -6.2280    -0.6060 H     1 <1>   0.3600 
 26 H       -1.7670    -6.0090    -0.8780 H     1 <1>   0.0800 
 27 H       -2.3700    -6.5200     0.6790 H     1 <1>   0.0800 
 28 H       -6.7360    -3.1790     1.3670 H     1 <1>   0.0800 
 29 H       -8.3570    -3.8030     1.4010 H     1 <1>   0.0800 
 30 H      -10.0560    -3.0450    -0.3450 H     1 <1>   0.0800 
 31 H       -9.5880    -1.9160    -1.5790 H     1 <1>   0.0800 
 32 H       -7.2060    -1.0180    -1.6520 H     1 <1>   0.0800 
 33 H       -6.0490    -1.5190    -0.4610 H     1 <1>   0.0800 
 34 H       -1.5700    -3.6660    -0.0030 H     1 <1>   0.1500 
 35 H       -8.0460    -2.0480     3.1150 H     1 <1>   0.0800 
 36 H      -10.8970    -0.7840     0.1820 H     1 <1>   0.0800 
 37 H       -6.8960     0.7330     0.0690 H     1 <1>   0.0800 
 38 H       -0.8080    -3.6170     2.3830 H     1 <1>   0.1500 
 39 H       -1.3670    -5.2940     2.6170 H     1 <1>   0.1500 
 40 H       -9.9640    -0.6180     2.4730 H     1 <1>   0.0800 
 41 H      -10.2780    -2.2760     2.0610 H     1 <1>   0.0800 
 42 H       -7.5870     0.2800     2.4050 H     1 <1>   0.0800 
 43 H       -6.2780    -0.7650     1.9440 H     1 <1>   0.0800 
 44 H       -9.2810     1.0320     0.6660 H     1 <1>   0.0800 
 45 H       -9.1280     0.5020    -0.9820 H     1 <1>   0.0800 
@<TRIPOS>BOND
  1   1   2  2   
  2   2   3  am  
  3   2   4  1   
  4   3   5  1   
  5   3  20  1   
  6   4   6  1   
  7   4  21  1   
  8   4  22  1   
  9   5   7  1   
 10   5  23  1   
 11   5  24  1   
 12   6   8  1   
 13   6  25  1   
 14   7   9  1   
 15   7  10  1   
 16   7  11  1   
 17   8  12  1   
 18   8  26  1   
 19   8  27  1   
 20   9  13  1   
 21   9  28  1   
 22   9  29  1   
 23  10  14  1   
 24  10  30  1   
 25  10  31  1   
 26  11  15  1   
 27  11  32  1   
 28  11  33  1   
 29  12  16  2   
 30  12  34  1   
 31  13  17  1   
 32  13  18  1   
 33  13  35  1   
 34  14  17  1   
 35  14  19  1   
 36  14  36  1   
 37  15  18  1   
 38  15  19  1   
 39  15  37  1   
 40  16  38  1   
 41  16  39  1   
 42  17  40  1   
 43  17  41  1   
 44  18  42  1   
 45  18  43  1   
 46  19  44  1   
 47  19  45  1   
@<TRIPOS>SUBSTRUCTURE
  1 ****   7 GROUP 4 **** **** 0

# MOE 2024.06 (io_trps.svl 2023.06)
