@<TRIPOS>MOLECULE
NONAME
42 43 1 0 0 
SMALL
USER_CHARGES


@<TRIPOS>ATOM
  1 O        0.5580     0.6760    -1.7000 O.2   1 <1>  -0.5700 
  2 C        0.3460     1.4160    -0.7700 C.2   1 <1>   0.5690 
  3 N        1.2990     1.6840     0.1610 N.am  1 <1>  -0.7300 
  4 C       -1.0250     2.0750    -0.6420 C.3   1 <1>  -0.0190 
  5 C        2.6620     1.1050     0.1670 C.3   1 <1>   0.1400 
  6 C       -0.9350     3.6110    -0.7550 C.3   1 <1>  -0.1600 
  7 C       -1.7400     1.6630     0.6610 C.3   1 <1>  -0.1600 
  8 C        3.6420     2.0730    -0.4950 C.3   1 <1>  -0.0170 
  9 C       -2.3170     4.2660    -0.6340 C.3   1 <1>  -0.1600 
 10 C       -3.1210     2.3240     0.7780 C.3   1 <1>  -0.1600 
 11 C        5.0550     1.5150    -0.4320 C.ar  1 <1>  -0.1440 
 12 C       -3.0180     3.8510     0.6660 C.3   1 <1>  -0.1600 
 13 C        5.4750     0.5850    -1.3700 C.ar  1 <1>  -0.1500 
 14 C        5.9320     1.9240     0.5610 C.ar  1 <1>  -0.1500 
 15 C        6.7580     0.0690    -1.3140 C.ar  1 <1>  -0.1500 
 16 C        7.2170     1.4100     0.6190 C.ar  1 <1>  -0.1500 
 17 C        7.6370     0.4760    -0.3240 C.ar  1 <1>   0.0820 
 18 O        8.8750    -0.0780    -0.3400 O.3   1 <1>  -0.3620 
 19 C        9.8470     0.2760     0.6180 C.3   1 <1>   0.0400 
 20 H        1.0800     2.3320     0.9190 H     1 <1>   0.3700 
 21 H       -1.6200     1.7210    -1.4670 H     1 <1>   0.0800 
 22 H        2.6620     0.1710    -0.3710 H     1 <1>   0.0800 
 23 H        2.9650     0.9080     1.1810 H     1 <1>   0.0800 
 24 H       -0.4970     3.8720    -1.7040 H     1 <1>   0.0800 
 25 H       -0.2960     3.9970     0.0190 H     1 <1>   0.0800 
 26 H       -1.1440     1.9470     1.5100 H     1 <1>   0.0800 
 27 H       -1.8540     0.5930     0.6810 H     1 <1>   0.0800 
 28 H        3.6050     3.0250     0.0020 H     1 <1>   0.0800 
 29 H        3.3590     2.2160    -1.5230 H     1 <1>   0.0800 
 30 H       -2.9250     3.9740    -1.4740 H     1 <1>   0.0800 
 31 H       -2.2130     5.3370    -0.6620 H     1 <1>   0.0800 
 32 H       -3.5690     2.0610     1.7210 H     1 <1>   0.0800 
 33 H       -3.7610     1.9530    -0.0040 H     1 <1>   0.0800 
 34 H       -4.0040     4.2810     0.6960 H     1 <1>   0.0800 
 35 H       -2.4660     4.2340     1.5070 H     1 <1>   0.0800 
 36 H        4.8040     0.2570    -2.1460 H     1 <1>   0.1500 
 37 H        5.6200     2.6460     1.2950 H     1 <1>   0.1500 
 38 H        7.0850    -0.6520    -2.0400 H     1 <1>   0.1500 
 39 H        7.8710     1.7470     1.3990 H     1 <1>   0.1500 
 40 H       10.7430    -0.2800     0.4060 H     1 <1>   0.0800 
 41 H        9.4820     0.0210     1.5970 H     1 <1>   0.0800 
 42 H       10.0450     1.3300     0.5420 H     1 <1>   0.0800 
@<TRIPOS>BOND
  1   1   2  2   
  2   2   3  am  
  3   2   4  1   
  4   3   5  1   
  5   3  20  1   
  6   4   6  1   
  7   4   7  1   
  8   4  21  1   
  9   5   8  1   
 10   5  22  1   
 11   5  23  1   
 12   6   9  1   
 13   6  24  1   
 14   6  25  1   
 15   7  10  1   
 16   7  26  1   
 17   7  27  1   
 18   8  11  1   
 19   8  28  1   
 20   8  29  1   
 21   9  12  1   
 22   9  30  1   
 23   9  31  1   
 24  10  12  1   
 25  10  32  1   
 26  10  33  1   
 27  11  13  ar  
 28  11  14  ar  
 29  12  34  1   
 30  12  35  1   
 31  13  15  ar  
 32  13  36  1   
 33  14  16  ar  
 34  14  37  1   
 35  15  17  ar  
 36  15  38  1   
 37  16  17  ar  
 38  16  39  1   
 39  17  18  1   
 40  18  19  1   
 41  19  40  1   
 42  19  41  1   
 43  19  42  1   
@<TRIPOS>SUBSTRUCTURE
  1 ****   5 GROUP 4 **** **** 0

# MOE 2024.06 (io_trps.svl 2023.06)
