@<TRIPOS>MOLECULE
NONAME
51 53 1 0 0 
SMALL
USER_CHARGES


@<TRIPOS>ATOM
  1 F       -3.5850     0.3160    -0.1720 F     1 <1>  -0.1900 
  2 C       -4.5060    -0.5320    -0.5580 C.ar  1 <1>   0.1900 
  3 C       -4.2420    -1.9020    -0.6800 C.ar  1 <1>   0.0820 
  4 C       -5.7500     0.0030    -0.8370 C.ar  1 <1>  -0.1500 
  5 O       -3.0610    -2.5380    -0.4320 O.3   1 <1>  -0.3630 
  6 C       -5.2820    -2.7200    -1.0980 C.ar  1 <1>  -0.1500 
  7 C       -6.7710    -0.8360    -1.2520 C.ar  1 <1>  -0.1500 
  8 C       -1.9000    -1.8570     0.0100 C.3   1 <1>   0.1200 
  9 C       -6.5340    -2.1950    -1.3810 C.ar  1 <1>  -0.1500 
 10 C       -0.7570    -2.8620     0.2010 C.3   1 <1>   0.2000 
 11 O       -1.2290    -3.9050     0.9930 O.3   1 <1>  -0.6800 
 12 C        0.4780    -2.2020     0.8550 C.3   1 <1>   0.1100 
 13 N        1.7430    -2.9720     0.7220 N.3   1 <1>  -0.8100 
 14 C        2.8900    -2.1840     1.2270 C.3   1 <1>   0.1100 
 15 C        1.6720    -4.2900     1.4140 C.3   1 <1>   0.1100 
 16 C        4.2420    -2.9080     1.0000 C.3   1 <1>   0.3430 
 17 C        3.0420    -4.9970     1.5350 C.3   1 <1>   0.3430 
 18 N        4.0420    -4.3460     0.6290 N.4   1 <1>  -0.9590 
 19 C        5.3000    -5.1140     0.4560 C.3   1 <1>   0.4860 
 20 C        4.9610    -6.4940    -0.0730 C.ar  1 <1>  -0.1430 
 21 C        4.5260    -6.6580    -1.3810 C.ar  1 <1>  -0.1500 
 22 C        5.0730    -7.6040     0.7530 C.ar  1 <1>  -0.1500 
 23 C        4.1960    -7.9160    -1.8520 C.ar  1 <1>  -0.1500 
 24 C        4.7420    -8.8610     0.2790 C.ar  1 <1>  -0.1500 
 25 C        4.3020    -9.0170    -1.0220 C.ar  1 <1>  -0.1500 
 26 H       -5.9160     1.0600    -0.7310 H     1 <1>   0.1500 
 27 H       -5.1080    -3.7760    -1.2030 H     1 <1>   0.1500 
 28 H       -7.7450    -0.4340    -1.4730 H     1 <1>   0.1500 
 29 H       -2.1240    -1.3690     0.9420 H     1 <1>   0.0800 
 30 H       -1.6300    -1.1260    -0.7320 H     1 <1>   0.0800 
 31 H       -7.3270    -2.8480    -1.7040 H     1 <1>   0.1500 
 32 H       -0.4840    -3.2640    -0.7590 H     1 <1>   0.0800 
 33 H       -2.1370    -4.1240     0.6920 H     1 <1>   0.4000 
 34 H        0.2640    -2.0080     1.8930 H     1 <1>   0.0800 
 35 H        0.6230    -1.2500     0.3720 H     1 <1>   0.0800 
 36 H        2.7620    -1.9980     2.2810 H     1 <1>   0.0800 
 37 H        2.9240    -1.2290     0.7320 H     1 <1>   0.0800 
 38 H        1.0190    -4.9400     0.8580 H     1 <1>   0.0800 
 39 H        1.2450    -4.1740     2.3960 H     1 <1>   0.0800 
 40 H        4.8350    -2.8310     1.8960 H     1 <1>   0.0800 
 41 H        4.7730    -2.4040     0.2100 H     1 <1>   0.0800 
 42 H        2.9170    -6.0370     1.2800 H     1 <1>   0.0800 
 43 H        3.3810    -4.9450     2.5560 H     1 <1>   0.0800 
 44 H        3.5460    -4.3190    -0.2730 H     1 <1>   0.4500 
 45 H        5.8170    -5.2000     1.3980 H     1 <1>   0.0800 
 46 H        5.9470    -4.6140    -0.2460 H     1 <1>   0.0800 
 47 H        4.4390    -5.8170    -2.0480 H     1 <1>   0.1500 
 48 H        5.4180    -7.5080     1.7690 H     1 <1>   0.1500 
 49 H        3.8580    -8.0430    -2.8670 H     1 <1>   0.1500 
 50 H        4.8290    -9.7230     0.9200 H     1 <1>   0.1500 
 51 H        4.0460    -9.9960    -1.3910 H     1 <1>   0.1500 
@<TRIPOS>BOND
  1   1   2  1   
  2   2   3  ar  
  3   2   4  ar  
  4   3   5  1   
  5   3   6  ar  
  6   4   7  ar  
  7   4  26  1   
  8   5   8  1   
  9   6   9  ar  
 10   6  27  1   
 11   7   9  ar  
 12   7  28  1   
 13   8  10  1   
 14   8  29  1   
 15   8  30  1   
 16   9  31  1   
 17  10  11  1   
 18  10  12  1   
 19  10  32  1   
 20  11  33  1   
 21  12  13  1   
 22  12  34  1   
 23  12  35  1   
 24  13  14  1   
 25  13  15  1   
 26  14  16  1   
 27  14  36  1   
 28  14  37  1   
 29  15  17  1   
 30  15  38  1   
 31  15  39  1   
 32  16  18  1   
 33  16  40  1   
 34  16  41  1   
 35  17  18  1   
 36  17  42  1   
 37  17  43  1   
 38  18  19  1   
 39  18  44  1   
 40  19  20  1   
 41  19  45  1   
 42  19  46  1   
 43  20  21  ar  
 44  20  22  ar  
 45  21  23  ar  
 46  21  47  1   
 47  22  24  ar  
 48  22  48  1   
 49  23  25  ar  
 50  23  49  1   
 51  24  25  ar  
 52  24  50  1   
 53  25  51  1   
@<TRIPOS>SUBSTRUCTURE
  1 ****  10 GROUP 4 **** **** 0

# MOE 2024.06 (io_trps.svl 2023.06)
