@<TRIPOS>MOLECULE
NONAME
47 48 1 0 0 
SMALL
USER_CHARGES


@<TRIPOS>ATOM
  1 O       -0.2700    -0.4500     0.0400 O.3   1 <1>  -0.3630 
  2 C       -1.4920    -0.9620    -0.2410 C.ar  1 <1>   0.0830 
  3 C        0.6280    -1.1080     0.9040 C.3   1 <1>   0.1200 
  4 C       -2.2600    -0.2670    -1.1590 C.ar  1 <1>  -0.1500 
  5 C       -2.0000    -2.1240     0.3320 C.ar  1 <1>  -0.1500 
  6 C        1.9100    -0.2830     0.9670 C.3   1 <1>  -0.2400 
  7 C       -3.5220    -0.7130    -1.5040 C.ar  1 <1>  -0.1500 
  8 C       -3.2640    -2.5720    -0.0120 C.ar  1 <1>  -0.1500 
  9 C       -4.0360    -1.8650    -0.9250 C.ar  1 <1>  -0.1430 
 10 C       -5.4300    -2.3390    -1.2870 C.3   1 <1>   0.4860 
 11 N       -6.3530    -2.0630    -0.1350 N.4   1 <1>  -0.9590 
 12 C       -7.6930    -2.7340    -0.2490 C.3   1 <1>   0.4230 
 13 C       -6.4340    -0.5700     0.0600 C.3   1 <1>   0.2630 
 14 C       -8.5690    -2.3980     0.9700 C.3   1 <1>  -0.1600 
 15 C       -7.5300    -4.2590    -0.3570 C.3   1 <1>  -0.1600 
 16 C       -9.9030    -3.1460     0.9440 C.3   1 <1>   0.3430 
 17 C       -8.8780    -4.9830    -0.3630 C.3   1 <1>   0.3430 
 18 N       -9.6640    -4.6120     0.8450 N.4   1 <1>  -0.9590 
 19 C      -10.9700    -5.3510     0.8610 C.3   1 <1>   0.2630 
 20 H        0.8270    -2.0890     0.5080 H     1 <1>   0.0800 
 21 H        0.1750    -1.1800     1.8770 H     1 <1>   0.0800 
 22 H       -1.8520     0.6260    -1.6020 H     1 <1>   0.1500 
 23 H       -1.4220    -2.6870     1.0400 H     1 <1>   0.1500 
 24 H        2.3470    -0.2030    -0.0120 H     1 <1>   0.0800 
 25 H        2.6190    -0.7590     1.6210 H     1 <1>   0.0800 
 26 H        1.6990     0.7000     1.3480 H     1 <1>   0.0800 
 27 H       -4.0860    -0.1490    -2.2280 H     1 <1>   0.1500 
 28 H       -3.6250    -3.4790     0.4410 H     1 <1>   0.1500 
 29 H       -5.3790    -3.3940    -1.4970 H     1 <1>   0.0800 
 30 H       -5.7720    -1.8310    -2.1740 H     1 <1>   0.0800 
 31 H       -5.8570    -2.4320     0.6900 H     1 <1>   0.4500 
 32 H       -8.1890    -2.3740    -1.1380 H     1 <1>   0.0800 
 33 H       -6.9240    -0.1040    -0.7790 H     1 <1>   0.0800 
 34 H       -5.4450    -0.1480     0.1550 H     1 <1>   0.0800 
 35 H       -6.9770    -0.3290     0.9590 H     1 <1>   0.0800 
 36 H       -8.8050    -1.3490     0.9820 H     1 <1>   0.0800 
 37 H       -8.0540    -2.6380     1.8830 H     1 <1>   0.0800 
 38 H       -6.9390    -4.6350     0.4600 H     1 <1>   0.0800 
 39 H       -7.0380    -4.5200    -1.2760 H     1 <1>   0.0800 
 40 H      -10.4910    -2.8160     0.1020 H     1 <1>   0.0800 
 41 H      -10.4580    -2.9250     1.8440 H     1 <1>   0.0800 
 42 H       -8.7150    -6.0500    -0.3800 H     1 <1>   0.0800 
 43 H       -9.4310    -4.7180    -1.2510 H     1 <1>   0.0800 
 44 H       -9.1440    -4.9180     1.6840 H     1 <1>   0.4500 
 45 H      -11.5710    -5.0790     0.0080 H     1 <1>   0.0800 
 46 H      -11.5240    -5.1190     1.7570 H     1 <1>   0.0800 
 47 H      -10.8010    -6.4160     0.8350 H     1 <1>   0.0800 
@<TRIPOS>BOND
  1   1   2  1   
  2   1   3  1   
  3   2   4  ar  
  4   2   5  ar  
  5   3   6  1   
  6   3  20  1   
  7   3  21  1   
  8   4   7  ar  
  9   4  22  1   
 10   5   8  ar  
 11   5  23  1   
 12   6  24  1   
 13   6  25  1   
 14   6  26  1   
 15   7   9  ar  
 16   7  27  1   
 17   8   9  ar  
 18   8  28  1   
 19   9  10  1   
 20  10  11  1   
 21  10  29  1   
 22  10  30  1   
 23  11  12  1   
 24  11  13  1   
 25  11  31  1   
 26  12  14  1   
 27  12  15  1   
 28  12  32  1   
 29  13  33  1   
 30  13  34  1   
 31  13  35  1   
 32  14  16  1   
 33  14  36  1   
 34  14  37  1   
 35  15  17  1   
 36  15  38  1   
 37  15  39  1   
 38  16  18  1   
 39  16  40  1   
 40  16  41  1   
 41  17  18  1   
 42  17  42  1   
 43  17  43  1   
 44  18  19  1   
 45  18  44  1   
 46  19  45  1   
 47  19  46  1   
 48  19  47  1   
@<TRIPOS>SUBSTRUCTURE
  1 ****  10 GROUP 4 **** **** 0

# MOE 2024.06 (io_trps.svl 2023.06)
