@<TRIPOS>MOLECULE
NONAME
39 40 1 0 0 
SMALL
USER_CHARGES


@<TRIPOS>ATOM
  1 S        1.1120    -0.8390     0.9500 S.3   1 <1>  -0.0800 
  2 C        1.9190    -1.0300    -0.5710 C.2   1 <1>   0.4420 
  3 C       -0.3530    -1.2970     0.1510 C.2   1 <1>   0.1980 
  4 N        1.1160    -1.3930    -1.5030 N.2   1 <1>  -0.3380 
  5 N        3.2720    -0.7780    -0.5880 N.am  1 <1>  -0.4940 
  6 N       -0.1780    -1.5430    -1.0840 N.2   1 <1>  -0.3380 
  7 C       -1.6190    -1.3450     0.9910 C.3   1 <1>   0.0200 
  8 C        4.1860    -0.8560    -1.5940 C.2   1 <1>   0.5690 
  9 C       -2.8570    -1.7640     0.1870 C.3   1 <1>  -0.2400 
 10 O        3.9320    -1.1920    -2.7230 O.2   1 <1>  -0.5700 
 11 C        5.6210    -0.4790    -1.2230 C.3   1 <1>   0.1710 
 12 N        5.8750    -0.4910     0.2570 N.3   1 <1>  -0.8100 
 13 C        6.0920    -1.8800     0.7430 C.3   1 <1>   0.1100 
 14 C        7.0610     0.3250     0.5950 C.3   1 <1>   0.1100 
 15 C        7.5660    -2.3690     0.6900 C.3   1 <1>   0.2000 
 16 C        8.3860    -0.2470     0.0200 C.3   1 <1>   0.2000 
 17 O        8.3190    -1.6260    -0.2210 O.3   1 <1>  -0.5600 
 18 C        7.6720    -3.8300     0.2620 C.3   1 <1>  -0.2400 
 19 C        9.5900     0.0240     0.9240 C.3   1 <1>  -0.2400 
 20 H        3.7090    -0.5080     0.2960 H     1 <1>   0.3700 
 21 H       -1.7870    -0.3720     1.4160 H     1 <1>   0.0800 
 22 H       -1.4710    -2.0410     1.7980 H     1 <1>   0.0800 
 23 H       -3.0300    -1.0690    -0.6160 H     1 <1>   0.0800 
 24 H       -3.7260    -1.7840     0.8200 H     1 <1>   0.0800 
 25 H       -2.7120    -2.7430    -0.2340 H     1 <1>   0.0800 
 26 H        5.7920     0.5100    -1.6090 H     1 <1>   0.0800 
 27 H        6.2960    -1.1480    -1.7270 H     1 <1>   0.0800 
 28 H        5.4680    -2.5600     0.1890 H     1 <1>   0.0800 
 29 H        5.7670    -1.9390     1.7670 H     1 <1>   0.0800 
 30 H        7.1400     0.3760     1.6670 H     1 <1>   0.0800 
 31 H        6.9270     1.3340     0.2480 H     1 <1>   0.0800 
 32 H        8.0160    -2.2550     1.6610 H     1 <1>   0.0800 
 33 H        8.5700     0.2130    -0.9350 H     1 <1>   0.0800 
 34 H        7.2640    -3.9590    -0.7250 H     1 <1>   0.0800 
 35 H        7.1320    -4.4580     0.9460 H     1 <1>   0.0800 
 36 H        8.7030    -4.1350     0.2600 H     1 <1>   0.0800 
 37 H        9.4510    -0.4170     1.8940 H     1 <1>   0.0800 
 38 H        9.7240     1.0830     1.0470 H     1 <1>   0.0800 
 39 H       10.4790    -0.3800     0.4740 H     1 <1>   0.0800 
@<TRIPOS>BOND
  1   1   2  1   
  2   1   3  1   
  3   2   4  2   
  4   2   5  1   
  5   3   6  2   
  6   3   7  1   
  7   4   6  1   
  8   5   8  am  
  9   5  20  1   
 10   7   9  1   
 11   7  21  1   
 12   7  22  1   
 13   8  10  2   
 14   8  11  1   
 15   9  23  1   
 16   9  24  1   
 17   9  25  1   
 18  11  12  1   
 19  11  26  1   
 20  11  27  1   
 21  12  13  1   
 22  12  14  1   
 23  13  15  1   
 24  13  28  1   
 25  13  29  1   
 26  14  16  1   
 27  14  30  1   
 28  14  31  1   
 29  15  17  1   
 30  15  18  1   
 31  15  32  1   
 32  16  17  1   
 33  16  19  1   
 34  16  33  1   
 35  18  34  1   
 36  18  35  1   
 37  18  36  1   
 38  19  37  1   
 39  19  38  1   
 40  19  39  1   
@<TRIPOS>SUBSTRUCTURE
  1 ****   5 GROUP 4 **** **** 0

# MOE 2024.06 (io_trps.svl 2023.06)
