@<TRIPOS>MOLECULE
NONAME
25 25 1 0 0 
SMALL
USER_CHARGES


@<TRIPOS>ATOM
  1 S       -0.1100    -0.1040    -0.0630 S.2   1 <1>  -0.3800 
  2 C       -1.0500    -1.3890    -0.3080 C.2   1 <1>   0.5810 
  3 S       -0.2470    -2.9730    -0.2530 S.3   1 <1>  -0.3710 
  4 N       -2.3830    -1.3370    -0.5500 N.am  1 <1>  -0.6600 
  5 C        1.5700    -2.6590     0.0760 C.3   1 <1>  -0.0360 
  6 C       -3.2510    -2.5340    -0.7690 C.3   1 <1>   0.1400 
  7 C       -3.1470    -0.0580    -0.6230 C.3   1 <1>   0.1400 
  8 C        2.3910    -3.9340     0.1230 C.2   1 <1>   0.9060 
  9 C       -4.3590    -2.5680     0.2890 C.3   1 <1>  -0.1600 
 10 C       -4.2540    -0.0540     0.4380 C.3   1 <1>  -0.1600 
 11 O        2.9190    -4.3440    -0.9180 O.co2 1 <1>  -0.9000 
 12 O        2.5630    -4.4950     1.2130 O.co2 1 <1>  -0.9000 
 13 C       -5.1790    -1.2700     0.2940 C.3   1 <1>  -0.1600 
 14 H        1.6440    -2.1560     1.0200 H     1 <1>   0.0800 
 15 H        1.9370    -2.0340    -0.7130 H     1 <1>   0.0800 
 16 H       -2.6940    -3.4520    -0.7230 H     1 <1>   0.0800 
 17 H       -3.6870    -2.4700    -1.7510 H     1 <1>   0.0800 
 18 H       -3.5830     0.0320    -1.6030 H     1 <1>   0.0800 
 19 H       -2.5080     0.7930    -0.4700 H     1 <1>   0.0800 
 20 H       -3.9070    -2.7190     1.2540 H     1 <1>   0.0800 
 21 H       -5.0070    -3.4050     0.0970 H     1 <1>   0.0800 
 22 H       -4.8290     0.8510     0.3490 H     1 <1>   0.0800 
 23 H       -3.7960    -0.0570     1.4120 H     1 <1>   0.0800 
 24 H       -5.8870    -1.2880     1.1050 H     1 <1>   0.0800 
 25 H       -5.7300    -1.1920    -0.6280 H     1 <1>   0.0800 
@<TRIPOS>BOND
  1   1   2  2   
  2   2   3  1   
  3   2   4  am  
  4   3   5  1   
  5   4   6  1   
  6   4   7  1   
  7   5   8  1   
  8   5  14  1   
  9   5  15  1   
 10   6   9  1   
 11   6  16  1   
 12   6  17  1   
 13   7  10  1   
 14   7  18  1   
 15   7  19  1   
 16   8  11  ar  
 17   8  12  ar  
 18   9  13  1   
 19   9  20  1   
 20   9  21  1   
 21  10  13  1   
 22  10  22  1   
 23  10  23  1   
 24  13  24  1   
 25  13  25  1   
@<TRIPOS>SUBSTRUCTURE
  1 ****   2 GROUP 4 **** **** 0

# MOE 2024.06 (io_trps.svl 2023.06)
