@<TRIPOS>MOLECULE
NONAME
37 37 1 0 0 
SMALL
USER_CHARGES


@<TRIPOS>ATOM
  1 O       -1.0630    -1.7540    -0.2120 O.co2 1 <1>  -0.9000 
  2 C       -1.5550    -0.6580     0.0680 C.2   1 <1>   0.9060 
  3 O       -1.1680     0.0290     1.0190 O.co2 1 <1>  -0.9000 
  4 C       -2.6660    -0.1190    -0.8050 C.3   1 <1>  -0.2660 
  5 C       -4.0450    -0.7610    -0.5430 C.3   1 <1>  -0.0800 
  6 C       -5.0730    -0.1760    -1.5350 C.3   1 <1>  -0.0990 
  7 C       -4.4610    -0.5660     0.9240 C.3   1 <1>  -0.2400 
  8 C       -6.4760    -0.7560    -1.4050 C.2   1 <1>   0.5690 
  9 O       -6.6840    -1.8300    -1.9190 O.2   1 <1>  -0.5700 
 10 N       -7.4810    -0.0780    -0.7590 N.am  1 <1>  -0.6600 
 11 C       -8.8430    -0.6850    -0.6440 C.3   1 <1>   0.1400 
 12 C       -7.3340     1.2440    -0.0750 C.3   1 <1>   0.1400 
 13 C       -9.9300     0.3920    -0.4430 C.3   1 <1>   0.2000 
 14 C       -8.3460     1.3860     1.0800 C.3   1 <1>   0.2000 
 15 O       -9.6710     1.2390     0.6470 O.3   1 <1>  -0.5600 
 16 C      -11.3080    -0.2210    -0.2060 C.3   1 <1>  -0.2400 
 17 C       -8.2540     2.7490     1.7620 C.3   1 <1>  -0.2400 
 18 H       -2.3720    -0.2940    -1.8210 H     1 <1>   0.0800 
 19 H       -2.7140     0.9410    -0.6480 H     1 <1>   0.0800 
 20 H       -3.9610    -1.8200    -0.7280 H     1 <1>   0.0800 
 21 H       -4.7360    -0.3960    -2.5310 H     1 <1>   0.0800 
 22 H       -5.0970     0.8920    -1.4510 H     1 <1>   0.0800 
 23 H       -4.4540     0.4760     1.1870 H     1 <1>   0.0800 
 24 H       -3.7630    -1.0720     1.5690 H     1 <1>   0.0800 
 25 H       -5.4350    -0.9810     1.1100 H     1 <1>   0.0800 
 26 H       -8.8540    -1.3690     0.1860 H     1 <1>   0.0800 
 27 H       -9.0630    -1.2450    -1.5360 H     1 <1>   0.0800 
 28 H       -7.4920     2.0340    -0.7870 H     1 <1>   0.0800 
 29 H       -6.3430     1.3470     0.3260 H     1 <1>   0.0800 
 30 H       -9.9670     1.0110    -1.3230 H     1 <1>   0.0800 
 31 H       -8.1570     0.6130     1.8060 H     1 <1>   0.0800 
 32 H      -11.3000    -0.8190     0.6880 H     1 <1>   0.0800 
 33 H      -11.5830    -0.8440    -1.0370 H     1 <1>   0.0800 
 34 H      -12.0410     0.5590    -0.1060 H     1 <1>   0.0800 
 35 H       -8.4700     3.5330     1.0600 H     1 <1>   0.0800 
 36 H       -7.2650     2.8980     2.1570 H     1 <1>   0.0800 
 37 H       -8.9560     2.7960     2.5750 H     1 <1>   0.0800 
@<TRIPOS>BOND
  1   1   2  ar  
  2   2   3  ar  
  3   2   4  1   
  4   4   5  1   
  5   4  18  1   
  6   4  19  1   
  7   5   6  1   
  8   5   7  1   
  9   5  20  1   
 10   6   8  1   
 11   6  21  1   
 12   6  22  1   
 13   7  23  1   
 14   7  24  1   
 15   7  25  1   
 16   8   9  2   
 17   8  10  am  
 18  10  11  1   
 19  10  12  1   
 20  11  13  1   
 21  11  26  1   
 22  11  27  1   
 23  12  14  1   
 24  12  28  1   
 25  12  29  1   
 26  13  15  1   
 27  13  16  1   
 28  13  30  1   
 29  14  15  1   
 30  14  17  1   
 31  14  31  1   
 32  16  32  1   
 33  16  33  1   
 34  16  34  1   
 35  17  35  1   
 36  17  36  1   
 37  17  37  1   
@<TRIPOS>SUBSTRUCTURE
  1 ****   8 GROUP 4 **** **** 0

# MOE 2024.06 (io_trps.svl 2023.06)
