@<TRIPOS>MOLECULE
NONAME
41 43 1 0 0 
SMALL
USER_CHARGES


@<TRIPOS>ATOM
  1 S        0.2540     0.4290    -0.5290 S.o2  1 <1>   1.5010 
  2 O        0.6130     0.7860    -1.8850 O.2   1 <1>  -0.6500 
  3 O        0.1810     1.4590     0.4830 O.2   1 <1>  -0.6500 
  4 N        1.3980    -0.7020    -0.0010 N.am  1 <1>  -0.8490 
  5 C       -1.2710    -0.5210    -0.5360 C.2   1 <1>  -0.0630 
  6 C        1.6650    -1.7500    -1.0100 C.3   1 <1>   0.1960 
  7 C        2.6640    -0.0460     0.3790 C.3   1 <1>   0.1960 
  8 C       -2.0700    -0.7000    -1.6560 C.2   1 <1>   0.1390 
  9 C       -1.9170    -1.2140     0.4350 C.2   1 <1>  -0.3020 
 10 C        2.6840    -2.7920    -0.5120 C.3   1 <1>   0.2090 
 11 C        3.7140    -1.0480     0.8990 C.3   1 <1>   0.2090 
 12 N       -3.1110    -1.4380    -1.4180 N.2   1 <1>  -0.7070 
 13 N       -3.0180    -1.7550    -0.1160 N.pl3 1 <1>   0.3140 
 14 N        3.9590    -2.1380    -0.0880 N.pl3 1 <1>  -0.8380 
 15 C       -4.0310    -2.5890     0.5630 C.3   1 <1>   0.0960 
 16 C        5.0530    -2.9470     0.1490 C.ar  1 <1>   0.4100 
 17 C       -3.5400    -4.0330     0.7260 C.3   1 <1>  -0.2400 
 18 N        4.8210    -4.1680     0.6180 N.ar  1 <1>  -0.6200 
 19 C        6.3320    -2.4540    -0.0990 C.ar  1 <1>  -0.1500 
 20 C        5.8910    -4.9100     0.8480 C.ar  1 <1>   0.1600 
 21 C        7.4360    -3.2370     0.1450 C.ar  1 <1>  -0.1500 
 22 C        7.1970    -4.5040     0.6350 C.ar  1 <1>  -0.1500 
 23 H        2.0500    -1.3060    -1.9130 H     1 <1>   0.0800 
 24 H        0.7490    -2.2590    -1.2540 H     1 <1>   0.0800 
 25 H        2.4750     0.6770     1.1540 H     1 <1>   0.0800 
 26 H        3.0730     0.4780    -0.4690 H     1 <1>   0.0800 
 27 H       -1.8530    -0.2750    -2.6240 H     1 <1>   0.1500 
 28 H       -1.6450    -1.3440     1.4660 H     1 <1>   0.1500 
 29 H        2.8920    -3.4970    -1.2980 H     1 <1>   0.0800 
 30 H        2.2640    -3.3330     0.3190 H     1 <1>   0.0800 
 31 H        3.3670    -1.4780     1.8230 H     1 <1>   0.0800 
 32 H        4.6340    -0.5270     1.0990 H     1 <1>   0.0800 
 33 H       -4.9300    -2.5710    -0.0270 H     1 <1>   0.0800 
 34 H       -4.2420    -2.1550     1.5230 H     1 <1>   0.0800 
 35 H       -3.3340    -4.4630    -0.2390 H     1 <1>   0.0800 
 36 H       -4.2990    -4.6230     1.2080 H     1 <1>   0.0800 
 37 H       -2.6490    -4.0630     1.3280 H     1 <1>   0.0800 
 38 H        6.4350    -1.4600    -0.4870 H     1 <1>   0.1500 
 39 H        5.7180    -5.9020     1.2290 H     1 <1>   0.1500 
 40 H        8.4350    -2.8820    -0.0380 H     1 <1>   0.1500 
 41 H        8.0130    -5.1700     0.8480 H     1 <1>   0.1500 
@<TRIPOS>BOND
  1   1   2  2   
  2   1   3  2   
  3   1   4  am  
  4   1   5  1   
  5   4   6  1   
  6   4   7  1   
  7   5   8  1   
  8   5   9  2   
  9   6  10  1   
 10   6  23  1   
 11   6  24  1   
 12   7  11  1   
 13   7  25  1   
 14   7  26  1   
 15   8  12  2   
 16   8  27  1   
 17   9  13  1   
 18   9  28  1   
 19  10  14  1   
 20  10  29  1   
 21  10  30  1   
 22  11  14  1   
 23  11  31  1   
 24  11  32  1   
 25  12  13  1   
 26  13  15  1   
 27  14  16  1   
 28  15  17  1   
 29  15  33  1   
 30  15  34  1   
 31  16  18  ar  
 32  16  19  ar  
 33  17  35  1   
 34  17  36  1   
 35  17  37  1   
 36  18  20  ar  
 37  19  21  ar  
 38  19  38  1   
 39  20  22  ar  
 40  20  39  1   
 41  21  22  ar  
 42  21  40  1   
 43  22  41  1   
@<TRIPOS>SUBSTRUCTURE
  1 ****   6 GROUP 4 **** **** 0

# MOE 2024.06 (io_trps.svl 2023.06)
