@<TRIPOS>MOLECULE
NONAME
37 39 1 0 0 
SMALL
USER_CHARGES


@<TRIPOS>ATOM
  1 S       -0.2620     0.0370    -0.0570 S.3   1 <1>  -0.3710 
  2 C       -0.4400     1.8070    -0.0150 C.2   1 <1>   0.6510 
  3 C        1.5570     0.0510     0.1320 C.3   1 <1>   0.1310 
  4 N       -1.5720     2.3820    -0.1130 N.2   1 <1>  -0.6290 
  5 N        0.8090     2.3870     0.1350 N.am  1 <1>  -0.4200 
  6 C        1.8810     1.5290     0.2160 C.2   1 <1>   0.5690 
  7 C       -2.7170     1.6260    -0.2570 C.ar  1 <1>   0.1790 
  8 C        1.0280     3.8630     0.2080 C.3   1 <1>   0.2200 
  9 O        3.0290     1.8780     0.3480 O.2   1 <1>  -0.5700 
 10 C       -3.1830     1.2890    -1.5210 C.ar  1 <1>  -0.1500 
 11 C       -3.4300     1.2070     0.8580 C.ar  1 <1>  -0.1500 
 12 C        0.3450     4.4820     1.4390 C.3   1 <1>  -0.1600 
 13 C        0.6080     4.5680    -1.0920 C.3   1 <1>  -0.1600 
 14 C       -4.3350     0.5360    -1.6690 C.ar  1 <1>  -0.1500 
 15 C       -4.5820     0.4540     0.7150 C.ar  1 <1>  -0.1500 
 16 C        0.6220     5.9900     1.5160 C.3   1 <1>  -0.1600 
 17 C        0.8840     6.0770    -1.0080 C.3   1 <1>  -0.1600 
 18 C       -5.0350     0.1160    -0.5500 C.ar  1 <1>  -0.1500 
 19 C        0.2010     6.6970     0.2200 C.3   1 <1>  -0.1600 
 20 H        1.8120    -0.4690     1.0360 H     1 <1>   0.0800 
 21 H        1.9960    -0.4080    -0.7340 H     1 <1>   0.0800 
 22 H        2.0830     4.0440     0.3240 H     1 <1>   0.0800 
 23 H       -2.6370     1.6220    -2.3840 H     1 <1>   0.1500 
 24 H       -3.0750     1.4760     1.8350 H     1 <1>   0.1500 
 25 H       -0.7190     4.3360     1.3890 H     1 <1>   0.0800 
 26 H        0.7140     4.0070     2.3310 H     1 <1>   0.0800 
 27 H        1.1550     4.1530    -1.9200 H     1 <1>   0.0800 
 28 H       -0.4430     4.4270    -1.2710 H     1 <1>   0.0800 
 29 H       -4.6860     0.2770    -2.6520 H     1 <1>   0.1500 
 30 H       -5.1250     0.1310     1.5860 H     1 <1>   0.1500 
 31 H        0.0840     6.4130     2.3470 H     1 <1>   0.0800 
 32 H        1.6730     6.1540     1.6860 H     1 <1>   0.0800 
 33 H        1.9460     6.2440    -0.9480 H     1 <1>   0.0800 
 34 H        0.5250     6.5590    -1.9010 H     1 <1>   0.0800 
 35 H       -5.9300    -0.4700    -0.6630 H     1 <1>   0.1500 
 36 H        0.4520     7.7420     0.2810 H     1 <1>   0.0800 
 37 H       -0.8670     6.6220     0.1060 H     1 <1>   0.0800 
@<TRIPOS>BOND
  1   1   2  1   
  2   1   3  1   
  3   2   4  2   
  4   2   5  1   
  5   3   6  1   
  6   3  20  1   
  7   3  21  1   
  8   4   7  1   
  9   5   6  am  
 10   5   8  1   
 11   6   9  2   
 12   7  10  ar  
 13   7  11  ar  
 14   8  12  1   
 15   8  13  1   
 16   8  22  1   
 17  10  14  ar  
 18  10  23  1   
 19  11  15  ar  
 20  11  24  1   
 21  12  16  1   
 22  12  25  1   
 23  12  26  1   
 24  13  17  1   
 25  13  27  1   
 26  13  28  1   
 27  14  18  ar  
 28  14  29  1   
 29  15  18  ar  
 30  15  30  1   
 31  16  19  1   
 32  16  31  1   
 33  16  32  1   
 34  17  19  1   
 35  17  33  1   
 36  17  34  1   
 37  18  35  1   
 38  19  36  1   
 39  19  37  1   
@<TRIPOS>SUBSTRUCTURE
  1 ****   2 GROUP 4 **** **** 0

# MOE 2024.06 (io_trps.svl 2023.06)
