@<TRIPOS>MOLECULE
NONAME
36 37 1 0 0 
SMALL
USER_CHARGES


@<TRIPOS>ATOM
  1 S        0.0160     0.2300     0.9650 S.o2  1 <1>   1.4470 
  2 O       -0.0350    -1.1720     0.6190 O.2   1 <1>  -0.6500 
  3 O        0.2560     0.6020     2.3440 O.2   1 <1>  -0.6500 
  4 N        1.2050     1.0420     0.0550 N.am  1 <1>  -0.8490 
  5 C       -1.5660     0.9480     0.4570 C.ar  1 <1>  -0.0090 
  6 C        2.6040     0.6280     0.3520 C.3   1 <1>   0.2760 
  7 C        1.0670     2.4970     0.2440 C.3   1 <1>   0.1960 
  8 C       -1.9910     0.8930    -0.8640 C.ar  1 <1>   0.1900 
  9 C       -2.4110     1.5770     1.3670 C.ar  1 <1>  -0.1500 
 10 C        3.5730     1.3880    -0.5830 C.3   1 <1>  -0.1600 
 11 C        2.8230    -0.8980     0.2010 C.3   1 <1>  -0.1600 
 12 C        1.9500     3.2680    -0.7340 C.3   1 <1>  -0.1600 
 13 F       -1.2350     0.3180    -1.7590 F     1 <1>  -0.1900 
 14 C       -3.1920     1.4270    -1.3040 C.ar  1 <1>  -0.1500 
 15 C       -3.6100     2.1130     0.9310 C.ar  1 <1>   0.1900 
 16 C        3.4150     2.9080    -0.5160 C.3   1 <1>  -0.1600 
 17 C        4.2830    -1.3820     0.2400 C.3   1 <1>  -0.2400 
 18 C       -4.0210     2.0520    -0.3880 C.ar  1 <1>  -0.1500 
 19 F       -4.3850     2.7020     1.8010 F     1 <1>  -0.1900 
 20 H        2.8350     0.8960     1.3710 H     1 <1>   0.0800 
 21 H        1.3240     2.7620     1.2580 H     1 <1>   0.0800 
 22 H        0.0540     2.8080     0.0660 H     1 <1>   0.0800 
 23 H       -2.1440     1.6500     2.4070 H     1 <1>   0.1500 
 24 H        3.4080     1.0550    -1.5930 H     1 <1>   0.0800 
 25 H        4.5900     1.1630    -0.3240 H     1 <1>   0.0800 
 26 H        2.3730    -1.2310    -0.7180 H     1 <1>   0.0800 
 27 H        2.3370    -1.3960     1.0190 H     1 <1>   0.0800 
 28 H        1.8120     4.3240    -0.5890 H     1 <1>   0.0800 
 29 H        1.6550     3.0270    -1.7400 H     1 <1>   0.0800 
 30 H       -3.4670     1.3520    -2.3420 H     1 <1>   0.1500 
 31 H        4.0280     3.3770    -1.2660 H     1 <1>   0.0800 
 32 H        3.7350     3.2610     0.4500 H     1 <1>   0.0800 
 33 H        4.8140    -1.0880    -0.6480 H     1 <1>   0.0800 
 34 H        4.3030    -2.4560     0.2930 H     1 <1>   0.0800 
 35 H        4.7890    -0.9910     1.1050 H     1 <1>   0.0800 
 36 H       -4.9620     2.4820    -0.6840 H     1 <1>   0.1500 
@<TRIPOS>BOND
  1   1   2  2   
  2   1   3  2   
  3   1   4  am  
  4   1   5  1   
  5   4   6  1   
  6   4   7  1   
  7   5   8  ar  
  8   5   9  ar  
  9   6  10  1   
 10   6  11  1   
 11   6  20  1   
 12   7  12  1   
 13   7  21  1   
 14   7  22  1   
 15   8  13  1   
 16   8  14  ar  
 17   9  15  ar  
 18   9  23  1   
 19  10  16  1   
 20  10  24  1   
 21  10  25  1   
 22  11  17  1   
 23  11  26  1   
 24  11  27  1   
 25  12  16  1   
 26  12  28  1   
 27  12  29  1   
 28  14  18  ar  
 29  14  30  1   
 30  15  18  ar  
 31  15  19  1   
 32  16  31  1   
 33  16  32  1   
 34  17  33  1   
 35  17  34  1   
 36  17  35  1   
 37  18  36  1   
@<TRIPOS>SUBSTRUCTURE
  1 ****   1 GROUP 4 **** **** 0

# MOE 2024.06 (io_trps.svl 2023.06)
