@<TRIPOS>MOLECULE
NONAME
34 35 1 0 0 
SMALL
USER_CHARGES


@<TRIPOS>ATOM
  1 BR      -1.8730     0.8750     1.9910 Br    1 <1>  -0.1110 
  2 C       -0.9740     2.2020     0.9190 C.ar  1 <1>   0.1110 
  3 C       -1.4400     2.4870    -0.3560 C.ar  1 <1>  -0.1440 
  4 C        0.1210     2.8380     1.4700 C.ar  1 <1>  -0.1500 
  5 C       -0.7620     3.4450    -1.0980 C.ar  1 <1>  -0.1500 
  6 C       -2.6500     1.7760    -0.9290 C.3   1 <1>   0.4870 
  7 C        0.7800     3.7950     0.7190 C.ar  1 <1>  -0.1500 
  8 C        0.3380     4.0950    -0.5600 C.ar  1 <1>  -0.1500 
  9 N       -3.8740     2.2230    -0.2080 N.4   1 <1>  -0.9590 
 10 C       -5.0210     1.3340    -0.5310 C.3   1 <1>   0.3430 
 11 C       -4.1410     3.6760    -0.4170 C.3   1 <1>   0.3430 
 12 C       -6.2070     1.5630     0.4070 C.3   1 <1>  -0.1600 
 13 C       -4.8170     4.2550     0.8250 C.3   1 <1>  -0.1600 
 14 C       -6.9410     2.8860     0.1450 C.3   1 <1>  -0.1600 
 15 C       -6.3470     4.0970     0.8770 C.3   1 <1>  -0.1600 
 16 H        0.4550     2.5920     2.4630 H     1 <1>   0.1500 
 17 H       -1.0740     3.6980    -2.0980 H     1 <1>   0.1500 
 18 H       -2.5190     0.7120    -0.8070 H     1 <1>   0.0800 
 19 H       -2.7400     1.9880    -1.9810 H     1 <1>   0.0800 
 20 H        1.6380     4.3050     1.1260 H     1 <1>   0.1500 
 21 H        0.8610     4.8380    -1.1400 H     1 <1>   0.1500 
 22 H       -3.6650     2.1050     0.7920 H     1 <1>   0.4500 
 23 H       -4.7090     0.3060    -0.4330 H     1 <1>   0.0800 
 24 H       -5.3340     1.4900    -1.5510 H     1 <1>   0.0800 
 25 H       -4.7480     3.8380    -1.2930 H     1 <1>   0.0800 
 26 H       -3.2070     4.1970    -0.5540 H     1 <1>   0.0800 
 27 H       -5.9070     1.4810     1.4370 H     1 <1>   0.0800 
 28 H       -6.9070     0.7660     0.2230 H     1 <1>   0.0800 
 29 H       -4.6010     5.3090     0.8580 H     1 <1>   0.0800 
 30 H       -4.3740     3.8290     1.7090 H     1 <1>   0.0800 
 31 H       -7.9620     2.7810     0.4740 H     1 <1>   0.0800 
 32 H       -6.9810     3.0800    -0.9130 H     1 <1>   0.0800 
 33 H       -6.8000     4.9820     0.4620 H     1 <1>   0.0800 
 34 H       -6.6460     4.0610     1.9120 H     1 <1>   0.0800 
@<TRIPOS>BOND
  1   1   2  1   
  2   2   3  ar  
  3   2   4  ar  
  4   3   5  ar  
  5   3   6  1   
  6   4   7  ar  
  7   4  16  1   
  8   5   8  ar  
  9   5  17  1   
 10   6   9  1   
 11   6  18  1   
 12   6  19  1   
 13   7   8  ar  
 14   7  20  1   
 15   8  21  1   
 16   9  10  1   
 17   9  11  1   
 18   9  22  1   
 19  10  12  1   
 20  10  23  1   
 21  10  24  1   
 22  11  13  1   
 23  11  25  1   
 24  11  26  1   
 25  12  14  1   
 26  12  27  1   
 27  12  28  1   
 28  13  15  1   
 29  13  29  1   
 30  13  30  1   
 31  14  15  1   
 32  14  31  1   
 33  14  32  1   
 34  15  33  1   
 35  15  34  1   
@<TRIPOS>SUBSTRUCTURE
  1 ****   9 GROUP 4 **** **** 0

# MOE 2024.06 (io_trps.svl 2023.06)
