@<TRIPOS>MOLECULE
NONAME
38 39 1 0 0 
SMALL
USER_CHARGES


@<TRIPOS>ATOM
  1 S        1.2590     0.1860    -0.5940 S.3   1 <1>  -0.3320 
  2 C        0.8190    -1.5150    -0.1820 C.ar  1 <1>   0.1020 
  3 C        0.4810     1.2180     0.7580 C.3   1 <1>  -0.0360 
  4 C       -0.5420    -1.8800    -0.1360 C.ar  1 <1>   0.0000 
  5 C        1.7940    -2.4450     0.0750 C.ar  1 <1>  -0.1440 
  6 C       -0.2150     2.4620     0.2330 C.2   1 <1>   0.9060 
  7 C       -0.8240    -3.2100     0.2320 C.ar  1 <1>   0.3100 
  8 C       -1.6300    -1.0310    -0.4380 C.ar  1 <1>  -0.1500 
  9 C        1.3830    -3.7540     0.4040 C.ar  1 <1>   0.1670 
 10 C        3.2820    -2.0770     0.0120 C.3   1 <1>  -0.0170 
 11 O        0.3950     3.5370     0.2510 O.co2 1 <1>  -0.9000 
 12 O       -1.3940     2.3790    -0.1360 O.co2 1 <1>  -0.9000 
 13 N        0.1420    -4.1240     0.4900 N.ar  1 <1>  -0.6200 
 14 C       -2.1650    -3.6170     0.3300 C.ar  1 <1>  -0.1500 
 15 C       -2.9290    -1.4480    -0.3320 C.ar  1 <1>  -0.1430 
 16 C        2.3950    -4.8490     0.6960 C.3   1 <1>  -0.0970 
 17 C        3.8250    -2.2420    -1.4140 C.3   1 <1>  -0.1600 
 18 C       -3.2000    -2.7620     0.0610 C.ar  1 <1>  -0.1500 
 19 C       -4.0720    -0.4950    -0.6310 C.3   1 <1>  -0.0970 
 20 C        5.3180    -1.9040    -1.4900 C.3   1 <1>  -0.2400 
 21 H        1.2690     1.5090     1.4230 H     1 <1>   0.0800 
 22 H       -0.2280     0.6050     1.2760 H     1 <1>   0.0800 
 23 H       -1.4310    -0.0250    -0.7630 H     1 <1>   0.1500 
 24 H        3.8530    -2.6820     0.6920 H     1 <1>   0.0800 
 25 H        3.4290    -1.0620     0.3330 H     1 <1>   0.0800 
 26 H       -2.3510    -4.6320     0.6250 H     1 <1>   0.1500 
 27 H        3.1150    -4.9180    -0.0970 H     1 <1>   0.0800 
 28 H        1.9030    -5.8020     0.7830 H     1 <1>   0.0800 
 29 H        2.8960    -4.6430     1.6230 H     1 <1>   0.0800 
 30 H        3.2800    -1.5890    -2.0740 H     1 <1>   0.0800 
 31 H        3.6680    -3.2520    -1.7490 H     1 <1>   0.0800 
 32 H       -4.2210    -3.0890     0.1450 H     1 <1>   0.1500 
 33 H       -3.6980     0.5010    -0.8020 H     1 <1>   0.0800 
 34 H       -4.7500    -0.4600     0.2020 H     1 <1>   0.0800 
 35 H       -4.6030    -0.8190    -1.5070 H     1 <1>   0.0800 
 36 H        5.4850    -0.8850    -1.1860 H     1 <1>   0.0800 
 37 H        5.6680    -2.0190    -2.5010 H     1 <1>   0.0800 
 38 H        5.8870    -2.5570    -0.8520 H     1 <1>   0.0800 
@<TRIPOS>BOND
  1   1   2  1   
  2   1   3  1   
  3   2   4  ar  
  4   2   5  ar  
  5   3   6  1   
  6   3  21  1   
  7   3  22  1   
  8   4   7  ar  
  9   4   8  ar  
 10   5   9  ar  
 11   5  10  1   
 12   6  11  ar  
 13   6  12  ar  
 14   7  13  ar  
 15   7  14  ar  
 16   8  15  ar  
 17   8  23  1   
 18   9  13  ar  
 19   9  16  1   
 20  10  17  1   
 21  10  24  1   
 22  10  25  1   
 23  14  18  ar  
 24  14  26  1   
 25  15  18  ar  
 26  15  19  1   
 27  16  27  1   
 28  16  28  1   
 29  16  29  1   
 30  17  20  1   
 31  17  30  1   
 32  17  31  1   
 33  18  32  1   
 34  19  33  1   
 35  19  34  1   
 36  19  35  1   
 37  20  36  1   
 38  20  37  1   
 39  20  38  1   
@<TRIPOS>SUBSTRUCTURE
  1 ****   2 GROUP 4 **** **** 0

# MOE 2024.06 (io_trps.svl 2023.06)
