@<TRIPOS>MOLECULE
NONAME
37 37 1 0 0 
SMALL
USER_CHARGES


@<TRIPOS>ATOM
  1 O       -1.0350    -2.8530    -0.6230 O.3   1 <1>  -0.5600 
  2 C       -2.0640    -2.3140    -1.4040 C.3   1 <1>   0.1200 
  3 C       -0.6830    -2.0370     0.4570 C.3   1 <1>   0.1200 
  4 C       -3.3250    -2.0780    -0.5530 C.3   1 <1>   0.1100 
  5 C       -1.8990    -1.8020     1.3720 C.3   1 <1>   0.1100 
  6 N       -3.0270    -1.2250     0.6180 N.3   1 <1>  -0.8100 
  7 C       -4.2020    -1.0480     1.4860 C.3   1 <1>   0.3100 
  8 C       -5.2580    -0.2560     0.7920 C.1   1 <1>  -0.2000 
  9 C       -6.0970     0.3790     0.2350 C.1   1 <1>  -0.2000 
 10 C       -7.1200     1.1930    -0.4840 C.3   1 <1>   0.4800 
 11 O       -8.3480     0.8790     0.1120 O.3   1 <1>  -0.5600 
 12 C       -7.1270     0.7890    -1.9600 C.3   1 <1>  -0.2400 
 13 C       -6.7950     2.6770    -0.2940 C.3   1 <1>  -0.2400 
 14 C       -9.5140     1.5080    -0.3300 C.3   1 <1>   0.1200 
 15 C      -10.6750     0.9510     0.4880 C.3   1 <1>   0.0400 
 16 C      -11.9490     1.5870     0.0620 C.1   1 <1>   0.3570 
 17 N      -12.9120     2.0850    -0.2800 N.1   1 <1>  -0.5570 
 18 H       -2.2740    -3.0090    -2.1970 H     1 <1>   0.0800 
 19 H       -1.7240    -1.3880    -1.8330 H     1 <1>   0.0800 
 20 H       -0.3120    -1.1010     0.0780 H     1 <1>   0.0800 
 21 H        0.1030    -2.5310     0.9990 H     1 <1>   0.0800 
 22 H       -3.7120    -3.0300    -0.2310 H     1 <1>   0.0800 
 23 H       -4.0710    -1.6040    -1.1670 H     1 <1>   0.0800 
 24 H       -1.6160    -1.1280     2.1620 H     1 <1>   0.0800 
 25 H       -2.1880    -2.7400     1.8140 H     1 <1>   0.0800 
 26 H       -3.9110    -0.5150     2.3750 H     1 <1>   0.0800 
 27 H       -4.5970    -2.0060     1.7760 H     1 <1>   0.0800 
 28 H       -7.7740     1.4220    -2.5370 H     1 <1>   0.0800 
 29 H       -7.4360    -0.2360    -2.0580 H     1 <1>   0.0800 
 30 H       -6.1350     0.8810    -2.3620 H     1 <1>   0.0800 
 31 H       -7.4420     3.3000    -0.8820 H     1 <1>   0.0800 
 32 H       -5.7850     2.8660    -0.6090 H     1 <1>   0.0800 
 33 H       -6.8770     2.9410     0.7450 H     1 <1>   0.0800 
 34 H       -9.6640     1.2950    -1.3740 H     1 <1>   0.0800 
 35 H       -9.4300     2.5690    -0.1740 H     1 <1>   0.0800 
 36 H      -10.5160     1.1560     1.5310 H     1 <1>   0.0800 
 37 H      -10.7490    -0.1100     0.3410 H     1 <1>   0.0800 
@<TRIPOS>BOND
  1   1   2  1   
  2   1   3  1   
  3   2   4  1   
  4   2  18  1   
  5   2  19  1   
  6   3   5  1   
  7   3  20  1   
  8   3  21  1   
  9   4   6  1   
 10   4  22  1   
 11   4  23  1   
 12   5   6  1   
 13   5  24  1   
 14   5  25  1   
 15   6   7  1   
 16   7   8  1   
 17   7  26  1   
 18   7  27  1   
 19   8   9  3   
 20   9  10  1   
 21  10  11  1   
 22  10  12  1   
 23  10  13  1   
 24  11  14  1   
 25  12  28  1   
 26  12  29  1   
 27  12  30  1   
 28  13  31  1   
 29  13  32  1   
 30  13  33  1   
 31  14  15  1   
 32  14  34  1   
 33  14  35  1   
 34  15  16  1   
 35  15  36  1   
 36  15  37  1   
 37  16  17  3   
@<TRIPOS>SUBSTRUCTURE
  1 ****   9 GROUP 4 **** **** 0

# MOE 2024.06 (io_trps.svl 2023.06)
