@<TRIPOS>MOLECULE
NONAME
37 38 1 0 0 
SMALL
USER_CHARGES


@<TRIPOS>ATOM
  1 F        0.2110    -1.1150     1.7490 F     1 <1>  -0.1900 
  2 C       -0.5530    -1.7950     0.9290 C.ar  1 <1>   0.1900 
  3 C        0.0370    -2.7510     0.0960 C.ar  1 <1>   0.1170 
  4 C       -1.9060    -1.5230     0.9340 C.ar  1 <1>  -0.1500 
  5 N        1.4290    -2.9620     0.1530 N.am  1 <1>  -0.5470 
  6 C       -0.8040    -3.4430    -0.7760 C.ar  1 <1>  -0.1500 
  7 C       -2.6930    -2.2420     0.0580 C.ar  1 <1>   0.1900 
  8 C        2.2190    -4.0010    -0.2490 C.2   1 <1>   0.6900 
  9 C       -2.1690    -3.1950    -0.7970 C.ar  1 <1>  -0.1500 
 10 F       -3.9800    -2.0120     0.0340 F     1 <1>  -0.1900 
 11 O        1.7310    -5.0230    -0.6940 O.2   1 <1>  -0.5700 
 12 N        3.5790    -3.8850    -0.1140 N.am  1 <1>  -0.6600 
 13 C        4.2770    -2.5770     0.0860 C.3   1 <1>   0.1400 
 14 C        4.4420    -5.0920    -0.3010 C.3   1 <1>   0.1400 
 15 C        5.6630    -2.5870    -0.5760 C.3   1 <1>  -0.0800 
 16 C        5.7650    -4.9390     0.4640 C.3   1 <1>  -0.0800 
 17 C        6.5620    -3.7050    -0.0080 C.3   1 <1>  -0.1600 
 18 C        6.3510    -1.2210    -0.4440 C.3   1 <1>  -0.2400 
 19 C        6.6180    -6.2090     0.3550 C.3   1 <1>  -0.2400 
 20 H       -2.3300    -0.7850     1.5890 H     1 <1>   0.1500 
 21 H        1.9320    -2.2940     0.7290 H     1 <1>   0.3700 
 22 H       -0.3980    -4.1800    -1.4460 H     1 <1>   0.1500 
 23 H       -2.8170    -3.7330    -1.4660 H     1 <1>   0.1500 
 24 H        4.3820    -2.3940     1.1420 H     1 <1>   0.0800 
 25 H        3.6920    -1.7830    -0.3460 H     1 <1>   0.0800 
 26 H        4.6360    -5.2240    -1.3520 H     1 <1>   0.0800 
 27 H        3.9200    -5.9640     0.0550 H     1 <1>   0.0800 
 28 H        5.5110    -2.7740    -1.6260 H     1 <1>   0.0800 
 29 H        5.5130    -4.8050     1.5030 H     1 <1>   0.0800 
 30 H        7.1310    -3.3370     0.8280 H     1 <1>   0.0800 
 31 H        7.2640    -3.9860    -0.7740 H     1 <1>   0.0800 
 32 H        6.5020    -0.9690     0.5910 H     1 <1>   0.0800 
 33 H        5.7510    -0.4540    -0.9010 H     1 <1>   0.0800 
 34 H        7.3080    -1.2390    -0.9360 H     1 <1>   0.0800 
 35 H        6.8730    -6.4100    -0.6710 H     1 <1>   0.0800 
 36 H        6.0790    -7.0550     0.7450 H     1 <1>   0.0800 
 37 H        7.5270    -6.0980     0.9210 H     1 <1>   0.0800 
@<TRIPOS>BOND
  1   1   2  1   
  2   2   3  ar  
  3   2   4  ar  
  4   3   5  1   
  5   3   6  ar  
  6   4   7  ar  
  7   4  20  1   
  8   5   8  am  
  9   5  21  1   
 10   6   9  ar  
 11   6  22  1   
 12   7   9  ar  
 13   7  10  1   
 14   8  11  2   
 15   8  12  am  
 16   9  23  1   
 17  12  13  1   
 18  12  14  1   
 19  13  15  1   
 20  13  24  1   
 21  13  25  1   
 22  14  16  1   
 23  14  26  1   
 24  14  27  1   
 25  15  17  1   
 26  15  18  1   
 27  15  28  1   
 28  16  17  1   
 29  16  19  1   
 30  16  29  1   
 31  17  30  1   
 32  17  31  1   
 33  18  32  1   
 34  18  33  1   
 35  18  34  1   
 36  19  35  1   
 37  19  36  1   
 38  19  37  1   
@<TRIPOS>SUBSTRUCTURE
  1 ****   5 GROUP 4 **** **** 0

# MOE 2024.06 (io_trps.svl 2023.06)
