@<TRIPOS>MOLECULE
NONAME
54 56 1 0 0 
SMALL
USER_CHARGES


@<TRIPOS>ATOM
  1 O        0.0680    -1.3630     2.9270 O.3   1 <1>  -0.3630 
  2 C       -0.1970    -2.0990     1.8200 C.ar  1 <1>   0.0830 
  3 C        1.3520    -0.8270     3.1660 C.3   1 <1>   0.0400 
  4 C        0.7100    -2.3050     0.7860 C.ar  1 <1>  -0.1500 
  5 C       -1.4610    -2.6610     1.7510 C.ar  1 <1>  -0.1500 
  6 C        0.3400    -3.0760    -0.3110 C.ar  1 <1>   0.0830 
  7 C       -1.8380    -3.4230     0.6560 C.ar  1 <1>  -0.1430 
  8 O        1.1510    -3.3300    -1.3670 O.3   1 <1>  -0.3630 
  9 C       -0.9270    -3.6310    -0.3680 C.ar  1 <1>  -0.1500 
 10 C       -3.2320    -4.0070     0.5730 C.3   1 <1>   0.4860 
 11 C        2.4940    -2.8990    -1.3870 C.3   1 <1>   0.0400 
 12 N       -4.0130    -3.2040    -0.4040 N.4   1 <1>  -0.9590 
 13 C       -4.1630    -1.7680     0.0430 C.3   1 <1>   0.3430 
 14 C       -5.3550    -3.8230    -0.7010 C.3   1 <1>   0.3430 
 15 C       -4.9630    -0.9090    -0.9580 C.3   1 <1>   0.2090 
 16 C       -6.1670    -3.0110    -1.7310 C.3   1 <1>   0.2090 
 17 N       -6.2400    -1.5700    -1.3600 N.pl3 1 <1>  -0.8380 
 18 C       -7.4200    -1.1210    -0.7680 C.ar  1 <1>   0.1000 
 19 C       -8.3770    -0.4360    -1.5170 C.ar  1 <1>  -0.1430 
 20 C       -7.6630    -1.3580     0.5820 C.ar  1 <1>  -0.1500 
 21 C       -9.5450    -0.0070    -0.9100 C.ar  1 <1>  -0.1500 
 22 C       -8.1530    -0.1500    -2.9950 C.3   1 <1>  -0.0970 
 23 C       -8.8300    -0.9280     1.1880 C.ar  1 <1>  -0.1430 
 24 C       -9.7720    -0.2510     0.4330 C.ar  1 <1>  -0.1500 
 25 C       -9.0940    -1.1870     2.6600 C.3   1 <1>  -0.0970 
 26 H        1.3320    -0.3250     4.1170 H     1 <1>   0.0800 
 27 H        1.5890    -0.1240     2.3880 H     1 <1>   0.0800 
 28 H        2.0670    -1.6300     3.1930 H     1 <1>   0.0800 
 29 H        1.6870    -1.8710     0.8340 H     1 <1>   0.1500 
 30 H       -2.1340    -2.4870     2.5720 H     1 <1>   0.1500 
 31 H       -1.1740    -4.2280    -1.2280 H     1 <1>   0.1500 
 32 H       -3.7020    -3.9820     1.5420 H     1 <1>   0.0800 
 33 H       -3.1680    -5.0330     0.2480 H     1 <1>   0.0800 
 34 H        2.9440    -3.2480    -2.2990 H     1 <1>   0.0800 
 35 H        3.0110    -3.3200    -0.5430 H     1 <1>   0.0800 
 36 H        2.5180    -1.8240    -1.3580 H     1 <1>   0.0800 
 37 H       -3.4670    -3.1800    -1.2740 H     1 <1>   0.4500 
 38 H       -3.1910    -1.3200     0.1800 H     1 <1>   0.0800 
 39 H       -4.6720    -1.7370     0.9910 H     1 <1>   0.0800 
 40 H       -5.9340    -3.8790     0.2060 H     1 <1>   0.0800 
 41 H       -5.2250    -4.8260    -1.0730 H     1 <1>   0.0800 
 42 H       -4.3700    -0.7280    -1.8370 H     1 <1>   0.0800 
 43 H       -5.1810     0.0480    -0.5130 H     1 <1>   0.0800 
 44 H       -7.1650    -3.4130    -1.7950 H     1 <1>   0.0800 
 45 H       -5.7190    -3.1010    -2.7050 H     1 <1>   0.0800 
 46 H       -6.9350    -1.8850     1.1620 H     1 <1>   0.1500 
 47 H      -10.2900     0.5220    -1.4780 H     1 <1>   0.1500 
 48 H       -8.0700    -1.0740    -3.5360 H     1 <1>   0.0800 
 49 H       -7.2450     0.4100    -3.1230 H     1 <1>   0.0800 
 50 H       -8.9660     0.4190    -3.4090 H     1 <1>   0.0800 
 51 H      -10.6870     0.0900     0.8870 H     1 <1>   0.1500 
 52 H       -8.2110    -1.5490     3.1550 H     1 <1>   0.0800 
 53 H       -9.8760    -1.9170     2.7670 H     1 <1>   0.0800 
 54 H       -9.4040    -0.2770     3.1420 H     1 <1>   0.0800 
@<TRIPOS>BOND
  1   1   2  1   
  2   1   3  1   
  3   2   4  ar  
  4   2   5  ar  
  5   3  26  1   
  6   3  27  1   
  7   3  28  1   
  8   4   6  ar  
  9   4  29  1   
 10   5   7  ar  
 11   5  30  1   
 12   6   8  1   
 13   6   9  ar  
 14   7   9  ar  
 15   7  10  1   
 16   8  11  1   
 17   9  31  1   
 18  10  12  1   
 19  10  32  1   
 20  10  33  1   
 21  11  34  1   
 22  11  35  1   
 23  11  36  1   
 24  12  13  1   
 25  12  14  1   
 26  12  37  1   
 27  13  15  1   
 28  13  38  1   
 29  13  39  1   
 30  14  16  1   
 31  14  40  1   
 32  14  41  1   
 33  15  17  1   
 34  15  42  1   
 35  15  43  1   
 36  16  17  1   
 37  16  44  1   
 38  16  45  1   
 39  17  18  1   
 40  18  19  ar  
 41  18  20  ar  
 42  19  21  ar  
 43  19  22  1   
 44  20  23  ar  
 45  20  46  1   
 46  21  24  ar  
 47  21  47  1   
 48  22  48  1   
 49  22  49  1   
 50  22  50  1   
 51  23  24  ar  
 52  23  25  1   
 53  24  51  1   
 54  25  52  1   
 55  25  53  1   
 56  25  54  1   
@<TRIPOS>SUBSTRUCTURE
  1 ****  13 GROUP 4 **** **** 0

# MOE 2024.06 (io_trps.svl 2023.06)
