@<TRIPOS>MOLECULE
NONAME
37 38 1 0 0 
SMALL
USER_CHARGES


@<TRIPOS>ATOM
  1 BR       1.3530    -0.6300    -1.2410 Br    1 <1>  -0.1110 
  2 C        0.3740    -1.9860    -0.2830 C.ar  1 <1>   0.1110 
  3 C        0.7260    -2.3240     1.0100 C.ar  1 <1>   0.1900 
  4 C       -0.6870    -2.6070    -0.9170 C.ar  1 <1>  -0.1500 
  5 F        1.7270    -1.7270     1.6000 F     1 <1>  -0.1900 
  6 C        0.0260    -3.2970     1.6970 C.ar  1 <1>  -0.1500 
  7 C       -1.4090    -3.5790    -0.2300 C.ar  1 <1>  -0.1440 
  8 C       -1.0420    -3.9240     1.0700 C.ar  1 <1>  -0.1500 
  9 C       -2.5880    -4.2650    -0.8980 C.3   1 <1>   0.4870 
 10 N       -3.8510    -3.7180    -0.3020 N.4   1 <1>  -0.9590 
 11 C       -5.0180    -4.6090    -0.6580 C.3   1 <1>   0.3430 
 12 C       -4.0570    -2.3080    -0.7490 C.3   1 <1>   0.3430 
 13 C       -6.3540    -4.3440     0.1000 C.3   1 <1>   0.3430 
 14 C       -4.7510    -1.4620     0.3200 C.3   1 <1>  -0.1600 
 15 N       -6.8050    -2.9020     0.2060 N.4   1 <1>  -0.9590 
 16 C       -5.9180    -2.0870     1.0880 C.3   1 <1>   0.3430 
 17 C       -8.2020    -2.8660     0.7620 C.3   1 <1>   0.2630 
 18 H       -0.9200    -2.3230    -1.9290 H     1 <1>   0.1500 
 19 H        0.3210    -3.5550     2.7010 H     1 <1>   0.1500 
 20 H       -1.5680    -4.6920     1.6140 H     1 <1>   0.1500 
 21 H       -2.5170    -5.3260    -0.7210 H     1 <1>   0.0800 
 22 H       -2.5640    -4.0950    -1.9630 H     1 <1>   0.0800 
 23 H       -3.6660    -3.7190     0.7110 H     1 <1>   0.4500 
 24 H       -4.7440    -5.6370    -0.4760 H     1 <1>   0.0800 
 25 H       -5.2110    -4.5270    -1.7160 H     1 <1>   0.0800 
 26 H       -4.6360    -2.2980    -1.6580 H     1 <1>   0.0800 
 27 H       -3.1080    -1.8450    -0.9700 H     1 <1>   0.0800 
 28 H       -6.2630    -4.7520     1.0940 H     1 <1>   0.0800 
 29 H       -7.1260    -4.9140    -0.3930 H     1 <1>   0.0800 
 30 H       -5.1000    -0.5590    -0.1500 H     1 <1>   0.0800 
 31 H       -4.0130    -1.1490     1.0380 H     1 <1>   0.0800 
 32 H       -6.8610    -2.4620    -0.7260 H     1 <1>   0.4500 
 33 H       -6.4870    -1.2880     1.5400 H     1 <1>   0.0800 
 34 H       -5.5420    -2.7030     1.8890 H     1 <1>   0.0800 
 35 H       -8.2300    -3.2970     1.7510 H     1 <1>   0.0800 
 36 H       -8.8770    -3.4190     0.1280 H     1 <1>   0.0800 
 37 H       -8.5570    -1.8490     0.8240 H     1 <1>   0.0800 
@<TRIPOS>BOND
  1   1   2  1   
  2   2   3  ar  
  3   2   4  ar  
  4   3   5  1   
  5   3   6  ar  
  6   4   7  ar  
  7   4  18  1   
  8   6   8  ar  
  9   6  19  1   
 10   7   8  ar  
 11   7   9  1   
 12   8  20  1   
 13   9  10  1   
 14   9  21  1   
 15   9  22  1   
 16  10  11  1   
 17  10  12  1   
 18  10  23  1   
 19  11  13  1   
 20  11  24  1   
 21  11  25  1   
 22  12  14  1   
 23  12  26  1   
 24  12  27  1   
 25  13  15  1   
 26  13  28  1   
 27  13  29  1   
 28  14  16  1   
 29  14  30  1   
 30  14  31  1   
 31  15  16  1   
 32  15  17  1   
 33  15  32  1   
 34  16  33  1   
 35  16  34  1   
 36  17  35  1   
 37  17  36  1   
 38  17  37  1   
@<TRIPOS>SUBSTRUCTURE
  1 ****  10 GROUP 4 **** **** 0

# MOE 2024.06 (io_trps.svl 2023.06)
