@<TRIPOS>MOLECULE
NONAME
45 46 1 0 0 
SMALL
USER_CHARGES


@<TRIPOS>ATOM
  1 S       -0.0590    -0.8240     1.3470 S.o2  1 <1>   1.4470 
  2 O       -0.2540     0.6110     1.3260 O.2   1 <1>  -0.6500 
  3 O       -0.1980    -1.5130     2.6130 O.2   1 <1>  -0.6500 
  4 N       -1.2090    -1.5190     0.3110 N.am  1 <1>  -0.8490 
  5 C        1.5430    -1.2400     0.6100 C.ar  1 <1>  -0.0090 
  6 C       -2.5590    -1.0150     0.5940 C.3   1 <1>   0.1960 
  7 C       -1.1800    -2.9830     0.3530 C.3   1 <1>   0.1960 
  8 C        1.8890    -0.8190    -0.6710 C.ar  1 <1>   0.0820 
  9 C        2.4730    -1.9980     1.3120 C.ar  1 <1>  -0.1500 
 10 C       -3.5420    -1.5000    -0.4790 C.3   1 <1>  -0.0190 
 11 C       -2.1040    -3.5560    -0.7270 C.3   1 <1>  -0.1600 
 12 O        1.0250    -0.0920    -1.4090 O.3   1 <1>  -0.3630 
 13 C        3.1140    -1.1520    -1.2310 C.ar  1 <1>  -0.1500 
 14 C        3.7010    -2.3350     0.7680 C.ar  1 <1>   0.0820 
 15 C       -4.9320    -0.9570    -0.1880 C.2   1 <1>   0.5690 
 16 C       -3.5400    -3.0380    -0.5650 C.3   1 <1>  -0.1600 
 17 C        1.2690     1.2950    -1.4720 C.3   1 <1>   0.0400 
 18 C        4.0230    -1.9080    -0.5160 C.ar  1 <1>  -0.1500 
 19 O        4.5270    -3.0800     1.5460 O.3   1 <1>  -0.3630 
 20 O       -5.4230    -1.1410     0.9000 O.2   1 <1>  -0.5700 
 21 N       -5.5870    -0.2780    -1.1680 N.am  1 <1>  -0.7300 
 22 C        5.8080    -3.4620     1.0950 C.3   1 <1>   0.0400 
 23 C       -6.9420     0.3140    -1.0380 C.3   1 <1>   0.0600 
 24 H       -2.5550     0.0630     0.5910 H     1 <1>   0.0800 
 25 H       -2.8780    -1.3440     1.5700 H     1 <1>   0.0800 
 26 H       -1.4920    -3.3310     1.3260 H     1 <1>   0.0800 
 27 H       -0.1770    -3.3340     0.1750 H     1 <1>   0.0800 
 28 H        2.2440    -2.3380     2.3070 H     1 <1>   0.1500 
 29 H       -3.2120    -1.1010    -1.4200 H     1 <1>   0.0800 
 30 H       -2.0980    -4.6290    -0.6680 H     1 <1>   0.0800 
 31 H       -1.7200    -3.2760    -1.6920 H     1 <1>   0.0800 
 32 H        3.3460    -0.8220    -2.2280 H     1 <1>   0.1500 
 33 H       -4.1460    -3.3620    -1.3930 H     1 <1>   0.0800 
 34 H       -3.9650    -3.4440     0.3380 H     1 <1>   0.0800 
 35 H        0.4710     1.7510    -2.0290 H     1 <1>   0.0800 
 36 H        2.2090     1.4660    -1.9650 H     1 <1>   0.0800 
 37 H        1.2910     1.6940    -0.4730 H     1 <1>   0.0800 
 38 H        4.9640    -2.1530    -0.9700 H     1 <1>   0.1500 
 39 H       -5.1310    -0.1480    -2.0740 H     1 <1>   0.3700 
 40 H        6.2780    -4.0330     1.8750 H     1 <1>   0.0800 
 41 H        6.3850    -2.5770     0.8920 H     1 <1>   0.0800 
 42 H        5.7020    -4.0670     0.2120 H     1 <1>   0.0800 
 43 H       -7.3400     0.1270    -0.0540 H     1 <1>   0.0800 
 44 H       -7.6020    -0.1210    -1.7670 H     1 <1>   0.0800 
 45 H       -6.8910     1.3780    -1.1930 H     1 <1>   0.0800 
@<TRIPOS>BOND
  1   1   2  2   
  2   1   3  2   
  3   1   4  am  
  4   1   5  1   
  5   4   6  1   
  6   4   7  1   
  7   5   8  ar  
  8   5   9  ar  
  9   6  10  1   
 10   6  24  1   
 11   6  25  1   
 12   7  11  1   
 13   7  26  1   
 14   7  27  1   
 15   8  12  1   
 16   8  13  ar  
 17   9  14  ar  
 18   9  28  1   
 19  10  15  1   
 20  10  16  1   
 21  10  29  1   
 22  11  16  1   
 23  11  30  1   
 24  11  31  1   
 25  12  17  1   
 26  13  18  ar  
 27  13  32  1   
 28  14  18  ar  
 29  14  19  1   
 30  15  20  2   
 31  15  21  am  
 32  16  33  1   
 33  16  34  1   
 34  17  35  1   
 35  17  36  1   
 36  17  37  1   
 37  18  38  1   
 38  19  22  1   
 39  21  23  1   
 40  21  39  1   
 41  22  40  1   
 42  22  41  1   
 43  22  42  1   
 44  23  43  1   
 45  23  44  1   
 46  23  45  1   
@<TRIPOS>SUBSTRUCTURE
  1 ****   4 GROUP 4 **** **** 0

# MOE 2024.06 (io_trps.svl 2023.06)
