@<TRIPOS>MOLECULE
NONAME
36 37 1 0 0 
SMALL
USER_CHARGES


@<TRIPOS>ATOM
  1 O       -1.5490     0.6240     3.0970 O.2   1 <1>  -0.5700 
  2 C       -2.0740     0.8290     2.0230 C.2   1 <1>   0.7060 
  3 O       -3.4080     0.9200     1.9680 O.3   1 <1>  -0.2320 
  4 C       -1.3370     0.9810     0.8100 C.2   1 <1>  -0.1360 
  5 C       -4.0800     1.1510     0.8160 C.ar  1 <1>   0.0830 
  6 C       -1.9590     1.2130    -0.3660 C.2   1 <1>  -0.1780 
  7 C       -3.3830     1.3080    -0.3910 C.ar  1 <1>   0.0280 
  8 C       -5.4630     1.2300     0.8560 C.ar  1 <1>  -0.1500 
  9 C       -4.1160     1.5480    -1.5520 C.ar  1 <1>  -0.1500 
 10 C       -6.1780     1.4680    -0.3110 C.ar  1 <1>   0.0830 
 11 C       -5.4930     1.6270    -1.5090 C.ar  1 <1>  -0.1500 
 12 O       -7.5270     1.5570    -0.3770 O.3   1 <1>  -0.3620 
 13 C       -8.3690     1.3830     0.7570 C.3   1 <1>   0.2610 
 14 C       -8.3920    -0.0700     1.2740 C.2   1 <1>   0.6590 
 15 C       -9.7780     1.9040     0.4090 C.3   1 <1>  -0.1600 
 16 O       -8.1940    -0.2800     2.4420 O.2   1 <1>  -0.5700 
 17 O       -8.6780    -1.0950     0.4710 O.3   1 <1>  -0.4300 
 18 C       -9.7850     3.3760    -0.0300 C.3   1 <1>  -0.2400 
 19 C       -8.4800    -1.1310    -0.9230 C.3   1 <1>   0.1200 
 20 C       -8.9140    -2.5060    -1.4200 C.3   1 <1>  -0.2400 
 21 H       -0.2700     0.8990     0.8980 H     1 <1>   0.1500 
 22 H       -1.4230     1.3310    -1.2930 H     1 <1>   0.1500 
 23 H       -5.9420     1.1010     1.8090 H     1 <1>   0.1500 
 24 H       -3.6000     1.6730    -2.4870 H     1 <1>   0.1500 
 25 H       -6.0540     1.8150    -2.4080 H     1 <1>   0.1500 
 26 H       -7.9770     2.0070     1.5400 H     1 <1>   0.0800 
 27 H      -10.4000     1.8030     1.2820 H     1 <1>   0.0800 
 28 H      -10.2120     1.2950    -0.3630 H     1 <1>   0.0800 
 29 H       -9.2160     3.5060    -0.9340 H     1 <1>   0.0800 
 30 H       -9.3620     4.0010     0.7370 H     1 <1>   0.0800 
 31 H      -10.7940     3.7000    -0.2160 H     1 <1>   0.0800 
 32 H       -7.4340    -0.9700    -1.1240 H     1 <1>   0.0800 
 33 H       -9.0670    -0.3590    -1.3870 H     1 <1>   0.0800 
 34 H       -8.3260    -3.2720    -0.9470 H     1 <1>   0.0800 
 35 H       -8.7710    -2.5710    -2.4830 H     1 <1>   0.0800 
 36 H       -9.9540    -2.6670    -1.2020 H     1 <1>   0.0800 
@<TRIPOS>BOND
  1   1   2  2   
  2   2   3  1   
  3   2   4  1   
  4   3   5  1   
  5   4   6  2   
  6   4  21  1   
  7   5   7  ar  
  8   5   8  ar  
  9   6   7  1   
 10   6  22  1   
 11   7   9  ar  
 12   8  10  ar  
 13   8  23  1   
 14   9  11  ar  
 15   9  24  1   
 16  10  11  ar  
 17  10  12  1   
 18  11  25  1   
 19  12  13  1   
 20  13  14  1   
 21  13  15  1   
 22  13  26  1   
 23  14  16  2   
 24  14  17  1   
 25  15  18  1   
 26  15  27  1   
 27  15  28  1   
 28  17  19  1   
 29  18  29  1   
 30  18  30  1   
 31  18  31  1   
 32  19  20  1   
 33  19  32  1   
 34  19  33  1   
 35  20  34  1   
 36  20  35  1   
 37  20  36  1   
@<TRIPOS>SUBSTRUCTURE
  1 ****   8 GROUP 4 **** **** 0

# MOE 2024.06 (io_trps.svl 2023.06)
