@<TRIPOS>MOLECULE
NONAME
37 37 1 0 0 
SMALL
USER_CHARGES


@<TRIPOS>ATOM
  1 O        0.4810    -1.0160    -0.6660 O.3   1 <1>  -0.5600 
  2 C        0.4240    -1.0120     0.7390 C.3   1 <1>   0.1200 
  3 C       -0.4420    -0.1590    -1.2690 C.3   1 <1>   0.0400 
  4 C        1.3120    -2.1530     1.2920 C.3   1 <1>   0.4230 
  5 N        2.3280    -2.5160     0.2760 N.4   1 <1>  -0.9060 
  6 C        0.4850    -3.4100     1.5390 C.3   1 <1>  -0.2400 
  7 C        3.6920    -1.9670     0.4320 C.3   1 <1>   0.4230 
  8 C        3.6990    -0.4470     0.2340 C.3   1 <1>  -0.1600 
  9 C        4.5940    -2.6420    -0.6030 C.3   1 <1>  -0.1600 
 10 C        5.1220     0.1150     0.2370 C.3   1 <1>   0.3430 
 11 C        6.0080    -2.0600    -0.5790 C.3   1 <1>   0.3430 
 12 N        5.9510    -0.5850    -0.7860 N.4   1 <1>  -0.9590 
 13 C        7.3370    -0.0110    -0.8110 C.3   1 <1>   0.2630 
 14 H       -0.5980    -1.1370     1.0560 H     1 <1>   0.0800 
 15 H        0.7750    -0.0560     1.0890 H     1 <1>   0.0800 
 16 H       -0.2690     0.8520    -0.9380 H     1 <1>   0.0800 
 17 H       -1.4410    -0.4700    -1.0150 H     1 <1>   0.0800 
 18 H       -0.3130    -0.2150    -2.3370 H     1 <1>   0.0800 
 19 H        1.7730    -1.8530     2.2200 H     1 <1>   0.0800 
 20 H        1.8950    -2.1610    -0.5990 H     1 <1>   0.4500 
 21 H        2.3390    -3.5380     0.1930 H     1 <1>   0.4500 
 22 H       -0.0120    -3.7310     0.6390 H     1 <1>   0.0800 
 23 H       -0.2710    -3.2060     2.2770 H     1 <1>   0.0800 
 24 H        1.0990    -4.2080     1.9180 H     1 <1>   0.0800 
 25 H        4.0600    -2.2000     1.4200 H     1 <1>   0.0800 
 26 H        3.1600     0.0300     1.0330 H     1 <1>   0.0800 
 27 H        3.2230    -0.1840    -0.6950 H     1 <1>   0.0800 
 28 H        4.1890    -2.5240    -1.5930 H     1 <1>   0.0800 
 29 H        4.6620    -3.6950    -0.3910 H     1 <1>   0.0800 
 30 H        5.5640    -0.0160     1.2120 H     1 <1>   0.0800 
 31 H        5.0920     1.1730     0.0240 H     1 <1>   0.0800 
 32 H        6.6000    -2.5180    -1.3570 H     1 <1>   0.0800 
 33 H        6.4780    -2.2770     0.3680 H     1 <1>   0.0800 
 34 H        5.5400    -0.4030    -1.7170 H     1 <1>   0.4500 
 35 H        7.8290    -0.1660     0.1360 H     1 <1>   0.0800 
 36 H        7.3020     1.0490    -1.0100 H     1 <1>   0.0800 
 37 H        7.9250    -0.4810    -1.5840 H     1 <1>   0.0800 
@<TRIPOS>BOND
  1   1   2  1   
  2   1   3  1   
  3   2   4  1   
  4   2  14  1   
  5   2  15  1   
  6   3  16  1   
  7   3  17  1   
  8   3  18  1   
  9   4   5  1   
 10   4   6  1   
 11   4  19  1   
 12   5   7  1   
 13   5  20  1   
 14   5  21  1   
 15   6  22  1   
 16   6  23  1   
 17   6  24  1   
 18   7   8  1   
 19   7   9  1   
 20   7  25  1   
 21   8  10  1   
 22   8  26  1   
 23   8  27  1   
 24   9  11  1   
 25   9  28  1   
 26   9  29  1   
 27  10  12  1   
 28  10  30  1   
 29  10  31  1   
 30  11  12  1   
 31  11  32  1   
 32  11  33  1   
 33  12  13  1   
 34  12  34  1   
 35  13  35  1   
 36  13  36  1   
 37  13  37  1   
@<TRIPOS>SUBSTRUCTURE
  1 ****   7 GROUP 4 **** **** 0

# MOE 2024.06 (io_trps.svl 2023.06)
