@<TRIPOS>MOLECULE
NONAME
53 55 1 0 0 
SMALL
USER_CHARGES


@<TRIPOS>ATOM
  1 O       -2.2170    -0.4320     1.4310 O.3   1 <1>  -0.3630 
  2 C       -2.4520     0.6180     0.5930 C.ar  1 <1>   0.0820 
  3 C       -1.0260    -0.5670     2.1740 C.3   1 <1>   0.0400 
  4 C       -1.6700     1.7710     0.4310 C.ar  1 <1>   0.0820 
  5 C       -3.6070     0.4870    -0.1590 C.ar  1 <1>  -0.1500 
  6 O       -0.5320     2.0090     1.1220 O.3   1 <1>  -0.5330 
  7 C       -2.0530     2.7550    -0.4780 C.ar  1 <1>   0.0820 
  8 C       -4.0080     1.4700    -1.0500 C.ar  1 <1>  -0.1430 
  9 O       -1.2390     3.8460    -0.5950 O.3   1 <1>  -0.3630 
 10 C       -3.2240     2.6020    -1.2150 C.ar  1 <1>  -0.1500 
 11 C       -5.3040     1.3040    -1.8190 C.3   1 <1>   0.4860 
 12 C       -1.3910     4.7770    -1.6460 C.3   1 <1>   0.0400 
 13 N       -6.4330     1.3580    -0.8510 N.4   1 <1>  -0.9590 
 14 C       -7.7200     0.9640    -1.4860 C.3   1 <1>   0.3430 
 15 C       -6.5200     2.6850    -0.1720 C.3   1 <1>   0.3430 
 16 C       -8.8120     0.8840    -0.4200 C.3   1 <1>  -0.1600 
 17 C       -7.5930     2.6360     0.9160 C.3   1 <1>  -0.1600 
 18 C       -8.9580     2.2070     0.3530 C.3   1 <1>  -0.0800 
 19 C      -10.0060     2.1040     1.4780 C.3   1 <1>  -0.0170 
 20 C      -11.3700     1.7070     0.9330 C.ar  1 <1>  -0.1430 
 21 C      -12.1420     2.6310     0.2460 C.ar  1 <1>  -0.1500 
 22 C      -11.8510     0.4180     1.1120 C.ar  1 <1>  -0.1500 
 23 C      -13.3760     2.2690    -0.2660 C.ar  1 <1>  -0.1500 
 24 C      -13.0850     0.0550     0.6000 C.ar  1 <1>  -0.1500 
 25 C      -13.8470     0.9800    -0.0910 C.ar  1 <1>  -0.1500 
 26 H       -1.0520    -1.5130     2.6840 H     1 <1>   0.0800 
 27 H       -0.9690     0.2320     2.8910 H     1 <1>   0.0800 
 28 H       -0.1880    -0.5370     1.5000 H     1 <1>   0.0800 
 29 H       -4.1830    -0.4120    -0.0250 H     1 <1>   0.1500 
 30 H       -0.1610     2.8700     0.8380 H     1 <1>   0.4500 
 31 H       -3.5270     3.3620    -1.9120 H     1 <1>   0.1500 
 32 H       -5.2950     0.3510    -2.3250 H     1 <1>   0.0800 
 33 H       -5.4050     2.0830    -2.5560 H     1 <1>   0.0800 
 34 H       -0.5790     5.4800    -1.5890 H     1 <1>   0.0800 
 35 H       -2.3250     5.2950    -1.5260 H     1 <1>   0.0800 
 36 H       -1.3530     4.2550    -2.5860 H     1 <1>   0.0800 
 37 H       -6.2180     0.6730    -0.1160 H     1 <1>   0.4500 
 38 H       -7.6210     0.0040    -1.9670 H     1 <1>   0.0800 
 39 H       -8.0010     1.6920    -2.2310 H     1 <1>   0.0800 
 40 H       -6.7690     3.4490    -0.8900 H     1 <1>   0.0800 
 41 H       -5.5710     2.9360     0.2770 H     1 <1>   0.0800 
 42 H       -8.5930     0.0770     0.2570 H     1 <1>   0.0800 
 43 H       -9.7400     0.6470    -0.9110 H     1 <1>   0.0800 
 44 H       -7.6780     3.6130     1.3600 H     1 <1>   0.0800 
 45 H       -7.2780     1.9580     1.6910 H     1 <1>   0.0800 
 46 H       -9.2910     2.9650    -0.3370 H     1 <1>   0.0800 
 47 H      -10.0990     3.0540     1.9770 H     1 <1>   0.0800 
 48 H       -9.6890     1.3860     2.2150 H     1 <1>   0.0800 
 49 H      -11.7910     3.6380     0.1070 H     1 <1>   0.1500 
 50 H      -11.2720    -0.3110     1.6500 H     1 <1>   0.1500 
 51 H      -13.9710     2.9900    -0.7990 H     1 <1>   0.1500 
 52 H      -13.4540    -0.9460     0.7410 H     1 <1>   0.1500 
 53 H      -14.8060     0.6980    -0.4890 H     1 <1>   0.1500 
@<TRIPOS>BOND
  1   1   2  1   
  2   1   3  1   
  3   2   4  ar  
  4   2   5  ar  
  5   3  26  1   
  6   3  27  1   
  7   3  28  1   
  8   4   6  1   
  9   4   7  ar  
 10   5   8  ar  
 11   5  29  1   
 12   6  30  1   
 13   7   9  1   
 14   7  10  ar  
 15   8  10  ar  
 16   8  11  1   
 17   9  12  1   
 18  10  31  1   
 19  11  13  1   
 20  11  32  1   
 21  11  33  1   
 22  12  34  1   
 23  12  35  1   
 24  12  36  1   
 25  13  14  1   
 26  13  15  1   
 27  13  37  1   
 28  14  16  1   
 29  14  38  1   
 30  14  39  1   
 31  15  17  1   
 32  15  40  1   
 33  15  41  1   
 34  16  18  1   
 35  16  42  1   
 36  16  43  1   
 37  17  18  1   
 38  17  44  1   
 39  17  45  1   
 40  18  19  1   
 41  18  46  1   
 42  19  20  1   
 43  19  47  1   
 44  19  48  1   
 45  20  21  ar  
 46  20  22  ar  
 47  21  23  ar  
 48  21  49  1   
 49  22  24  ar  
 50  22  50  1   
 51  23  25  ar  
 52  23  51  1   
 53  24  25  ar  
 54  24  52  1   
 55  25  53  1   
@<TRIPOS>SUBSTRUCTURE
  1 ****  13 GROUP 4 **** **** 0

# MOE 2024.06 (io_trps.svl 2023.06)
