@<TRIPOS>MOLECULE
NONAME
47 48 1 0 0 
SMALL
USER_CHARGES


@<TRIPOS>ATOM
  1 O       -4.7250     3.3790    -0.6320 O.3   1 <1>  -0.3630 
  2 C       -4.2400     2.1390    -0.9170 C.ar  1 <1>   0.0830 
  3 C       -3.9100     4.4220    -0.1270 C.3   1 <1>   0.2000 
  4 C       -5.1400     1.2080    -1.4310 C.ar  1 <1>  -0.1440 
  5 C       -2.9150     1.7670    -0.7070 C.ar  1 <1>  -0.1500 
  6 C       -3.7880     4.2680     1.3870 C.3   1 <1>  -0.1600 
  7 C       -4.6840     5.7250    -0.2850 C.3   1 <1>  -0.1600 
  8 C       -4.7130    -0.0760    -1.7320 C.ar  1 <1>  -0.1500 
  9 C       -6.5820     1.6020    -1.6600 C.3   1 <1>   0.4860 
 10 C       -2.4980     0.4840    -1.0080 C.ar  1 <1>  -0.1500 
 11 C       -5.0880     4.8360     1.9660 C.3   1 <1>  -0.1600 
 12 C       -5.6550     5.7840     0.9000 C.3   1 <1>  -0.1600 
 13 C       -3.3950    -0.4370    -1.5200 C.ar  1 <1>  -0.1500 
 14 N       -7.1120     2.0200    -0.3400 N.4   1 <1>  -0.9060 
 15 C       -8.4230     2.7400    -0.4040 C.3   1 <1>   0.3430 
 16 C       -8.8870     3.2910     0.9770 C.3   1 <1>   0.3430 
 17 N      -10.1650     4.0960     0.9410 N.4   1 <1>  -0.9590 
 18 C      -10.0450     5.3850     0.1750 C.3   1 <1>   0.2630 
 19 C      -10.6170     4.4090     2.3400 C.3   1 <1>   0.2630 
 20 H       -2.9700     4.4450    -0.6550 H     1 <1>   0.0800 
 21 H       -2.1880     2.4520    -0.3100 H     1 <1>   0.1500 
 22 H       -2.9650     4.8760     1.7230 H     1 <1>   0.0800 
 23 H       -3.6040     3.2530     1.6920 H     1 <1>   0.0800 
 24 H       -5.1730     5.7970    -1.2410 H     1 <1>   0.0800 
 25 H       -3.9870     6.5420    -0.2010 H     1 <1>   0.0800 
 26 H       -5.3890    -0.8130    -2.1360 H     1 <1>   0.1500 
 27 H       -7.1430     0.7720    -2.0590 H     1 <1>   0.0800 
 28 H       -6.6130     2.4220    -2.3600 H     1 <1>   0.0800 
 29 H       -1.4720     0.1980    -0.8470 H     1 <1>   0.1500 
 30 H       -4.8900     5.3590     2.8880 H     1 <1>   0.0800 
 31 H       -5.7800     4.0380     2.1650 H     1 <1>   0.0800 
 32 H       -6.6310     5.4610     0.5920 H     1 <1>   0.0800 
 33 H       -5.7240     6.7920     1.2760 H     1 <1>   0.0800 
 34 H       -3.0610    -1.4340    -1.7540 H     1 <1>   0.1500 
 35 H       -6.3470     2.6320     0.0080 H     1 <1>   0.4500 
 36 H       -7.1040     1.1870     0.2640 H     1 <1>   0.4500 
 37 H       -9.1760     2.0690    -0.7850 H     1 <1>   0.0800 
 38 H       -8.3280     3.5670    -1.0890 H     1 <1>   0.0800 
 39 H       -8.1030     3.9080     1.3840 H     1 <1>   0.0800 
 40 H       -9.0270     2.4540     1.6420 H     1 <1>   0.0800 
 41 H      -10.9270     3.5390     0.5140 H     1 <1>   0.4500 
 42 H       -9.2820     6.0120     0.6080 H     1 <1>   0.0800 
 43 H      -10.9800     5.9230     0.2030 H     1 <1>   0.0800 
 44 H       -9.7970     5.1980    -0.8570 H     1 <1>   0.0800 
 45 H       -9.8820     5.0110     2.8510 H     1 <1>   0.0800 
 46 H      -10.7680     3.5010     2.9020 H     1 <1>   0.0800 
 47 H      -11.5480     4.9540     2.3210 H     1 <1>   0.0800 
@<TRIPOS>BOND
  1   1   2  1   
  2   1   3  1   
  3   2   4  ar  
  4   2   5  ar  
  5   3   6  1   
  6   3   7  1   
  7   3  20  1   
  8   4   8  ar  
  9   4   9  1   
 10   5  10  ar  
 11   5  21  1   
 12   6  11  1   
 13   6  22  1   
 14   6  23  1   
 15   7  12  1   
 16   7  24  1   
 17   7  25  1   
 18   8  13  ar  
 19   8  26  1   
 20   9  14  1   
 21   9  27  1   
 22   9  28  1   
 23  10  13  ar  
 24  10  29  1   
 25  11  12  1   
 26  11  30  1   
 27  11  31  1   
 28  12  32  1   
 29  12  33  1   
 30  13  34  1   
 31  14  15  1   
 32  14  35  1   
 33  14  36  1   
 34  15  16  1   
 35  15  37  1   
 36  15  38  1   
 37  16  17  1   
 38  16  39  1   
 39  16  40  1   
 40  17  18  1   
 41  17  19  1   
 42  17  41  1   
 43  18  42  1   
 44  18  43  1   
 45  18  44  1   
 46  19  45  1   
 47  19  46  1   
 48  19  47  1   
@<TRIPOS>SUBSTRUCTURE
  1 ****   1 GROUP 4 **** **** 0

# MOE 2024.06 (io_trps.svl 2023.06)
