@<TRIPOS>MOLECULE
NONAME
43 44 1 0 0 
SMALL
USER_CHARGES


@<TRIPOS>ATOM
  1 O       -1.5260    -5.1230     1.0770 O.3   1 <1>  -0.5600 
  2 C       -1.9630    -6.4310     0.8200 C.3   1 <1>   0.1200 
  3 C       -1.0690    -4.4410    -0.0590 C.3   1 <1>   0.1200 
  4 C       -0.8430    -7.2690     0.1580 C.3   1 <1>   0.3430 
  5 C        0.1280    -5.1830    -0.6990 C.3   1 <1>   0.3430 
  6 N        0.4280    -6.4700     0.0320 N.4   1 <1>  -0.9590 
  7 C        1.5580    -7.2720    -0.5150 C.3   1 <1>   0.3430 
  8 C        2.9020    -6.5720    -0.2580 C.3   1 <1>  -0.1600 
  9 C        4.0810    -7.4540    -0.6910 C.3   1 <1>   0.3430 
 10 N        5.3620    -6.7600    -0.4020 N.4   1 <1>  -0.9060 
 11 C        6.5630    -7.5360    -0.7750 C.3   1 <1>   0.5430 
 12 C        7.7130    -6.6790    -0.4140 C.1   1 <1>  -0.2000 
 13 C        8.6270    -5.9770    -0.1170 C.1   1 <1>  -0.0730 
 14 C        9.7210    -5.1250     0.2420 C.ar  1 <1>   0.0730 
 15 C       10.2340    -4.2080    -0.6660 C.ar  1 <1>  -0.1500 
 16 C       10.2900    -5.1970     1.5070 C.ar  1 <1>  -0.1500 
 17 C       11.2860    -3.3790    -0.3190 C.ar  1 <1>  -0.1500 
 18 C       11.3420    -4.3710     1.8600 C.ar  1 <1>  -0.1500 
 19 C       11.8410    -3.4600     0.9460 C.ar  1 <1>  -0.1500 
 20 H       -2.8350    -6.3880     0.1890 H     1 <1>   0.0800 
 21 H       -2.2510    -6.8700     1.7600 H     1 <1>   0.0800 
 22 H       -0.7760    -3.4510     0.2470 H     1 <1>   0.0800 
 23 H       -1.8830    -4.3480    -0.7580 H     1 <1>   0.0800 
 24 H       -1.1780    -7.5920    -0.8140 H     1 <1>   0.0800 
 25 H       -0.6740    -8.1520     0.7530 H     1 <1>   0.0800 
 26 H        0.9860    -4.5320    -0.6770 H     1 <1>   0.0800 
 27 H       -0.1010    -5.3860    -1.7330 H     1 <1>   0.0800 
 28 H        0.6190    -6.1740     1.0040 H     1 <1>   0.4500 
 29 H        1.4130    -7.4300    -1.5730 H     1 <1>   0.0800 
 30 H        1.5660    -8.2370    -0.0320 H     1 <1>   0.0800 
 31 H        2.9890    -6.3660     0.7940 H     1 <1>   0.0800 
 32 H        2.9340    -5.6500    -0.8100 H     1 <1>   0.0800 
 33 H        4.0120    -7.6630    -1.7480 H     1 <1>   0.0800 
 34 H        4.0500    -8.3920    -0.1570 H     1 <1>   0.0800 
 35 H        5.4650    -6.5370     0.5970 H     1 <1>   0.4500 
 36 H        5.4370    -5.8610    -0.8960 H     1 <1>   0.4500 
 37 H        6.5760    -7.7430    -1.8340 H     1 <1>   0.0800 
 38 H        6.6090    -8.4650    -0.2290 H     1 <1>   0.0800 
 39 H        9.8120    -4.1390    -1.6520 H     1 <1>   0.1500 
 40 H        9.9110    -5.9040     2.2240 H     1 <1>   0.1500 
 41 H       11.6750    -2.6720    -1.0310 H     1 <1>   0.1500 
 42 H       11.7750    -4.4360     2.8440 H     1 <1>   0.1500 
 43 H       12.6600    -2.8160     1.2180 H     1 <1>   0.1500 
@<TRIPOS>BOND
  1   1   2  1   
  2   1   3  1   
  3   2   4  1   
  4   2  20  1   
  5   2  21  1   
  6   3   5  1   
  7   3  22  1   
  8   3  23  1   
  9   4   6  1   
 10   4  24  1   
 11   4  25  1   
 12   5   6  1   
 13   5  26  1   
 14   5  27  1   
 15   6   7  1   
 16   6  28  1   
 17   7   8  1   
 18   7  29  1   
 19   7  30  1   
 20   8   9  1   
 21   8  31  1   
 22   8  32  1   
 23   9  10  1   
 24   9  33  1   
 25   9  34  1   
 26  10  11  1   
 27  10  35  1   
 28  10  36  1   
 29  11  12  1   
 30  11  37  1   
 31  11  38  1   
 32  12  13  3   
 33  13  14  1   
 34  14  15  ar  
 35  14  16  ar  
 36  15  17  ar  
 37  15  39  1   
 38  16  18  ar  
 39  16  40  1   
 40  17  19  ar  
 41  17  41  1   
 42  18  19  ar  
 43  18  42  1   
 44  19  43  1   
@<TRIPOS>SUBSTRUCTURE
  1 ****  10 GROUP 4 **** **** 0

# MOE 2024.06 (io_trps.svl 2023.06)
