@<TRIPOS>MOLECULE
NONAME
42 43 1 0 0 
SMALL
USER_CHARGES


@<TRIPOS>ATOM
  1 S       -0.1670    -0.1320    -0.4180 S.o2  1 <1>   1.3330 
  2 O       -0.4270     1.2850    -0.2950 O.2   1 <1>  -0.6500 
  3 O        0.2160    -0.6810    -1.7000 O.2   1 <1>  -0.6500 
  4 N       -1.5580    -0.9590     0.0840 N.am  1 <1>  -0.8490 
  5 C        1.0400    -0.5990     0.8310 C.3   1 <1>  -0.0550 
  6 C       -2.7890    -0.1810    -0.1710 C.3   1 <1>   0.1960 
  7 C       -1.6350    -2.3300    -0.4180 C.3   1 <1>   0.1960 
  8 C        2.4370     0.0150     0.6280 C.3   1 <1>  -0.2400 
  9 C       -4.0740    -1.0350    -0.1600 C.3   1 <1>  -0.0190 
 10 C       -2.7160    -3.1110     0.3480 C.3   1 <1>  -0.1600 
 11 C       -5.2810    -0.1800     0.2050 C.2   1 <1>   0.5690 
 12 C       -3.9210    -2.2490     0.7730 C.3   1 <1>  -0.1600 
 13 O       -5.2780     0.4150     1.2540 O.2   1 <1>  -0.5700 
 14 N       -6.3280    -0.1470    -0.6710 N.am  1 <1>  -0.4940 
 15 C       -7.5470     0.5350    -0.6090 C.2   1 <1>   0.2040 
 16 O       -8.5450     0.0600    -1.3150 O.3   1 <1>  -0.0190 
 17 C       -7.9970     1.6390     0.0280 C.2   1 <1>  -0.1810 
 18 N       -9.6340     0.7670    -1.1720 N.2   1 <1>  -0.4100 
 19 C       -9.3320     1.7200    -0.3660 C.2   1 <1>   0.1080 
 20 C       -7.2780     2.6110     0.9510 C.3   1 <1>  -0.0590 
 21 C      -10.3230     2.7760     0.0740 C.3   1 <1>  -0.0590 
 22 H        1.1350    -1.6670     0.8410 H     1 <1>   0.0800 
 23 H        0.6700    -0.2990     1.7920 H     1 <1>   0.0800 
 24 H       -2.7170     0.3170    -1.1250 H     1 <1>   0.0800 
 25 H       -2.8520     0.5840     0.5870 H     1 <1>   0.0800 
 26 H       -0.6870    -2.8280    -0.2990 H     1 <1>   0.0800 
 27 H       -1.8660    -2.3100    -1.4720 H     1 <1>   0.0800 
 28 H        2.8410    -0.2910    -0.3210 H     1 <1>   0.0800 
 29 H        3.1020    -0.3050     1.4100 H     1 <1>   0.0800 
 30 H        2.3730     1.0900     0.6440 H     1 <1>   0.0800 
 31 H       -4.2200    -1.4040    -1.1590 H     1 <1>   0.0800 
 32 H       -2.2760    -3.5500     1.2260 H     1 <1>   0.0800 
 33 H       -3.0500    -3.9210    -0.2760 H     1 <1>   0.0800 
 34 H       -4.8190    -2.8420     0.7820 H     1 <1>   0.0800 
 35 H       -3.7550    -1.8870     1.7750 H     1 <1>   0.0800 
 36 H       -6.2760    -0.7950    -1.4540 H     1 <1>   0.3700 
 37 H       -6.2480     2.7050     0.6610 H     1 <1>   0.0800 
 38 H       -7.3200     2.2510     1.9630 H     1 <1>   0.0800 
 39 H       -7.7270     3.5850     0.9050 H     1 <1>   0.0800 
 40 H      -10.3400     2.8380     1.1460 H     1 <1>   0.0800 
 41 H      -11.3080     2.5230    -0.2740 H     1 <1>   0.0800 
 42 H      -10.0450     3.7300    -0.3350 H     1 <1>   0.0800 
@<TRIPOS>BOND
  1   1   2  2   
  2   1   3  2   
  3   1   4  am  
  4   1   5  1   
  5   4   6  1   
  6   4   7  1   
  7   5   8  1   
  8   5  22  1   
  9   5  23  1   
 10   6   9  1   
 11   6  24  1   
 12   6  25  1   
 13   7  10  1   
 14   7  26  1   
 15   7  27  1   
 16   8  28  1   
 17   8  29  1   
 18   8  30  1   
 19   9  11  1   
 20   9  12  1   
 21   9  31  1   
 22  10  12  1   
 23  10  32  1   
 24  10  33  1   
 25  11  13  2   
 26  11  14  am  
 27  12  34  1   
 28  12  35  1   
 29  14  15  1   
 30  14  36  1   
 31  15  16  1   
 32  15  17  2   
 33  16  18  1   
 34  17  19  1   
 35  17  20  1   
 36  18  19  2   
 37  19  21  1   
 38  20  37  1   
 39  20  38  1   
 40  20  39  1   
 41  21  40  1   
 42  21  41  1   
 43  21  42  1   
@<TRIPOS>SUBSTRUCTURE
  1 ****  11 GROUP 4 **** **** 0

# MOE 2024.06 (io_trps.svl 2023.06)
