@<TRIPOS>MOLECULE
NONAME
41 42 1 0 0 
SMALL
USER_CHARGES


@<TRIPOS>ATOM
  1 CL       0.0870     0.1480     1.2970 Cl    1 <1>  -0.1770 
  2 C        1.6660    -0.3210     0.7200 C.ar  1 <1>   0.1770 
  3 C        1.7810    -0.9490    -0.5050 C.ar  1 <1>  -0.1500 
  4 C        2.7760    -0.0570     1.4980 C.ar  1 <1>  -0.1500 
  5 C        3.0320    -1.3260    -0.9700 C.ar  1 <1>  -0.1440 
  6 C        4.0280    -0.4300     1.0400 C.ar  1 <1>  -0.1500 
  7 C        4.1620    -1.0660    -0.1950 C.ar  1 <1>   0.0830 
  8 C        3.1490    -2.0170    -2.3220 C.3   1 <1>  -0.0960 
  9 O        5.3650    -1.4570    -0.6950 O.3   1 <1>  -0.3630 
 10 C        6.5620    -1.2740     0.0200 C.3   1 <1>   0.1200 
 11 C        7.6950    -1.8370    -0.8440 C.3   1 <1>   0.3430 
 12 N        9.0380    -1.7160    -0.1880 N.4   1 <1>  -0.9590 
 13 C       10.1230    -1.9830    -1.1720 C.3   1 <1>   0.3430 
 14 C        9.1830    -2.6280     0.9790 C.3   1 <1>   0.3430 
 15 C       11.4190    -1.2760    -0.7670 C.3   1 <1>  -0.1600 
 16 C        9.8700    -1.9000     2.1350 C.3   1 <1>  -0.1600 
 17 C       11.9560    -1.5900     0.6420 C.3   1 <1>  -0.1600 
 18 C       11.0770    -1.0180     1.7650 C.3   1 <1>  -0.1600 
 19 H        0.8930    -1.1370    -1.0800 H     1 <1>   0.1500 
 20 H        2.6540     0.4340     2.4470 H     1 <1>   0.1500 
 21 H        4.8750    -0.2120     1.6620 H     1 <1>   0.1500 
 22 H        2.1850    -2.1330    -2.7830 H     1 <1>   0.0800 
 23 H        3.5870    -2.9910    -2.1980 H     1 <1>   0.0800 
 24 H        3.7720    -1.4350    -2.9770 H     1 <1>   0.0800 
 25 H        6.4740    -1.8060     0.9500 H     1 <1>   0.0800 
 26 H        6.6940    -0.2200     0.1860 H     1 <1>   0.0800 
 27 H        7.7030    -1.2920    -1.7740 H     1 <1>   0.0800 
 28 H        7.4890    -2.8730    -1.0610 H     1 <1>   0.0800 
 29 H        9.1730    -0.7540     0.1500 H     1 <1>   0.4500 
 30 H        9.8300    -1.6210    -2.1450 H     1 <1>   0.0800 
 31 H       10.2940    -3.0450    -1.2520 H     1 <1>   0.0800 
 32 H        9.7720    -3.4860     0.6980 H     1 <1>   0.0800 
 33 H        8.2210    -2.9840     1.3100 H     1 <1>   0.0800 
 34 H       11.2910    -0.2130    -0.8750 H     1 <1>   0.0800 
 35 H       12.1750    -1.5620    -1.4790 H     1 <1>   0.0800 
 36 H       10.2000    -2.6520     2.8310 H     1 <1>   0.0800 
 37 H        9.1450    -1.3010     2.6590 H     1 <1>   0.0800 
 38 H       12.9290    -1.1340     0.7260 H     1 <1>   0.0800 
 39 H       12.1000    -2.6500     0.7730 H     1 <1>   0.0800 
 40 H       11.6830    -0.9030     2.6490 H     1 <1>   0.0800 
 41 H       10.7460    -0.0290     1.4940 H     1 <1>   0.0800 
@<TRIPOS>BOND
  1   1   2  1   
  2   2   3  ar  
  3   2   4  ar  
  4   3   5  ar  
  5   3  19  1   
  6   4   6  ar  
  7   4  20  1   
  8   5   7  ar  
  9   5   8  1   
 10   6   7  ar  
 11   6  21  1   
 12   7   9  1   
 13   8  22  1   
 14   8  23  1   
 15   8  24  1   
 16   9  10  1   
 17  10  11  1   
 18  10  25  1   
 19  10  26  1   
 20  11  12  1   
 21  11  27  1   
 22  11  28  1   
 23  12  13  1   
 24  12  14  1   
 25  12  29  1   
 26  13  15  1   
 27  13  30  1   
 28  13  31  1   
 29  14  16  1   
 30  14  32  1   
 31  14  33  1   
 32  15  17  1   
 33  15  34  1   
 34  15  35  1   
 35  16  18  1   
 36  16  36  1   
 37  16  37  1   
 38  17  18  1   
 39  17  38  1   
 40  17  39  1   
 41  18  40  1   
 42  18  41  1   
@<TRIPOS>SUBSTRUCTURE
  1 ****  10 GROUP 4 **** **** 0

# MOE 2024.06 (io_trps.svl 2023.06)
