@<TRIPOS>MOLECULE
NONAME
46 47 1 0 0 
SMALL
USER_CHARGES


@<TRIPOS>ATOM
  1 O        0.5910    -0.2160    -0.4200 O.2   1 <1>  -0.5700 
  2 C        0.5460    -1.4230    -0.5360 C.2   1 <1>   0.7800 
  3 O       -0.6100    -2.0680    -0.3940 O.3   1 <1>  -0.4300 
  4 N        1.6680    -2.1730    -0.7830 N.am  1 <1>  -0.6600 
  5 C       -1.8060    -1.3610    -0.1520 C.3   1 <1>   0.1200 
  6 C        3.0090    -1.5380    -0.9400 C.3   1 <1>   0.1400 
  7 C        1.6800    -3.6640    -0.7560 C.3   1 <1>   0.1400 
  8 C       -2.9400    -2.3750    -0.0380 C.3   1 <1>  -0.2400 
  9 C        3.9750    -2.0520     0.1430 C.3   1 <1>   0.3430 
 10 C        2.6530    -4.1700     0.3270 C.3   1 <1>   0.3430 
 11 N        4.0250    -3.5610     0.1920 N.4   1 <1>  -0.9590 
 12 C        4.9450    -4.0390     1.2610 C.3   1 <1>   0.4860 
 13 C        6.3490    -3.5730     0.9310 C.ar  1 <1>  -0.1440 
 14 C        7.0490    -4.1520    -0.1190 C.ar  1 <1>  -0.1500 
 15 C        6.9490    -2.5600     1.6650 C.ar  1 <1>  -0.1500 
 16 C        8.3180    -3.7070    -0.4380 C.ar  1 <1>  -0.1500 
 17 C        8.2200    -2.1210     1.3410 C.ar  1 <1>  -0.1500 
 18 C        8.9200    -2.6790     0.2790 C.ar  1 <1>   0.1170 
 19 N       10.2030    -2.2060    -0.0280 N.am  1 <1>  -0.5470 
 20 C       10.8330    -2.1350    -1.2370 C.2   1 <1>   0.5690 
 21 O       10.3210    -2.4580    -2.2790 O.2   1 <1>  -0.5700 
 22 C       12.2450    -1.6060    -1.2570 C.3   1 <1>  -0.1790 
 23 H       -1.9750    -0.6840    -0.9730 H     1 <1>   0.0800 
 24 H       -1.6950    -0.8010     0.7610 H     1 <1>   0.0800 
 25 H        2.9350    -0.4650    -0.8650 H     1 <1>   0.0800 
 26 H        3.3990    -1.7650    -1.9170 H     1 <1>   0.0800 
 27 H        1.9810    -4.0330    -1.7210 H     1 <1>   0.0800 
 28 H        0.6960    -4.0530    -0.5540 H     1 <1>   0.0800 
 29 H       -3.0350    -2.9310    -0.9530 H     1 <1>   0.0800 
 30 H       -3.8660    -1.8600     0.1450 H     1 <1>   0.0800 
 31 H       -2.7580    -3.0490     0.7790 H     1 <1>   0.0800 
 32 H        3.6500    -1.6670     1.0950 H     1 <1>   0.0800 
 33 H        4.9600    -1.6570    -0.0520 H     1 <1>   0.0800 
 34 H        2.7190    -5.2440     0.2640 H     1 <1>   0.0800 
 35 H        2.2410    -3.9200     1.2910 H     1 <1>   0.0800 
 36 H        4.4350    -3.8660    -0.7000 H     1 <1>   0.4500 
 37 H        4.9320    -5.1160     1.3110 H     1 <1>   0.0800 
 38 H        4.6410    -3.6480     2.2190 H     1 <1>   0.0800 
 39 H        6.6270    -4.9550    -0.6990 H     1 <1>   0.1500 
 40 H        6.4380    -2.1010     2.4960 H     1 <1>   0.1500 
 41 H        8.8510    -4.1650    -1.2540 H     1 <1>   0.1500 
 42 H        8.6740    -1.3320     1.9150 H     1 <1>   0.1500 
 43 H       10.7260    -1.8210     0.7560 H     1 <1>   0.3700 
 44 H       12.2560    -0.5830    -0.9300 H     1 <1>   0.0800 
 45 H       12.6340    -1.6530    -2.2580 H     1 <1>   0.0800 
 46 H       12.8680    -2.1990    -0.6150 H     1 <1>   0.0800 
@<TRIPOS>BOND
  1   1   2  2   
  2   2   3  1   
  3   2   4  am  
  4   3   5  1   
  5   4   6  1   
  6   4   7  1   
  7   5   8  1   
  8   5  23  1   
  9   5  24  1   
 10   6   9  1   
 11   6  25  1   
 12   6  26  1   
 13   7  10  1   
 14   7  27  1   
 15   7  28  1   
 16   8  29  1   
 17   8  30  1   
 18   8  31  1   
 19   9  11  1   
 20   9  32  1   
 21   9  33  1   
 22  10  11  1   
 23  10  34  1   
 24  10  35  1   
 25  11  12  1   
 26  11  36  1   
 27  12  13  1   
 28  12  37  1   
 29  12  38  1   
 30  13  14  ar  
 31  13  15  ar  
 32  14  16  ar  
 33  14  39  1   
 34  15  17  ar  
 35  15  40  1   
 36  16  18  ar  
 37  16  41  1   
 38  17  18  ar  
 39  17  42  1   
 40  18  19  1   
 41  19  20  am  
 42  19  43  1   
 43  20  21  2   
 44  20  22  1   
 45  22  44  1   
 46  22  45  1   
 47  22  46  1   
@<TRIPOS>SUBSTRUCTURE
  1 ****   9 GROUP 4 **** **** 0

# MOE 2024.06 (io_trps.svl 2023.06)
