@<TRIPOS>MOLECULE
NONAME
47 48 1 0 0 
SMALL
USER_CHARGES


@<TRIPOS>ATOM
  1 CL      -0.9710     1.4400    -3.0900 Cl    1 <1>  -0.1770 
  2 C       -1.8740     1.5720    -1.5970 C.ar  1 <1>   0.1770 
  3 C       -1.3910     2.3460    -0.5490 C.ar  1 <1>   0.0830 
  4 C       -3.0710     0.8890    -1.5000 C.ar  1 <1>  -0.1500 
  5 O       -0.2070     2.9930    -0.7120 O.3   1 <1>  -0.3630 
  6 C       -2.1470     2.4200     0.6170 C.ar  1 <1>  -0.1500 
  7 C       -3.8340     0.9610    -0.3400 C.ar  1 <1>  -0.0090 
  8 C        0.3610     3.7760     0.3150 C.3   1 <1>   0.0400 
  9 C       -3.3480     1.7340     0.7100 C.ar  1 <1>  -0.1500 
 10 S       -5.4130     0.0830    -0.1940 S.o2  1 <1>   1.4470 
 11 O       -5.8500    -0.4020    -1.4850 O.2   1 <1>  -0.6500 
 12 O       -5.3480    -0.8360     0.9200 O.2   1 <1>  -0.6500 
 13 N       -6.4950     1.3130     0.2390 N.am  1 <1>  -0.8490 
 14 C       -7.7010     0.7350     0.8900 C.3   1 <1>   0.2570 
 15 C       -6.8250     2.2100    -0.8770 C.3   1 <1>   0.1160 
 16 C       -8.8250     1.7220     1.2360 C.2   1 <1>   0.5690 
 17 O       -8.7940     2.3090     2.2920 O.2   1 <1>  -0.5700 
 18 N       -9.8360     1.9100     0.3420 N.am  1 <1>  -0.7300 
 19 C      -10.9680     2.8320     0.5280 C.3   1 <1>   0.2200 
 20 C      -12.2730     2.0330     0.4590 C.3   1 <1>  -0.1600 
 21 C      -10.9130     3.9070    -0.5620 C.3   1 <1>  -0.1600 
 22 C      -13.4950     2.9600     0.5370 C.3   1 <1>  -0.1600 
 23 C      -12.1340     4.8360    -0.4870 C.3   1 <1>  -0.1600 
 24 C      -13.4430     4.0390    -0.5530 C.3   1 <1>  -0.1600 
 25 H       -3.4080     0.3000    -2.3350 H     1 <1>   0.1500 
 26 H       -1.8210     3.0020     1.4590 H     1 <1>   0.1500 
 27 H        1.2930     4.1720    -0.0470 H     1 <1>   0.0800 
 28 H        0.5390     3.1530     1.1730 H     1 <1>   0.0800 
 29 H       -0.3100     4.5820     0.5530 H     1 <1>   0.0800 
 30 H       -3.9260     1.8000     1.6180 H     1 <1>   0.1500 
 31 H       -7.4030     0.2640     1.8110 H     1 <1>   0.0800 
 32 H       -8.1110    -0.0320     0.2570 H     1 <1>   0.0800 
 33 H       -5.9220     2.5840    -1.3300 H     1 <1>   0.0800 
 34 H       -7.3890     3.0560    -0.5220 H     1 <1>   0.0800 
 35 H       -7.3970     1.6900    -1.6260 H     1 <1>   0.0800 
 36 H       -9.8570     1.3860    -0.5320 H     1 <1>   0.3700 
 37 H      -10.8980     3.3080     1.4940 H     1 <1>   0.0800 
 38 H      -12.3050     1.3360     1.2780 H     1 <1>   0.0800 
 39 H      -12.3120     1.4820    -0.4640 H     1 <1>   0.0800 
 40 H      -10.8910     3.4400    -1.5310 H     1 <1>   0.0800 
 41 H      -10.0170     4.4900    -0.4400 H     1 <1>   0.0800 
 42 H      -13.5230     3.4320     1.5040 H     1 <1>   0.0800 
 43 H      -14.3960     2.3800     0.4290 H     1 <1>   0.0800 
 44 H      -12.1010     5.5440    -1.2970 H     1 <1>   0.0800 
 45 H      -12.1020     5.3920     0.4360 H     1 <1>   0.0800 
 46 H      -14.2780     4.7090    -0.4360 H     1 <1>   0.0800 
 47 H      -13.5300     3.5740    -1.5210 H     1 <1>   0.0800 
@<TRIPOS>BOND
  1   1   2  1   
  2   2   3  ar  
  3   2   4  ar  
  4   3   5  1   
  5   3   6  ar  
  6   4   7  ar  
  7   4  25  1   
  8   5   8  1   
  9   6   9  ar  
 10   6  26  1   
 11   7   9  ar  
 12   7  10  1   
 13   8  27  1   
 14   8  28  1   
 15   8  29  1   
 16   9  30  1   
 17  10  11  2   
 18  10  12  2   
 19  10  13  am  
 20  13  14  1   
 21  13  15  1   
 22  14  16  1   
 23  14  31  1   
 24  14  32  1   
 25  15  33  1   
 26  15  34  1   
 27  15  35  1   
 28  16  17  2   
 29  16  18  am  
 30  18  19  1   
 31  18  36  1   
 32  19  20  1   
 33  19  21  1   
 34  19  37  1   
 35  20  22  1   
 36  20  38  1   
 37  20  39  1   
 38  21  23  1   
 39  21  40  1   
 40  21  41  1   
 41  22  24  1   
 42  22  42  1   
 43  22  43  1   
 44  23  24  1   
 45  23  44  1   
 46  23  45  1   
 47  24  46  1   
 48  24  47  1   
@<TRIPOS>SUBSTRUCTURE
  1 ****  13 GROUP 4 **** **** 0

# MOE 2024.06 (io_trps.svl 2023.06)
