@<TRIPOS>MOLECULE
NONAME
47 49 1 0 0 
SMALL
USER_CHARGES


@<TRIPOS>ATOM
  1 O        0.8560     0.1140     2.0370 O.2   1 <1>  -0.5700 
  2 C        1.6410    -0.5480     1.4020 C.2   1 <1>   0.5690 
  3 N        2.7350     0.0480     0.8070 N.am  1 <1>  -0.6600 
  4 C        1.3740    -2.0520     1.3250 C.3   1 <1>   0.1810 
  5 C        2.8150     1.5400     0.6960 C.3   1 <1>   0.1400 
  6 C        3.8480    -0.6950     0.1340 C.3   1 <1>   0.1400 
  7 O        1.5340    -2.5440     0.0020 O.3   1 <1>  -0.3630 
  8 C        4.2030     2.0630     1.0980 C.3   1 <1>   0.3430 
  9 C        5.2280    -0.1250     0.5210 C.3   1 <1>   0.3430 
 10 C        1.4130    -3.8660    -0.2740 C.ar  1 <1>   0.0820 
 11 N        5.3050     1.3640     0.3450 N.4   1 <1>  -0.9590 
 12 C        1.6340    -4.2510    -1.5870 C.ar  1 <1>  -0.1500 
 13 C        1.0900    -4.8310     0.6780 C.ar  1 <1>  -0.1500 
 14 C        6.6290     1.9050     0.7230 C.3   1 <1>   0.5230 
 15 C        1.5440    -5.5820    -1.9530 C.ar  1 <1>  -0.1500 
 16 C        1.0000    -6.1630     0.3090 C.ar  1 <1>  -0.1500 
 17 C        6.6740     3.3260     0.2180 C.2   1 <1>  -0.3320 
 18 C        1.2280    -6.5390    -1.0040 C.ar  1 <1>  -0.1500 
 19 N        6.9470     3.6770    -1.0750 N.pl3 1 <1>   0.0480 
 20 C        6.4630     4.4520     0.9540 C.2   1 <1>  -0.1500 
 21 C        6.8810     5.0300    -1.1380 C.2   1 <1>  -0.3020 
 22 C        7.3280     2.8190    -2.2150 C.3   1 <1>   0.0160 
 23 C        6.5880     5.5370     0.0860 C.2   1 <1>  -0.1500 
 24 H        0.3630    -2.2490     1.6320 H     1 <1>   0.0800 
 25 H        2.0580    -2.5700     1.9700 H     1 <1>   0.0800 
 26 H        2.0770     2.0090     1.3260 H     1 <1>   0.0800 
 27 H        2.5980     1.8300    -0.3170 H     1 <1>   0.0800 
 28 H        3.7130    -0.6390    -0.9320 H     1 <1>   0.0800 
 29 H        3.8290    -1.7350     0.4100 H     1 <1>   0.0800 
 30 H        4.3310     1.9150     2.1570 H     1 <1>   0.0800 
 31 H        4.2430     3.1240     0.9060 H     1 <1>   0.0800 
 32 H        5.9850    -0.6060    -0.0780 H     1 <1>   0.0800 
 33 H        5.4180    -0.3740     1.5520 H     1 <1>   0.0800 
 34 H        5.1730     1.6030    -0.6440 H     1 <1>   0.4500 
 35 H        1.8720    -3.5050    -2.3230 H     1 <1>   0.1500 
 36 H        0.9010    -4.5750     1.7020 H     1 <1>   0.1500 
 37 H        7.4240     1.3320     0.2750 H     1 <1>   0.0800 
 38 H        6.7480     1.8880     1.7950 H     1 <1>   0.0800 
 39 H        1.7170    -5.8740    -2.9740 H     1 <1>   0.1500 
 40 H        0.7510    -6.9100     1.0430 H     1 <1>   0.1500 
 41 H        1.1570    -7.5750    -1.2870 H     1 <1>   0.1500 
 42 H        6.2400     4.5480     2.0040 H     1 <1>   0.1500 
 43 H        7.0540     5.5770    -2.0500 H     1 <1>   0.1500 
 44 H        6.4450     2.4190    -2.6770 H     1 <1>   0.0800 
 45 H        7.9660     2.0230    -1.8790 H     1 <1>   0.0800 
 46 H        7.8640     3.4100    -2.9370 H     1 <1>   0.0800 
 47 H        6.4760     6.5740     0.3610 H     1 <1>   0.1500 
@<TRIPOS>BOND
  1   1   2  2   
  2   2   3  am  
  3   2   4  1   
  4   3   5  1   
  5   3   6  1   
  6   4   7  1   
  7   4  24  1   
  8   4  25  1   
  9   5   8  1   
 10   5  26  1   
 11   5  27  1   
 12   6   9  1   
 13   6  28  1   
 14   6  29  1   
 15   7  10  1   
 16   8  11  1   
 17   8  30  1   
 18   8  31  1   
 19   9  11  1   
 20   9  32  1   
 21   9  33  1   
 22  10  12  ar  
 23  10  13  ar  
 24  11  14  1   
 25  11  34  1   
 26  12  15  ar  
 27  12  35  1   
 28  13  16  ar  
 29  13  36  1   
 30  14  17  1   
 31  14  37  1   
 32  14  38  1   
 33  15  18  ar  
 34  15  39  1   
 35  16  18  ar  
 36  16  40  1   
 37  17  19  1   
 38  17  20  2   
 39  18  41  1   
 40  19  21  1   
 41  19  22  1   
 42  20  23  1   
 43  20  42  1   
 44  21  23  2   
 45  21  43  1   
 46  22  44  1   
 47  22  45  1   
 48  22  46  1   
 49  23  47  1   
@<TRIPOS>SUBSTRUCTURE
  1 ****   6 GROUP 4 **** **** 0

# MOE 2024.06 (io_trps.svl 2023.06)
