@<TRIPOS>MOLECULE
NONAME
39 40 1 0 0 
SMALL
USER_CHARGES


@<TRIPOS>ATOM
  1 F       -1.7520     0.1970    -2.0710 F     1 <1>  -0.1900 
  2 C       -2.2970     0.8090    -1.0520 C.ar  1 <1>   0.1900 
  3 C       -1.6540     1.8710    -0.4420 C.ar  1 <1>   0.1900 
  4 C       -3.5310     0.3740    -0.6040 C.ar  1 <1>  -0.1500 
  5 F       -0.4890     2.2790    -0.8730 F     1 <1>  -0.1900 
  6 C       -2.2330     2.5200     0.6330 C.ar  1 <1>  -0.1500 
  7 C       -4.1290     1.0240     0.4710 C.ar  1 <1>  -0.1440 
  8 C       -3.4730     2.0900     1.0860 C.ar  1 <1>  -0.1500 
  9 C       -5.4910     0.5740     0.9740 C.3   1 <1>   0.4870 
 10 N       -6.5300     0.9940    -0.0060 N.4   1 <1>  -0.9590 
 11 C       -6.6040     2.4990    -0.1260 C.3   1 <1>   0.3430 
 12 C       -7.8730     0.3930     0.3270 C.3   1 <1>   0.3430 
 13 C       -7.6900     2.9480    -1.1200 C.3   1 <1>   0.1400 
 14 C       -8.9740     0.8340    -0.6580 C.3   1 <1>   0.1400 
 15 N       -8.9980     2.3210    -0.7710 N.am  1 <1>  -0.6600 
 16 C      -10.0850     3.0850    -0.4320 C.2   1 <1>   0.7800 
 17 O      -10.0300     4.2960    -0.3800 O.2   1 <1>  -0.5700 
 18 O      -11.2150     2.4510    -0.1240 O.3   1 <1>  -0.4300 
 19 C      -12.3760     3.1720     0.2220 C.3   1 <1>   0.1200 
 20 C      -13.4860     2.1690     0.5180 C.3   1 <1>  -0.2400 
 21 H       -3.9930    -0.4630    -1.1000 H     1 <1>   0.1500 
 22 H       -1.7170     3.3400     1.1020 H     1 <1>   0.1500 
 23 H       -3.9140     2.5980     1.9290 H     1 <1>   0.1500 
 24 H       -5.6900     1.0100     1.9390 H     1 <1>   0.0800 
 25 H       -5.4910    -0.4990     1.0790 H     1 <1>   0.0800 
 26 H       -6.2380     0.6380    -0.9250 H     1 <1>   0.4500 
 27 H       -5.6530     2.8910    -0.4490 H     1 <1>   0.0800 
 28 H       -6.8290     2.9310     0.8350 H     1 <1>   0.0800 
 29 H       -8.1700     0.6980     1.3170 H     1 <1>   0.0800 
 30 H       -7.8090    -0.6830     0.3190 H     1 <1>   0.0800 
 31 H       -7.4140     2.6640    -2.1210 H     1 <1>   0.0800 
 32 H       -7.7640     4.0220    -1.1000 H     1 <1>   0.0800 
 33 H       -9.9240     0.4600    -0.3150 H     1 <1>   0.0800 
 34 H       -8.7920     0.4080    -1.6300 H     1 <1>   0.0800 
 35 H      -12.6420     3.8090    -0.6060 H     1 <1>   0.0800 
 36 H      -12.1610     3.7770     1.0870 H     1 <1>   0.0800 
 37 H      -13.6860     1.5680    -0.3510 H     1 <1>   0.0800 
 38 H      -14.3860     2.6940     0.7840 H     1 <1>   0.0800 
 39 H      -13.2060     1.5350     1.3400 H     1 <1>   0.0800 
@<TRIPOS>BOND
  1   1   2  1   
  2   2   3  ar  
  3   2   4  ar  
  4   3   5  1   
  5   3   6  ar  
  6   4   7  ar  
  7   4  21  1   
  8   6   8  ar  
  9   6  22  1   
 10   7   8  ar  
 11   7   9  1   
 12   8  23  1   
 13   9  10  1   
 14   9  24  1   
 15   9  25  1   
 16  10  11  1   
 17  10  12  1   
 18  10  26  1   
 19  11  13  1   
 20  11  27  1   
 21  11  28  1   
 22  12  14  1   
 23  12  29  1   
 24  12  30  1   
 25  13  15  1   
 26  13  31  1   
 27  13  32  1   
 28  14  15  1   
 29  14  33  1   
 30  14  34  1   
 31  15  16  am  
 32  16  17  2   
 33  16  18  1   
 34  18  19  1   
 35  19  20  1   
 36  19  35  1   
 37  19  36  1   
 38  20  37  1   
 39  20  38  1   
 40  20  39  1   
@<TRIPOS>SUBSTRUCTURE
  1 ****  11 GROUP 4 **** **** 0

# MOE 2024.06 (io_trps.svl 2023.06)
