@<TRIPOS>MOLECULE
NONAME
30 31 1 0 0 
SMALL
USER_CHARGES


@<TRIPOS>ATOM
  1 O       -0.9250    -0.9240     2.6230 O.2   1 <1>  -0.5700 
  2 C       -1.7500    -1.1350     1.7690 C.2   1 <1>   0.5690 
  3 N       -2.9980    -0.6190     1.8620 N.am  1 <1>  -0.5470 
  4 C       -1.3990    -1.9680     0.5370 C.3   1 <1>   0.1810 
  5 C       -3.9930    -0.9060     0.9250 C.ar  1 <1>   0.1170 
  6 O       -2.5370    -2.4970    -0.1500 O.3   1 <1>  -0.3630 
  7 C       -3.7350    -1.8500    -0.0700 C.ar  1 <1>   0.0830 
  8 C       -5.2300    -0.2800     0.9680 C.ar  1 <1>  -0.1500 
  9 C       -4.7130    -2.1570    -0.9950 C.ar  1 <1>  -0.1500 
 10 C       -6.2270    -0.5730     0.0400 C.ar  1 <1>  -0.1430 
 11 C       -5.9420    -1.5230    -0.9390 C.ar  1 <1>  -0.1500 
 12 C       -7.6160     0.1030     0.0550 C.3   1 <1>   0.1440 
 13 C       -8.7050    -0.9650     0.2350 C.3   1 <1>  -0.2400 
 14 C       -7.8410     0.8440    -1.2710 C.3   1 <1>  -0.2400 
 15 C       -7.7800     1.1280     1.1910 C.3   1 <1>  -0.2400 
 16 H       -3.2000    -0.0470     2.6800 H     1 <1>   0.3700 
 17 H       -0.7790    -2.7950     0.8270 H     1 <1>   0.0800 
 18 H       -0.8600    -1.3520    -0.1580 H     1 <1>   0.0800 
 19 H       -5.3890     0.4400     1.7460 H     1 <1>   0.1500 
 20 H       -4.5100    -2.8890    -1.7550 H     1 <1>   0.1500 
 21 H       -6.6810    -1.7830    -1.6750 H     1 <1>   0.1500 
 22 H       -8.5370    -1.5120     1.1450 H     1 <1>   0.0800 
 23 H       -8.7050    -1.6620    -0.5820 H     1 <1>   0.0800 
 24 H       -9.6790    -0.5100     0.2840 H     1 <1>   0.0800 
 25 H       -7.8330     0.1640    -2.1030 H     1 <1>   0.0800 
 26 H       -7.0640     1.5720    -1.4230 H     1 <1>   0.0800 
 27 H       -8.7890     1.3520    -1.2670 H     1 <1>   0.0800 
 28 H       -7.6610     0.6530     2.1490 H     1 <1>   0.0800 
 29 H       -8.7590     1.5720     1.1610 H     1 <1>   0.0800 
 30 H       -7.0550     1.9170     1.0960 H     1 <1>   0.0800 
@<TRIPOS>BOND
  1   1   2  2   
  2   2   3  am  
  3   2   4  1   
  4   3   5  1   
  5   3  16  1   
  6   4   6  1   
  7   4  17  1   
  8   4  18  1   
  9   5   7  ar  
 10   5   8  ar  
 11   6   7  1   
 12   7   9  ar  
 13   8  10  ar  
 14   8  19  1   
 15   9  11  ar  
 16   9  20  1   
 17  10  11  ar  
 18  10  12  1   
 19  11  21  1   
 20  12  13  1   
 21  12  14  1   
 22  12  15  1   
 23  13  22  1   
 24  13  23  1   
 25  13  24  1   
 26  14  25  1   
 27  14  26  1   
 28  14  27  1   
 29  15  28  1   
 30  15  29  1   
 31  15  30  1   
@<TRIPOS>SUBSTRUCTURE
  1 ****   5 GROUP 4 **** **** 0

# MOE 2024.06 (io_trps.svl 2023.06)
