@<TRIPOS>MOLECULE
NONAME
34 35 1 0 0 
SMALL
USER_CHARGES


@<TRIPOS>ATOM
  1 O       -0.2600     0.2590     0.6420 O.2   1 <1>  -0.5700 
  2 C       -0.7350     1.1710    -0.0090 C.2   1 <1>   0.7800 
  3 O        0.0090     2.2320    -0.3530 O.3   1 <1>  -0.2330 
  4 N       -2.0470     1.1610    -0.4120 N.am  1 <1>  -0.6600 
  5 C        1.3450     2.3920    -0.1640 C.ar  1 <1>   0.0830 
  6 C       -2.9760     0.0470    -0.0640 C.3   1 <1>   0.1400 
  7 C       -2.6980     2.2640    -1.1780 C.3   1 <1>   0.1400 
  8 C        1.7990     3.6650     0.1440 C.ar  1 <1>  -0.1500 
  9 C        2.2550     1.3510    -0.2980 C.ar  1 <1>  -0.1500 
 10 C       -4.2760     0.5980     0.5430 C.3   1 <1>   0.1200 
 11 C       -4.0150     2.6840    -0.5030 C.3   1 <1>   0.1200 
 12 C        3.1500     3.9030     0.3310 C.ar  1 <1>  -0.1430 
 13 C        3.6080     1.5790    -0.1110 C.ar  1 <1>  -0.1430 
 14 O       -4.8390     1.5720    -0.2910 O.3   1 <1>  -0.5600 
 15 C        4.0480     2.8560     0.2020 C.ar  1 <1>  -0.1500 
 16 C        3.6550     5.2930     0.6720 C.3   1 <1>  -0.0970 
 17 C        4.6020     0.4410    -0.2500 C.3   1 <1>  -0.0970 
 18 H       -2.5150    -0.6270     0.6380 H     1 <1>   0.0800 
 19 H       -3.2090    -0.5110    -0.9540 H     1 <1>   0.0800 
 20 H       -2.9080     1.9240    -2.1770 H     1 <1>   0.0800 
 21 H       -2.0500     3.1200    -1.2490 H     1 <1>   0.0800 
 22 H        1.0870     4.4640     0.2370 H     1 <1>   0.1500 
 23 H        1.9110     0.3650    -0.5510 H     1 <1>   0.1500 
 24 H       -4.0870     1.0370     1.5080 H     1 <1>   0.0800 
 25 H       -4.9960    -0.1920     0.6590 H     1 <1>   0.0800 
 26 H       -4.5500     3.3740    -1.1310 H     1 <1>   0.0800 
 27 H       -3.8220     3.1560     0.4440 H     1 <1>   0.0800 
 28 H        5.0990     3.0360     0.3450 H     1 <1>   0.1500 
 29 H        2.8380     5.9520     0.9050 H     1 <1>   0.0800 
 30 H        4.1980     5.6970    -0.1630 H     1 <1>   0.0800 
 31 H        4.3090     5.2470     1.5240 H     1 <1>   0.0800 
 32 H        4.1290    -0.5010    -0.0350 H     1 <1>   0.0800 
 33 H        5.4200     0.5720     0.4350 H     1 <1>   0.0800 
 34 H        4.9870     0.4150    -1.2530 H     1 <1>   0.0800 
@<TRIPOS>BOND
  1   1   2  2   
  2   2   3  1   
  3   2   4  am  
  4   3   5  1   
  5   4   6  1   
  6   4   7  1   
  7   5   8  ar  
  8   5   9  ar  
  9   6  10  1   
 10   6  18  1   
 11   6  19  1   
 12   7  11  1   
 13   7  20  1   
 14   7  21  1   
 15   8  12  ar  
 16   8  22  1   
 17   9  13  ar  
 18   9  23  1   
 19  10  14  1   
 20  10  24  1   
 21  10  25  1   
 22  11  14  1   
 23  11  26  1   
 24  11  27  1   
 25  12  15  ar  
 26  12  16  1   
 27  13  15  ar  
 28  13  17  1   
 29  15  28  1   
 30  16  29  1   
 31  16  30  1   
 32  16  31  1   
 33  17  32  1   
 34  17  33  1   
 35  17  34  1   
@<TRIPOS>SUBSTRUCTURE
  1 ****   3 GROUP 4 **** **** 0

# MOE 2024.06 (io_trps.svl 2023.06)
