@<TRIPOS>MOLECULE
NONAME
44 46 1 0 0 
SMALL
USER_CHARGES


@<TRIPOS>ATOM
  1 O        0.3920     0.3780     0.0610 O.3   1 <1>  -0.3630 
  2 C       -0.8420     0.9240    -0.0880 C.ar  1 <1>   0.0830 
  3 C        1.5700     1.0990    -0.1950 C.3   1 <1>   0.1200 
  4 C       -1.9510     0.0850     0.1950 C.ar  1 <1>   0.0000 
  5 C       -1.0370     2.2260    -0.4950 C.ar  1 <1>  -0.1500 
  6 C        2.7400     0.1540     0.0720 C.3   1 <1>  -0.1600 
  7 C       -3.2550     0.6110     0.0510 C.ar  1 <1>   0.0000 
  8 C       -1.8220    -1.2580     0.6160 C.ar  1 <1>  -0.1500 
  9 C       -2.3290     2.7380    -0.6340 C.ar  1 <1>  -0.1500 
 10 C        4.0710     0.8520    -0.1930 C.3   1 <1>   0.3430 
 11 C       -3.4110     1.9470    -0.3670 C.ar  1 <1>  -0.1500 
 12 C       -4.3620    -0.2150     0.3300 C.ar  1 <1>  -0.1500 
 13 C       -2.9140    -2.0380     0.8800 C.ar  1 <1>  -0.1500 
 14 N        5.2080    -0.0380     0.1730 N.4   1 <1>  -0.9590 
 15 C       -4.2010    -1.5100     0.7350 C.ar  1 <1>  -0.1500 
 16 C        6.4730     0.7460     0.2890 C.3   1 <1>   0.3430 
 17 C        5.3650    -1.1840    -0.7770 C.3   1 <1>   0.3430 
 18 C        7.5920    -0.1540     0.8160 C.3   1 <1>  -0.1600 
 19 C        6.4620    -2.1240    -0.2760 C.3   1 <1>  -0.1600 
 20 C        7.7930    -1.3900    -0.0710 C.3   1 <1>  -0.1600 
 21 H        1.5930     1.9500     0.4650 H     1 <1>   0.0800 
 22 H        1.5500     1.4190    -1.2230 H     1 <1>   0.0800 
 23 H       -0.2220     2.8880    -0.7160 H     1 <1>   0.1500 
 24 H        2.6300    -0.7000    -0.5730 H     1 <1>   0.0800 
 25 H        2.6930    -0.1620     1.0990 H     1 <1>   0.0800 
 26 H       -0.8360    -1.6680     0.7300 H     1 <1>   0.1500 
 27 H       -2.4590     3.7580    -0.9520 H     1 <1>   0.1500 
 28 H        4.1140     1.7500     0.4040 H     1 <1>   0.0800 
 29 H        4.1410     1.1350    -1.2310 H     1 <1>   0.0800 
 30 H       -4.4070     2.3370    -0.4730 H     1 <1>   0.1500 
 31 H       -5.3490     0.1960     0.2160 H     1 <1>   0.1500 
 32 H       -2.8000    -3.0590     1.2000 H     1 <1>   0.1500 
 33 H        5.0170    -0.4400     1.1000 H     1 <1>   0.4500 
 34 H       -5.0500    -2.1360     0.9460 H     1 <1>   0.1500 
 35 H        6.3350     1.5750     0.9640 H     1 <1>   0.0800 
 36 H        6.7510     1.1360    -0.6770 H     1 <1>   0.0800 
 37 H        5.6280    -0.8140    -1.7550 H     1 <1>   0.0800 
 38 H        4.4410    -1.7320    -0.8600 H     1 <1>   0.0800 
 39 H        7.3650    -0.4570     1.8230 H     1 <1>   0.0800 
 40 H        8.5090     0.4090     0.8510 H     1 <1>   0.0800 
 41 H        6.6010    -2.9160    -0.9920 H     1 <1>   0.0800 
 42 H        6.1480    -2.5800     0.6480 H     1 <1>   0.0800 
 43 H        8.5120    -2.0530     0.3820 H     1 <1>   0.0800 
 44 H        8.1860    -1.0860    -1.0270 H     1 <1>   0.0800 
@<TRIPOS>BOND
  1   1   2  1   
  2   1   3  1   
  3   2   4  ar  
  4   2   5  ar  
  5   3   6  1   
  6   3  21  1   
  7   3  22  1   
  8   4   7  ar  
  9   4   8  ar  
 10   5   9  ar  
 11   5  23  1   
 12   6  10  1   
 13   6  24  1   
 14   6  25  1   
 15   7  11  ar  
 16   7  12  ar  
 17   8  13  ar  
 18   8  26  1   
 19   9  11  ar  
 20   9  27  1   
 21  10  14  1   
 22  10  28  1   
 23  10  29  1   
 24  11  30  1   
 25  12  15  ar  
 26  12  31  1   
 27  13  15  ar  
 28  13  32  1   
 29  14  16  1   
 30  14  17  1   
 31  14  33  1   
 32  15  34  1   
 33  16  18  1   
 34  16  35  1   
 35  16  36  1   
 36  17  19  1   
 37  17  37  1   
 38  17  38  1   
 39  18  20  1   
 40  18  39  1   
 41  18  40  1   
 42  19  20  1   
 43  19  41  1   
 44  19  42  1   
 45  20  43  1   
 46  20  44  1   
@<TRIPOS>SUBSTRUCTURE
  1 ****   1 GROUP 4 **** **** 0

# MOE 2024.06 (io_trps.svl 2023.06)
