@<TRIPOS>MOLECULE
NONAME
46 48 1 0 0 
SMALL
USER_CHARGES


@<TRIPOS>ATOM
  1 S        0.0440    -0.0930     0.0020 S.o2  1 <1>   1.4470 
  2 O        0.0000     0.0820     1.4380 O.2   1 <1>  -0.6500 
  3 O       -0.6030     0.8820    -0.8490 O.2   1 <1>  -0.6500 
  4 N        1.6830    -0.1140    -0.4330 N.am  1 <1>  -0.8490 
  5 C       -0.5260    -1.7540    -0.4540 C.ar  1 <1>  -0.0090 
  6 C        2.4660    -1.0210     0.4220 C.3   1 <1>   0.1960 
  7 C        2.2510     1.2370    -0.4070 C.3   1 <1>   0.1960 
  8 C       -1.0270    -2.6350     0.4980 C.ar  1 <1>  -0.1500 
  9 C       -0.4630    -2.1900    -1.7730 C.ar  1 <1>  -0.1500 
 10 C        3.8990    -1.1450    -0.1090 C.3   1 <1>  -0.0190 
 11 C        3.6870     1.2210    -0.9440 C.3   1 <1>  -0.1600 
 12 C       -1.4490    -3.9070     0.1490 C.ar  1 <1>  -0.1500 
 13 C       -0.8820    -3.4590    -2.1320 C.ar  1 <1>  -0.1500 
 14 C        4.7020    -2.1170     0.7400 C.2   1 <1>   0.5690 
 15 C        4.5730     0.2370    -0.1670 C.3   1 <1>  -0.1600 
 16 C       -1.3750    -4.3200    -1.1690 C.ar  1 <1>  -0.1500 
 17 O        4.5270    -2.1640     1.9340 O.2   1 <1>  -0.5700 
 18 N        5.6130    -2.9030     0.1260 N.am  1 <1>  -0.7300 
 19 C        6.5820    -3.7910     0.8030 C.3   1 <1>   0.2840 
 20 C        7.9530    -3.6180     0.1560 C.ar  1 <1>   0.1670 
 21 N        8.0060    -3.7190    -1.1690 N.ar  1 <1>  -0.6200 
 22 C        9.0570    -3.3590     0.9560 C.ar  1 <1>  -0.1500 
 23 C        9.2040    -3.5630    -1.7090 C.ar  1 <1>   0.1600 
 24 C       10.2970    -3.1980     0.3770 C.ar  1 <1>  -0.1500 
 25 C       10.3620    -3.3050    -0.9950 C.ar  1 <1>  -0.1500 
 26 H        2.0160    -2.0000     0.4300 H     1 <1>   0.0800 
 27 H        2.4810    -0.6530     1.4360 H     1 <1>   0.0800 
 28 H        2.2350     1.6200     0.6010 H     1 <1>   0.0800 
 29 H        1.6600     1.8940    -1.0240 H     1 <1>   0.0800 
 30 H       -1.0890    -2.3220     1.5280 H     1 <1>   0.1500 
 31 H       -0.0780    -1.5220    -2.5260 H     1 <1>   0.1500 
 32 H        3.8400    -1.5480    -1.1050 H     1 <1>   0.0800 
 33 H        4.1020     2.2110    -0.8770 H     1 <1>   0.0800 
 34 H        3.6610     0.9460    -1.9840 H     1 <1>   0.0800 
 35 H       -1.8340    -4.5730     0.9020 H     1 <1>   0.1500 
 36 H       -0.8240    -3.7760    -3.1590 H     1 <1>   0.1500 
 37 H        5.5380     0.1590    -0.6370 H     1 <1>   0.0800 
 38 H        4.7180     0.6020     0.8360 H     1 <1>   0.0800 
 39 H       -1.7030    -5.3080    -1.4440 H     1 <1>   0.1500 
 40 H        5.8290    -2.8010    -0.8700 H     1 <1>   0.3700 
 41 H        6.2640    -4.8110     0.6860 H     1 <1>   0.0800 
 42 H        6.6240    -3.5610     1.8530 H     1 <1>   0.0800 
 43 H        8.9500    -3.2810     2.0230 H     1 <1>   0.1500 
 44 H        9.2680    -3.6440    -2.7810 H     1 <1>   0.1500 
 45 H       11.1740    -2.9960     0.9690 H     1 <1>   0.1500 
 46 H       11.2980    -3.1900    -1.5090 H     1 <1>   0.1500 
@<TRIPOS>BOND
  1   1   2  2   
  2   1   3  2   
  3   1   4  am  
  4   1   5  1   
  5   4   6  1   
  6   4   7  1   
  7   5   8  ar  
  8   5   9  ar  
  9   6  10  1   
 10   6  26  1   
 11   6  27  1   
 12   7  11  1   
 13   7  28  1   
 14   7  29  1   
 15   8  12  ar  
 16   8  30  1   
 17   9  13  ar  
 18   9  31  1   
 19  10  14  1   
 20  10  15  1   
 21  10  32  1   
 22  11  15  1   
 23  11  33  1   
 24  11  34  1   
 25  12  16  ar  
 26  12  35  1   
 27  13  16  ar  
 28  13  36  1   
 29  14  17  2   
 30  14  18  am  
 31  15  37  1   
 32  15  38  1   
 33  16  39  1   
 34  18  19  1   
 35  18  40  1   
 36  19  20  1   
 37  19  41  1   
 38  19  42  1   
 39  20  21  ar  
 40  20  22  ar  
 41  21  23  ar  
 42  22  24  ar  
 43  22  43  1   
 44  23  25  ar  
 45  23  44  1   
 46  24  25  ar  
 47  24  45  1   
 48  25  46  1   
@<TRIPOS>SUBSTRUCTURE
  1 ****  10 GROUP 4 **** **** 0

# MOE 2024.06 (io_trps.svl 2023.06)
