@<TRIPOS>MOLECULE
NONAME
27 29 1 0 0 
SMALL
USER_CHARGES


@<TRIPOS>ATOM
  1 O        0.4850     0.5520    -0.5400 O.3   1 <1>  -0.6800 
  2 C        0.2220     1.3420     0.5450 C.3   1 <1>   0.3800 
  3 C       -1.2530     1.5750     0.5160 C.2   1 <1>  -0.3320 
  4 C        0.7730     2.7630     0.2960 C.3   1 <1>  -0.1600 
  5 N       -2.3600     0.8230     0.7740 N.pl3 1 <1>   0.0330 
  6 C       -1.5990     2.8020     0.1210 C.2   1 <1>  -0.1810 
  7 C       -0.4000     3.6530    -0.1950 C.3   1 <1>   0.0210 
  8 C       -3.4530     1.6260     0.5300 C.ar  1 <1>  -0.1520 
  9 C       -3.0060     2.8820     0.1160 C.ar  1 <1>   0.0000 
 10 C       -4.8200     1.3610     0.6330 C.ar  1 <1>  -0.1500 
 11 C       -3.9310     3.8820    -0.1970 C.ar  1 <1>  -0.1500 
 12 C       -5.7180     2.3560     0.3210 C.ar  1 <1>  -0.1500 
 13 C       -5.2790     3.6210    -0.0950 C.ar  1 <1>  -0.1430 
 14 C       -6.3100     4.6840    -0.4280 C.3   1 <1>  -0.0970 
 15 H       -0.1440     0.8250    -1.2350 H     1 <1>   0.4000 
 16 H        0.5940     0.8790     1.4440 H     1 <1>   0.0800 
 17 H        1.6000     2.7620    -0.3910 H     1 <1>   0.0800 
 18 H        1.1120     3.1510     1.2390 H     1 <1>   0.0800 
 19 H       -2.3840    -0.1570     1.0690 H     1 <1>   0.2700 
 20 H       -0.3440     3.8220    -1.2550 H     1 <1>   0.0800 
 21 H       -0.4370     4.5900     0.3310 H     1 <1>   0.0800 
 22 H       -5.1570     0.3910     0.9520 H     1 <1>   0.1500 
 23 H       -3.5630     4.8400    -0.5130 H     1 <1>   0.1500 
 24 H       -6.7740     2.1670     0.3960 H     1 <1>   0.1500 
 25 H       -5.8330     5.5990    -0.7290 H     1 <1>   0.0800 
 26 H       -6.9200     4.8830     0.4350 H     1 <1>   0.0800 
 27 H       -6.9390     4.3440    -1.2300 H     1 <1>   0.0800 
@<TRIPOS>BOND
  1   1   2  1   
  2   1  15  1   
  3   2   3  1   
  4   2   4  1   
  5   2  16  1   
  6   3   5  1   
  7   3   6  2   
  8   4   7  1   
  9   4  17  1   
 10   4  18  1   
 11   5   8  1   
 12   5  19  1   
 13   6   7  1   
 14   6   9  1   
 15   7  20  1   
 16   7  21  1   
 17   8   9  ar  
 18   8  10  ar  
 19   9  11  ar  
 20  10  12  ar  
 21  10  22  1   
 22  11  13  ar  
 23  11  23  1   
 24  12  13  ar  
 25  12  24  1   
 26  13  14  1   
 27  14  25  1   
 28  14  26  1   
 29  14  27  1   
@<TRIPOS>SUBSTRUCTURE
  1 ****   9 GROUP 4 **** **** 0

# MOE 2024.06 (io_trps.svl 2023.06)
