@<TRIPOS>MOLECULE
NONAME
23 23 1 0 0 
SMALL
USER_CHARGES


@<TRIPOS>ATOM
  1 S       -0.1890    -0.4580     1.2250 S.o2  1 <1>   1.2580 
  2 O       -0.6460    -1.7480     1.6990 O.2   1 <1>  -0.6500 
  3 O       -0.1260     0.6500     2.1560 O.2   1 <1>  -0.6500 
  4 C        1.4050    -0.6850     0.4140 C.2   1 <1>  -0.0630 
  5 C       -1.2690     0.0180    -0.1580 C.3   1 <1>   0.0250 
  6 C        1.8580    -1.8390    -0.1180 C.2   1 <1>  -0.1100 
  7 C        2.3260     0.3930     0.2150 C.2   1 <1>  -0.1500 
  8 C       -0.8490     1.3230    -0.8670 C.3   1 <1>  -0.2400 
  9 C       -2.7460     0.1520     0.2640 C.3   1 <1>  -0.2400 
 10 S        3.4150    -1.6250    -0.8850 S.3   1 <1>  -0.0800 
 11 C        3.4540     0.0910    -0.4750 C.2   1 <1>  -0.1920 
 12 C        4.5690     0.9150    -0.8840 C.2   1 <1>   1.0320 
 13 O        4.5400     2.1360    -0.6490 O.co2 1 <1>  -0.9000 
 14 O        5.5530     0.4400    -1.4780 O.co2 1 <1>  -0.9000 
 15 H       -1.2230    -0.7680    -0.8890 H     1 <1>   0.0800 
 16 H        1.4260    -2.8230    -0.1450 H     1 <1>   0.1500 
 17 H        2.1210     1.3820     0.5930 H     1 <1>   0.1500 
 18 H       -0.8390     2.1420    -0.1680 H     1 <1>   0.0800 
 19 H       -1.5300     1.5580    -1.6650 H     1 <1>   0.0800 
 20 H        0.1350     1.2250    -1.2900 H     1 <1>   0.0800 
 21 H       -2.8550     0.9410     0.9890 H     1 <1>   0.0800 
 22 H       -3.0850    -0.7670     0.7100 H     1 <1>   0.0800 
 23 H       -3.3690     0.3690    -0.5850 H     1 <1>   0.0800 
@<TRIPOS>BOND
  1   1   2  2   
  2   1   3  2   
  3   1   4  1   
  4   1   5  1   
  5   4   6  2   
  6   4   7  1   
  7   5   8  1   
  8   5   9  1   
  9   5  15  1   
 10   6  10  1   
 11   6  16  1   
 12   7  11  2   
 13   7  17  1   
 14   8  18  1   
 15   8  19  1   
 16   8  20  1   
 17   9  21  1   
 18   9  22  1   
 19   9  23  1   
 20  10  11  1   
 21  11  12  1   
 22  12  13  ar  
 23  12  14  ar  
@<TRIPOS>SUBSTRUCTURE
  1 ****   4 GROUP 4 **** **** 0

# MOE 2024.06 (io_trps.svl 2023.06)
