@<TRIPOS>MOLECULE
NONAME
45 46 1 0 0 
SMALL
USER_CHARGES


@<TRIPOS>ATOM
  1 N       -1.2480    -0.5140     0.6760 N.1   1 <1>  -0.5570 
  2 C       -1.8190     0.3850     0.2860 C.1   1 <1>   0.7950 
  3 N       -2.4740     1.5120    -0.1860 N.pl3 1 <1>  -0.6320 
  4 C       -1.9230     2.6820    -0.2480 C.cat 1 <1>   1.2000 
  5 C       -3.8530     1.3070    -0.6010 C.3   1 <1>   0.4380 
  6 N       -0.6880     2.9300     0.1470 N.pl3 1 <1>  -0.9670 
  7 N       -2.5800     3.7070    -0.7450 N.pl3 1 <1>  -0.8440 
  8 N       -4.5640     2.5710    -0.3700 N.3   1 <1>  -0.8100 
  9 C       -3.9570     3.6190    -1.1880 C.3   1 <1>   0.4380 
 10 C       -6.0440     2.5210    -0.5400 C.3   1 <1>   0.1900 
 11 C       -6.6610     3.7390     0.1720 C.3   1 <1>  -0.1600 
 12 C       -6.6630     1.2610     0.0960 C.3   1 <1>  -0.1600 
 13 C       -8.1960     3.7820     0.1410 C.3   1 <1>   0.5030 
 14 C       -8.2010     1.2300     0.0680 C.3   1 <1>   0.5030 
 15 N       -8.7710     2.4950     0.5390 N.4   1 <1>  -0.9060 
 16 C       -8.7020     4.7900     1.1710 C.3   1 <1>  -0.2400 
 17 C       -8.7300     4.1980    -1.2330 C.3   1 <1>  -0.2400 
 18 C       -8.7420     0.8930    -1.3240 C.3   1 <1>  -0.2400 
 19 C       -8.7080     0.1670     1.0420 C.3   1 <1>  -0.2400 
 20 H       -4.2780     0.5210     0.0020 H     1 <1>   0.0800 
 21 H       -3.8980     1.0210    -1.6410 H     1 <1>   0.0800 
 22 H       -0.2700     3.8560     0.1070 H     1 <1>   0.4500 
 23 H       -0.0830     2.2170     0.5580 H     1 <1>   0.4500 
 24 H       -2.1470     4.6230    -0.7960 H     1 <1>   0.4500 
 25 H       -4.0060     3.3710    -2.2390 H     1 <1>   0.0800 
 26 H       -4.4360     4.5700    -1.0280 H     1 <1>   0.0800 
 27 H       -6.2830     2.5420    -1.5920 H     1 <1>   0.0800 
 28 H       -6.3120     4.6560    -0.2650 H     1 <1>   0.0800 
 29 H       -6.3310     3.7340     1.1970 H     1 <1>   0.0800 
 30 H       -6.3300     1.1940     1.1180 H     1 <1>   0.0800 
 31 H       -6.3280     0.3800    -0.4190 H     1 <1>   0.0800 
 32 H       -9.7660     2.5050     0.3010 H     1 <1>   0.4500 
 33 H       -8.7320     2.4670     1.5610 H     1 <1>   0.4500 
 34 H       -8.3770     4.5350     2.1650 H     1 <1>   0.0800 
 35 H       -9.7760     4.8550     1.1590 H     1 <1>   0.0800 
 36 H       -8.3170     5.7710     0.9490 H     1 <1>   0.0800 
 37 H       -8.2900     3.6380    -2.0330 H     1 <1>   0.0800 
 38 H       -8.4880     5.2310    -1.4170 H     1 <1>   0.0800 
 39 H       -9.8010     4.1060    -1.2800 H     1 <1>   0.0800 
 40 H       -8.3070     1.4980    -2.0930 H     1 <1>   0.0800 
 41 H       -9.8130     0.9880    -1.3600 H     1 <1>   0.0800 
 42 H       -8.5020    -0.1270    -1.5690 H     1 <1>   0.0800 
 43 H       -8.3820     0.3660     2.0480 H     1 <1>   0.0800 
 44 H       -8.3270    -0.8000     0.7650 H     1 <1>   0.0800 
 45 H       -9.7830     0.1070     1.0280 H     1 <1>   0.0800 
@<TRIPOS>BOND
  1   1   2  3   
  2   2   3  1   
  3   3   4  ar  
  4   3   5  1   
  5   4   6  ar  
  6   4   7  ar  
  7   5   8  1   
  8   5  20  1   
  9   5  21  1   
 10   6  22  1   
 11   6  23  1   
 12   7   9  1   
 13   7  24  1   
 14   8   9  1   
 15   8  10  1   
 16   9  25  1   
 17   9  26  1   
 18  10  11  1   
 19  10  12  1   
 20  10  27  1   
 21  11  13  1   
 22  11  28  1   
 23  11  29  1   
 24  12  14  1   
 25  12  30  1   
 26  12  31  1   
 27  13  15  1   
 28  13  16  1   
 29  13  17  1   
 30  14  15  1   
 31  14  18  1   
 32  14  19  1   
 33  15  32  1   
 34  15  33  1   
 35  16  34  1   
 36  16  35  1   
 37  16  36  1   
 38  17  37  1   
 39  17  38  1   
 40  17  39  1   
 41  18  40  1   
 42  18  41  1   
 43  18  42  1   
 44  19  43  1   
 45  19  44  1   
 46  19  45  1   
@<TRIPOS>SUBSTRUCTURE
  1 ****  10 GROUP 4 **** **** 0

# MOE 2024.06 (io_trps.svl 2023.06)
