@<TRIPOS>MOLECULE
NONAME
34 34 1 0 0 
SMALL
USER_CHARGES


@<TRIPOS>ATOM
  1 O        0.0840     0.7890     1.2370 O.2   1 <1>  -0.5700 
  2 C        0.0110     1.7360     0.4790 C.2   1 <1>   0.5440 
  3 N        1.1410     2.1600    -0.1610 N.am  1 <1>  -0.7300 
  4 C       -1.2430     2.4290     0.2410 C.ar  1 <1>   0.0860 
  5 C        2.4990     1.5970     0.0070 C.3   1 <1>   0.1400 
  6 C       -2.4050     1.7790    -0.1950 C.ar  1 <1>  -0.1430 
  7 C       -1.3040     3.8090     0.4400 C.ar  1 <1>  -0.1500 
  8 C        3.5170     2.7170     0.2790 C.3   1 <1>  -0.0800 
  9 C       -3.5650     2.5030    -0.4210 C.ar  1 <1>  -0.1500 
 10 C       -2.4190     0.2740    -0.4340 C.3   1 <1>  -0.0970 
 11 C       -2.4610     4.5320     0.2150 C.ar  1 <1>  -0.1430 
 12 C        3.5970     3.7280    -0.8760 C.3   1 <1>  -0.2400 
 13 C        4.9050     2.1130     0.5280 C.3   1 <1>  -0.2400 
 14 C       -3.5950     3.8700    -0.2200 C.ar  1 <1>  -0.1500 
 15 C       -2.4980     6.0330     0.4400 C.3   1 <1>  -0.0970 
 16 H        1.0620     2.9130    -0.8440 H     1 <1>   0.3700 
 17 H        2.7700     1.0600    -0.8850 H     1 <1>   0.0800 
 18 H        2.5020     0.9000     0.8290 H     1 <1>   0.0800 
 19 H       -0.4200     4.3150     0.7850 H     1 <1>   0.1500 
 20 H        3.2150     3.2320     1.1760 H     1 <1>   0.0800 
 21 H       -4.4590     2.0050    -0.7550 H     1 <1>   0.1500 
 22 H       -1.5980    -0.0100    -1.0680 H     1 <1>   0.0800 
 23 H       -3.3340    -0.0380    -0.9030 H     1 <1>   0.0800 
 24 H       -2.3230    -0.2430     0.5050 H     1 <1>   0.0800 
 25 H        3.8510     3.2320    -1.7960 H     1 <1>   0.0800 
 26 H        4.3490     4.4690    -0.6680 H     1 <1>   0.0800 
 27 H        2.6600     4.2380    -1.0040 H     1 <1>   0.0800 
 28 H        5.2520     1.5840    -0.3430 H     1 <1>   0.0800 
 29 H        4.8700     1.4260     1.3550 H     1 <1>   0.0800 
 30 H        5.6130     2.8870     0.7640 H     1 <1>   0.0800 
 31 H       -4.5050     4.4160    -0.4010 H     1 <1>   0.1500 
 32 H       -1.6600     6.3520     1.0330 H     1 <1>   0.0800 
 33 H       -3.4010     6.3070     0.9540 H     1 <1>   0.0800 
 34 H       -2.4670     6.5440    -0.5060 H     1 <1>   0.0800 
@<TRIPOS>BOND
  1   1   2  2   
  2   2   3  am  
  3   2   4  1   
  4   3   5  1   
  5   3  16  1   
  6   4   6  ar  
  7   4   7  ar  
  8   5   8  1   
  9   5  17  1   
 10   5  18  1   
 11   6   9  ar  
 12   6  10  1   
 13   7  11  ar  
 14   7  19  1   
 15   8  12  1   
 16   8  13  1   
 17   8  20  1   
 18   9  14  ar  
 19   9  21  1   
 20  10  22  1   
 21  10  23  1   
 22  10  24  1   
 23  11  14  ar  
 24  11  15  1   
 25  12  25  1   
 26  12  26  1   
 27  12  27  1   
 28  13  28  1   
 29  13  29  1   
 30  13  30  1   
 31  14  31  1   
 32  15  32  1   
 33  15  33  1   
 34  15  34  1   
@<TRIPOS>SUBSTRUCTURE
  1 ****   4 GROUP 4 **** **** 0

# MOE 2024.06 (io_trps.svl 2023.06)
