@<TRIPOS>MOLECULE
NONAME
36 37 1 0 0 
SMALL
USER_CHARGES


@<TRIPOS>ATOM
  1 CL       0.5750    -0.6300     1.7070 Cl    1 <1>  -0.1770 
  2 C       -0.4400    -1.8650     0.9920 C.ar  1 <1>   0.1770 
  3 C        0.1340    -2.9700     0.3740 C.ar  1 <1>   0.0820 
  4 C       -1.8110    -1.7090     1.0590 C.ar  1 <1>  -0.1500 
  5 O        1.4910    -3.0560     0.3490 O.3   1 <1>  -0.3630 
  6 C       -0.7060    -3.9310    -0.1870 C.ar  1 <1>  -0.1500 
  7 C       -2.6330    -2.6720     0.4990 C.ar  1 <1>  -0.1500 
  8 C        2.1600    -4.1350    -0.2730 C.3   1 <1>   0.1200 
  9 C       -2.0840    -3.7820    -0.1250 C.ar  1 <1>  -0.1440 
 10 C        3.6730    -3.9210    -0.1460 C.3   1 <1>   0.2000 
 11 C       -2.9960    -4.8320    -0.7360 C.3   1 <1>  -0.0960 
 12 O        3.9840    -2.6760    -0.6720 O.3   1 <1>  -0.6800 
 13 C        4.4700    -5.0010    -0.8870 C.3   1 <1>   0.0960 
 14 N        5.9030    -4.9620    -0.5220 N.pl3 1 <1>   0.0480 
 15 C        6.5650    -5.6990     0.4060 C.2   1 <1>   0.0060 
 16 C        6.8490    -4.1830    -1.0750 C.2   1 <1>  -0.3020 
 17 N        7.8300    -5.4420     0.4680 N.2   1 <1>  -0.5650 
 18 C        5.9030    -6.7310     1.2960 C.3   1 <1>  -0.0600 
 19 C        8.0120    -4.4870    -0.4620 C.2   1 <1>   0.0770 
 20 H       -2.2270    -0.8450     1.5450 H     1 <1>   0.1500 
 21 H       -0.3060    -4.8000    -0.6730 H     1 <1>   0.1500 
 22 H       -3.7020    -2.5530     0.5520 H     1 <1>   0.1500 
 23 H        1.8720    -4.1650    -1.3090 H     1 <1>   0.0800 
 24 H        1.8670    -5.0440     0.2200 H     1 <1>   0.0800 
 25 H        3.9430    -3.9220     0.8970 H     1 <1>   0.0800 
 26 H       -2.5080    -5.3300    -1.5540 H     1 <1>   0.0800 
 27 H       -3.8960    -4.3760    -1.1090 H     1 <1>   0.0800 
 28 H       -3.2610    -5.5610     0.0080 H     1 <1>   0.0800 
 29 H        3.3970    -2.0040    -0.2620 H     1 <1>   0.4000 
 30 H        4.3740    -4.8640    -1.9490 H     1 <1>   0.0800 
 31 H        4.0870    -5.9710    -0.6370 H     1 <1>   0.0800 
 32 H        6.6430    -3.4660    -1.8490 H     1 <1>   0.1500 
 33 H        5.5010    -7.5300     0.7010 H     1 <1>   0.0800 
 34 H        5.1190    -6.2760     1.8720 H     1 <1>   0.0800 
 35 H        6.6300    -7.1420     1.9730 H     1 <1>   0.0800 
 36 H        8.9840    -4.0600    -0.6410 H     1 <1>   0.1500 
@<TRIPOS>BOND
  1   1   2  1   
  2   2   3  ar  
  3   2   4  ar  
  4   3   5  1   
  5   3   6  ar  
  6   4   7  ar  
  7   4  20  1   
  8   5   8  1   
  9   6   9  ar  
 10   6  21  1   
 11   7   9  ar  
 12   7  22  1   
 13   8  10  1   
 14   8  23  1   
 15   8  24  1   
 16   9  11  1   
 17  10  12  1   
 18  10  13  1   
 19  10  25  1   
 20  11  26  1   
 21  11  27  1   
 22  11  28  1   
 23  12  29  1   
 24  13  14  1   
 25  13  30  1   
 26  13  31  1   
 27  14  15  1   
 28  14  16  1   
 29  15  17  2   
 30  15  18  1   
 31  16  19  2   
 32  16  32  1   
 33  17  19  1   
 34  18  33  1   
 35  18  34  1   
 36  18  35  1   
 37  19  36  1   
@<TRIPOS>SUBSTRUCTURE
  1 ****   8 GROUP 4 **** **** 0

# MOE 2024.06 (io_trps.svl 2023.06)
