@<TRIPOS>MOLECULE
NONAME
26 26 1 0 0 
SMALL
USER_CHARGES


@<TRIPOS>ATOM
  1 BR      -0.1050     0.8760    -0.5180 Br    1 <1>  -0.1110 
  2 C       -1.9640     0.4060    -0.3370 C.ar  1 <1>   0.1110 
  3 C       -2.9210     1.2750    -0.8240 C.ar  1 <1>  -0.1500 
  4 C       -2.2900    -0.7870     0.2760 C.ar  1 <1>  -0.1500 
  5 C       -4.2600     0.9400    -0.6950 C.ar  1 <1>  -0.1440 
  6 C       -3.6270    -1.1210     0.4040 C.ar  1 <1>  -0.1500 
  7 C       -4.6160    -0.2610    -0.0800 C.ar  1 <1>   0.0830 
  8 C       -5.3240     1.8890    -1.2280 C.3   1 <1>  -0.0960 
  9 O       -5.9430    -0.5400     0.0200 O.3   1 <1>  -0.3630 
 10 C       -6.4090    -1.7390     0.6300 C.3   1 <1>   0.1810 
 11 C       -7.9310    -1.8210     0.6200 C.2   1 <1>   0.5690 
 12 O       -8.4560    -2.7920     1.1090 O.2   1 <1>  -0.5700 
 13 N       -8.6550    -0.8090     0.0680 N.am  1 <1>  -0.7300 
 14 C      -10.1350    -0.7420    -0.0190 C.3   1 <1>   0.0600 
 15 H       -2.6140     2.1920    -1.2920 H     1 <1>   0.1500 
 16 H       -1.5150    -1.4370     0.6420 H     1 <1>   0.1500 
 17 H       -3.8720    -2.0510     0.8810 H     1 <1>   0.1500 
 18 H       -4.8800     2.7630    -1.6690 H     1 <1>   0.0800 
 19 H       -5.9690     2.2000    -0.4250 H     1 <1>   0.0800 
 20 H       -5.9150     1.3910    -1.9750 H     1 <1>   0.0800 
 21 H       -6.0630    -1.7600     1.6470 H     1 <1>   0.0800 
 22 H       -6.0090    -2.5750     0.0860 H     1 <1>   0.0800 
 23 H       -8.1290    -0.0220    -0.3250 H     1 <1>   0.3700 
 24 H      -10.5750    -1.6200     0.4240 H     1 <1>   0.0800 
 25 H      -10.4370    -0.6850    -1.0500 H     1 <1>   0.0800 
 26 H      -10.4900     0.1270     0.5060 H     1 <1>   0.0800 
@<TRIPOS>BOND
  1   1   2  1   
  2   2   3  ar  
  3   2   4  ar  
  4   3   5  ar  
  5   3  15  1   
  6   4   6  ar  
  7   4  16  1   
  8   5   7  ar  
  9   5   8  1   
 10   6   7  ar  
 11   6  17  1   
 12   7   9  1   
 13   8  18  1   
 14   8  19  1   
 15   8  20  1   
 16   9  10  1   
 17  10  11  1   
 18  10  21  1   
 19  10  22  1   
 20  11  12  2   
 21  11  13  am  
 22  13  14  1   
 23  13  23  1   
 24  14  24  1   
 25  14  25  1   
 26  14  26  1   
@<TRIPOS>SUBSTRUCTURE
  1 ****   7 GROUP 4 **** **** 0

# MOE 2024.06 (io_trps.svl 2023.06)
