@<TRIPOS>MOLECULE
NONAME
38 40 1 0 0 
SMALL
USER_CHARGES


@<TRIPOS>ATOM
  1 S        0.0580    -0.0660     0.2570 S.3   1 <1>  -0.0800 
  2 C        0.6200     1.4620    -0.4090 C.2   1 <1>   0.4340 
  3 C       -1.5780     0.5580     0.1900 C.ar  1 <1>   0.0400 
  4 S        2.3800     1.6460    -0.6760 S.3   1 <1>  -0.2860 
  5 N       -0.2690     2.3320    -0.6560 N.2   1 <1>  -0.5650 
  6 C       -1.5310     1.8440    -0.3240 C.ar  1 <1>   0.2270 
  7 C       -2.7500    -0.0690     0.5680 C.ar  1 <1>  -0.1500 
  8 C        3.1550     0.0660    -0.1260 C.3   1 <1>   0.0700 
  9 C       -2.7250     2.5360    -0.4660 C.ar  1 <1>  -0.1500 
 10 C       -3.9320     0.6380     0.4180 C.ar  1 <1>  -0.1500 
 11 C        4.6640     0.2090    -0.3420 C.3   1 <1>  -0.1600 
 12 C       -3.9170     1.9330    -0.0960 C.ar  1 <1>  -0.1500 
 13 C        5.4020    -1.0540     0.1000 C.3   1 <1>   0.3430 
 14 N        6.8550    -0.9430    -0.2120 N.4   1 <1>  -0.9590 
 15 C        7.5350    -2.2810    -0.0760 C.3   1 <1>   0.3430 
 16 C        7.5580     0.0810     0.6450 C.3   1 <1>   0.3430 
 17 C        9.0570    -2.1720    -0.2910 C.3   1 <1>   0.1200 
 18 C        9.0800     0.0810     0.4010 C.3   1 <1>   0.1200 
 19 O        9.5960    -1.2080     0.5640 O.3   1 <1>  -0.5600 
 20 H       -2.7390    -1.0700     0.9630 H     1 <1>   0.1500 
 21 H        2.7320    -0.7230    -0.7240 H     1 <1>   0.0800 
 22 H        2.9040    -0.0670     0.9130 H     1 <1>   0.0800 
 23 H       -2.7030     3.5340    -0.8640 H     1 <1>   0.1500 
 24 H       -4.8680     0.1870     0.7000 H     1 <1>   0.1500 
 25 H        5.0020     1.0580     0.2250 H     1 <1>   0.0800 
 26 H        4.8410     0.3890    -1.3880 H     1 <1>   0.0800 
 27 H       -4.8430     2.4700    -0.2070 H     1 <1>   0.1500 
 28 H        4.9860    -1.9000    -0.4240 H     1 <1>   0.0800 
 29 H        5.2620    -1.2120     1.1580 H     1 <1>   0.0800 
 30 H        6.9560    -0.6470    -1.1920 H     1 <1>   0.4500 
 31 H        7.1250    -2.9780    -0.7880 H     1 <1>   0.0800 
 32 H        7.3640    -2.6780     0.9120 H     1 <1>   0.0800 
 33 H        7.3850    -0.1340     1.6870 H     1 <1>   0.0800 
 34 H        7.1710     1.0650     0.4410 H     1 <1>   0.0800 
 35 H        9.2910    -1.9060    -1.3080 H     1 <1>   0.0800 
 36 H        9.5320    -3.1110    -0.0650 H     1 <1>   0.0800 
 37 H        9.5700     0.7210     1.1140 H     1 <1>   0.0800 
 38 H        9.3180     0.4280    -0.5900 H     1 <1>   0.0800 
@<TRIPOS>BOND
  1   1   2  1   
  2   1   3  1   
  3   2   4  1   
  4   2   5  2   
  5   3   6  ar  
  6   3   7  ar  
  7   4   8  1   
  8   5   6  1   
  9   6   9  ar  
 10   7  10  ar  
 11   7  20  1   
 12   8  11  1   
 13   8  21  1   
 14   8  22  1   
 15   9  12  ar  
 16   9  23  1   
 17  10  12  ar  
 18  10  24  1   
 19  11  13  1   
 20  11  25  1   
 21  11  26  1   
 22  12  27  1   
 23  13  14  1   
 24  13  28  1   
 25  13  29  1   
 26  14  15  1   
 27  14  16  1   
 28  14  30  1   
 29  15  17  1   
 30  15  31  1   
 31  15  32  1   
 32  16  18  1   
 33  16  33  1   
 34  16  34  1   
 35  17  19  1   
 36  17  35  1   
 37  17  36  1   
 38  18  19  1   
 39  18  37  1   
 40  18  38  1   
@<TRIPOS>SUBSTRUCTURE
  1 ****   8 GROUP 4 **** **** 0

# MOE 2024.06 (io_trps.svl 2023.06)
