@<TRIPOS>MOLECULE
NONAME
33 33 1 0 0 
SMALL
USER_CHARGES


@<TRIPOS>ATOM
  1 O        0.9720     0.0220    -0.5920 O.2   1 <1>  -0.5700 
  2 C        0.4060     0.9400    -0.0520 C.2   1 <1>   0.5690 
  3 N        0.9420     2.1830    -0.1390 N.am  1 <1>  -0.7300 
  4 C       -0.8860     0.6610     0.7030 C.3   1 <1>   0.0440 
  5 C        0.4070     3.4650     0.3890 C.3   1 <1>   0.1400 
  6 C       -2.1110     1.2420    -0.0060 C.ar  1 <1>  -0.1440 
  7 C       -0.3740     4.2050    -0.6980 C.3   1 <1>   0.1200 
  8 C       -2.9240     2.2080     0.5850 C.ar  1 <1>   0.0820 
  9 C       -2.4060     0.7940    -1.2850 C.ar  1 <1>  -0.1500 
 10 O       -0.8840     5.3830    -0.1550 O.3   1 <1>  -0.5600 
 11 O       -2.6110     2.6380     1.8340 O.3   1 <1>  -0.3630 
 12 C       -4.0180     2.7110    -0.1160 C.ar  1 <1>  -0.1500 
 13 C       -3.4920     1.3000    -1.9770 C.ar  1 <1>  -0.1500 
 14 C       -1.7160     6.0790    -1.0260 C.3   1 <1>   0.0400 
 15 C       -3.0490     3.8970     2.2990 C.3   1 <1>   0.0400 
 16 C       -4.2980     2.2590    -1.3920 C.ar  1 <1>  -0.1500 
 17 H        1.8020     2.2470    -0.6870 H     1 <1>   0.3700 
 18 H       -0.7840     1.0360     1.7030 H     1 <1>   0.0800 
 19 H       -1.0110    -0.4030     0.7810 H     1 <1>   0.0800 
 20 H        1.2260     4.0790     0.7210 H     1 <1>   0.0800 
 21 H       -0.2380     3.2770     1.2270 H     1 <1>   0.0800 
 22 H       -1.1940     3.6010    -1.0450 H     1 <1>   0.0800 
 23 H        0.2720     4.4590    -1.5200 H     1 <1>   0.0800 
 24 H       -1.7840     0.0470    -1.7510 H     1 <1>   0.1500 
 25 H       -4.6630     3.4490     0.3210 H     1 <1>   0.1500 
 26 H       -3.7090     0.9430    -2.9690 H     1 <1>   0.1500 
 27 H       -2.0540     6.9700    -0.5280 H     1 <1>   0.0800 
 28 H       -2.5610     5.4610    -1.2790 H     1 <1>   0.0800 
 29 H       -1.1630     6.3450    -1.9110 H     1 <1>   0.0800 
 30 H       -2.5390     4.1080     3.2220 H     1 <1>   0.0800 
 31 H       -4.1100     3.8580     2.4710 H     1 <1>   0.0800 
 32 H       -2.8030     4.6460     1.5670 H     1 <1>   0.0800 
 33 H       -5.1450     2.6490    -1.9290 H     1 <1>   0.1500 
@<TRIPOS>BOND
  1   1   2  2   
  2   2   3  am  
  3   2   4  1   
  4   3   5  1   
  5   3  17  1   
  6   4   6  1   
  7   4  18  1   
  8   4  19  1   
  9   5   7  1   
 10   5  20  1   
 11   5  21  1   
 12   6   8  ar  
 13   6   9  ar  
 14   7  10  1   
 15   7  22  1   
 16   7  23  1   
 17   8  11  1   
 18   8  12  ar  
 19   9  13  ar  
 20   9  24  1   
 21  10  14  1   
 22  11  15  1   
 23  12  16  ar  
 24  12  25  1   
 25  13  16  ar  
 26  13  26  1   
 27  14  27  1   
 28  14  28  1   
 29  14  29  1   
 30  15  30  1   
 31  15  31  1   
 32  15  32  1   
 33  16  33  1   
@<TRIPOS>SUBSTRUCTURE
  1 ****   6 GROUP 4 **** **** 0

# MOE 2024.06 (io_trps.svl 2023.06)
