@<TRIPOS>MOLECULE
NONAME
47 47 1 0 0 
SMALL
USER_CHARGES


@<TRIPOS>ATOM
  1 O        0.2860     8.2940    -0.0280 O.3   1 <1>  -0.3630 
  2 C        1.4780     7.6530     0.0620 C.ar  1 <1>   0.0830 
  3 C       -0.9310     7.5890     0.0680 C.3   1 <1>   0.1200 
  4 C        2.6150     8.4370    -0.0470 C.ar  1 <1>  -0.1500 
  5 C        1.6090     6.2810     0.2520 C.ar  1 <1>  -0.1500 
  6 C       -2.0690     8.5950    -0.0740 C.3   1 <1>   0.1200 
  7 C        3.8800     7.8760     0.0310 C.ar  1 <1>  -0.1440 
  8 C        2.8660     5.7060     0.3340 C.ar  1 <1>  -0.1440 
  9 O       -3.2870     7.9150     0.0150 O.3   1 <1>  -0.5600 
 10 C        3.9920     6.5060     0.2210 C.ar  1 <1>  -0.1500 
 11 C        5.1150     8.7650    -0.0930 C.3   1 <1>   0.0630 
 12 C        3.0150     4.2100     0.5390 C.3   1 <1>  -0.0970 
 13 C       -4.4050     8.7300    -0.1010 C.3   1 <1>   0.1200 
 14 C        5.9530     8.3700    -1.3130 C.3   1 <1>  -0.2400 
 15 C        5.9560     8.7150     1.1860 C.3   1 <1>  -0.2400 
 16 C       -5.6420     7.8320     0.0320 C.3   1 <1>   0.3430 
 17 N       -6.9340     8.5990    -0.0190 N.4   1 <1>  -0.9590 
 18 C       -8.0720     7.7030     0.3590 C.3   1 <1>   0.2630 
 19 C       -7.1810     9.2040    -1.3670 C.3   1 <1>   0.2630 
 20 H       -0.9690     7.1090     1.0290 H     1 <1>   0.0800 
 21 H       -0.9660     6.8660    -0.7280 H     1 <1>   0.0800 
 22 H        2.4940     9.4950    -0.1930 H     1 <1>   0.1500 
 23 H        0.7460     5.6490     0.3380 H     1 <1>   0.1500 
 24 H       -2.0100     9.0810    -1.0320 H     1 <1>   0.0800 
 25 H       -2.0170     9.3200     0.7210 H     1 <1>   0.0800 
 26 H        4.9660     6.0550     0.2810 H     1 <1>   0.1500 
 27 H        4.7930     9.7840    -0.2340 H     1 <1>   0.0800 
 28 H        2.1580     3.8100     1.0520 H     1 <1>   0.0800 
 29 H        3.8890     3.9990     1.1290 H     1 <1>   0.0800 
 30 H        3.1110     3.7210    -0.4130 H     1 <1>   0.0800 
 31 H       -4.3730     9.2090    -1.0640 H     1 <1>   0.0800 
 32 H       -4.3750     9.4600     0.6900 H     1 <1>   0.0800 
 33 H        6.3440     7.3740    -1.2030 H     1 <1>   0.0800 
 34 H        6.7750     9.0510    -1.4370 H     1 <1>   0.0800 
 35 H        5.3440     8.4030    -2.1990 H     1 <1>   0.0800 
 36 H        6.3460     7.7270     1.3500 H     1 <1>   0.0800 
 37 H        5.3480     8.9870     2.0310 H     1 <1>   0.0800 
 38 H        6.7780     9.4040     1.1190 H     1 <1>   0.0800 
 39 H       -5.5730     7.3140     0.9750 H     1 <1>   0.0800 
 40 H       -5.6240     7.0980    -0.7560 H     1 <1>   0.0800 
 41 H       -6.8860     9.3560     0.6800 H     1 <1>   0.4500 
 42 H       -8.1570     6.8880    -0.3430 H     1 <1>   0.0800 
 43 H       -8.9980     8.2540     0.3610 H     1 <1>   0.0800 
 44 H       -7.9150     7.2930     1.3440 H     1 <1>   0.0800 
 45 H       -7.2200     8.4350    -2.1220 H     1 <1>   0.0800 
 46 H       -6.3950     9.8960    -1.6210 H     1 <1>   0.0800 
 47 H       -8.1180     9.7380    -1.3720 H     1 <1>   0.0800 
@<TRIPOS>BOND
  1   1   2  1   
  2   1   3  1   
  3   2   4  ar  
  4   2   5  ar  
  5   3   6  1   
  6   3  20  1   
  7   3  21  1   
  8   4   7  ar  
  9   4  22  1   
 10   5   8  ar  
 11   5  23  1   
 12   6   9  1   
 13   6  24  1   
 14   6  25  1   
 15   7  10  ar  
 16   7  11  1   
 17   8  10  ar  
 18   8  12  1   
 19   9  13  1   
 20  10  26  1   
 21  11  14  1   
 22  11  15  1   
 23  11  27  1   
 24  12  28  1   
 25  12  29  1   
 26  12  30  1   
 27  13  16  1   
 28  13  31  1   
 29  13  32  1   
 30  14  33  1   
 31  14  34  1   
 32  14  35  1   
 33  15  36  1   
 34  15  37  1   
 35  15  38  1   
 36  16  17  1   
 37  16  39  1   
 38  16  40  1   
 39  17  18  1   
 40  17  19  1   
 41  17  41  1   
 42  18  42  1   
 43  18  43  1   
 44  18  44  1   
 45  19  45  1   
 46  19  46  1   
 47  19  47  1   
@<TRIPOS>SUBSTRUCTURE
  1 ****   1 GROUP 4 **** **** 0

# MOE 2024.06 (io_trps.svl 2023.06)
