@<TRIPOS>MOLECULE
NONAME
40 42 1 0 0 
SMALL
USER_CHARGES


@<TRIPOS>ATOM
  1 CL      -1.9700     0.6930     1.6540 Cl    1 <1>  -0.1770 
  2 C       -0.9590     1.9570     0.9980 C.ar  1 <1>   0.1770 
  3 C       -1.2770     2.5100    -0.2310 C.ar  1 <1>  -0.1440 
  4 C        0.1350     2.3900     1.7300 C.ar  1 <1>  -0.1500 
  5 C       -0.4590     3.5230    -0.6970 C.ar  1 <1>   0.1900 
  6 C       -2.4610     2.0250    -1.0370 C.3   1 <1>   0.4860 
  7 C        0.9380     3.4060     1.2320 C.ar  1 <1>  -0.1500 
  8 F       -0.7440     4.0800    -1.8430 F     1 <1>  -0.1900 
  9 C        0.6400     3.9810     0.0070 C.ar  1 <1>  -0.1500 
 10 N       -3.7210     2.4720    -0.3830 N.4   1 <1>  -0.9590 
 11 C       -4.9280     1.8100    -0.9990 C.3   1 <1>   0.3430 
 12 C       -3.8600     3.9790    -0.4060 C.3   1 <1>   0.3430 
 13 C       -6.2510     2.2730    -0.3520 C.3   1 <1>   0.2090 
 14 C       -5.1760     4.4630     0.2390 C.3   1 <1>   0.2090 
 15 N       -6.3490     3.7610    -0.3590 N.pl3 1 <1>  -0.8380 
 16 C       -7.5980     4.2960    -0.0670 C.ar  1 <1>   0.1000 
 17 C       -8.1420     4.2150     1.2140 C.ar  1 <1>  -0.1500 
 18 C       -8.3210     4.9260    -1.0760 C.ar  1 <1>  -0.1500 
 19 C       -9.3880     4.7530     1.4860 C.ar  1 <1>  -0.1500 
 20 C       -9.5680     5.4690    -0.8190 C.ar  1 <1>  -0.1500 
 21 C      -10.0790     5.3710     0.4610 C.ar  1 <1>   0.1900 
 22 F      -11.2570     5.8810     0.7130 F     1 <1>  -0.1900 
 23 H        0.3580     1.9370     2.6810 H     1 <1>   0.1500 
 24 H       -2.4340     0.9480    -1.0840 H     1 <1>   0.0800 
 25 H       -2.4080     2.4080    -2.0440 H     1 <1>   0.0800 
 26 H        1.7920     3.7460     1.7960 H     1 <1>   0.1500 
 27 H        1.2520     4.7710    -0.3950 H     1 <1>   0.1500 
 28 H       -3.6690     2.1760     0.6010 H     1 <1>   0.4500 
 29 H       -4.8500     0.7390    -0.9040 H     1 <1>   0.0800 
 30 H       -4.9730     2.0470    -2.0490 H     1 <1>   0.0800 
 31 H       -3.8420     4.3270    -1.4260 H     1 <1>   0.0800 
 32 H       -3.0310     4.4340     0.1100 H     1 <1>   0.0800 
 33 H       -6.3140     1.9080     0.6580 H     1 <1>   0.0800 
 34 H       -7.0810     1.8630    -0.9030 H     1 <1>   0.0800 
 35 H       -5.2810     5.5240     0.0820 H     1 <1>   0.0800 
 36 H       -5.1500     4.2880     1.3010 H     1 <1>   0.0800 
 37 H       -7.5900     3.7310     1.9970 H     1 <1>   0.1500 
 38 H       -7.8990     4.9870    -2.0620 H     1 <1>   0.1500 
 39 H       -9.8210     4.6980     2.4690 H     1 <1>   0.1500 
 40 H      -10.1360     5.9580    -1.5900 H     1 <1>   0.1500 
@<TRIPOS>BOND
  1   1   2  1   
  2   2   3  ar  
  3   2   4  ar  
  4   3   5  ar  
  5   3   6  1   
  6   4   7  ar  
  7   4  23  1   
  8   5   8  1   
  9   5   9  ar  
 10   6  10  1   
 11   6  24  1   
 12   6  25  1   
 13   7   9  ar  
 14   7  26  1   
 15   9  27  1   
 16  10  11  1   
 17  10  12  1   
 18  10  28  1   
 19  11  13  1   
 20  11  29  1   
 21  11  30  1   
 22  12  14  1   
 23  12  31  1   
 24  12  32  1   
 25  13  15  1   
 26  13  33  1   
 27  13  34  1   
 28  14  15  1   
 29  14  35  1   
 30  14  36  1   
 31  15  16  1   
 32  16  17  ar  
 33  16  18  ar  
 34  17  19  ar  
 35  17  37  1   
 36  18  20  ar  
 37  18  38  1   
 38  19  21  ar  
 39  19  39  1   
 40  20  21  ar  
 41  20  40  1   
 42  21  22  1   
@<TRIPOS>SUBSTRUCTURE
  1 ****  12 GROUP 4 **** **** 0

# MOE 2024.06 (io_trps.svl 2023.06)
