@<TRIPOS>MOLECULE
NONAME
50 51 1 0 0 
SMALL
USER_CHARGES


@<TRIPOS>ATOM
  1 O       -0.2210    -0.5060     0.5310 O.3   1 <1>  -0.3630 
  2 C       -1.4460    -0.9180     0.1080 C.ar  1 <1>   0.0830 
  3 C        0.3730     0.6920     0.0830 C.3   1 <1>   0.0400 
  4 C       -1.9010    -2.1730     0.5160 C.ar  1 <1>  -0.1440 
  5 C       -2.2390    -0.1310    -0.7170 C.ar  1 <1>  -0.1500 
  6 C       -3.1410    -2.6430     0.0780 C.ar  1 <1>  -0.1430 
  7 C       -1.0110    -3.0190     1.4350 C.3   1 <1>  -0.0960 
  8 C       -3.4750    -0.5830    -1.1260 C.ar  1 <1>  -0.1500 
  9 C       -3.9400    -1.8260    -0.7250 C.ar  1 <1>  -0.1440 
 10 C       -3.5890    -4.0530     0.4740 C.3   1 <1>  -0.0970 
 11 C       -5.3310    -2.2260    -1.1830 C.3   1 <1>   0.4860 
 12 N       -6.2620    -2.1640    -0.0050 N.4   1 <1>  -0.9590 
 13 C       -7.6160    -2.7630    -0.2600 C.3   1 <1>   0.4230 
 14 C       -6.3100    -0.7420     0.4930 C.3   1 <1>   0.2630 
 15 C       -8.4980    -2.6620     0.9960 C.3   1 <1>  -0.1600 
 16 C       -7.4910    -4.2380    -0.6780 C.3   1 <1>  -0.1600 
 17 C       -9.8520    -3.3470     0.8050 C.3   1 <1>   0.3430 
 18 C       -8.8600    -4.9020    -0.8490 C.3   1 <1>   0.3430 
 19 N       -9.6550    -4.7660     0.4020 N.4   1 <1>  -0.9590 
 20 C      -10.9830    -5.4490     0.2480 C.3   1 <1>   0.2630 
 21 H        1.3510     0.7640     0.5250 H     1 <1>   0.0800 
 22 H       -0.2310     1.5230     0.4000 H     1 <1>   0.0800 
 23 H        0.4590     0.6610    -0.9890 H     1 <1>   0.0800 
 24 H       -1.9090     0.8350    -1.0480 H     1 <1>   0.1500 
 25 H       -0.3430    -2.4080     2.0130 H     1 <1>   0.0800 
 26 H       -0.4200    -3.6950     0.8440 H     1 <1>   0.0800 
 27 H       -1.5920    -3.5830     2.1400 H     1 <1>   0.0800 
 28 H       -4.0640     0.0540    -1.7640 H     1 <1>   0.1500 
 29 H       -2.7640    -4.7380     0.3780 H     1 <1>   0.0800 
 30 H       -4.3680    -4.4370    -0.1530 H     1 <1>   0.0800 
 31 H       -3.9170    -4.0630     1.4980 H     1 <1>   0.0800 
 32 H       -5.2830    -3.2200    -1.5900 H     1 <1>   0.0800 
 33 H       -5.6650    -1.5580    -1.9600 H     1 <1>   0.0800 
 34 H       -5.7740    -2.7010     0.7260 H     1 <1>   0.4500 
 35 H       -8.0950    -2.2170    -1.0580 H     1 <1>   0.0800 
 36 H       -6.7730    -0.0980    -0.2370 H     1 <1>   0.0800 
 37 H       -5.3120    -0.3760     0.6860 H     1 <1>   0.0800 
 38 H       -6.8610    -0.6760     1.4160 H     1 <1>   0.0800 
 39 H       -8.7040    -1.6330     1.2260 H     1 <1>   0.0800 
 40 H       -8.0010    -3.1030     1.8430 H     1 <1>   0.0800 
 41 H       -6.9290    -4.7910     0.0540 H     1 <1>   0.0800 
 42 H       -6.9880    -4.3190    -1.6230 H     1 <1>   0.0800 
 43 H      -10.4190    -2.8290     0.0470 H     1 <1>   0.0800 
 44 H      -10.4120    -3.3020     1.7270 H     1 <1>   0.0800 
 45 H       -8.7270    -5.9460    -1.0870 H     1 <1>   0.0800 
 46 H       -9.3900    -4.4400    -1.6680 H     1 <1>   0.0800 
 47 H       -9.1590    -5.2580     1.1640 H     1 <1>   0.4500 
 48 H      -11.5610    -4.9840    -0.5350 H     1 <1>   0.0800 
 49 H      -11.5450    -5.3920     1.1680 H     1 <1>   0.0800 
 50 H      -10.8460    -6.4900     0.0010 H     1 <1>   0.0800 
@<TRIPOS>BOND
  1   1   2  1   
  2   1   3  1   
  3   2   4  ar  
  4   2   5  ar  
  5   3  21  1   
  6   3  22  1   
  7   3  23  1   
  8   4   6  ar  
  9   4   7  1   
 10   5   8  ar  
 11   5  24  1   
 12   6   9  ar  
 13   6  10  1   
 14   7  25  1   
 15   7  26  1   
 16   7  27  1   
 17   8   9  ar  
 18   8  28  1   
 19   9  11  1   
 20  10  29  1   
 21  10  30  1   
 22  10  31  1   
 23  11  12  1   
 24  11  32  1   
 25  11  33  1   
 26  12  13  1   
 27  12  14  1   
 28  12  34  1   
 29  13  15  1   
 30  13  16  1   
 31  13  35  1   
 32  14  36  1   
 33  14  37  1   
 34  14  38  1   
 35  15  17  1   
 36  15  39  1   
 37  15  40  1   
 38  16  18  1   
 39  16  41  1   
 40  16  42  1   
 41  17  19  1   
 42  17  43  1   
 43  17  44  1   
 44  18  19  1   
 45  18  45  1   
 46  18  46  1   
 47  19  20  1   
 48  19  47  1   
 49  20  48  1   
 50  20  49  1   
 51  20  50  1   
@<TRIPOS>SUBSTRUCTURE
  1 ****  12 GROUP 4 **** **** 0

# MOE 2024.06 (io_trps.svl 2023.06)
