@<TRIPOS>MOLECULE
NONAME
44 45 1 0 0 
SMALL
USER_CHARGES


@<TRIPOS>ATOM
  1 O        0.4060    -2.1330    -2.0380 O.2   1 <1>  -0.5700 
  2 C        0.2550    -2.2220    -0.8480 C.2   1 <1>   0.6590 
  3 O       -0.8340    -1.7930    -0.2290 O.3   1 <1>  -0.4300 
  4 C        1.3300    -2.8420     0.0400 C.3   1 <1>  -0.0190 
  5 C       -1.8970    -1.1990    -0.9390 C.3   1 <1>   0.1200 
  6 C        2.6060    -1.9790     0.0410 C.3   1 <1>  -0.1600 
  7 C        1.6590    -4.2790    -0.4080 C.3   1 <1>  -0.1600 
  8 C       -2.9830    -0.8220     0.0640 C.3   1 <1>  -0.2400 
  9 C        3.7400    -2.6280     0.8330 C.3   1 <1>   0.3430 
 10 C        2.8090    -4.8820     0.3950 C.3   1 <1>   0.3430 
 11 N        4.0020    -3.9970     0.2990 N.4   1 <1>  -0.9590 
 12 C        5.1950    -4.6190     0.9380 C.3   1 <1>   0.4860 
 13 C        6.4160    -3.7830     0.6090 C.ar  1 <1>  -0.1440 
 14 C        6.9690    -3.8140    -0.6640 C.ar  1 <1>  -0.1500 
 15 C        6.9890    -2.9750     1.5810 C.ar  1 <1>  -0.1500 
 16 C        8.0730    -3.0360    -0.9680 C.ar  1 <1>  -0.1500 
 17 C        8.0910    -2.1970     1.2770 C.ar  1 <1>  -0.1500 
 18 C        8.6380    -2.2180     0.0050 C.ar  1 <1>   0.0820 
 19 O        9.7140    -1.4220    -0.2070 O.3   1 <1>  -0.3630 
 20 C       10.3880    -1.4040    -1.4460 C.3   1 <1>   0.0400 
 21 H        0.9420    -2.8790     1.0440 H     1 <1>   0.0800 
 22 H       -2.2660    -1.9100    -1.6600 H     1 <1>   0.0800 
 23 H       -1.5230    -0.3280    -1.4500 H     1 <1>   0.0800 
 24 H        2.3860    -1.0170     0.4700 H     1 <1>   0.0800 
 25 H        2.9360    -1.8080    -0.9700 H     1 <1>   0.0800 
 26 H        1.9160    -4.2890    -1.4540 H     1 <1>   0.0800 
 27 H        0.7850    -4.8970    -0.2900 H     1 <1>   0.0800 
 28 H       -3.3410    -1.6990     0.5720 H     1 <1>   0.0800 
 29 H       -3.8080    -0.3660    -0.4530 H     1 <1>   0.0800 
 30 H       -2.5990    -0.1190     0.7810 H     1 <1>   0.0800 
 31 H        3.4690    -2.6850     1.8750 H     1 <1>   0.0800 
 32 H        4.6260    -2.0180     0.7460 H     1 <1>   0.0800 
 33 H        3.0400    -5.8620     0.0060 H     1 <1>   0.0800 
 34 H        2.5130    -4.9870     1.4270 H     1 <1>   0.0800 
 35 H        4.2370    -3.8780    -0.6950 H     1 <1>   0.4500 
 36 H        5.3400    -5.6190     0.5610 H     1 <1>   0.0800 
 37 H        5.0620    -4.6730     2.0060 H     1 <1>   0.0800 
 38 H        6.5560    -4.4440    -1.4340 H     1 <1>   0.1500 
 39 H        6.5930    -2.9390     2.5820 H     1 <1>   0.1500 
 40 H        8.4820    -3.0770    -1.9600 H     1 <1>   0.1500 
 41 H        8.5420    -1.5670     2.0240 H     1 <1>   0.1500 
 42 H       11.2120    -0.7180    -1.3680 H     1 <1>   0.0800 
 43 H        9.7080    -1.0710    -2.2100 H     1 <1>   0.0800 
 44 H       10.7550    -2.3930    -1.6590 H     1 <1>   0.0800 
@<TRIPOS>BOND
  1   1   2  2   
  2   2   3  1   
  3   2   4  1   
  4   3   5  1   
  5   4   6  1   
  6   4   7  1   
  7   4  21  1   
  8   5   8  1   
  9   5  22  1   
 10   5  23  1   
 11   6   9  1   
 12   6  24  1   
 13   6  25  1   
 14   7  10  1   
 15   7  26  1   
 16   7  27  1   
 17   8  28  1   
 18   8  29  1   
 19   8  30  1   
 20   9  11  1   
 21   9  31  1   
 22   9  32  1   
 23  10  11  1   
 24  10  33  1   
 25  10  34  1   
 26  11  12  1   
 27  11  35  1   
 28  12  13  1   
 29  12  36  1   
 30  12  37  1   
 31  13  14  ar  
 32  13  15  ar  
 33  14  16  ar  
 34  14  38  1   
 35  15  17  ar  
 36  15  39  1   
 37  16  18  ar  
 38  16  40  1   
 39  17  18  ar  
 40  17  41  1   
 41  18  19  1   
 42  19  20  1   
 43  20  42  1   
 44  20  43  1   
 45  20  44  1   
@<TRIPOS>SUBSTRUCTURE
  1 ****   9 GROUP 4 **** **** 0

# MOE 2024.06 (io_trps.svl 2023.06)
