@<TRIPOS>MOLECULE
NONAME
44 46 1 0 0 
SMALL
USER_CHARGES


@<TRIPOS>ATOM
  1 S        0.1230    -0.5950     0.4110 S.3   1 <1>  -0.4600 
  2 C       -1.0220     0.8070     0.6560 C.3   1 <1>   0.2110 
  3 C        1.3750     0.2940    -0.5430 C.3   1 <1>   0.2940 
  4 C       -2.4730     0.4700     0.3240 C.2   1 <1>   0.6590 
  5 C       -0.4230     1.9710    -0.1610 C.3   1 <1>   0.4240 
  6 C        2.7500    -0.3020    -0.2200 C.ar  1 <1>  -0.1430 
  7 C        1.1080     1.7530    -0.1600 C.3   1 <1>   0.1200 
  8 O       -2.8010    -0.3620    -0.4850 O.2   1 <1>  -0.5700 
  9 O       -3.3780     1.1560     1.0130 O.3   1 <1>  -0.4300 
 10 O       -0.8410     1.8840    -1.4880 O.3   1 <1>  -0.6800 
 11 C       -0.9060     3.3350     0.3750 C.ar  1 <1>  -0.1430 
 12 C        3.8220     0.4400     0.2710 C.ar  1 <1>  -0.1500 
 13 C        2.9390    -1.6600    -0.4450 C.ar  1 <1>  -0.1500 
 14 C        1.8140     2.6990    -1.0650 C.1   1 <1>   0.3570 
 15 C       -4.7590     0.9620     0.8180 C.3   1 <1>   0.1200 
 16 C       -2.1420     3.8390    -0.0250 C.ar  1 <1>  -0.1500 
 17 C       -0.1560     4.0940     1.2720 C.ar  1 <1>  -0.1500 
 18 C        5.0400    -0.1640     0.5320 C.ar  1 <1>  -0.1500 
 19 C        4.1560    -2.2660    -0.1840 C.ar  1 <1>  -0.1500 
 20 N        2.3500     3.4360    -1.7430 N.1   1 <1>  -0.5570 
 21 C       -5.5010     1.9650     1.6960 C.3   1 <1>  -0.2400 
 22 C       -2.6080     5.0550     0.4420 C.ar  1 <1>  -0.1500 
 23 C       -0.6210     5.3110     1.7390 C.ar  1 <1>  -0.1500 
 24 C        5.2090    -1.5170     0.3060 C.ar  1 <1>  -0.1500 
 25 C       -1.8460     5.7940     1.3240 C.ar  1 <1>  -0.1500 
 26 H       -0.9580     1.0380     1.7030 H     1 <1>   0.0800 
 27 H        1.1350     0.1260    -1.5800 H     1 <1>   0.0800 
 28 H        1.4800     1.8890     0.8360 H     1 <1>   0.0800 
 29 H       -0.7360     2.7580    -1.9200 H     1 <1>   0.4000 
 30 H        3.7460     1.4950     0.4580 H     1 <1>   0.1500 
 31 H        2.1310    -2.2620    -0.8260 H     1 <1>   0.1500 
 32 H       -5.0030    -0.0510     1.0910 H     1 <1>   0.0800 
 33 H       -4.9840     1.1200    -0.2240 H     1 <1>   0.0800 
 34 H       -2.7700     3.2870    -0.7050 H     1 <1>   0.1500 
 35 H        0.8010     3.7720     1.6370 H     1 <1>   0.1500 
 36 H        5.8610     0.4210     0.9100 H     1 <1>   0.1500 
 37 H        4.2800    -3.3190    -0.3630 H     1 <1>   0.1500 
 38 H       -5.2640     1.7980     2.7310 H     1 <1>   0.0800 
 39 H       -6.5620     1.8470     1.5650 H     1 <1>   0.0800 
 40 H       -5.2310     2.9690     1.4220 H     1 <1>   0.0800 
 41 H       -3.5660     5.4250     0.1180 H     1 <1>   0.1500 
 42 H       -0.0270     5.8860     2.4290 H     1 <1>   0.1500 
 43 H        6.1560    -1.9860     0.5090 H     1 <1>   0.1500 
 44 H       -2.2060     6.7420     1.6880 H     1 <1>   0.1500 
@<TRIPOS>BOND
  1   1   2  1   
  2   1   3  1   
  3   2   4  1   
  4   2   5  1   
  5   2  26  1   
  6   3   6  1   
  7   3   7  1   
  8   3  27  1   
  9   4   8  2   
 10   4   9  1   
 11   5   7  1   
 12   5  10  1   
 13   5  11  1   
 14   6  12  ar  
 15   6  13  ar  
 16   7  14  1   
 17   7  28  1   
 18   9  15  1   
 19  10  29  1   
 20  11  16  ar  
 21  11  17  ar  
 22  12  18  ar  
 23  12  30  1   
 24  13  19  ar  
 25  13  31  1   
 26  14  20  3   
 27  15  21  1   
 28  15  32  1   
 29  15  33  1   
 30  16  22  ar  
 31  16  34  1   
 32  17  23  ar  
 33  17  35  1   
 34  18  24  ar  
 35  18  36  1   
 36  19  24  ar  
 37  19  37  1   
 38  21  38  1   
 39  21  39  1   
 40  21  40  1   
 41  22  25  ar  
 42  22  41  1   
 43  23  25  ar  
 44  23  42  1   
 45  24  43  1   
 46  25  44  1   
@<TRIPOS>SUBSTRUCTURE
  1 ****   5 GROUP 4 **** **** 0

# MOE 2024.06 (io_trps.svl 2023.06)
