@<TRIPOS>MOLECULE
NONAME
46 48 1 0 0 
SMALL
USER_CHARGES


@<TRIPOS>ATOM
  1 S        0.1410     0.0010     0.2010 S.o2  1 <1>   1.4470 
  2 O        0.0930    -0.4740     1.5650 O.2   1 <1>  -0.6500 
  3 O        0.2680    -0.9360    -0.8900 O.2   1 <1>  -0.6500 
  4 N       -1.3440     0.7900    -0.0440 N.am  1 <1>  -0.8490 
  5 C        1.3630     1.3320     0.0170 C.ar  1 <1>  -0.0090 
  6 C       -2.4100    -0.2000    -0.3300 C.3   1 <1>   0.1960 
  7 C       -1.7360     1.6350     1.1070 C.3   1 <1>   0.1960 
  8 C        1.4890     2.0100    -1.1940 C.ar  1 <1>  -0.1500 
  9 C        2.1890     1.7080     1.0780 C.ar  1 <1>  -0.1500 
 10 C       -3.8200     0.4330    -0.4490 C.3   1 <1>   0.3430 
 11 C       -3.0620     2.3990     0.8550 C.3   1 <1>   0.3430 
 12 C        2.4090     3.0330    -1.3180 C.ar  1 <1>   0.1900 
 13 C        3.1170     2.7340     0.9550 C.ar  1 <1>  -0.1500 
 14 N       -3.7620     1.9350    -0.3990 N.4   1 <1>  -0.9590 
 15 F        2.4980     3.6610    -2.4620 F     1 <1>  -0.1900 
 16 C        3.2170     3.3940    -0.2540 C.ar  1 <1>   0.1900 
 17 C       -5.0730     2.5800    -0.6920 C.3   1 <1>   0.4230 
 18 F        4.0840     4.3650    -0.3760 F     1 <1>  -0.1900 
 19 C       -4.8690     4.0700    -0.9950 C.3   1 <1>  -0.1600 
 20 C       -6.0880     2.3810     0.4450 C.3   1 <1>  -0.1600 
 21 C       -6.2060     4.7410    -1.3480 C.3   1 <1>  -0.1600 
 22 C       -7.4280     3.0470     0.0960 C.3   1 <1>  -0.1600 
 23 C       -7.2410     4.5340    -0.2340 C.3   1 <1>  -0.1600 
 24 H       -2.4300    -0.9540     0.4410 H     1 <1>   0.0800 
 25 H       -2.1870    -0.7050    -1.2560 H     1 <1>   0.0800 
 26 H       -0.9600     2.3510     1.3180 H     1 <1>   0.0800 
 27 H       -1.8550     1.0240     1.9880 H     1 <1>   0.0800 
 28 H        0.8780     1.7400    -2.0380 H     1 <1>   0.1500 
 29 H        2.1120     1.1860     2.0200 H     1 <1>   0.1500 
 30 H       -4.4340     0.0650     0.3560 H     1 <1>   0.0800 
 31 H       -4.2690     0.1100    -1.3740 H     1 <1>   0.0800 
 32 H       -2.8440     3.4510     0.7780 H     1 <1>   0.0800 
 33 H       -3.7030     2.2640     1.7090 H     1 <1>   0.0800 
 34 H        3.7520     3.0160     1.7770 H     1 <1>   0.1500 
 35 H       -3.1170     2.1870    -1.1620 H     1 <1>   0.4500 
 36 H       -5.4850     2.1280    -1.5810 H     1 <1>   0.0800 
 37 H       -4.1960     4.1880    -1.8260 H     1 <1>   0.0800 
 38 H       -4.4570     4.5770    -0.1410 H     1 <1>   0.0800 
 39 H       -5.7270     2.8230     1.3560 H     1 <1>   0.0800 
 40 H       -6.2640     1.3340     0.6130 H     1 <1>   0.0800 
 41 H       -6.5870     4.3310    -2.2690 H     1 <1>   0.0800 
 42 H       -6.0540     5.7960    -1.5020 H     1 <1>   0.0800 
 43 H       -8.1100     2.9490     0.9250 H     1 <1>   0.0800 
 44 H       -7.8740     2.5490    -0.7490 H     1 <1>   0.0800 
 45 H       -8.1850     4.9540    -0.5410 H     1 <1>   0.0800 
 46 H       -6.9270     5.0620     0.6510 H     1 <1>   0.0800 
@<TRIPOS>BOND
  1   1   2  2   
  2   1   3  2   
  3   1   4  am  
  4   1   5  1   
  5   4   6  1   
  6   4   7  1   
  7   5   8  ar  
  8   5   9  ar  
  9   6  10  1   
 10   6  24  1   
 11   6  25  1   
 12   7  11  1   
 13   7  26  1   
 14   7  27  1   
 15   8  12  ar  
 16   8  28  1   
 17   9  13  ar  
 18   9  29  1   
 19  10  14  1   
 20  10  30  1   
 21  10  31  1   
 22  11  14  1   
 23  11  32  1   
 24  11  33  1   
 25  12  15  1   
 26  12  16  ar  
 27  13  16  ar  
 28  13  34  1   
 29  14  17  1   
 30  14  35  1   
 31  16  18  1   
 32  17  19  1   
 33  17  20  1   
 34  17  36  1   
 35  19  21  1   
 36  19  37  1   
 37  19  38  1   
 38  20  22  1   
 39  20  39  1   
 40  20  40  1   
 41  21  23  1   
 42  21  41  1   
 43  21  42  1   
 44  22  23  1   
 45  22  43  1   
 46  22  44  1   
 47  23  45  1   
 48  23  46  1   
@<TRIPOS>SUBSTRUCTURE
  1 ****   4 GROUP 4 **** **** 0

# MOE 2024.06 (io_trps.svl 2023.06)
