@<TRIPOS>MOLECULE
NONAME
54 56 1 0 0 
SMALL
USER_CHARGES


@<TRIPOS>ATOM
  1 O       -1.5960     0.3140     1.1040 O.3   1 <1>  -0.3630 
  2 C       -2.1600     0.7060    -0.0740 C.ar  1 <1>   0.0830 
  3 C       -0.2230     0.4420     1.3900 C.3   1 <1>   0.1200 
  4 C       -1.5570     1.4610    -1.0970 C.ar  1 <1>   0.0820 
  5 C       -3.4720     0.2920    -0.2190 C.ar  1 <1>  -0.1500 
  6 C        0.0490    -0.2560     2.7190 C.3   1 <1>  -0.2400 
  7 O       -0.2680     1.8890    -0.9720 O.3   1 <1>  -0.3620 
  8 C       -2.3060     1.7680    -2.2310 C.ar  1 <1>  -0.1500 
  9 C       -4.2150     0.6150    -1.3430 C.ar  1 <1>  -0.1440 
 10 C        0.4380     2.5040    -2.0290 C.3   1 <1>   0.0400 
 11 C       -3.6200     1.3510    -2.3540 C.ar  1 <1>  -0.1500 
 12 C       -5.6630     0.1790    -1.4470 C.3   1 <1>   0.4860 
 13 N       -6.4390     0.8820    -0.3910 N.4   1 <1>  -0.9590 
 14 C       -7.8620     0.3930    -0.3090 C.3   1 <1>   0.3430 
 15 C       -6.3870     2.3830    -0.5590 C.3   1 <1>   0.3430 
 16 C       -8.6650     1.0930     0.8080 C.3   1 <1>   0.2090 
 17 C       -7.1640     3.1320     0.5440 C.3   1 <1>   0.2090 
 18 N       -8.5370     2.5760     0.7310 N.pl3 1 <1>  -0.8380 
 19 C       -9.6100     3.2880     0.1970 C.ar  1 <1>   0.1000 
 20 C      -10.5200     3.9410     1.0300 C.ar  1 <1>  -0.1430 
 21 C       -9.7910     3.3540    -1.1820 C.ar  1 <1>  -0.1500 
 22 C      -11.5820     4.6380     0.4780 C.ar  1 <1>  -0.1500 
 23 C      -10.3580     3.9000     2.5430 C.3   1 <1>  -0.0970 
 24 C      -10.8530     4.0510    -1.7260 C.ar  1 <1>  -0.1500 
 25 C      -11.7510     4.6940    -0.8950 C.ar  1 <1>  -0.1500 
 26 H        0.0150     1.4900     1.4570 H     1 <1>   0.0800 
 27 H        0.3380    -0.0190     0.5950 H     1 <1>   0.0800 
 28 H       -3.8940    -0.2960     0.5770 H     1 <1>   0.1500 
 29 H       -0.5280     0.2010     3.5020 H     1 <1>   0.0800 
 30 H        1.0910    -0.1700     2.9650 H     1 <1>   0.0800 
 31 H       -0.2020    -1.2990     2.6470 H     1 <1>   0.0800 
 32 H       -1.8840     2.3380    -3.0370 H     1 <1>   0.1500 
 33 H        1.4470     2.6750    -1.7000 H     1 <1>   0.0800 
 34 H       -0.0300     3.4430    -2.2640 H     1 <1>   0.0800 
 35 H        0.4400     1.8450    -2.8800 H     1 <1>   0.0800 
 36 H       -4.1660     1.6100    -3.2470 H     1 <1>   0.1500 
 37 H       -5.7230    -0.8890    -1.3070 H     1 <1>   0.0800 
 38 H       -6.0520     0.4200    -2.4230 H     1 <1>   0.0800 
 39 H       -5.9770     0.6790     0.5040 H     1 <1>   0.4500 
 40 H       -7.8780    -0.6700    -0.1340 H     1 <1>   0.0800 
 41 H       -8.3630     0.5820    -1.2440 H     1 <1>   0.0800 
 42 H       -6.8120     2.6550    -1.5100 H     1 <1>   0.0800 
 43 H       -5.3630     2.7200    -0.5480 H     1 <1>   0.0800 
 44 H       -8.3180     0.7610     1.7710 H     1 <1>   0.0800 
 45 H       -9.7040     0.8200     0.7260 H     1 <1>   0.0800 
 46 H       -7.2330     4.1760     0.2860 H     1 <1>   0.0800 
 47 H       -6.6290     3.0650     1.4750 H     1 <1>   0.0800 
 48 H       -9.1030     2.8580    -1.8340 H     1 <1>   0.1500 
 49 H      -12.2880     5.1440     1.1130 H     1 <1>   0.1500 
 50 H      -10.4310     2.8860     2.8890 H     1 <1>   0.0800 
 51 H      -11.1160     4.4850     3.0310 H     1 <1>   0.0800 
 52 H       -9.3950     4.2910     2.8160 H     1 <1>   0.0800 
 53 H      -10.9860     4.0970    -2.7930 H     1 <1>   0.1500 
 54 H      -12.5800     5.2390    -1.3130 H     1 <1>   0.1500 
@<TRIPOS>BOND
  1   1   2  1   
  2   1   3  1   
  3   2   4  ar  
  4   2   5  ar  
  5   3   6  1   
  6   3  26  1   
  7   3  27  1   
  8   4   7  1   
  9   4   8  ar  
 10   5   9  ar  
 11   5  28  1   
 12   6  29  1   
 13   6  30  1   
 14   6  31  1   
 15   7  10  1   
 16   8  11  ar  
 17   8  32  1   
 18   9  11  ar  
 19   9  12  1   
 20  10  33  1   
 21  10  34  1   
 22  10  35  1   
 23  11  36  1   
 24  12  13  1   
 25  12  37  1   
 26  12  38  1   
 27  13  14  1   
 28  13  15  1   
 29  13  39  1   
 30  14  16  1   
 31  14  40  1   
 32  14  41  1   
 33  15  17  1   
 34  15  42  1   
 35  15  43  1   
 36  16  18  1   
 37  16  44  1   
 38  16  45  1   
 39  17  18  1   
 40  17  46  1   
 41  17  47  1   
 42  18  19  1   
 43  19  20  ar  
 44  19  21  ar  
 45  20  22  ar  
 46  20  23  1   
 47  21  24  ar  
 48  21  48  1   
 49  22  25  ar  
 50  22  49  1   
 51  23  50  1   
 52  23  51  1   
 53  23  52  1   
 54  24  25  ar  
 55  24  53  1   
 56  25  54  1   
@<TRIPOS>SUBSTRUCTURE
  1 ****  15 GROUP 4 **** **** 0

# MOE 2024.06 (io_trps.svl 2023.06)
