@<TRIPOS>MOLECULE
NONAME
29 29 1 0 0 
SMALL
USER_CHARGES


@<TRIPOS>ATOM
  1 CL       0.9300     0.7260    -1.6870 Cl    1 <1>  -0.1770 
  2 C        0.5680     2.0680    -0.6250 C.ar  1 <1>   0.1770 
  3 C        1.4940     2.5320     0.3160 C.ar  1 <1>   0.0860 
  4 C       -0.6860     2.6340    -0.7640 C.ar  1 <1>  -0.1500 
  5 C        2.8270     1.9860     0.4950 C.2   1 <1>   0.5440 
  6 C        1.0750     3.5940     1.1220 C.ar  1 <1>  -0.1500 
  7 C       -1.0690     3.6900     0.0440 C.ar  1 <1>  -0.1430 
  8 O        3.3370     1.9770     1.5990 O.2   1 <1>  -0.5700 
  9 N        3.5660     1.5150    -0.5530 N.am  1 <1>  -0.7300 
 10 C       -0.1780     4.1650     0.9900 C.ar  1 <1>  -0.1500 
 11 C       -2.4430     4.3220    -0.0980 C.3   1 <1>  -0.0970 
 12 C        4.9050     0.8800    -0.4410 C.3   1 <1>   0.1400 
 13 C        5.9840     1.9390    -0.2140 C.3   1 <1>   0.1200 
 14 O        7.2340     1.3320    -0.3320 O.3   1 <1>  -0.5600 
 15 C        8.2970     2.1850    -0.0590 C.3   1 <1>   0.0400 
 16 H       -1.3590     2.2410    -1.5060 H     1 <1>   0.1500 
 17 H        1.7520     3.9770     1.8680 H     1 <1>   0.1500 
 18 H        3.1110     1.4170    -1.4650 H     1 <1>   0.3700 
 19 H       -0.4580     4.9840     1.6300 H     1 <1>   0.1500 
 20 H       -3.1060     3.6780    -0.6460 H     1 <1>   0.0800 
 21 H       -2.3610     5.2590    -0.6190 H     1 <1>   0.0800 
 22 H       -2.8700     4.5010     0.8730 H     1 <1>   0.0800 
 23 H        5.1170     0.3400    -1.3470 H     1 <1>   0.0800 
 24 H        4.9050     0.1910     0.3870 H     1 <1>   0.0800 
 25 H        5.8880     2.3550     0.7750 H     1 <1>   0.0800 
 26 H        5.9110     2.7130    -0.9570 H     1 <1>   0.0800 
 27 H        9.2110     1.6310    -0.1820 H     1 <1>   0.0800 
 28 H        8.2190     2.5360     0.9560 H     1 <1>   0.0800 
 29 H        8.2770     3.0110    -0.7490 H     1 <1>   0.0800 
@<TRIPOS>BOND
  1   1   2  1   
  2   2   3  ar  
  3   2   4  ar  
  4   3   5  1   
  5   3   6  ar  
  6   4   7  ar  
  7   4  16  1   
  8   5   8  2   
  9   5   9  am  
 10   6  10  ar  
 11   6  17  1   
 12   7  10  ar  
 13   7  11  1   
 14   9  12  1   
 15   9  18  1   
 16  10  19  1   
 17  11  20  1   
 18  11  21  1   
 19  11  22  1   
 20  12  13  1   
 21  12  23  1   
 22  12  24  1   
 23  13  14  1   
 24  13  25  1   
 25  13  26  1   
 26  14  15  1   
 27  15  27  1   
 28  15  28  1   
 29  15  29  1   
@<TRIPOS>SUBSTRUCTURE
  1 ****   5 GROUP 4 **** **** 0

# MOE 2024.06 (io_trps.svl 2023.06)
