@<TRIPOS>MOLECULE
NONAME
30 30 1 0 0 
SMALL
USER_CHARGES


@<TRIPOS>ATOM
  1 O        1.2390    -0.8270     1.8900 O.2   1 <1>  -0.5700 
  2 C        1.2800    -0.9200     0.6880 C.2   1 <1>   0.5690 
  3 N        0.4040    -1.6730    -0.0150 N.am  1 <1>  -0.7300 
  4 C        2.3720    -0.2110    -0.0610 C.3   1 <1>  -0.0380 
  5 C       -0.4320    -2.7140     0.5840 C.3   1 <1>   0.3640 
  6 C        3.0930    -1.2280    -0.9110 C.2   1 <1>   0.4480 
  7 C        0.3270    -4.0340     0.5000 C.ar  1 <1>  -0.1440 
  8 C       -1.7610    -2.7650    -0.1620 C.3   1 <1>  -0.2400 
  9 O        2.8900    -1.2960    -2.0850 O.2   1 <1>  -0.5700 
 10 C        4.0450    -2.1800    -0.2190 C.3   1 <1>  -0.1790 
 11 C        0.7320    -4.5660    -0.7190 C.ar  1 <1>  -0.1500 
 12 C        0.6430    -4.7160     1.6660 C.ar  1 <1>  -0.1500 
 13 C        1.4320    -5.7590    -0.7690 C.ar  1 <1>  -0.1500 
 14 C        1.3420    -5.9100     1.6180 C.ar  1 <1>  -0.1500 
 15 C        1.7370    -6.4320     0.4000 C.ar  1 <1>  -0.1500 
 16 H        0.5460    -1.7820    -1.0220 H     1 <1>   0.3700 
 17 H        3.0560     0.2500     0.6260 H     1 <1>   0.0800 
 18 H        1.9390     0.5470    -0.6840 H     1 <1>   0.0800 
 19 H       -0.6210    -2.4690     1.6170 H     1 <1>   0.0800 
 20 H       -1.6120    -2.9700    -1.2060 H     1 <1>   0.0800 
 21 H       -2.2790    -1.8290    -0.0510 H     1 <1>   0.0800 
 22 H       -2.3740    -3.5440     0.2540 H     1 <1>   0.0800 
 23 H        3.5060    -2.7920     0.4820 H     1 <1>   0.0800 
 24 H        4.8080    -1.6300     0.2990 H     1 <1>   0.0800 
 25 H        4.5090    -2.8200    -0.9470 H     1 <1>   0.0800 
 26 H        0.5080    -4.0550    -1.6390 H     1 <1>   0.1500 
 27 H        0.3490    -4.3170     2.6220 H     1 <1>   0.1500 
 28 H        1.7400    -6.1620    -1.7180 H     1 <1>   0.1500 
 29 H        1.5800    -6.4300     2.5290 H     1 <1>   0.1500 
 30 H        2.2800    -7.3600     0.3610 H     1 <1>   0.1500 
@<TRIPOS>BOND
  1   1   2  2   
  2   2   3  am  
  3   2   4  1   
  4   3   5  1   
  5   3  16  1   
  6   4   6  1   
  7   4  17  1   
  8   4  18  1   
  9   5   7  1   
 10   5   8  1   
 11   5  19  1   
 12   6   9  2   
 13   6  10  1   
 14   7  11  ar  
 15   7  12  ar  
 16   8  20  1   
 17   8  21  1   
 18   8  22  1   
 19  10  23  1   
 20  10  24  1   
 21  10  25  1   
 22  11  13  ar  
 23  11  26  1   
 24  12  14  ar  
 25  12  27  1   
 26  13  15  ar  
 27  13  28  1   
 28  14  15  ar  
 29  14  29  1   
 30  15  30  1   
@<TRIPOS>SUBSTRUCTURE
  1 ****   7 GROUP 4 **** **** 0

# MOE 2024.06 (io_trps.svl 2023.06)
