@<TRIPOS>MOLECULE
NONAME
32 34 1 0 0 
SMALL
USER_CHARGES


@<TRIPOS>ATOM
  1 BR       7.8110    -2.5790     2.9720 Br    1 <1>  -0.0580 
  2 C        7.8410    -1.4120     1.4450 C.2   1 <1>   0.2440 
  3 N        8.8990    -0.7750     1.0910 N.2   1 <1>  -0.5650 
  4 N        6.7280    -1.2370     0.6880 N.pl3 1 <1>   0.0480 
  5 C        8.4590    -0.0860    -0.0110 C.ar  1 <1>   0.2270 
  6 C        7.1380    -0.3680    -0.2680 C.ar  1 <1>   0.1050 
  7 C        5.3990    -1.8500     0.8820 C.3   1 <1>   0.4560 
  8 C        9.0880     0.8080    -0.8950 C.ar  1 <1>   0.4100 
  9 N        6.4580     0.1490    -1.3000 N.ar  1 <1>  -0.5670 
 10 O        4.5400    -0.8770     1.4130 O.3   1 <1>  -0.5600 
 11 C        4.7720    -2.3720    -0.4290 C.3   1 <1>   0.2000 
 12 N        8.4480     1.3300    -1.9120 N.ar  1 <1>  -0.6200 
 13 N       10.3900     1.1800    -0.7580 N.pl3 1 <1>  -0.9000 
 14 C        7.1650     0.9690    -2.0480 C.ar  1 <1>   0.4700 
 15 C        3.2990    -0.9400     0.7800 C.3   1 <1>   0.2000 
 16 O        4.3020    -3.6900    -0.2600 O.3   1 <1>  -0.6800 
 17 C        3.6030    -1.4140    -0.6400 C.3   1 <1>   0.2000 
 18 C        2.6070     0.4260     0.8250 C.3   1 <1>   0.1200 
 19 O        2.4980    -2.0450    -1.2040 O.3   1 <1>  -0.6800 
 20 O        1.3650     0.3340     0.2090 O.3   1 <1>  -0.6800 
 21 H        5.4670    -2.6490     1.5970 H     1 <1>   0.0800 
 22 H        5.4570    -2.3550    -1.2580 H     1 <1>   0.0800 
 23 H       10.8370     1.7110    -1.5060 H     1 <1>   0.4000 
 24 H       10.9910     0.7120    -0.0770 H     1 <1>   0.4000 
 25 H        6.6540     1.4140    -2.8860 H     1 <1>   0.1500 
 26 H        2.7150    -1.6740     1.3090 H     1 <1>   0.0800 
 27 H        5.0150    -4.3450    -0.4120 H     1 <1>   0.4000 
 28 H        3.8810    -0.5800    -1.2600 H     1 <1>   0.0800 
 29 H        3.1870     1.1630     0.2980 H     1 <1>   0.0800 
 30 H        2.4500     0.7430     1.8410 H     1 <1>   0.0800 
 31 H        2.5680    -3.0020    -0.9800 H     1 <1>   0.4000 
 32 H        1.4130    -0.2820    -0.5590 H     1 <1>   0.4000 
@<TRIPOS>BOND
  1   1   2  1   
  2   2   3  2   
  3   2   4  1   
  4   3   5  1   
  5   4   6  1   
  6   4   7  1   
  7   5   6  ar  
  8   5   8  ar  
  9   6   9  ar  
 10   7  10  1   
 11   7  11  1   
 12   7  21  1   
 13   8  12  ar  
 14   8  13  1   
 15   9  14  ar  
 16  10  15  1   
 17  11  16  1   
 18  11  17  1   
 19  11  22  1   
 20  12  14  ar  
 21  13  23  1   
 22  13  24  1   
 23  14  25  1   
 24  15  17  1   
 25  15  18  1   
 26  15  26  1   
 27  16  27  1   
 28  17  19  1   
 29  17  28  1   
 30  18  20  1   
 31  18  29  1   
 32  18  30  1   
 33  19  31  1   
 34  20  32  1   
@<TRIPOS>SUBSTRUCTURE
  1 ****   4 GROUP 4 **** **** 0

# MOE 2024.06 (io_trps.svl 2023.06)
