@<TRIPOS>MOLECULE
NONAME
43 45 1 0 0 
SMALL
USER_CHARGES


@<TRIPOS>ATOM
  1 O        0.0040     0.6830    -2.2210 O.2   1 <1>  -0.5700 
  2 C       -0.4150     1.5630    -1.5090 C.2   1 <1>   0.5690 
  3 N        0.4350     2.3930    -0.8210 N.am  1 <1>  -0.6600 
  4 C       -1.9180     1.7250    -1.4200 C.3   1 <1>  -0.0990 
  5 C        1.9060     2.1340    -0.7970 C.3   1 <1>   0.1400 
  6 C        0.0640     3.6160    -0.0440 C.3   1 <1>   0.1400 
  7 C       -2.4610     1.2650    -0.0600 C.3   1 <1>   0.2430 
  8 C        2.4330     2.1670     0.6470 C.3   1 <1>   0.1200 
  9 C        0.6820     3.5620     1.3640 C.3   1 <1>   0.1200 
 10 C       -2.2740    -0.2410     0.1350 C.ar  1 <1>  -0.1440 
 11 C       -3.9170     1.6860     0.1170 C.2   1 <1>  -0.0400 
 12 O        2.0640     3.3580     1.2870 O.3   1 <1>  -0.5600 
 13 C       -1.1520    -0.7180     0.7970 C.ar  1 <1>  -0.1500 
 14 C       -3.2040    -1.1530    -0.3440 C.ar  1 <1>  -0.1500 
 15 O       -4.4060     1.7360     1.3420 O.3   1 <1>  -0.2800 
 16 C       -4.8650     2.0470    -0.7790 C.2   1 <1>  -0.1500 
 17 C       -0.9650    -2.0770     0.9800 C.ar  1 <1>  -0.1500 
 18 C       -3.0180    -2.5120    -0.1600 C.ar  1 <1>  -0.1500 
 19 C       -5.6640     2.1190     1.2580 C.2   1 <1>  -0.0100 
 20 C       -6.0120     2.3300    -0.0280 C.2   1 <1>  -0.1500 
 21 C       -1.8960    -2.9820     0.5020 C.ar  1 <1>  -0.1440 
 22 C       -1.6940    -4.4730     0.7020 C.3   1 <1>  -0.0970 
 23 H       -2.3740     1.1380    -2.1960 H     1 <1>   0.0800 
 24 H       -2.1700     2.7520    -1.5980 H     1 <1>   0.0800 
 25 H        2.4090     2.8870    -1.3780 H     1 <1>   0.0800 
 26 H        2.1310     1.1760    -1.2310 H     1 <1>   0.0800 
 27 H       -1.0000     3.7280     0.0380 H     1 <1>   0.0800 
 28 H        0.4450     4.4840    -0.5560 H     1 <1>   0.0800 
 29 H       -1.9120     1.7660     0.7150 H     1 <1>   0.0800 
 30 H        3.5070     2.1110     0.6510 H     1 <1>   0.0800 
 31 H        2.0420     1.3370     1.2100 H     1 <1>   0.0800 
 32 H        0.2470     2.7650     1.9410 H     1 <1>   0.0800 
 33 H        0.5170     4.4920     1.8780 H     1 <1>   0.0800 
 34 H       -0.4110    -0.0340     1.1720 H     1 <1>   0.1500 
 35 H       -4.0830    -0.8130    -0.8610 H     1 <1>   0.1500 
 36 H       -4.7990     2.1120    -1.8500 H     1 <1>   0.1500 
 37 H       -0.0890    -2.4260     1.4960 H     1 <1>   0.1500 
 38 H       -3.7520    -3.2020    -0.5370 H     1 <1>   0.1500 
 39 H       -6.2370     2.2140     2.1640 H     1 <1>   0.1500 
 40 H       -6.9600     2.6460    -0.4260 H     1 <1>   0.1500 
 41 H       -0.6460    -4.7050     0.7610 H     1 <1>   0.0800 
 42 H       -2.1160    -5.0210    -0.1210 H     1 <1>   0.0800 
 43 H       -2.1730    -4.7850     1.6120 H     1 <1>   0.0800 
@<TRIPOS>BOND
  1   1   2  2   
  2   2   3  am  
  3   2   4  1   
  4   3   5  1   
  5   3   6  1   
  6   4   7  1   
  7   4  23  1   
  8   4  24  1   
  9   5   8  1   
 10   5  25  1   
 11   5  26  1   
 12   6   9  1   
 13   6  27  1   
 14   6  28  1   
 15   7  10  1   
 16   7  11  1   
 17   7  29  1   
 18   8  12  1   
 19   8  30  1   
 20   8  31  1   
 21   9  12  1   
 22   9  32  1   
 23   9  33  1   
 24  10  13  ar  
 25  10  14  ar  
 26  11  15  1   
 27  11  16  2   
 28  13  17  ar  
 29  13  34  1   
 30  14  18  ar  
 31  14  35  1   
 32  15  19  1   
 33  16  20  1   
 34  16  36  1   
 35  17  21  ar  
 36  17  37  1   
 37  18  21  ar  
 38  18  38  1   
 39  19  20  2   
 40  19  39  1   
 41  20  40  1   
 42  21  22  1   
 43  22  41  1   
 44  22  42  1   
 45  22  43  1   
@<TRIPOS>SUBSTRUCTURE
  1 ****   7 GROUP 4 **** **** 0

# MOE 2024.06 (io_trps.svl 2023.06)
