@<TRIPOS>MOLECULE
NONAME
48 50 1 0 0 
SMALL
USER_CHARGES


@<TRIPOS>ATOM
  1 O       -1.0170     1.3510    -0.2020 O.2   1 <1>  -0.5700 
  2 C       -0.7120     2.4440     0.2220 C.2   1 <1>   0.5690 
  3 N        0.3390     3.1970    -0.2230 N.am  1 <1>  -0.4770 
  4 C       -1.4840     3.2180     1.3180 C.3   1 <1>   0.4850 
  5 C        0.3980     4.3970     0.4830 C.ar  1 <1>   0.1170 
  6 C        1.3150     2.7470    -1.2380 C.3   1 <1>   0.1400 
  7 O       -1.4700     2.5820     2.5580 O.3   1 <1>  -0.6800 
  8 C       -0.6260     4.4720     1.4090 C.ar  1 <1>  -0.1430 
  9 C       -2.9250     3.5520     0.9290 C.3   1 <1>  -0.0990 
 10 C        1.3090     5.4370     0.3640 C.ar  1 <1>  -0.1500 
 11 C        2.5520     2.1670    -0.5470 C.3   1 <1>  -0.1600 
 12 C       -0.7530     5.5710     2.2410 C.ar  1 <1>  -0.1500 
 13 C       -3.7370     2.3000     0.6740 C.2   1 <1>   0.5950 
 14 C        1.1810     6.5440     1.1870 C.ar  1 <1>  -0.1500 
 15 C        3.5940     1.7010    -1.5710 C.3   1 <1>  -0.1600 
 16 C        0.1570     6.6100     2.1230 C.ar  1 <1>  -0.1500 
 17 O       -3.7760     1.4700     1.5490 O.2   1 <1>  -0.5700 
 18 C       -4.4150     2.1530    -0.5870 C.2   1 <1>  -0.0860 
 19 C        4.8270     1.1220    -0.8740 C.3   1 <1>  -0.2400 
 20 C       -4.4280     1.0730    -1.4180 C.2   1 <1>  -0.0400 
 21 C       -5.2250     3.0820    -1.2590 C.2   1 <1>  -0.1810 
 22 O       -5.1350     1.2370    -2.5180 O.3   1 <1>  -0.2800 
 23 C       -3.7350    -0.2640    -1.2470 C.3   1 <1>  -0.0600 
 24 C       -5.6100     2.4660    -2.3920 C.2   1 <1>  -0.0100 
 25 C       -5.6240     4.4730    -0.7960 C.3   1 <1>  -0.0590 
 26 H        1.5890     3.5800    -1.8620 H     1 <1>   0.0800 
 27 H        0.8590     1.9950    -1.8600 H     1 <1>   0.0800 
 28 H       -2.0600     1.7960     2.4990 H     1 <1>   0.4000 
 29 H       -2.8940     4.1430     0.0350 H     1 <1>   0.0800 
 30 H       -3.3880     4.1310     1.7050 H     1 <1>   0.0800 
 31 H        2.1050     5.3830    -0.3550 H     1 <1>   0.1500 
 32 H        2.2510     1.3300     0.0610 H     1 <1>   0.0800 
 33 H        2.9890     2.9140     0.0930 H     1 <1>   0.0800 
 34 H       -1.5410     5.6140     2.9730 H     1 <1>   0.1500 
 35 H        1.8820     7.3570     1.1060 H     1 <1>   0.1500 
 36 H        3.8930     2.5300    -2.1890 H     1 <1>   0.0800 
 37 H        3.1620     0.9470    -2.2090 H     1 <1>   0.0800 
 38 H        0.0720     7.4720     2.7630 H     1 <1>   0.1500 
 39 H        5.2890     1.8640    -0.2470 H     1 <1>   0.0800 
 40 H        5.5460     0.7980    -1.6060 H     1 <1>   0.0800 
 41 H        4.5540     0.2770    -0.2670 H     1 <1>   0.0800 
 42 H       -3.2040    -0.3110    -0.3150 H     1 <1>   0.0800 
 43 H       -3.0320    -0.4100    -2.0480 H     1 <1>   0.0800 
 44 H       -4.4620    -1.0550    -1.2710 H     1 <1>   0.0800 
 45 H       -6.2430     2.8350    -3.1800 H     1 <1>   0.1500 
 46 H       -4.7900     5.1470    -0.8590 H     1 <1>   0.0800 
 47 H       -5.9800     4.4380     0.2180 H     1 <1>   0.0800 
 48 H       -6.4130     4.8540    -1.4200 H     1 <1>   0.0800 
@<TRIPOS>BOND
  1   1   2  2   
  2   2   3  am  
  3   2   4  1   
  4   3   5  1   
  5   3   6  1   
  6   4   7  1   
  7   4   8  1   
  8   4   9  1   
  9   5   8  ar  
 10   5  10  ar  
 11   6  11  1   
 12   6  26  1   
 13   6  27  1   
 14   7  28  1   
 15   8  12  ar  
 16   9  13  1   
 17   9  29  1   
 18   9  30  1   
 19  10  14  ar  
 20  10  31  1   
 21  11  15  1   
 22  11  32  1   
 23  11  33  1   
 24  12  16  ar  
 25  12  34  1   
 26  13  17  2   
 27  13  18  1   
 28  14  16  ar  
 29  14  35  1   
 30  15  19  1   
 31  15  36  1   
 32  15  37  1   
 33  16  38  1   
 34  18  20  2   
 35  18  21  1   
 36  19  39  1   
 37  19  40  1   
 38  19  41  1   
 39  20  22  1   
 40  20  23  1   
 41  21  24  2   
 42  21  25  1   
 43  22  24  1   
 44  23  42  1   
 45  23  43  1   
 46  23  44  1   
 47  24  45  1   
 48  25  46  1   
 49  25  47  1   
 50  25  48  1   
@<TRIPOS>SUBSTRUCTURE
  1 ****   2 GROUP 4 **** **** 0

# MOE 2024.06 (io_trps.svl 2023.06)
