@<TRIPOS>MOLECULE
NONAME
20 19 1 0 0 
SMALL
USER_CHARGES


@<TRIPOS>ATOM
  1 F        0.0210    -0.8670     0.4100 F     1 <1>  -0.3400 
  2 C        0.9600    -1.3830    -0.3820 C.3   1 <1>   1.0810 
  3 F        1.2230    -2.5920     0.1210 F     1 <1>  -0.3400 
  4 F        0.3710    -1.6070    -1.5560 F     1 <1>  -0.3400 
  5 C        2.2450    -0.4870    -0.4830 C.2   1 <1>   0.5690 
  6 O        2.1760     0.6190    -0.9840 O.2   1 <1>  -0.5700 
  7 N        3.4590    -0.9300    -0.0050 N.am  1 <1>  -0.7300 
  8 C        4.7330    -0.1870    -0.0800 C.3   1 <1>   0.1400 
  9 C        5.8840    -1.1870    -0.0550 C.3   1 <1>  -0.1600 
 10 C        7.2460    -0.4770    -0.0900 C.3   1 <1>  -0.2660 
 11 C        8.3870    -1.4620    -0.0090 C.2   1 <1>   0.9060 
 12 O        8.9360    -1.8160    -1.0550 O.co2 1 <1>  -0.9000 
 13 O        8.7120    -1.8870     1.1030 O.co2 1 <1>  -0.9000 
 14 H        3.5420    -1.8580     0.4210 H     1 <1>   0.3700 
 15 H        4.8070     0.4810     0.7620 H     1 <1>   0.0800 
 16 H        4.7670     0.3960    -0.9870 H     1 <1>   0.0800 
 17 H        5.8190    -1.8460    -0.9040 H     1 <1>   0.0800 
 18 H        5.8360    -1.7780     0.8440 H     1 <1>   0.0800 
 19 H        7.3400     0.1960     0.7400 H     1 <1>   0.0800 
 20 H        7.3540     0.0820    -1.0010 H     1 <1>   0.0800 
@<TRIPOS>BOND
  1   1   2  1   
  2   2   3  1   
  3   2   4  1   
  4   2   5  1   
  5   5   6  2   
  6   5   7  am  
  7   7   8  1   
  8   7  14  1   
  9   8   9  1   
 10   8  15  1   
 11   8  16  1   
 12   9  10  1   
 13   9  17  1   
 14   9  18  1   
 15  10  11  1   
 16  10  19  1   
 17  10  20  1   
 18  11  12  ar  
 19  11  13  ar  
@<TRIPOS>SUBSTRUCTURE
  1 ****   7 GROUP 4 **** **** 0

# MOE 2024.06 (io_trps.svl 2023.06)
