@<TRIPOS>MOLECULE
NONAME
44 45 1 0 0 
SMALL
USER_CHARGES


@<TRIPOS>ATOM
  1 S       -0.3700    -0.6880     0.6080 S.o2  1 <1>   1.4470 
  2 O       -0.2000    -1.9130    -0.1360 O.2   1 <1>  -0.6500 
  3 O       -1.1760    -0.6720     1.8080 O.2   1 <1>  -0.6500 
  4 N       -1.0670     0.3480    -0.5080 N.am  1 <1>  -0.9140 
  5 C        1.2380     0.0890     0.9280 C.ar  1 <1>  -0.0090 
  6 C       -2.5010     0.2080    -0.6080 C.3   1 <1>   0.2760 
  7 C        2.2870    -0.0370     0.0310 C.ar  1 <1>  -0.1500 
  8 C        1.4540     0.8550     2.0640 C.ar  1 <1>  -0.1500 
  9 C       -2.8870     0.3600    -2.0840 C.3   1 <1>  -0.1600 
 10 C       -3.1770     1.2920     0.2410 C.3   1 <1>  -0.1600 
 11 C        3.5360     0.5650     0.2100 C.ar  1 <1>   0.0860 
 12 C        2.6720     1.4630     2.2900 C.ar  1 <1>  -0.1500 
 13 C       -4.4110     0.3300    -2.2690 C.3   1 <1>  -0.1600 
 14 C       -4.7030     1.2710     0.0650 C.3   1 <1>  -0.1600 
 15 C        3.7170     1.3300     1.3780 C.ar  1 <1>   0.0830 
 16 C        4.5560     0.3670    -0.8130 C.2   1 <1>   0.5440 
 17 C       -5.0940     1.4050    -1.4130 C.3   1 <1>  -0.1600 
 18 O        4.9110     1.9360     1.5970 O.3   1 <1>  -0.3630 
 19 O        4.2380    -0.0020    -1.9290 O.2   1 <1>  -0.5700 
 20 N        5.8840     0.5680    -0.5660 N.am  1 <1>  -0.7300 
 21 C        5.1540     2.8050     2.6840 C.3   1 <1>   0.0400 
 22 C        7.0010     0.3940    -1.5270 C.3   1 <1>   0.0600 
 23 H       -0.6980     0.0000    -1.3890 H     1 <1>   0.4200 
 24 H       -2.8140    -0.7680    -0.2710 H     1 <1>   0.0800 
 25 H        2.1290    -0.6320    -0.8540 H     1 <1>   0.1500 
 26 H        0.6550     0.9750     2.7790 H     1 <1>   0.1500 
 27 H       -2.4510    -0.4400    -2.6560 H     1 <1>   0.0800 
 28 H       -2.5100     1.2970    -2.4580 H     1 <1>   0.0800 
 29 H       -2.8030     2.2570    -0.0510 H     1 <1>   0.0800 
 30 H       -2.9450     1.1400     1.2800 H     1 <1>   0.0800 
 31 H        2.7830     2.0400     3.1890 H     1 <1>   0.1500 
 32 H       -4.7870    -0.6400    -1.9890 H     1 <1>   0.0800 
 33 H       -4.6530     0.4900    -3.3060 H     1 <1>   0.0800 
 34 H       -5.1420     2.0760     0.6290 H     1 <1>   0.0800 
 35 H       -5.0930     0.3460     0.4560 H     1 <1>   0.0800 
 36 H       -6.1620     1.3220    -1.5120 H     1 <1>   0.0800 
 37 H       -4.8060     2.3800    -1.7690 H     1 <1>   0.0800 
 38 H        6.1150     0.9970     0.3380 H     1 <1>   0.3700 
 39 H        6.1580     3.1810     2.5950 H     1 <1>   0.0800 
 40 H        5.0530     2.2550     3.6030 H     1 <1>   0.0800 
 41 H        4.4550     3.6220     2.6430 H     1 <1>   0.0800 
 42 H        6.6490    -0.0740    -2.4310 H     1 <1>   0.0800 
 43 H        7.7630    -0.2270    -1.0900 H     1 <1>   0.0800 
 44 H        7.4200     1.3540    -1.7740 H     1 <1>   0.0800 
@<TRIPOS>BOND
  1   1   2  2   
  2   1   3  2   
  3   1   4  am  
  4   1   5  1   
  5   4   6  1   
  6   4  23  1   
  7   5   7  ar  
  8   5   8  ar  
  9   6   9  1   
 10   6  10  1   
 11   6  24  1   
 12   7  11  ar  
 13   7  25  1   
 14   8  12  ar  
 15   8  26  1   
 16   9  13  1   
 17   9  27  1   
 18   9  28  1   
 19  10  14  1   
 20  10  29  1   
 21  10  30  1   
 22  11  15  ar  
 23  11  16  1   
 24  12  15  ar  
 25  12  31  1   
 26  13  17  1   
 27  13  32  1   
 28  13  33  1   
 29  14  17  1   
 30  14  34  1   
 31  14  35  1   
 32  15  18  1   
 33  16  19  2   
 34  16  20  am  
 35  17  36  1   
 36  17  37  1   
 37  18  21  1   
 38  20  22  1   
 39  20  38  1   
 40  21  39  1   
 41  21  40  1   
 42  21  41  1   
 43  22  42  1   
 44  22  43  1   
 45  22  44  1   
@<TRIPOS>SUBSTRUCTURE
  1 ****   5 GROUP 4 **** **** 0

# MOE 2024.06 (io_trps.svl 2023.06)
