@<TRIPOS>MOLECULE
NONAME
31 31 1 0 0 
SMALL
USER_CHARGES


@<TRIPOS>ATOM
  1 CL      -0.0680    -0.0670     0.0060 Cl    1 <1>  -0.1770 
  2 C        1.4350    -0.9620     0.0770 C.ar  1 <1>   0.1770 
  3 C        1.4330    -2.3480    -0.0210 C.ar  1 <1>   0.0830 
  4 C        2.6090    -0.2500     0.2300 C.ar  1 <1>  -0.1500 
  5 O        0.2430    -2.9860    -0.1710 O.3   1 <1>  -0.3630 
  6 C        2.6530    -3.0140     0.0410 C.ar  1 <1>  -0.1500 
  7 C        3.8320    -0.9070     0.2900 C.ar  1 <1>  -0.0090 
  8 C        0.1560    -4.3910    -0.2710 C.3   1 <1>   0.0400 
  9 C        3.8290    -2.2960     0.1950 C.ar  1 <1>  -0.1500 
 10 S        5.3830     0.0080     0.4980 S.o2  1 <1>   1.4470 
 11 O        5.9950    -0.3680     1.7520 O.2   1 <1>  -0.6500 
 12 O        5.1880     1.4000     0.1720 O.2   1 <1>  -0.6500 
 13 N        6.3200    -0.5650    -0.7710 N.am  1 <1>  -0.9140 
 14 C        7.7920    -0.5840    -0.6370 C.3   1 <1>   0.3370 
 15 C        8.4040    -1.7940     0.1220 C.2   1 <1>   0.5690 
 16 C        8.3320     0.7660    -0.1480 C.3   1 <1>  -0.2400 
 17 O        9.1750    -2.5160    -0.4590 O.2   1 <1>  -0.5700 
 18 N        8.1150    -2.0560     1.4130 N.am  1 <1>  -0.8000 
 19 H        2.5640     0.8230     0.3030 H     1 <1>   0.1500 
 20 H        2.7100    -4.0840    -0.0290 H     1 <1>   0.1500 
 21 H       -0.8810    -4.6530    -0.3830 H     1 <1>   0.0800 
 22 H        0.5480    -4.8310     0.6290 H     1 <1>   0.0800 
 23 H        0.7090    -4.7160    -1.1340 H     1 <1>   0.0800 
 24 H        4.7670    -2.8250     0.2410 H     1 <1>   0.1500 
 25 H        6.1120     0.0970    -1.5160 H     1 <1>   0.4200 
 26 H        8.1650    -0.6970    -1.6410 H     1 <1>   0.0800 
 27 H        8.1160     0.9220     0.8930 H     1 <1>   0.0800 
 28 H        7.9240     1.5750    -0.7270 H     1 <1>   0.0800 
 29 H        9.4020     0.7780    -0.2600 H     1 <1>   0.0800 
 30 H        8.5330    -2.8550     1.8870 H     1 <1>   0.3700 
 31 H        7.4250    -1.5020     1.9400 H     1 <1>   0.3700 
@<TRIPOS>BOND
  1   1   2  1   
  2   2   3  ar  
  3   2   4  ar  
  4   3   5  1   
  5   3   6  ar  
  6   4   7  ar  
  7   4  19  1   
  8   5   8  1   
  9   6   9  ar  
 10   6  20  1   
 11   7   9  ar  
 12   7  10  1   
 13   8  21  1   
 14   8  22  1   
 15   8  23  1   
 16   9  24  1   
 17  10  11  2   
 18  10  12  2   
 19  10  13  am  
 20  13  14  1   
 21  13  25  1   
 22  14  15  1   
 23  14  16  1   
 24  14  26  1   
 25  15  17  2   
 26  15  18  am  
 27  16  27  1   
 28  16  28  1   
 29  16  29  1   
 30  18  30  1   
 31  18  31  1   
@<TRIPOS>SUBSTRUCTURE
  1 ****   7 GROUP 4 **** **** 0

# MOE 2024.06 (io_trps.svl 2023.06)
