@<TRIPOS>MOLECULE
NONAME
33 35 1 0 0 
SMALL
USER_CHARGES


@<TRIPOS>ATOM
  1 BR      -0.8180    -0.2760     0.9550 Br    1 <1>  -0.1110 
  2 C       -0.6960    -2.1000     0.3460 C.ar  1 <1>   0.1110 
  3 C        0.4080    -2.4810    -0.3920 C.ar  1 <1>  -0.1500 
  4 C       -1.7190    -2.9780     0.6600 C.ar  1 <1>  -0.1500 
  5 C        0.4640    -3.7950    -0.8140 C.ar  1 <1>   0.1900 
  6 C       -1.6310    -4.2910     0.2250 C.ar  1 <1>  -0.1500 
  7 F        1.4930    -4.1500    -1.5450 F     1 <1>  -0.1900 
  8 C       -0.5350    -4.7270    -0.5120 C.ar  1 <1>   0.1170 
  9 N       -0.5100    -6.0690    -0.9080 N.am  1 <1>  -0.5470 
 10 C        0.3550    -7.0390    -0.4940 C.2   1 <1>   0.5690 
 11 O        1.4070    -6.7480     0.0290 O.2   1 <1>  -0.5700 
 12 C        0.0470    -8.5190    -0.7800 C.3   1 <1>  -0.0190 
 13 C       -1.3950    -9.0730    -0.5850 C.3   1 <1>  -0.1860 
 14 C        0.8060    -9.4340     0.1970 C.3   1 <1>   0.2000 
 15 C       -2.5210    -8.0930    -0.3440 C.2   1 <1>   0.9060 
 16 C       -1.1920   -10.0680     0.5650 C.3   1 <1>   0.2000 
 17 O       -0.1010    -9.5430     1.2260 O.3   1 <1>  -0.5600 
 18 C        0.8490   -10.8880    -0.2970 C.3   1 <1>  -0.1600 
 19 O       -2.8420    -7.3790    -1.3020 O.co2 1 <1>  -0.9000 
 20 O       -3.0960    -8.0070     0.7400 O.co2 1 <1>  -0.9000 
 21 C       -0.5740   -11.3600     0.0240 C.3   1 <1>  -0.1600 
 22 H        1.1910    -1.7880    -0.6330 H     1 <1>   0.1500 
 23 H       -2.5660    -2.6480     1.2340 H     1 <1>   0.1500 
 24 H       -2.4140    -4.9990     0.4590 H     1 <1>   0.1500 
 25 H       -1.4300    -6.4300    -1.2270 H     1 <1>   0.3700 
 26 H        0.3790    -8.7080    -1.7830 H     1 <1>   0.0800 
 27 H       -1.6910    -9.6110    -1.4640 H     1 <1>   0.0800 
 28 H        1.7530    -9.0650     0.5520 H     1 <1>   0.0800 
 29 H       -2.0320   -10.1990     1.2280 H     1 <1>   0.0800 
 30 H        1.5750   -11.4460     0.2670 H     1 <1>   0.0800 
 31 H        1.0820   -10.9460    -1.3450 H     1 <1>   0.0800 
 32 H       -1.1010   -11.7360    -0.8340 H     1 <1>   0.0800 
 33 H       -0.5680   -12.1060     0.7990 H     1 <1>   0.0800 
@<TRIPOS>BOND
  1   1   2  1   
  2   2   3  ar  
  3   2   4  ar  
  4   3   5  ar  
  5   3  22  1   
  6   4   6  ar  
  7   4  23  1   
  8   5   7  1   
  9   5   8  ar  
 10   6   8  ar  
 11   6  24  1   
 12   8   9  1   
 13   9  10  am  
 14   9  25  1   
 15  10  11  2   
 16  10  12  1   
 17  12  13  1   
 18  12  14  1   
 19  12  26  1   
 20  13  15  1   
 21  13  16  1   
 22  13  27  1   
 23  14  17  1   
 24  14  18  1   
 25  14  28  1   
 26  15  19  ar  
 27  15  20  ar  
 28  16  17  1   
 29  16  21  1   
 30  16  29  1   
 31  18  21  1   
 32  18  30  1   
 33  18  31  1   
 34  21  32  1   
 35  21  33  1   
@<TRIPOS>SUBSTRUCTURE
  1 ****   9 GROUP 4 **** **** 0

# MOE 2024.06 (io_trps.svl 2023.06)
