@<TRIPOS>MOLECULE
NONAME
41 42 1 0 0 
SMALL
USER_CHARGES


@<TRIPOS>ATOM
  1 O       -0.6720    -0.6560    -1.0420 O.2   1 <1>  -0.5700 
  2 C       -1.0450    -1.5890    -0.3610 C.2   1 <1>   0.8060 
  3 O       -2.2500    -1.4710     0.2040 O.3   1 <1>  -0.4300 
  4 C       -0.2240    -2.7460    -0.1580 C.2   1 <1>  -0.0860 
  5 C       -2.6450    -2.1940     1.3460 C.3   1 <1>   0.1200 
  6 C        1.1220    -2.6620     0.1780 C.2   1 <1>   0.3720 
  7 C       -0.4560    -4.0940    -0.2560 C.2   1 <1>  -0.2050 
  8 C       -3.7430    -1.3990     2.0420 C.3   1 <1>  -0.2400 
  9 N        1.7040    -3.7950     0.2720 N.2   1 <1>  -0.7070 
 10 N        1.8400    -1.5220     0.4070 N.pl3 1 <1>  -0.8830 
 11 N        0.7370    -4.7360    -0.0070 N.pl3 1 <1>   0.5610 
 12 C       -1.7070    -4.7230    -0.5880 C.ar  1 <1>   0.0530 
 13 C        1.0320    -6.1280    -0.0630 C.2   1 <1>   0.5180 
 14 C       -2.3920    -4.3580    -1.7450 C.ar  1 <1>  -0.1500 
 15 C       -2.2940    -5.6780     0.2410 C.ar  1 <1>  -0.1500 
 16 O        0.2910    -6.9520    -0.5460 O.2   1 <1>  -0.5700 
 17 C        2.3790    -6.6170     0.5090 C.3   1 <1>  -0.0190 
 18 C       -3.6170    -4.9170    -2.0600 C.ar  1 <1>  -0.1500 
 19 C       -3.5170    -6.2420    -0.0700 C.ar  1 <1>  -0.1500 
 20 C        3.4530    -6.6740    -0.5890 C.3   1 <1>  -0.2400 
 21 C        2.2660    -7.9930     1.1900 C.3   1 <1>  -0.2400 
 22 C       -4.1820    -5.8610    -1.2220 C.ar  1 <1>  -0.1500 
 23 H       -1.7970    -2.3200     1.9990 H     1 <1>   0.0800 
 24 H       -3.0210    -3.1510     1.0330 H     1 <1>   0.0800 
 25 H       -3.3720    -0.4340     2.3410 H     1 <1>   0.0800 
 26 H       -4.0740    -1.9250     2.9190 H     1 <1>   0.0800 
 27 H       -4.5830    -1.2720     1.3820 H     1 <1>   0.0800 
 28 H        2.8380    -1.7220     0.3190 H     1 <1>   0.4000 
 29 H        1.5650    -0.7620    -0.2270 H     1 <1>   0.4000 
 30 H       -1.9630    -3.6270    -2.4060 H     1 <1>   0.1500 
 31 H       -1.7880    -5.9860     1.1380 H     1 <1>   0.1500 
 32 H        2.7080    -5.9240     1.2640 H     1 <1>   0.0800 
 33 H       -4.1300    -4.6200    -2.9580 H     1 <1>   0.1500 
 34 H       -3.9520    -6.9820     0.5800 H     1 <1>   0.1500 
 35 H        3.1640    -7.3660    -1.3610 H     1 <1>   0.0800 
 36 H        4.3960    -6.9900    -0.1770 H     1 <1>   0.0800 
 37 H        3.5860    -5.7020    -1.0310 H     1 <1>   0.0800 
 38 H        1.9800    -8.7460     0.4750 H     1 <1>   0.0800 
 39 H        1.5230    -7.9640     1.9670 H     1 <1>   0.0800 
 40 H        3.2070    -8.2760     1.6280 H     1 <1>   0.0800 
 41 H       -5.1340    -6.3000    -1.4660 H     1 <1>   0.1500 
@<TRIPOS>BOND
  1   1   2  2   
  2   2   3  1   
  3   2   4  1   
  4   3   5  1   
  5   4   6  1   
  6   4   7  2   
  7   5   8  1   
  8   5  23  1   
  9   5  24  1   
 10   6   9  2   
 11   6  10  1   
 12   7  11  1   
 13   7  12  1   
 14   8  25  1   
 15   8  26  1   
 16   8  27  1   
 17   9  11  1   
 18  10  28  1   
 19  10  29  1   
 20  11  13  1   
 21  12  14  ar  
 22  12  15  ar  
 23  13  16  2   
 24  13  17  1   
 25  14  18  ar  
 26  14  30  1   
 27  15  19  ar  
 28  15  31  1   
 29  17  20  1   
 30  17  21  1   
 31  17  32  1   
 32  18  22  ar  
 33  18  33  1   
 34  19  22  ar  
 35  19  34  1   
 36  20  35  1   
 37  20  36  1   
 38  20  37  1   
 39  21  38  1   
 40  21  39  1   
 41  21  40  1   
 42  22  41  1   
@<TRIPOS>SUBSTRUCTURE
  1 ****   7 GROUP 4 **** **** 0

# MOE 2024.06 (io_trps.svl 2023.06)
