@<TRIPOS>MOLECULE
NONAME
39 39 1 0 0 
SMALL
USER_CHARGES


@<TRIPOS>ATOM
  1 O        2.9210     3.0370    -2.3760 O.3   1 <1>  -0.3630 
  2 C        4.0150     2.5920    -1.7060 C.ar  1 <1>   0.0830 
  3 C        1.9160     2.1010    -2.7190 C.3   1 <1>   0.1200 
  4 C        4.3040     3.1050    -0.4420 C.ar  1 <1>   0.0830 
  5 C        4.8450     1.6390    -2.2750 C.ar  1 <1>  -0.1500 
  6 C        0.7510     2.2330    -1.7280 C.3   1 <1>   0.3430 
  7 O        3.4700     4.0360     0.0970 O.3   1 <1>  -0.3630 
  8 C        5.4130     2.6370     0.2510 C.ar  1 <1>  -0.1500 
  9 C        5.9470     1.1790    -1.5750 C.ar  1 <1>  -0.1500 
 10 N        1.2470     2.2620    -0.3230 N.4   1 <1>  -0.9060 
 11 C        4.0530     5.1560     0.7340 C.3   1 <1>   0.0400 
 12 C        6.2360     1.6730    -0.3120 C.ar  1 <1>  -0.1430 
 13 C        0.2200     2.5910     0.6800 C.3   1 <1>   0.3430 
 14 C        7.4470     1.1520     0.4480 C.3   1 <1>   0.1220 
 15 C        0.8810     2.5840     2.0500 C.3   1 <1>  -0.2400 
 16 C        7.0700    -0.0860     1.2430 C.2   1 <1>  -0.2880 
 17 C        7.6110    -1.2980     1.0860 C.2   1 <1>  -0.3000 
 18 H        2.3210     1.1040    -2.7050 H     1 <1>   0.0800 
 19 H        1.5840     2.3260    -3.7170 H     1 <1>   0.0800 
 20 H        4.6440     1.2610    -3.2610 H     1 <1>   0.1500 
 21 H        0.0630     1.4150    -1.8650 H     1 <1>   0.0800 
 22 H        0.2270     3.1500    -1.9430 H     1 <1>   0.0800 
 23 H        5.6380     3.0110     1.2330 H     1 <1>   0.1500 
 24 H        6.5840     0.4320    -2.0180 H     1 <1>   0.1500 
 25 H        2.0030     2.9770    -0.2870 H     1 <1>   0.4500 
 26 H        1.7190     1.3840    -0.0830 H     1 <1>   0.4500 
 27 H        3.2910     5.9030     0.8700 H     1 <1>   0.0800 
 28 H        4.8370     5.5470     0.1080 H     1 <1>   0.0800 
 29 H        4.4450     4.8590     1.6900 H     1 <1>   0.0800 
 30 H       -0.5750     1.8620     0.6540 H     1 <1>   0.0800 
 31 H       -0.1970     3.5660     0.4790 H     1 <1>   0.0800 
 32 H        7.8170     1.9080     1.1170 H     1 <1>   0.0800 
 33 H        8.2370     0.9190    -0.2450 H     1 <1>   0.0800 
 34 H        1.2870     1.6140     2.2760 H     1 <1>   0.0800 
 35 H        0.1470     2.8210     2.8000 H     1 <1>   0.0800 
 36 H        1.6590     3.3240     2.1030 H     1 <1>   0.0800 
 37 H        6.2990     0.1110     1.9680 H     1 <1>   0.1500 
 38 H        7.3270    -2.1610     1.6630 H     1 <1>   0.1500 
 39 H        8.3820    -1.5330     0.3720 H     1 <1>   0.1500 
@<TRIPOS>BOND
  1   1   2  1   
  2   1   3  1   
  3   2   4  ar  
  4   2   5  ar  
  5   3   6  1   
  6   3  18  1   
  7   3  19  1   
  8   4   7  1   
  9   4   8  ar  
 10   5   9  ar  
 11   5  20  1   
 12   6  10  1   
 13   6  21  1   
 14   6  22  1   
 15   7  11  1   
 16   8  12  ar  
 17   8  23  1   
 18   9  12  ar  
 19   9  24  1   
 20  10  13  1   
 21  10  25  1   
 22  10  26  1   
 23  11  27  1   
 24  11  28  1   
 25  11  29  1   
 26  12  14  1   
 27  13  15  1   
 28  13  30  1   
 29  13  31  1   
 30  14  16  1   
 31  14  32  1   
 32  14  33  1   
 33  15  34  1   
 34  15  35  1   
 35  15  36  1   
 36  16  17  2   
 37  16  37  1   
 38  17  38  1   
 39  17  39  1   
@<TRIPOS>SUBSTRUCTURE
  1 ****   4 GROUP 4 **** **** 0

# MOE 2024.06 (io_trps.svl 2023.06)
