@<TRIPOS>MOLECULE
NONAME
37 38 1 0 0 
SMALL
USER_CHARGES


@<TRIPOS>ATOM
  1 BR       0.1470     0.4730    -1.8660 Br    1 <1>  -0.1110 
  2 C        1.8170     1.0690    -1.1050 C.ar  1 <1>   0.1110 
  3 C        2.3800     0.3770    -0.0430 C.ar  1 <1>  -0.1440 
  4 C        2.4040     2.1910    -1.6570 C.ar  1 <1>  -0.1500 
  5 C        3.5810     0.8440     0.4680 C.ar  1 <1>  -0.1500 
  6 C        1.7080    -0.8510     0.5520 C.3   1 <1>  -0.0960 
  7 C        3.6040     2.6500    -1.1410 C.ar  1 <1>  -0.1430 
  8 C        4.1980     1.9710    -0.0780 C.ar  1 <1>   0.0830 
  9 C        4.2580     3.8890    -1.7370 C.3   1 <1>  -0.0960 
 10 O        5.3830     2.4510     0.3820 O.3   1 <1>  -0.3630 
 11 C        6.1970     1.6950     1.2660 C.3   1 <1>   0.1810 
 12 C        7.5760     2.3290     1.4390 C.2   1 <1>   0.5690 
 13 O        7.9280     2.5740     2.5700 O.2   1 <1>  -0.5700 
 14 N        8.3980     2.5810     0.3650 N.am  1 <1>  -0.6600 
 15 C        9.7160     3.2620     0.5330 C.3   1 <1>   0.1400 
 16 C        8.0620     2.2970    -1.0650 C.3   1 <1>   0.1400 
 17 C       10.8080     2.5530    -0.2840 C.3   1 <1>   0.1200 
 18 C        9.2540     1.6500    -1.7900 C.3   1 <1>   0.1200 
 19 O       10.4140     2.4120    -1.6200 O.3   1 <1>  -0.5600 
 20 H        1.9220     2.6910    -2.4770 H     1 <1>   0.1500 
 21 H        4.0220     0.3230     1.2960 H     1 <1>   0.1500 
 22 H        0.7330    -0.5910     0.9250 H     1 <1>   0.0800 
 23 H        2.2860    -1.2540     1.3650 H     1 <1>   0.0800 
 24 H        1.6010    -1.6120    -0.1990 H     1 <1>   0.0800 
 25 H        3.6360     4.3310    -2.4940 H     1 <1>   0.0800 
 26 H        5.2030     3.6280    -2.1770 H     1 <1>   0.0800 
 27 H        4.4270     4.6190    -0.9650 H     1 <1>   0.0800 
 28 H        6.3120     0.7050     0.8680 H     1 <1>   0.0800 
 29 H        5.7020     1.6520     2.2190 H     1 <1>   0.0800 
 30 H       10.0060     3.2770     1.5700 H     1 <1>   0.0800 
 31 H        9.6310     4.2810     0.2000 H     1 <1>   0.0800 
 32 H        7.8100     3.2200    -1.5560 H     1 <1>   0.0800 
 33 H        7.2160     1.6400    -1.1410 H     1 <1>   0.0800 
 34 H       11.0100     1.5770     0.1230 H     1 <1>   0.0800 
 35 H       11.7160     3.1280    -0.2670 H     1 <1>   0.0800 
 36 H        9.0560     1.5860    -2.8450 H     1 <1>   0.0800 
 37 H        9.4350     0.6580    -1.4120 H     1 <1>   0.0800 
@<TRIPOS>BOND
  1   1   2  1   
  2   2   3  ar  
  3   2   4  ar  
  4   3   5  ar  
  5   3   6  1   
  6   4   7  ar  
  7   4  20  1   
  8   5   8  ar  
  9   5  21  1   
 10   6  22  1   
 11   6  23  1   
 12   6  24  1   
 13   7   8  ar  
 14   7   9  1   
 15   8  10  1   
 16   9  25  1   
 17   9  26  1   
 18   9  27  1   
 19  10  11  1   
 20  11  12  1   
 21  11  28  1   
 22  11  29  1   
 23  12  13  2   
 24  12  14  am  
 25  14  15  1   
 26  14  16  1   
 27  15  17  1   
 28  15  30  1   
 29  15  31  1   
 30  16  18  1   
 31  16  32  1   
 32  16  33  1   
 33  17  19  1   
 34  17  34  1   
 35  17  35  1   
 36  18  19  1   
 37  18  36  1   
 38  18  37  1   
@<TRIPOS>SUBSTRUCTURE
  1 ****  10 GROUP 4 **** **** 0

# MOE 2024.06 (io_trps.svl 2023.06)
