@<TRIPOS>MOLECULE
NONAME
30 31 1 0 0 
SMALL
USER_CHARGES


@<TRIPOS>ATOM
  1 S        0.0500     2.5850     0.1890 S.3   1 <1>  -0.4600 
  2 C       -1.3530     1.7110     0.9450 C.3   1 <1>   0.2140 
  3 C        1.4390     2.2380     1.3290 C.3   1 <1>   0.1310 
  4 C       -1.3960     0.2910     0.4090 C.ar  1 <1>  -0.1440 
  5 C        1.9830     0.8260     1.1690 C.2   1 <1>   0.5690 
  6 C       -1.8780     0.0470    -0.8680 C.ar  1 <1>  -0.1500 
  7 C       -0.9690    -0.7730     1.1890 C.ar  1 <1>  -0.1500 
  8 O        2.4200     0.2670     2.1480 O.2   1 <1>  -0.5700 
  9 N        1.9720     0.2530    -0.0630 N.am  1 <1>  -0.5790 
 10 C       -1.9420    -1.2460    -1.3570 C.ar  1 <1>  -0.1500 
 11 C       -1.0290    -2.0660     0.7000 C.ar  1 <1>  -0.1500 
 12 C        2.4760    -1.0830    -0.4020 C.3   1 <1>   0.0490 
 13 C       -1.5190    -2.3040    -0.5720 C.ar  1 <1>  -0.1500 
 14 C        3.1800    -1.2550    -1.7070 C.3   1 <1>  -0.2000 
 15 C        1.8060    -1.8210    -1.5110 C.3   1 <1>  -0.2000 
 16 H       -2.2430     2.2500     0.6740 H     1 <1>   0.0800 
 17 H       -1.2250     1.7380     2.0130 H     1 <1>   0.0800 
 18 H        1.0840     2.3920     2.3310 H     1 <1>   0.0800 
 19 H        2.2120     2.9490     1.1080 H     1 <1>   0.0800 
 20 H       -2.2060     0.8650    -1.4860 H     1 <1>   0.1500 
 21 H       -0.5810    -0.6050     2.1790 H     1 <1>   0.1500 
 22 H        1.4310     0.7170    -0.7970 H     1 <1>   0.3700 
 23 H       -2.3200    -1.4290    -2.3480 H     1 <1>   0.1500 
 24 H       -0.6920    -2.8860     1.3100 H     1 <1>   0.1500 
 25 H        2.8260    -1.6380     0.4550 H     1 <1>   0.1000 
 26 H       -1.5680    -3.3100    -0.9510 H     1 <1>   0.1500 
 27 H        4.0090    -1.9370    -1.7580 H     1 <1>   0.1000 
 28 H        3.3070    -0.3960    -2.3420 H     1 <1>   0.1000 
 29 H        0.9680    -1.3580    -2.0020 H     1 <1>   0.1000 
 30 H        1.6960    -2.8870    -1.4220 H     1 <1>   0.1000 
@<TRIPOS>BOND
  1   1   2  1   
  2   1   3  1   
  3   2   4  1   
  4   2  16  1   
  5   2  17  1   
  6   3   5  1   
  7   3  18  1   
  8   3  19  1   
  9   4   6  ar  
 10   4   7  ar  
 11   5   8  2   
 12   5   9  am  
 13   6  10  ar  
 14   6  20  1   
 15   7  11  ar  
 16   7  21  1   
 17   9  12  1   
 18   9  22  1   
 19  10  13  ar  
 20  10  23  1   
 21  11  13  ar  
 22  11  24  1   
 23  12  14  1   
 24  12  15  1   
 25  12  25  1   
 26  13  26  1   
 27  14  15  1   
 28  14  27  1   
 29  14  28  1   
 30  15  29  1   
 31  15  30  1   
@<TRIPOS>SUBSTRUCTURE
  1 ****   9 GROUP 4 **** **** 0

# MOE 2024.06 (io_trps.svl 2023.06)
