@<TRIPOS>MOLECULE
NONAME
37 37 1 0 0 
SMALL
USER_CHARGES


@<TRIPOS>ATOM
  1 CL      -0.2800     0.4140    -2.3070 Cl    1 <1>  -0.1770 
  2 C        0.6330     1.7320    -1.6160 C.ar  1 <1>   0.1770 
  3 C        0.0070     2.6060    -0.7510 C.ar  1 <1>  -0.1500 
  4 C        1.9640     1.8800    -1.9460 C.ar  1 <1>  -0.1500 
  5 C        0.7060     3.6740    -0.1950 C.ar  1 <1>  -0.0090 
  6 C        2.6800     2.9230    -1.3900 C.ar  1 <1>  -0.1500 
  7 S       -0.0940     4.8380     0.9460 S.o2  1 <1>   1.4470 
  8 C        2.0560     3.8120    -0.5140 C.ar  1 <1>   0.0830 
  9 O        0.0510     4.3750     2.3050 O.2   1 <1>  -0.6500 
 10 O        0.1830     6.2250     0.6430 O.2   1 <1>  -0.6500 
 11 N       -1.7400     4.6250     0.6840 N.am  1 <1>  -0.9140 
 12 O        2.7250     4.8350     0.0700 O.3   1 <1>  -0.3620 
 13 C       -2.3870     5.5710    -0.2190 C.3   1 <1>   0.2760 
 14 C        4.0480     5.1760    -0.2710 C.3   1 <1>   0.1200 
 15 C       -3.9120     5.4300    -0.0610 C.3   1 <1>   0.1200 
 16 C       -1.9570     5.2840    -1.6620 C.3   1 <1>  -0.2400 
 17 C        4.4210     6.4280     0.5170 C.3   1 <1>  -0.2400 
 18 O       -4.5650     6.3860    -0.8400 O.3   1 <1>  -0.5600 
 19 C       -5.9530     6.3110    -0.7840 C.3   1 <1>   0.0400 
 20 H       -1.0300     2.4470    -0.5150 H     1 <1>   0.1500 
 21 H        2.4280     1.1850    -2.6240 H     1 <1>   0.1500 
 22 H        3.7190     3.0240    -1.6460 H     1 <1>   0.1500 
 23 H       -2.1100     4.7930     1.6180 H     1 <1>   0.4200 
 24 H       -2.1250     6.5810     0.0520 H     1 <1>   0.0800 
 25 H        4.0910     5.3660    -1.3290 H     1 <1>   0.0800 
 26 H        4.6930     4.3550    -0.0080 H     1 <1>   0.0800 
 27 H       -4.1930     5.5890     0.9650 H     1 <1>   0.0800 
 28 H       -4.2260     4.4520    -0.3830 H     1 <1>   0.0800 
 29 H       -2.1960     4.2730    -1.9370 H     1 <1>   0.0800 
 30 H       -0.9070     5.4620    -1.7960 H     1 <1>   0.0800 
 31 H       -2.4800     5.9460    -2.3300 H     1 <1>   0.0800 
 32 H        3.7510     7.2320     0.2670 H     1 <1>   0.0800 
 33 H        5.4240     6.7270     0.2760 H     1 <1>   0.0800 
 34 H        4.3630     6.2310     1.5720 H     1 <1>   0.0800 
 35 H       -6.3550     7.0860    -1.4130 H     1 <1>   0.0800 
 36 H       -6.2780     6.4640     0.2310 H     1 <1>   0.0800 
 37 H       -6.2730     5.3490    -1.1460 H     1 <1>   0.0800 
@<TRIPOS>BOND
  1   1   2  1   
  2   2   3  ar  
  3   2   4  ar  
  4   3   5  ar  
  5   3  20  1   
  6   4   6  ar  
  7   4  21  1   
  8   5   7  1   
  9   5   8  ar  
 10   6   8  ar  
 11   6  22  1   
 12   7   9  2   
 13   7  10  2   
 14   7  11  am  
 15   8  12  1   
 16  11  13  1   
 17  11  23  1   
 18  12  14  1   
 19  13  15  1   
 20  13  16  1   
 21  13  24  1   
 22  14  17  1   
 23  14  25  1   
 24  14  26  1   
 25  15  18  1   
 26  15  27  1   
 27  15  28  1   
 28  16  29  1   
 29  16  30  1   
 30  16  31  1   
 31  17  32  1   
 32  17  33  1   
 33  17  34  1   
 34  18  19  1   
 35  19  35  1   
 36  19  36  1   
 37  19  37  1   
@<TRIPOS>SUBSTRUCTURE
  1 ****   5 GROUP 4 **** **** 0

# MOE 2024.06 (io_trps.svl 2023.06)
