@<TRIPOS>MOLECULE
NONAME
41 42 1 0 0 
SMALL
USER_CHARGES


@<TRIPOS>ATOM
  1 CL       0.3760    -0.5920    -2.0390 Cl    1 <1>  -0.1770 
  2 C        1.4500    -1.1120    -0.7630 C.ar  1 <1>   0.1770 
  3 C        1.1460    -2.2610    -0.0530 C.ar  1 <1>  -0.1440 
  4 C        2.5730    -0.3540    -0.4740 C.ar  1 <1>  -0.1500 
  5 C        2.0080    -2.6190     0.9680 C.ar  1 <1>   0.1900 
  6 C       -0.0660    -3.1000    -0.3800 C.3   1 <1>   0.4860 
  7 C        3.4200    -0.7430     0.5530 C.ar  1 <1>  -0.1500 
  8 F        1.7380    -3.6890     1.6650 F     1 <1>  -0.1900 
  9 C        3.1370    -1.8860     1.2850 C.ar  1 <1>  -0.1500 
 10 N       -1.2730    -2.3420     0.0420 N.4   1 <1>  -0.9060 
 11 C       -2.5460    -3.0270    -0.2970 C.3   1 <1>   0.3430 
 12 C       -3.7350    -2.1390     0.0950 C.3   1 <1>  -0.1600 
 13 C       -5.0700    -2.8190    -0.2470 C.3   1 <1>   0.3430 
 14 N       -6.2320    -1.9970     0.2020 N.4   1 <1>  -0.9590 
 15 C       -7.5020    -2.8160     0.1620 C.3   1 <1>   0.3430 
 16 C       -6.4280    -0.7350    -0.6110 C.3   1 <1>   0.3430 
 17 C       -8.7410    -1.9760     0.5270 C.3   1 <1>   0.1200 
 18 C       -7.7150     0.0120    -0.2110 C.3   1 <1>   0.1200 
 19 O       -8.8120    -0.8480    -0.2930 O.3   1 <1>  -0.5600 
 20 H        2.7850     0.5340    -1.0470 H     1 <1>   0.1500 
 21 H       -0.0130    -4.0450     0.1370 H     1 <1>   0.0800 
 22 H       -0.0930    -3.2890    -1.4410 H     1 <1>   0.0800 
 23 H        4.2970    -0.1580     0.7820 H     1 <1>   0.1500 
 24 H        3.7820    -2.2020     2.0870 H     1 <1>   0.1500 
 25 H       -1.2110    -1.4220    -0.4190 H     1 <1>   0.4500 
 26 H       -1.1880    -2.1710     1.0540 H     1 <1>   0.4500 
 27 H       -2.6020    -3.9690     0.2270 H     1 <1>   0.0800 
 28 H       -2.5760    -3.2270    -1.3580 H     1 <1>   0.0800 
 29 H       -3.6620    -1.2070    -0.4380 H     1 <1>   0.0800 
 30 H       -3.6990    -1.9520     1.1540 H     1 <1>   0.0800 
 31 H       -5.1090    -3.7790     0.2430 H     1 <1>   0.0800 
 32 H       -5.1390    -2.9880    -1.3110 H     1 <1>   0.0800 
 33 H       -6.1050    -1.7130     1.1840 H     1 <1>   0.4500 
 34 H       -7.4290    -3.6480     0.8440 H     1 <1>   0.0800 
 35 H       -7.6500    -3.2140    -0.8290 H     1 <1>   0.0800 
 36 H       -6.4980    -0.9820    -1.6580 H     1 <1>   0.0800 
 37 H       -5.5880    -0.0740    -0.4810 H     1 <1>   0.0800 
 38 H       -8.7150    -1.6600     1.5550 H     1 <1>   0.0800 
 39 H       -9.6380    -2.5500     0.3690 H     1 <1>   0.0800 
 40 H       -7.8940     0.8320    -0.8850 H     1 <1>   0.0800 
 41 H       -7.6520     0.4010     0.7910 H     1 <1>   0.0800 
@<TRIPOS>BOND
  1   1   2  1   
  2   2   3  ar  
  3   2   4  ar  
  4   3   5  ar  
  5   3   6  1   
  6   4   7  ar  
  7   4  20  1   
  8   5   8  1   
  9   5   9  ar  
 10   6  10  1   
 11   6  21  1   
 12   6  22  1   
 13   7   9  ar  
 14   7  23  1   
 15   9  24  1   
 16  10  11  1   
 17  10  25  1   
 18  10  26  1   
 19  11  12  1   
 20  11  27  1   
 21  11  28  1   
 22  12  13  1   
 23  12  29  1   
 24  12  30  1   
 25  13  14  1   
 26  13  31  1   
 27  13  32  1   
 28  14  15  1   
 29  14  16  1   
 30  14  33  1   
 31  15  17  1   
 32  15  34  1   
 33  15  35  1   
 34  16  18  1   
 35  16  36  1   
 36  16  37  1   
 37  17  19  1   
 38  17  38  1   
 39  17  39  1   
 40  18  19  1   
 41  18  40  1   
 42  18  41  1   
@<TRIPOS>SUBSTRUCTURE
  1 ****  10 GROUP 4 **** **** 0

# MOE 2024.06 (io_trps.svl 2023.06)
