@<TRIPOS>MOLECULE
NONAME
60 63 1 0 0 
SMALL
USER_CHARGES


@<TRIPOS>ATOM
  1 O        1.0930    -0.4770     1.5550 O.3   1 <1>  -0.3630 
  2 C        2.1750    -0.1900     0.7730 C.ar  1 <1>   0.0830 
  3 C       -0.0080     0.3980     1.6630 C.3   1 <1>   0.0400 
  4 C        3.3470    -0.9450     0.9170 C.ar  1 <1>   0.0830 
  5 C        2.1520     0.8490    -0.1540 C.ar  1 <1>  -0.1500 
  6 O        3.4980    -1.9870     1.7810 O.3   1 <1>  -0.3630 
  7 C        4.4610    -0.6340     0.1580 C.ar  1 <1>  -0.1500 
  8 C        3.2760     1.1490    -0.9190 C.ar  1 <1>   0.0830 
  9 C        2.4810    -2.9610     1.8700 C.3   1 <1>   0.0400 
 10 C        4.4390     0.4020    -0.7610 C.ar  1 <1>  -0.1440 
 11 O        3.2960     2.1670    -1.8240 O.3   1 <1>  -0.3630 
 12 C        5.6960     0.6940    -1.5710 C.3   1 <1>   0.2530 
 13 C        2.1010     2.7580    -2.2880 C.3   1 <1>   0.0400 
 14 N        6.7520     1.2730    -0.7140 N.3   1 <1>  -0.8100 
 15 C        6.3100     2.5370    -0.0850 C.3   1 <1>   0.1100 
 16 C        8.0090     1.4500    -1.4600 C.3   1 <1>   0.1100 
 17 C        7.4030     3.1190     0.8310 C.3   1 <1>   0.3430 
 18 C        9.1200     2.0180    -0.5540 C.3   1 <1>   0.3430 
 19 N        8.7040     3.3100     0.1000 N.4   1 <1>  -0.9590 
 20 C        9.7460     3.8520     1.0180 C.3   1 <1>   0.3430 
 21 C       10.9600     4.3880     0.2380 C.3   1 <1>  -0.0800 
 22 C       12.0380     5.1030     1.2710 C.3   1 <1>   0.0580 
 23 C       10.5620     5.5690    -0.9350 C.3   1 <1>  -0.1600 
 24 C       12.7150     6.5390     1.5610 C.2   1 <1>  -0.2880 
 25 C       11.6900     5.9130     0.2710 C.3   1 <1>  -0.1600 
 26 C       11.4400     6.9210    -0.5640 C.3   1 <1>   0.0580 
 27 C       12.4020     7.4910     0.6010 C.2   1 <1>  -0.2880 
 28 H       -0.6670     0.0120     2.4200 H     1 <1>   0.0800 
 29 H       -0.5210     0.4340     0.7180 H     1 <1>   0.0800 
 30 H        0.3470     1.3720     1.9500 H     1 <1>   0.0800 
 31 H        1.2620     1.4290    -0.2770 H     1 <1>   0.1500 
 32 H        5.3560    -1.2130     0.2950 H     1 <1>   0.1500 
 33 H        2.9220    -3.8740     2.2270 H     1 <1>   0.0800 
 34 H        2.0500    -3.1140     0.8960 H     1 <1>   0.0800 
 35 H        1.7350    -2.6230     2.5660 H     1 <1>   0.0800 
 36 H        5.4810     1.3570    -2.3910 H     1 <1>   0.0800 
 37 H        6.0480    -0.2340    -1.9900 H     1 <1>   0.0800 
 38 H        1.4450     1.9850    -2.6480 H     1 <1>   0.0800 
 39 H        2.3480     3.4290    -3.0910 H     1 <1>   0.0800 
 40 H        1.6450     3.3070    -1.4840 H     1 <1>   0.0800 
 41 H        5.4370     2.3550     0.5190 H     1 <1>   0.0800 
 42 H        6.0400     3.2540    -0.8430 H     1 <1>   0.0800 
 43 H        7.8520     2.1060    -2.2990 H     1 <1>   0.0800 
 44 H        8.3290     0.4950    -1.8410 H     1 <1>   0.0800 
 45 H        7.5440     2.4390     1.6540 H     1 <1>   0.0800 
 46 H        7.0620     4.0600     1.2300 H     1 <1>   0.0800 
 47 H       10.0080     2.1710    -1.1430 H     1 <1>   0.0800 
 48 H        9.3440     1.2850     0.2040 H     1 <1>   0.0800 
 49 H        8.5370     3.9960    -0.6450 H     1 <1>   0.4500 
 50 H       10.0650     3.0870     1.7090 H     1 <1>   0.0800 
 51 H        9.3280     4.6640     1.5930 H     1 <1>   0.0800 
 52 H       11.4480     3.5500    -0.2410 H     1 <1>   0.0800 
 53 H       12.9060     4.4630     1.1840 H     1 <1>   0.0800 
 54 H        9.5100     5.8140    -0.9220 H     1 <1>   0.0800 
 55 H       10.8030     5.2200    -1.9300 H     1 <1>   0.0800 
 56 H       13.3350     6.6510     2.4360 H     1 <1>   0.1500 
 57 H       12.6250     5.5950    -0.3550 H     1 <1>   0.0800 
 58 H       10.7700     6.3110     0.9650 H     1 <1>   0.0800 
 59 H       12.0430     7.0660    -1.4510 H     1 <1>   0.0800 
 60 H       12.7170     8.5210     0.5480 H     1 <1>   0.1500 
@<TRIPOS>BOND
  1   1   2  1   
  2   1   3  1   
  3   2   4  ar  
  4   2   5  ar  
  5   3  28  1   
  6   3  29  1   
  7   3  30  1   
  8   4   6  1   
  9   4   7  ar  
 10   5   8  ar  
 11   5  31  1   
 12   6   9  1   
 13   7  10  ar  
 14   7  32  1   
 15   8  10  ar  
 16   8  11  1   
 17   9  33  1   
 18   9  34  1   
 19   9  35  1   
 20  10  12  1   
 21  11  13  1   
 22  12  14  1   
 23  12  36  1   
 24  12  37  1   
 25  13  38  1   
 26  13  39  1   
 27  13  40  1   
 28  14  15  1   
 29  14  16  1   
 30  15  17  1   
 31  15  41  1   
 32  15  42  1   
 33  16  18  1   
 34  16  43  1   
 35  16  44  1   
 36  17  19  1   
 37  17  45  1   
 38  17  46  1   
 39  18  19  1   
 40  18  47  1   
 41  18  48  1   
 42  19  20  1   
 43  19  49  1   
 44  20  21  1   
 45  20  50  1   
 46  20  51  1   
 47  21  22  1   
 48  21  23  1   
 49  21  52  1   
 50  22  24  1   
 51  22  25  1   
 52  22  53  1   
 53  23  26  1   
 54  23  54  1   
 55  23  55  1   
 56  24  27  2   
 57  24  56  1   
 58  25  26  1   
 59  25  57  1   
 60  25  58  1   
 61  26  27  1   
 62  26  59  1   
 63  27  60  1   
@<TRIPOS>SUBSTRUCTURE
  1 ****  15 GROUP 4 **** **** 0

# MOE 2024.06 (io_trps.svl 2023.06)
