@<TRIPOS>MOLECULE
NONAME
48 50 1 0 0 
SMALL
USER_CHARGES


@<TRIPOS>ATOM
  1 BR       1.1720    -1.6450     2.9580 Br    1 <1>  -0.1110 
  2 C        0.3340    -2.0750     1.2750 C.ar  1 <1>   0.1110 
  3 C        0.8440    -1.5650     0.0890 C.ar  1 <1>   0.0820 
  4 C       -0.7820    -2.8900     1.3000 C.ar  1 <1>  -0.1500 
  5 O        1.9210    -0.7520     0.0660 O.3   1 <1>  -0.3630 
  6 C        0.2070    -1.8820    -1.0990 C.ar  1 <1>  -0.1500 
  7 C       -1.4200    -3.2000     0.1050 C.ar  1 <1>  -0.1430 
  8 C        3.1810    -1.3830     0.0240 C.3   1 <1>   0.0400 
  9 C       -0.9150    -2.6970    -1.0910 C.ar  1 <1>  -0.1500 
 10 C       -2.6630    -4.0700     0.1080 C.3   1 <1>   0.4870 
 11 N       -3.8500    -3.2020    -0.1020 N.4   1 <1>  -0.9590 
 12 C       -4.0360    -2.2110     1.0240 C.3   1 <1>   0.3430 
 13 C       -5.1070    -4.0090    -0.3140 C.3   1 <1>   0.3430 
 14 C       -5.2710    -1.3110     0.8210 C.3   1 <1>   0.2090 
 15 C       -6.3480    -3.1200    -0.5310 C.3   1 <1>   0.2090 
 16 N       -6.4950    -2.1290     0.5750 N.pl3 1 <1>  -0.8380 
 17 C       -7.6860    -1.3890     0.5320 C.ar  1 <1>   0.1000 
 18 C       -7.9940    -0.4540    -0.4750 C.ar  1 <1>   0.0830 
 19 C       -8.6040    -1.6020     1.5500 C.ar  1 <1>  -0.1500 
 20 O       -7.0800    -0.2500    -1.4770 O.3   1 <1>  -0.3630 
 21 C       -9.2060     0.2300    -0.4280 C.ar  1 <1>  -0.1500 
 22 C       -9.8040    -0.9170     1.5880 C.ar  1 <1>  -0.1500 
 23 C       -7.3200     0.6900    -2.5030 C.3   1 <1>   0.0400 
 24 C      -10.1050    -0.0010     0.5990 C.ar  1 <1>  -0.1500 
 25 H       -1.1300    -3.2640     2.2470 H     1 <1>   0.1500 
 26 H        0.5950    -1.4870    -2.0220 H     1 <1>   0.1500 
 27 H        3.9380    -0.6190     0.0100 H     1 <1>   0.0800 
 28 H        3.2430    -1.9800    -0.8680 H     1 <1>   0.0800 
 29 H        3.2970    -1.9980     0.8990 H     1 <1>   0.0800 
 30 H       -1.3830    -2.9320    -2.0320 H     1 <1>   0.1500 
 31 H       -2.7450    -4.5940     1.0460 H     1 <1>   0.0800 
 32 H       -2.5880    -4.7970    -0.6840 H     1 <1>   0.0800 
 33 H       -3.6820    -2.6470    -0.9500 H     1 <1>   0.4500 
 34 H       -3.1630    -1.5840     1.1110 H     1 <1>   0.0800 
 35 H       -4.1580    -2.7390     1.9550 H     1 <1>   0.0800 
 36 H       -5.2900    -4.6260     0.5500 H     1 <1>   0.0800 
 37 H       -4.9910    -4.6570    -1.1670 H     1 <1>   0.0800 
 38 H       -5.0990    -0.6450    -0.0060 H     1 <1>   0.0800 
 39 H       -5.4220    -0.7080     1.7000 H     1 <1>   0.0800 
 40 H       -7.2300    -3.7380    -0.5660 H     1 <1>   0.0800 
 41 H       -6.2670    -2.6110    -1.4740 H     1 <1>   0.0800 
 42 H       -8.3700    -2.3140     2.3190 H     1 <1>   0.1500 
 43 H       -9.4780     0.9490    -1.1770 H     1 <1>   0.1500 
 44 H      -10.5020    -1.0980     2.3870 H     1 <1>   0.1500 
 45 H       -6.4740     0.6900    -3.1650 H     1 <1>   0.0800 
 46 H       -7.4390     1.6650    -2.0640 H     1 <1>   0.0800 
 47 H       -8.2050     0.4010    -3.0430 H     1 <1>   0.0800 
 48 H      -11.0400     0.5330     0.6280 H     1 <1>   0.1500 
@<TRIPOS>BOND
  1   1   2  1   
  2   2   3  ar  
  3   2   4  ar  
  4   3   5  1   
  5   3   6  ar  
  6   4   7  ar  
  7   4  25  1   
  8   5   8  1   
  9   6   9  ar  
 10   6  26  1   
 11   7   9  ar  
 12   7  10  1   
 13   8  27  1   
 14   8  28  1   
 15   8  29  1   
 16   9  30  1   
 17  10  11  1   
 18  10  31  1   
 19  10  32  1   
 20  11  12  1   
 21  11  13  1   
 22  11  33  1   
 23  12  14  1   
 24  12  34  1   
 25  12  35  1   
 26  13  15  1   
 27  13  36  1   
 28  13  37  1   
 29  14  16  1   
 30  14  38  1   
 31  14  39  1   
 32  15  16  1   
 33  15  40  1   
 34  15  41  1   
 35  16  17  1   
 36  17  18  ar  
 37  17  19  ar  
 38  18  20  1   
 39  18  21  ar  
 40  19  22  ar  
 41  19  42  1   
 42  20  23  1   
 43  21  24  ar  
 44  21  43  1   
 45  22  24  ar  
 46  22  44  1   
 47  23  45  1   
 48  23  46  1   
 49  23  47  1   
 50  24  48  1   
@<TRIPOS>SUBSTRUCTURE
  1 ****  12 GROUP 4 **** **** 0

# MOE 2024.06 (io_trps.svl 2023.06)
