@<TRIPOS>MOLECULE
NONAME
54 55 1 0 0 
SMALL
USER_CHARGES


@<TRIPOS>ATOM
  1 O       -6.4640    -6.8650    -0.3510 O.3   1 <1>  -0.3630 
  2 C       -7.4560    -7.7270    -0.0370 C.ar  1 <1>   0.0820 
  3 C       -5.4330    -7.3750    -1.1700 C.3   1 <1>   0.1200 
  4 C       -8.5430    -7.8760    -0.8930 C.ar  1 <1>  -0.1440 
  5 C       -7.3840    -8.4440     1.1540 C.ar  1 <1>  -0.1440 
  6 C       -4.3740    -6.2870    -1.4010 C.3   1 <1>   0.2000 
  7 C       -9.5440    -8.7730    -0.5590 C.ar  1 <1>  -0.1500 
  8 C       -8.6670    -7.0810    -2.1860 C.3   1 <1>  -0.0960 
  9 C       -8.3980    -9.3340     1.4670 C.ar  1 <1>  -0.1500 
 10 C       -6.2200    -8.2700     2.1190 C.3   1 <1>  -0.0960 
 11 O       -3.3460    -6.8310    -2.1640 O.3   1 <1>  -0.6800 
 12 C       -3.7850    -5.7010    -0.0960 C.3   1 <1>   0.1100 
 13 C       -9.4760    -9.5060     0.6150 C.ar  1 <1>  -0.1440 
 14 N       -4.1310    -4.2720     0.1110 N.3   1 <1>  -0.8100 
 15 C      -10.5820   -10.4850     0.9680 C.3   1 <1>  -0.0970 
 16 C       -5.5790    -4.0770     0.3940 C.3   1 <1>   0.1100 
 17 C       -3.3110    -3.6780     1.1920 C.3   1 <1>   0.1100 
 18 C       -5.9320    -2.6110     0.7420 C.3   1 <1>   0.3430 
 19 C       -3.6050    -2.1710     1.3930 C.3   1 <1>   0.3430 
 20 N       -4.7460    -1.7140     0.5320 N.4   1 <1>  -0.9590 
 21 C       -5.0260    -0.2530     0.6860 C.3   1 <1>   0.3430 
 22 C       -5.9610     0.2920    -0.4030 C.3   1 <1>   0.1200 
 23 O       -6.1460     1.6420    -0.1630 O.3   1 <1>  -0.6800 
 24 H       -5.8640    -7.6800    -2.1060 H     1 <1>   0.0800 
 25 H       -5.0060    -8.2270    -0.6710 H     1 <1>   0.0800 
 26 H       -4.8000    -5.4980    -1.9960 H     1 <1>   0.0800 
 27 H      -10.3860    -8.9040    -1.2140 H     1 <1>   0.1500 
 28 H       -8.2770    -6.0880    -2.0570 H     1 <1>   0.0800 
 29 H       -9.6970    -6.9990    -2.4820 H     1 <1>   0.0800 
 30 H       -8.1220    -7.5730    -2.9710 H     1 <1>   0.0800 
 31 H       -8.3540    -9.8990     2.3810 H     1 <1>   0.1500 
 32 H       -6.0130    -7.2260     2.2630 H     1 <1>   0.0800 
 33 H       -5.3440    -8.7520     1.7240 H     1 <1>   0.0800 
 34 H       -6.4480    -8.7040     3.0760 H     1 <1>   0.0800 
 35 H       -2.9230    -7.5830    -1.7080 H     1 <1>   0.4000 
 36 H       -2.7130    -5.7870    -0.1420 H     1 <1>   0.0800 
 37 H       -4.1240    -6.2770     0.7490 H     1 <1>   0.0800 
 38 H      -11.3450    -9.9820     1.5340 H     1 <1>   0.0800 
 39 H      -10.1920   -11.2970     1.5550 H     1 <1>   0.0800 
 40 H      -11.0220   -10.8940     0.0770 H     1 <1>   0.0800 
 41 H       -5.8890    -4.7160     1.2050 H     1 <1>   0.0800 
 42 H       -6.1520    -4.3600    -0.4720 H     1 <1>   0.0800 
 43 H       -2.2660    -3.7960     0.9560 H     1 <1>   0.0800 
 44 H       -3.4940    -4.2000     2.1160 H     1 <1>   0.0800 
 45 H       -6.2540    -2.5590     1.7690 H     1 <1>   0.0800 
 46 H       -6.7560    -2.2980     0.1240 H     1 <1>   0.0800 
 47 H       -2.7180    -1.6100     1.1470 H     1 <1>   0.0800 
 48 H       -3.8280    -1.9900     2.4320 H     1 <1>   0.0800 
 49 H       -4.4270    -1.9350    -0.4250 H     1 <1>   0.4500 
 50 H       -4.0990     0.2950     0.6300 H     1 <1>   0.0800 
 51 H       -5.4700    -0.0690     1.6500 H     1 <1>   0.0800 
 52 H       -6.9260    -0.1840    -0.3690 H     1 <1>   0.0800 
 53 H       -5.5210     0.1840    -1.3790 H     1 <1>   0.0800 
 54 H       -6.7170     2.0600    -0.8430 H     1 <1>   0.4000 
@<TRIPOS>BOND
  1   1   2  1   
  2   1   3  1   
  3   2   4  ar  
  4   2   5  ar  
  5   3   6  1   
  6   3  24  1   
  7   3  25  1   
  8   4   7  ar  
  9   4   8  1   
 10   5   9  ar  
 11   5  10  1   
 12   6  11  1   
 13   6  12  1   
 14   6  26  1   
 15   7  13  ar  
 16   7  27  1   
 17   8  28  1   
 18   8  29  1   
 19   8  30  1   
 20   9  13  ar  
 21   9  31  1   
 22  10  32  1   
 23  10  33  1   
 24  10  34  1   
 25  11  35  1   
 26  12  14  1   
 27  12  36  1   
 28  12  37  1   
 29  13  15  1   
 30  14  16  1   
 31  14  17  1   
 32  15  38  1   
 33  15  39  1   
 34  15  40  1   
 35  16  18  1   
 36  16  41  1   
 37  16  42  1   
 38  17  19  1   
 39  17  43  1   
 40  17  44  1   
 41  18  20  1   
 42  18  45  1   
 43  18  46  1   
 44  19  20  1   
 45  19  47  1   
 46  19  48  1   
 47  20  21  1   
 48  20  49  1   
 49  21  22  1   
 50  21  50  1   
 51  21  51  1   
 52  22  23  1   
 53  22  52  1   
 54  22  53  1   
 55  23  54  1   
@<TRIPOS>SUBSTRUCTURE
  1 ****   1 GROUP 4 **** **** 0

# MOE 2024.06 (io_trps.svl 2023.06)
