@<TRIPOS>MOLECULE
NONAME
45 46 1 0 0 
SMALL
USER_CHARGES


@<TRIPOS>ATOM
  1 O       -6.9260    -5.2200    -0.4430 O.3   1 <1>  -0.3630 
  2 C       -8.0220    -4.4280    -0.2960 C.ar  1 <1>   0.0830 
  3 C       -6.9170    -6.5550    -0.0110 C.3   1 <1>   0.1200 
  4 C       -7.8920    -3.0730    -0.5920 C.ar  1 <1>  -0.1440 
  5 C       -9.2510    -4.9200     0.1410 C.ar  1 <1>  -0.1500 
  6 C       -5.4980    -7.0840    -0.2190 C.3   1 <1>  -0.1600 
  7 C       -8.9840    -2.2320    -0.4360 C.ar  1 <1>  -0.1500 
  8 C       -6.5740    -2.4860    -1.0820 C.3   1 <1>   0.1220 
  9 C      -10.3310    -4.0690     0.2870 C.ar  1 <1>  -0.1500 
 10 C       -5.3850    -8.5310     0.2530 C.3   1 <1>   0.3430 
 11 C      -10.2040    -2.7210     0.0000 C.ar  1 <1>  -0.1430 
 12 C       -5.7250    -2.0350     0.0950 C.2   1 <1>  -0.2880 
 13 N       -4.0190    -9.0540    -0.0200 N.4   1 <1>  -0.9590 
 14 C      -11.3850    -1.7830     0.1670 C.3   1 <1>  -0.0970 
 15 C       -5.2530    -0.7980     0.2810 C.2   1 <1>  -0.3000 
 16 C       -3.9020   -10.5150     0.2090 C.3   1 <1>   0.3430 
 17 C       -2.9500    -8.4310     0.8030 C.3   1 <1>   0.3430 
 18 C       -2.4040   -10.7600     0.3300 C.3   1 <1>  -0.1600 
 19 C       -1.7900    -9.4140     0.7270 C.3   1 <1>  -0.1600 
 20 H       -7.6320    -7.1040    -0.6010 H     1 <1>   0.0800 
 21 H       -7.1920    -6.5730     1.0300 H     1 <1>   0.0800 
 22 H       -9.3930    -5.9560     0.3720 H     1 <1>   0.1500 
 23 H       -4.8240    -6.4580     0.3380 H     1 <1>   0.0800 
 24 H       -5.2640    -7.0240    -1.2670 H     1 <1>   0.0800 
 25 H       -8.8810    -1.1840    -0.6520 H     1 <1>   0.1500 
 26 H       -6.7690    -1.6510    -1.7320 H     1 <1>   0.0800 
 27 H       -6.0310    -3.2140    -1.6580 H     1 <1>   0.0800 
 28 H      -11.2730    -4.4600     0.6270 H     1 <1>   0.1500 
 29 H       -6.1110    -9.1300    -0.2740 H     1 <1>   0.0800 
 30 H       -5.6000    -8.5910     1.3090 H     1 <1>   0.0800 
 31 H       -5.5400    -2.8370     0.7880 H     1 <1>   0.1500 
 32 H       -3.7850    -8.8790    -1.0070 H     1 <1>   0.4500 
 33 H      -11.3650    -1.0200    -0.5900 H     1 <1>   0.0800 
 34 H      -11.3430    -1.3160     1.1340 H     1 <1>   0.0800 
 35 H      -12.3120    -2.3220     0.0800 H     1 <1>   0.0800 
 36 H       -4.6560    -0.5070     1.1290 H     1 <1>   0.1500 
 37 H       -5.4230     0.0260    -0.3900 H     1 <1>   0.1500 
 38 H       -4.3360   -11.0850    -0.5980 H     1 <1>   0.0800 
 39 H       -4.3840   -10.7800     1.1370 H     1 <1>   0.0800 
 40 H       -3.2800    -8.3430     1.8260 H     1 <1>   0.0800 
 41 H       -2.6730    -7.4570     0.4310 H     1 <1>   0.0800 
 42 H       -2.0100   -11.0880    -0.6160 H     1 <1>   0.0800 
 43 H       -2.2060   -11.5220     1.0640 H     1 <1>   0.0800 
 44 H       -1.2830    -9.4700     1.6750 H     1 <1>   0.0800 
 45 H       -1.0830    -9.0890    -0.0180 H     1 <1>   0.0800 
@<TRIPOS>BOND
  1   1   2  1   
  2   1   3  1   
  3   2   4  ar  
  4   2   5  ar  
  5   3   6  1   
  6   3  20  1   
  7   3  21  1   
  8   4   7  ar  
  9   4   8  1   
 10   5   9  ar  
 11   5  22  1   
 12   6  10  1   
 13   6  23  1   
 14   6  24  1   
 15   7  11  ar  
 16   7  25  1   
 17   8  12  1   
 18   8  26  1   
 19   8  27  1   
 20   9  11  ar  
 21   9  28  1   
 22  10  13  1   
 23  10  29  1   
 24  10  30  1   
 25  11  14  1   
 26  12  15  2   
 27  12  31  1   
 28  13  16  1   
 29  13  17  1   
 30  13  32  1   
 31  14  33  1   
 32  14  34  1   
 33  14  35  1   
 34  15  36  1   
 35  15  37  1   
 36  16  18  1   
 37  16  38  1   
 38  16  39  1   
 39  17  19  1   
 40  17  40  1   
 41  17  41  1   
 42  18  19  1   
 43  18  42  1   
 44  18  43  1   
 45  19  44  1   
 46  19  45  1   
@<TRIPOS>SUBSTRUCTURE
  1 ****   1 GROUP 4 **** **** 0

# MOE 2024.06 (io_trps.svl 2023.06)
