@<TRIPOS>MOLECULE
NONAME
41 42 1 0 0 
SMALL
USER_CHARGES


@<TRIPOS>ATOM
  1 S       -0.7810     1.0630    -2.1260 S.3   1 <1>  -0.3610 
  2 C        0.6030     1.6230    -1.2000 C.cat 1 <1>   0.8400 
  3 C       -2.3040     2.0020    -1.6030 C.3   1 <1>   0.2110 
  4 N        0.3960     2.2390    -0.0580 N.pl3 1 <1>  -0.7940 
  5 N        1.7430     1.3300    -1.7790 N.pl3 1 <1>  -0.7940 
  6 C       -2.8050     1.5350    -0.2500 C.2   1 <1>   0.5690 
  7 C       -3.4470     1.6460    -2.5590 C.3   1 <1>  -0.0990 
  8 C        1.3580     2.7830     0.9140 C.3   1 <1>   0.3290 
  9 C        3.1440     1.6130    -1.4110 C.3   1 <1>   0.3290 
 10 O       -2.1830     1.7560     0.7610 O.2   1 <1>  -0.5700 
 11 N       -4.0070     0.8920    -0.3590 N.am  1 <1>  -0.2370 
 12 C       -4.4230     0.9180    -1.6650 C.2   1 <1>   0.5690 
 13 C        2.4480     3.3180     1.8390 C.3   1 <1>  -0.2400 
 14 C        3.6910     0.4270    -0.6260 C.3   1 <1>  -0.2400 
 15 C       -4.7240     0.3190     0.7170 C.ar  1 <1>   0.1170 
 16 O       -5.4390     0.4470    -2.1000 O.2   1 <1>  -0.5700 
 17 C       -6.0810     0.5950     0.8910 C.ar  1 <1>  -0.1500 
 18 C       -4.0870    -0.5300     1.6220 C.ar  1 <1>  -0.1500 
 19 C       -6.7880     0.0420     1.9450 C.ar  1 <1>  -0.1500 
 20 C       -4.7830    -1.0900     2.6800 C.ar  1 <1>  -0.1500 
 21 C       -6.1240    -0.7920     2.8220 C.ar  1 <1>   0.1900 
 22 F       -6.7860    -1.3180     3.8190 F     1 <1>  -0.1900 
 23 H       -2.0750     3.0530    -1.6100 H     1 <1>   0.0800 
 24 H       -0.5650     2.2570     0.3180 H     1 <1>   0.4500 
 25 H        1.6700     0.7930    -2.6470 H     1 <1>   0.4500 
 26 H       -3.1360     1.0080    -3.3670 H     1 <1>   0.0800 
 27 H       -3.9160     2.5300    -2.9500 H     1 <1>   0.0800 
 28 H        0.9900     2.1480     1.7050 H     1 <1>   0.0800 
 29 H        0.8340     3.7230     0.9780 H     1 <1>   0.0800 
 30 H        3.7260     1.7560    -2.3070 H     1 <1>   0.0800 
 31 H        3.2160     2.5160    -0.8310 H     1 <1>   0.0800 
 32 H        2.0230     3.6940     2.7550 H     1 <1>   0.0800 
 33 H        3.1470     2.5390     2.0890 H     1 <1>   0.0800 
 34 H        2.9870     4.1190     1.3650 H     1 <1>   0.0800 
 35 H        4.7130     0.6170    -0.3510 H     1 <1>   0.0800 
 36 H        3.6660    -0.4660    -1.2250 H     1 <1>   0.0800 
 37 H        3.1230     0.2700     0.2730 H     1 <1>   0.0800 
 38 H       -6.5910     1.2410     0.1980 H     1 <1>   0.1500 
 39 H       -3.0430    -0.7560     1.5040 H     1 <1>   0.1500 
 40 H       -7.8340     0.2480     2.0850 H     1 <1>   0.1500 
 41 H       -4.3000    -1.7450     3.3840 H     1 <1>   0.1500 
@<TRIPOS>BOND
  1   1   2  1   
  2   1   3  1   
  3   2   4  ar  
  4   2   5  ar  
  5   3   6  1   
  6   3   7  1   
  7   3  23  1   
  8   4   8  1   
  9   4  24  1   
 10   5   9  1   
 11   5  25  1   
 12   6  10  2   
 13   6  11  am  
 14   7  12  1   
 15   7  26  1   
 16   7  27  1   
 17   8  13  1   
 18   8  28  1   
 19   8  29  1   
 20   9  14  1   
 21   9  30  1   
 22   9  31  1   
 23  11  12  am  
 24  11  15  1   
 25  12  16  2   
 26  13  32  1   
 27  13  33  1   
 28  13  34  1   
 29  14  35  1   
 30  14  36  1   
 31  14  37  1   
 32  15  17  ar  
 33  15  18  ar  
 34  17  19  ar  
 35  17  38  1   
 36  18  20  ar  
 37  18  39  1   
 38  19  21  ar  
 39  19  40  1   
 40  20  21  ar  
 41  20  41  1   
 42  21  22  1   
@<TRIPOS>SUBSTRUCTURE
  1 ****   6 GROUP 4 **** **** 0

# MOE 2024.06 (io_trps.svl 2023.06)
