@<TRIPOS>MOLECULE
NONAME
34 35 1 0 0 
SMALL
USER_CHARGES


@<TRIPOS>ATOM
  1 O        0.0880     0.2390     0.6020 O.2   1 <1>  -0.5700 
  2 C       -0.0420     1.2770    -0.0160 C.2   1 <1>   0.6900 
  3 N       -1.2640     1.7990    -0.3210 N.am  1 <1>  -0.5470 
  4 N        1.0480     1.9720    -0.4240 N.am  1 <1>  -0.7300 
  5 C       -2.5580     1.2820    -0.1630 C.ar  1 <1>   0.1170 
  6 C        2.4440     1.5710    -0.1560 C.3   1 <1>   0.1400 
  7 C       -3.6280     2.1720    -0.1210 C.ar  1 <1>  -0.1500 
  8 C       -2.8220    -0.0840    -0.0670 C.ar  1 <1>  -0.1500 
  9 C        3.2820     2.8230     0.1080 C.3   1 <1>  -0.1600 
 10 C       -4.9170     1.6950     0.0160 C.ar  1 <1>  -0.1430 
 11 C       -4.1160    -0.5570     0.0720 C.ar  1 <1>  -0.1500 
 12 C        4.7440     2.4640     0.3930 C.3   1 <1>  -0.2400 
 13 C       -5.1600     0.3490     0.1120 C.ar  1 <1>  -0.1430 
 14 C       -6.2000     2.4870     0.0860 C.3   1 <1>  -0.0170 
 15 C       -6.6330     0.0620     0.2570 C.3   1 <1>  -0.0170 
 16 C       -7.2920     1.4140    -0.0710 C.3   1 <1>  -0.1600 
 17 H       -1.2270     2.7660    -0.6180 H     1 <1>   0.3700 
 18 H        0.9310     2.7220    -1.0990 H     1 <1>   0.3700 
 19 H        2.8290     1.0360    -1.0070 H     1 <1>   0.0800 
 20 H        2.4800     0.9190     0.7020 H     1 <1>   0.0800 
 21 H       -3.4560     3.2290    -0.1910 H     1 <1>   0.1500 
 22 H       -2.0110    -0.7880    -0.1030 H     1 <1>   0.1500 
 23 H        2.8770     3.3460     0.9580 H     1 <1>   0.0800 
 24 H        3.2410     3.4720    -0.7490 H     1 <1>   0.0800 
 25 H       -4.3050    -1.6130     0.1480 H     1 <1>   0.1500 
 26 H        4.8130     1.8290     1.2590 H     1 <1>   0.0800 
 27 H        5.3130     3.3580     0.5800 H     1 <1>   0.0800 
 28 H        5.1780     1.9520    -0.4480 H     1 <1>   0.0800 
 29 H       -6.2540     3.2240    -0.6960 H     1 <1>   0.0800 
 30 H       -6.2730     2.9640     1.0470 H     1 <1>   0.0800 
 31 H       -6.8420    -0.2270     1.2720 H     1 <1>   0.0800 
 32 H       -6.9540    -0.7100    -0.4190 H     1 <1>   0.0800 
 33 H       -7.6150     1.3990    -1.0980 H     1 <1>   0.0800 
 34 H       -8.1400     1.6090     0.5610 H     1 <1>   0.0800 
@<TRIPOS>BOND
  1   1   2  2   
  2   2   3  am  
  3   2   4  am  
  4   3   5  1   
  5   3  17  1   
  6   4   6  1   
  7   4  18  1   
  8   5   7  ar  
  9   5   8  ar  
 10   6   9  1   
 11   6  19  1   
 12   6  20  1   
 13   7  10  ar  
 14   7  21  1   
 15   8  11  ar  
 16   8  22  1   
 17   9  12  1   
 18   9  23  1   
 19   9  24  1   
 20  10  13  ar  
 21  10  14  1   
 22  11  13  ar  
 23  11  25  1   
 24  12  26  1   
 25  12  27  1   
 26  12  28  1   
 27  13  15  1   
 28  14  16  1   
 29  14  29  1   
 30  14  30  1   
 31  15  16  1   
 32  15  31  1   
 33  15  32  1   
 34  16  33  1   
 35  16  34  1   
@<TRIPOS>SUBSTRUCTURE
  1 ****   5 GROUP 4 **** **** 0

# MOE 2024.06 (io_trps.svl 2023.06)
