@<TRIPOS>MOLECULE
NONAME
47 49 1 0 0 
SMALL
USER_CHARGES


@<TRIPOS>ATOM
  1 O        0.6100    -0.5730     1.8470 O.2   1 <1>  -0.5700 
  2 C        1.5360    -0.9060     1.1450 C.2   1 <1>   0.5690 
  3 N        1.5890    -2.0390     0.3790 N.am  1 <1>  -0.2370 
  4 C        2.8670    -0.1360     1.0980 C.3   1 <1>   0.2510 
  5 C        0.5030    -2.9020     0.0960 C.ar  1 <1>   0.1170 
  6 C        2.8750    -2.2370    -0.0420 C.2   1 <1>   0.5690 
  7 N        2.9290     1.1060     0.2610 N.3   1 <1>  -0.8100 
  8 C        3.8110    -1.1790     0.4810 C.3   1 <1>  -0.0990 
  9 C       -0.3380    -3.3600     1.1040 C.ar  1 <1>  -0.1500 
 10 C        0.2530    -3.3220    -1.2060 C.ar  1 <1>  -0.1500 
 11 O        3.2710    -3.1440    -0.7280 O.2   1 <1>  -0.5700 
 12 C        4.1560     1.8650     0.5810 C.3   1 <1>   0.1100 
 13 C        1.7160     1.9530     0.3460 C.3   1 <1>   0.1100 
 14 C       -1.3920    -4.2100     0.8200 C.ar  1 <1>  -0.1500 
 15 C       -0.8010    -4.1710    -1.4890 C.ar  1 <1>  -0.1500 
 16 C        4.4690     2.9770    -0.4270 C.3   1 <1>  -0.1600 
 17 C        1.5580     2.7770    -0.9350 C.3   1 <1>  -0.1600 
 18 C       -1.6420    -4.6300    -0.4820 C.ar  1 <1>   0.1170 
 19 C        3.6000     4.2270    -0.2290 C.3   1 <1>  -0.1600 
 20 C        2.2310     4.1580    -0.9180 C.3   1 <1>  -0.1600 
 21 N       -2.6870    -5.5050    -0.8250 N.am  1 <1>  -0.5470 
 22 C       -3.8310    -5.8430    -0.1610 C.2   1 <1>   0.5690 
 23 O       -4.1620    -5.3880     0.9040 O.2   1 <1>  -0.5700 
 24 C       -4.7380    -6.8490    -0.8240 C.3   1 <1>  -0.1790 
 25 H        3.1570     0.0930     2.1090 H     1 <1>   0.0800 
 26 H        4.4440    -1.6140     1.2300 H     1 <1>   0.0800 
 27 H        4.4030    -0.7910    -0.3280 H     1 <1>   0.0800 
 28 H       -0.1740    -3.0500     2.1210 H     1 <1>   0.1500 
 29 H        0.8920    -2.9840    -2.0030 H     1 <1>   0.1500 
 30 H        4.9980     1.1950     0.5800 H     1 <1>   0.0800 
 31 H        4.0800     2.2810     1.5720 H     1 <1>   0.0800 
 32 H        1.7370     2.5800     1.2210 H     1 <1>   0.0800 
 33 H        0.8350     1.3430     0.4050 H     1 <1>   0.0800 
 34 H       -2.0190    -4.5470     1.6250 H     1 <1>   0.1500 
 35 H       -0.9670    -4.4780    -2.5050 H     1 <1>   0.1500 
 36 H        4.3990     2.6040    -1.4340 H     1 <1>   0.0800 
 37 H        5.4920     3.2690    -0.2680 H     1 <1>   0.0800 
 38 H        0.5070     2.9310    -1.1080 H     1 <1>   0.0800 
 39 H        1.9260     2.1990    -1.7660 H     1 <1>   0.0800 
 40 H        4.1240     5.0830    -0.6190 H     1 <1>   0.0800 
 41 H        3.4620     4.4000     0.8250 H     1 <1>   0.0800 
 42 H        1.5770     4.8600    -0.4320 H     1 <1>   0.0800 
 43 H        2.3400     4.4830    -1.9380 H     1 <1>   0.0800 
 44 H       -2.5850    -5.9390    -1.7390 H     1 <1>   0.3700 
 45 H       -4.2030    -7.7620    -1.0020 H     1 <1>   0.0800 
 46 H       -5.1040    -6.4530    -1.7530 H     1 <1>   0.0800 
 47 H       -5.5760    -7.0570    -0.1830 H     1 <1>   0.0800 
@<TRIPOS>BOND
  1   1   2  2   
  2   2   3  am  
  3   2   4  1   
  4   3   5  1   
  5   3   6  am  
  6   4   7  1   
  7   4   8  1   
  8   4  25  1   
  9   5   9  ar  
 10   5  10  ar  
 11   6   8  1   
 12   6  11  2   
 13   7  12  1   
 14   7  13  1   
 15   8  26  1   
 16   8  27  1   
 17   9  14  ar  
 18   9  28  1   
 19  10  15  ar  
 20  10  29  1   
 21  12  16  1   
 22  12  30  1   
 23  12  31  1   
 24  13  17  1   
 25  13  32  1   
 26  13  33  1   
 27  14  18  ar  
 28  14  34  1   
 29  15  18  ar  
 30  15  35  1   
 31  16  19  1   
 32  16  36  1   
 33  16  37  1   
 34  17  20  1   
 35  17  38  1   
 36  17  39  1   
 37  18  21  1   
 38  19  20  1   
 39  19  40  1   
 40  19  41  1   
 41  20  42  1   
 42  20  43  1   
 43  21  22  am  
 44  21  44  1   
 45  22  23  2   
 46  22  24  1   
 47  24  45  1   
 48  24  46  1   
 49  24  47  1   
@<TRIPOS>SUBSTRUCTURE
  1 ****   3 GROUP 4 **** **** 0

# MOE 2024.06 (io_trps.svl 2023.06)
