@<TRIPOS>MOLECULE
NONAME
45 45 1 0 0 
SMALL
USER_CHARGES


@<TRIPOS>ATOM
  1 N       -0.1440    -0.1520    -0.1490 N.4   1 <1>  -0.9590 
  2 C       -1.3350     0.6330     0.2740 C.3   1 <1>   0.3430 
  3 C       -0.1010    -1.4970     0.4910 C.3   1 <1>   0.3430 
  4 C        1.0990     0.6290     0.1360 C.3   1 <1>   0.3430 
  5 C       -2.6170    -0.1240    -0.0760 C.3   1 <1>  -0.1600 
  6 C       -1.3650    -2.2860     0.1460 C.3   1 <1>  -0.1600 
  7 C        2.2850     0.0530    -0.6410 C.3   1 <1>  -0.1600 
  8 C       -2.6460    -1.5310     0.5440 C.3   1 <1>   0.4230 
  9 C        3.5340     0.9190    -0.4470 C.3   1 <1>  -0.2400 
 10 N       -3.8730    -2.2770     0.0920 N.4   1 <1>  -0.9590 
 11 C       -5.1510    -1.6370     0.5530 C.3   1 <1>   0.3430 
 12 C       -3.8870    -3.7230     0.5170 C.3   1 <1>   0.2630 
 13 C       -6.3220    -2.0810    -0.3260 C.3   1 <1>  -0.1600 
 14 C       -7.6040    -1.3350     0.0660 C.3   1 <1>  -0.1600 
 15 C       -8.7800    -1.7710    -0.8120 C.3   1 <1>  -0.2400 
 16 H       -0.1730    -0.2700    -1.1730 H     1 <1>   0.4500 
 17 H       -1.3370     1.5920    -0.2220 H     1 <1>   0.0800 
 18 H       -1.2950     0.8100     1.3380 H     1 <1>   0.0800 
 19 H       -0.0190    -1.3880     1.5610 H     1 <1>   0.0800 
 20 H        0.7630    -2.0430     0.1460 H     1 <1>   0.0800 
 21 H        1.3160     0.6230     1.1920 H     1 <1>   0.0800 
 22 H        0.9610     1.6550    -0.1700 H     1 <1>   0.0800 
 23 H       -2.7040    -0.1820    -1.1470 H     1 <1>   0.0800 
 24 H       -3.4330     0.4680     0.2940 H     1 <1>   0.0800 
 25 H       -1.3000    -3.2170     0.6780 H     1 <1>   0.0800 
 26 H       -1.3650    -2.4980    -0.9090 H     1 <1>   0.0800 
 27 H        2.0560     0.0200    -1.6930 H     1 <1>   0.0800 
 28 H        2.5140    -0.9430    -0.3040 H     1 <1>   0.0800 
 29 H       -2.6680    -1.4390     1.6190 H     1 <1>   0.0800 
 30 H        3.3660     1.9220    -0.8010 H     1 <1>   0.0800 
 31 H        4.3600     0.5040    -1.0000 H     1 <1>   0.0800 
 32 H        3.8160     0.9610     0.5920 H     1 <1>   0.0800 
 33 H       -3.8980    -2.2610    -0.9380 H     1 <1>   0.4500 
 34 H       -5.0830    -0.5650     0.4860 H     1 <1>   0.0800 
 35 H       -5.3480    -1.8920     1.5820 H     1 <1>   0.0800 
 36 H       -3.8450    -3.8010     1.5910 H     1 <1>   0.0800 
 37 H       -3.0490    -4.2540     0.0970 H     1 <1>   0.0800 
 38 H       -4.7860    -4.2100     0.1760 H     1 <1>   0.0800 
 39 H       -6.5000    -3.1360    -0.2160 H     1 <1>   0.0800 
 40 H       -6.1040    -1.8700    -1.3580 H     1 <1>   0.0800 
 41 H       -7.4650    -0.2720    -0.0450 H     1 <1>   0.0800 
 42 H       -7.8480    -1.5340     1.0970 H     1 <1>   0.0800 
 43 H       -8.5830    -1.5600    -1.8490 H     1 <1>   0.0800 
 44 H       -9.6700    -1.2380    -0.5250 H     1 <1>   0.0800 
 45 H       -8.9700    -2.8240    -0.7030 H     1 <1>   0.0800 
@<TRIPOS>BOND
  1   1   2  1   
  2   1   3  1   
  3   1   4  1   
  4   1  16  1   
  5   2   5  1   
  6   2  17  1   
  7   2  18  1   
  8   3   6  1   
  9   3  19  1   
 10   3  20  1   
 11   4   7  1   
 12   4  21  1   
 13   4  22  1   
 14   5   8  1   
 15   5  23  1   
 16   5  24  1   
 17   6   8  1   
 18   6  25  1   
 19   6  26  1   
 20   7   9  1   
 21   7  27  1   
 22   7  28  1   
 23   8  10  1   
 24   8  29  1   
 25   9  30  1   
 26   9  31  1   
 27   9  32  1   
 28  10  11  1   
 29  10  12  1   
 30  10  33  1   
 31  11  13  1   
 32  11  34  1   
 33  11  35  1   
 34  12  36  1   
 35  12  37  1   
 36  12  38  1   
 37  13  14  1   
 38  13  39  1   
 39  13  40  1   
 40  14  15  1   
 41  14  41  1   
 42  14  42  1   
 43  15  43  1   
 44  15  44  1   
 45  15  45  1   
@<TRIPOS>SUBSTRUCTURE
  1 ****   8 GROUP 4 **** **** 0

# MOE 2024.06 (io_trps.svl 2023.06)
