@<TRIPOS>MOLECULE
NONAME
47 49 1 0 0 
SMALL
USER_CHARGES


@<TRIPOS>ATOM
  1 CL       0.6160     1.2390     0.6660 Cl    1 <1>  -0.1770 
  2 C       -0.7050     2.2160     0.0770 C.ar  1 <1>   0.1770 
  3 C       -1.4880     2.9120     0.9810 C.ar  1 <1>  -0.1500 
  4 C       -0.9470     2.2760    -1.2830 C.ar  1 <1>  -0.1500 
  5 C       -2.5400     3.6930     0.5260 C.ar  1 <1>  -0.1440 
  6 C       -1.9930     3.0560    -1.7450 C.ar  1 <1>  -0.1500 
  7 C       -2.7750     3.7690    -0.8470 C.ar  1 <1>   0.0830 
  8 C       -3.4090     4.4330     1.5340 C.3   1 <1>  -0.0960 
  9 O       -3.7760     4.5270    -1.3410 O.3   1 <1>  -0.3630 
 10 C       -3.5250     5.9140    -1.4560 C.3   1 <1>   0.3800 
 11 C       -4.6300     6.6870    -0.7480 C.2   1 <1>   0.1980 
 12 C       -3.4290     6.2550    -2.9450 C.3   1 <1>  -0.2400 
 13 S       -6.2780     6.3940    -1.1940 S.3   1 <1>  -0.0800 
 14 N       -4.5210     7.5590     0.1740 N.2   1 <1>  -0.3380 
 15 C       -6.7320     7.5710    -0.0010 C.2   1 <1>   0.4420 
 16 N       -5.7150     8.0640     0.6050 N.2   1 <1>  -0.3380 
 17 N       -8.0450     7.9090     0.2460 N.am  1 <1>  -0.4940 
 18 C       -9.2140     7.5190    -0.3440 C.2   1 <1>   0.5690 
 19 O       -9.2620     6.7570    -1.2760 O.2   1 <1>  -0.5700 
 20 C      -10.5150     8.0960     0.2170 C.3   1 <1>  -0.0190 
 21 C      -11.4420     6.9830     0.7430 C.3   1 <1>  -0.1600 
 22 C      -11.2460     8.9560    -0.8330 C.3   1 <1>  -0.1600 
 23 C      -12.7530     7.5560     1.2990 C.3   1 <1>  -0.1600 
 24 C      -12.5570     9.5310    -0.2780 C.3   1 <1>  -0.1600 
 25 C      -13.4700     8.4160     0.2500 C.3   1 <1>  -0.1600 
 26 H       -1.2710     2.8330     2.0300 H     1 <1>   0.1500 
 27 H       -0.3280     1.7190    -1.9630 H     1 <1>   0.1500 
 28 H       -2.2060     3.1140    -2.7970 H     1 <1>   0.1500 
 29 H       -4.4400     4.4120     1.2280 H     1 <1>   0.0800 
 30 H       -3.3410     3.9750     2.5040 H     1 <1>   0.0800 
 31 H       -3.0910     5.4560     1.6160 H     1 <1>   0.0800 
 32 H       -2.5880     6.1380    -0.9750 H     1 <1>   0.0800 
 33 H       -4.3370     5.9850    -3.4520 H     1 <1>   0.0800 
 34 H       -2.6020     5.7310    -3.3890 H     1 <1>   0.0800 
 35 H       -3.2680     7.3110    -3.0650 H     1 <1>   0.0800 
 36 H       -8.1350     8.5820     1.0010 H     1 <1>   0.3700 
 37 H      -10.2720     8.7340     1.0480 H     1 <1>   0.0800 
 38 H      -10.9390     6.4240     1.5140 H     1 <1>   0.0800 
 39 H      -11.6680     6.3000    -0.0600 H     1 <1>   0.0800 
 40 H      -11.4630     8.3500    -1.6970 H     1 <1>   0.0800 
 41 H      -10.6070     9.7610    -1.1520 H     1 <1>   0.0800 
 42 H      -12.5440     8.1550     2.1690 H     1 <1>   0.0800 
 43 H      -13.3990     6.7500     1.6030 H     1 <1>   0.0800 
 44 H      -13.0670    10.0750    -1.0540 H     1 <1>   0.0800 
 45 H      -12.3390    10.2210     0.5190 H     1 <1>   0.0800 
 46 H      -14.3560     8.8500     0.6820 H     1 <1>   0.0800 
 47 H      -13.7770     7.7910    -0.5710 H     1 <1>   0.0800 
@<TRIPOS>BOND
  1   1   2  1   
  2   2   3  ar  
  3   2   4  ar  
  4   3   5  ar  
  5   3  26  1   
  6   4   6  ar  
  7   4  27  1   
  8   5   7  ar  
  9   5   8  1   
 10   6   7  ar  
 11   6  28  1   
 12   7   9  1   
 13   8  29  1   
 14   8  30  1   
 15   8  31  1   
 16   9  10  1   
 17  10  11  1   
 18  10  12  1   
 19  10  32  1   
 20  11  13  1   
 21  11  14  2   
 22  12  33  1   
 23  12  34  1   
 24  12  35  1   
 25  13  15  1   
 26  14  16  1   
 27  15  16  2   
 28  15  17  1   
 29  17  18  am  
 30  17  36  1   
 31  18  19  2   
 32  18  20  1   
 33  20  21  1   
 34  20  22  1   
 35  20  37  1   
 36  21  23  1   
 37  21  38  1   
 38  21  39  1   
 39  22  24  1   
 40  22  40  1   
 41  22  41  1   
 42  23  25  1   
 43  23  42  1   
 44  23  43  1   
 45  24  25  1   
 46  24  44  1   
 47  24  45  1   
 48  25  46  1   
 49  25  47  1   
@<TRIPOS>SUBSTRUCTURE
  1 ****  13 GROUP 4 **** **** 0

# MOE 2024.06 (io_trps.svl 2023.06)
