@<TRIPOS>MOLECULE
NONAME
39 39 1 0 0 
SMALL
USER_CHARGES


@<TRIPOS>ATOM
  1 O       -0.3800     0.3990     0.0260 O.2   1 <1>  -0.5700 
  2 C       -1.3040    -0.3700    -0.1650 C.2   1 <1>   0.6900 
  3 N       -2.5640     0.1010    -0.4420 N.am  1 <1>  -0.6600 
  4 N       -1.1230    -1.7230    -0.0730 N.am  1 <1>  -0.5470 
  5 C       -2.8680     1.5520    -0.2980 C.3   1 <1>   0.1400 
  6 C       -3.5940    -0.7120    -1.1440 C.3   1 <1>   0.1400 
  7 C        0.0230    -2.5080     0.0650 C.ar  1 <1>   0.1170 
  8 C       -3.2020     1.8640     1.1580 C.3   1 <1>  -0.2400 
  9 C       -4.5810    -1.2860    -0.1310 C.3   1 <1>  -0.2400 
 10 C       -0.1040    -3.8070     0.5430 C.ar  1 <1>  -0.1500 
 11 C        1.2990    -2.0660    -0.2710 C.ar  1 <1>  -0.1500 
 12 C        0.9980    -4.6270     0.6850 C.ar  1 <1>  -0.1500 
 13 C        2.4010    -2.8870    -0.1280 C.ar  1 <1>  -0.1500 
 14 C        2.2860    -4.1940     0.3550 C.ar  1 <1>   0.0860 
 15 C        3.4310    -5.0680     0.5090 C.2   1 <1>   0.6340 
 16 O        3.3490    -6.2070     0.9250 O.2   1 <1>  -0.5700 
 17 O        4.6370    -4.5940     0.1760 O.3   1 <1>  -0.4300 
 18 C        5.8000    -5.3810     0.2990 C.3   1 <1>   0.1200 
 19 C        6.9890    -4.5430    -0.1610 C.3   1 <1>  -0.2400 
 20 H       -2.0080    -2.2100     0.0020 H     1 <1>   0.3700 
 21 H       -3.6950     1.8270    -0.9290 H     1 <1>   0.0800 
 22 H       -2.0130     2.1330    -0.6050 H     1 <1>   0.0800 
 23 H       -3.1210    -1.5100    -1.6900 H     1 <1>   0.0800 
 24 H       -4.1170    -0.1010    -1.8610 H     1 <1>   0.0800 
 25 H       -4.0610     1.3070     1.4800 H     1 <1>   0.0800 
 26 H       -3.4130     2.9130     1.2630 H     1 <1>   0.0800 
 27 H       -2.3630     1.6240     1.7870 H     1 <1>   0.0800 
 28 H       -4.0690    -1.8610     0.6190 H     1 <1>   0.0800 
 29 H       -5.2850    -1.9250    -0.6340 H     1 <1>   0.0800 
 30 H       -5.1290    -0.4930     0.3450 H     1 <1>   0.0800 
 31 H       -1.0760    -4.1790     0.8120 H     1 <1>   0.1500 
 32 H        1.4330    -1.0690    -0.6510 H     1 <1>   0.1500 
 33 H        0.8680    -5.6280     1.0610 H     1 <1>   0.1500 
 34 H        3.3700    -2.5050    -0.3970 H     1 <1>   0.1500 
 35 H        5.6840    -6.2590    -0.3140 H     1 <1>   0.0800 
 36 H        5.9080    -5.6720     1.3300 H     1 <1>   0.0800 
 37 H        6.8610    -4.2520    -1.1880 H     1 <1>   0.0800 
 38 H        7.8920    -5.1190    -0.0780 H     1 <1>   0.0800 
 39 H        7.0830    -3.6660     0.4540 H     1 <1>   0.0800 
@<TRIPOS>BOND
  1   1   2  2   
  2   2   3  am  
  3   2   4  am  
  4   3   5  1   
  5   3   6  1   
  6   4   7  1   
  7   4  20  1   
  8   5   8  1   
  9   5  21  1   
 10   5  22  1   
 11   6   9  1   
 12   6  23  1   
 13   6  24  1   
 14   7  10  ar  
 15   7  11  ar  
 16   8  25  1   
 17   8  26  1   
 18   8  27  1   
 19   9  28  1   
 20   9  29  1   
 21   9  30  1   
 22  10  12  ar  
 23  10  31  1   
 24  11  13  ar  
 25  11  32  1   
 26  12  14  ar  
 27  12  33  1   
 28  13  14  ar  
 29  13  34  1   
 30  14  15  1   
 31  15  16  2   
 32  15  17  1   
 33  17  18  1   
 34  18  19  1   
 35  18  35  1   
 36  18  36  1   
 37  19  37  1   
 38  19  38  1   
 39  19  39  1   
@<TRIPOS>SUBSTRUCTURE
  1 ****   7 GROUP 4 **** **** 0

# MOE 2024.06 (io_trps.svl 2023.06)
