@<TRIPOS>MOLECULE
NONAME
44 46 1 0 0 
SMALL
USER_CHARGES


@<TRIPOS>ATOM
  1 O        0.6170     0.2890     1.0770 O.2   1 <1>  -0.5700 
  2 C        1.0050     1.4110     0.8100 C.2   1 <1>   0.6900 
  3 N        2.3420     1.7200     0.8990 N.am  1 <1>  -0.6600 
  4 N        0.1290     2.3890     0.4360 N.am  1 <1>  -0.5470 
  5 C        2.9800     2.9210     0.2850 C.3   1 <1>   0.1400 
  6 C        3.3130     0.7720     1.5160 C.3   1 <1>   0.1400 
  7 C       -1.2500     2.4210     0.1640 C.ar  1 <1>   0.1170 
  8 C        3.9640     2.4720    -0.7950 C.3   1 <1>  -0.1600 
  9 C        4.3010     0.2910     0.4530 C.3   1 <1>  -0.1600 
 10 C       -1.8690     3.6700     0.0470 C.ar  1 <1>   0.0830 
 11 C       -2.0190     1.2750    -0.0080 C.ar  1 <1>  -0.1500 
 12 C        4.9760     1.4840    -0.2270 C.3   1 <1>   0.5600 
 13 O       -1.0810     4.7780     0.2100 O.3   1 <1>  -0.3630 
 14 C       -3.2310     3.7480    -0.2250 C.ar  1 <1>  -0.1500 
 15 C       -3.3740     1.3530    -0.2800 C.ar  1 <1>  -0.1430 
 16 O        5.8020     2.1500     0.6710 O.3   1 <1>  -0.5600 
 17 O        5.8130     1.0570    -1.2460 O.3   1 <1>  -0.5600 
 18 C       -1.6350     6.0760     0.1970 C.3   1 <1>   0.0400 
 19 C       -3.9770     2.5940    -0.3860 C.ar  1 <1>  -0.1500 
 20 C       -4.1880     0.0830    -0.4550 C.3   1 <1>  -0.0970 
 21 C        7.0880     1.6540     0.5600 C.3   1 <1>   0.1200 
 22 C        7.0820     0.8660    -0.7360 C.3   1 <1>   0.1200 
 23 H        0.5300     3.3200     0.4680 H     1 <1>   0.3700 
 24 H        3.5040     3.4690     1.0500 H     1 <1>   0.0800 
 25 H        2.2490     3.5740    -0.1560 H     1 <1>   0.0800 
 26 H        2.8040    -0.0720     1.9490 H     1 <1>   0.0800 
 27 H        3.8420     1.2800     2.3050 H     1 <1>   0.0800 
 28 H        4.4820     3.3220    -1.1980 H     1 <1>   0.0800 
 29 H        3.4150     1.9990    -1.5890 H     1 <1>   0.0800 
 30 H        3.7590    -0.2760    -0.2820 H     1 <1>   0.0800 
 31 H        5.0330    -0.3500     0.9040 H     1 <1>   0.0800 
 32 H       -1.5560     0.3090     0.0710 H     1 <1>   0.1500 
 33 H       -3.7330     4.6920    -0.3180 H     1 <1>   0.1500 
 34 H       -0.8430     6.7800     0.3780 H     1 <1>   0.0800 
 35 H       -2.3730     6.1480     0.9770 H     1 <1>   0.0800 
 36 H       -2.0730     6.2590    -0.7680 H     1 <1>   0.0800 
 37 H       -5.0300     2.6660    -0.5940 H     1 <1>   0.1500 
 38 H       -3.5870    -0.6870    -0.9040 H     1 <1>   0.0800 
 39 H       -5.0390     0.2620    -1.0870 H     1 <1>   0.0800 
 40 H       -4.5320    -0.2610     0.5040 H     1 <1>   0.0800 
 41 H        7.2990     1.0250     1.4070 H     1 <1>   0.0800 
 42 H        7.7780     2.4780     0.5260 H     1 <1>   0.0800 
 43 H        7.8050     1.2370    -1.4410 H     1 <1>   0.0800 
 44 H        7.2360    -0.1840    -0.5620 H     1 <1>   0.0800 
@<TRIPOS>BOND
  1   1   2  2   
  2   2   3  am  
  3   2   4  am  
  4   3   5  1   
  5   3   6  1   
  6   4   7  1   
  7   4  23  1   
  8   5   8  1   
  9   5  24  1   
 10   5  25  1   
 11   6   9  1   
 12   6  26  1   
 13   6  27  1   
 14   7  10  ar  
 15   7  11  ar  
 16   8  12  1   
 17   8  28  1   
 18   8  29  1   
 19   9  12  1   
 20   9  30  1   
 21   9  31  1   
 22  10  13  1   
 23  10  14  ar  
 24  11  15  ar  
 25  11  32  1   
 26  12  16  1   
 27  12  17  1   
 28  13  18  1   
 29  14  19  ar  
 30  14  33  1   
 31  15  19  ar  
 32  15  20  1   
 33  16  21  1   
 34  17  22  1   
 35  18  34  1   
 36  18  35  1   
 37  18  36  1   
 38  19  37  1   
 39  20  38  1   
 40  20  39  1   
 41  20  40  1   
 42  21  22  1   
 43  21  41  1   
 44  21  42  1   
 45  22  43  1   
 46  22  44  1   
@<TRIPOS>SUBSTRUCTURE
  1 ****   2 GROUP 4 **** **** 0

# MOE 2024.06 (io_trps.svl 2023.06)
