@<TRIPOS>MOLECULE
NONAME
44 45 1 0 0 
SMALL
USER_CHARGES


@<TRIPOS>ATOM
  1 S        1.1310    -0.1740    -0.7130 S.o2  1 <1>   1.4550 
  2 O        0.1780    -0.6500    -1.6860 O.2   1 <1>  -0.6500 
  3 O        2.5210    -0.0640    -1.0920 O.2   1 <1>  -0.6500 
  4 N        1.1020    -1.3000     0.5310 N.am  1 <1>  -0.9140 
  5 C        0.5470     1.3620     0.0040 C.2   1 <1>  -0.0030 
  6 C        1.5860    -2.6070     0.1120 C.3   1 <1>   0.1960 
  7 C       -0.6070     1.2230     0.8320 C.2   1 <1>   0.6160 
  8 C        1.0680     2.6100    -0.1880 C.2   1 <1>  -0.0290 
  9 C        1.4920    -3.5870     1.2810 C.3   1 <1>  -0.0170 
 10 O       -1.1930     0.1750     1.0290 O.2   1 <1>  -0.5700 
 11 N       -1.1120     2.3300     1.4510 N.am  1 <1>  -0.4900 
 12 N        0.5030     3.6850     0.4760 N.am  1 <1>  -0.5390 
 13 C        2.2430     2.9770    -1.0840 C.3   1 <1>  -0.1020 
 14 C        2.0180    -4.9520     0.8680 C.ar  1 <1>  -0.1430 
 15 C       -0.5800     3.5640     1.2950 C.2   1 <1>   0.6900 
 16 C        1.1560    -5.9220     0.3790 C.ar  1 <1>  -0.1500 
 17 C        3.3700    -5.2340     0.9740 C.ar  1 <1>  -0.1500 
 18 O       -1.0490     4.5240     1.8570 O.2   1 <1>  -0.5700 
 19 C        1.6350    -7.1720    -0.0030 C.ar  1 <1>   0.0820 
 20 C        3.8600    -6.4710     0.5980 C.ar  1 <1>  -0.1500 
 21 O        0.8190    -8.1530    -0.4890 O.3   1 <1>  -0.3630 
 22 C        3.0010    -7.4500     0.1080 C.ar  1 <1>   0.0820 
 23 C       -0.5630    -7.9470    -0.6750 C.3   1 <1>   0.0400 
 24 O        3.4390    -8.6850    -0.2750 O.3   1 <1>  -0.3630 
 25 C        4.8000    -9.0450    -0.2030 C.3   1 <1>   0.0400 
 26 H        0.1010    -1.3920     0.7400 H     1 <1>   0.4200 
 27 H        2.6130    -2.5280    -0.2050 H     1 <1>   0.0800 
 28 H        1.0020    -2.9730    -0.7180 H     1 <1>   0.0800 
 29 H        0.4690    -3.6750     1.6010 H     1 <1>   0.0800 
 30 H        2.0720    -3.2130     2.1060 H     1 <1>   0.0800 
 31 H       -1.9320     2.2340     2.0400 H     1 <1>   0.3700 
 32 H        0.8620     4.6390     0.3850 H     1 <1>   0.3700 
 33 H        2.0760     3.9340    -1.5460 H     1 <1>   0.0800 
 34 H        2.3820     2.2660    -1.8760 H     1 <1>   0.0800 
 35 H        3.1460     3.0290    -0.5030 H     1 <1>   0.0800 
 36 H        0.1130    -5.6880     0.3020 H     1 <1>   0.1500 
 37 H        4.0500    -4.4880     1.3510 H     1 <1>   0.1500 
 38 H        4.9130    -6.6510     0.6960 H     1 <1>   0.1500 
 39 H       -0.9810    -8.8520    -1.0770 H     1 <1>   0.0800 
 40 H       -0.7050    -7.1390    -1.3690 H     1 <1>   0.0800 
 41 H       -1.0140    -7.7280     0.2770 H     1 <1>   0.0800 
 42 H        4.8950   -10.0550    -0.5580 H     1 <1>   0.0800 
 43 H        5.1210    -8.9860     0.8220 H     1 <1>   0.0800 
 44 H        5.3690    -8.3820    -0.8290 H     1 <1>   0.0800 
@<TRIPOS>BOND
  1   1   2  2   
  2   1   3  2   
  3   1   4  am  
  4   1   5  1   
  5   4   6  1   
  6   4  26  1   
  7   5   7  1   
  8   5   8  2   
  9   6   9  1   
 10   6  27  1   
 11   6  28  1   
 12   7  10  2   
 13   7  11  am  
 14   8  12  1   
 15   8  13  1   
 16   9  14  1   
 17   9  29  1   
 18   9  30  1   
 19  11  15  am  
 20  11  31  1   
 21  12  15  am  
 22  12  32  1   
 23  13  33  1   
 24  13  34  1   
 25  13  35  1   
 26  14  16  ar  
 27  14  17  ar  
 28  15  18  2   
 29  16  19  ar  
 30  16  36  1   
 31  17  20  ar  
 32  17  37  1   
 33  19  21  1   
 34  19  22  ar  
 35  20  22  ar  
 36  20  38  1   
 37  21  23  1   
 38  22  24  1   
 39  23  39  1   
 40  23  40  1   
 41  23  41  1   
 42  24  25  1   
 43  25  42  1   
 44  25  43  1   
 45  25  44  1   
@<TRIPOS>SUBSTRUCTURE
  1 ****   6 GROUP 4 **** **** 0

# MOE 2024.06 (io_trps.svl 2023.06)
