@<TRIPOS>MOLECULE
NONAME
43 45 1 0 0 
SMALL
USER_CHARGES


@<TRIPOS>ATOM
  1 CL      -0.9620     1.1750    -1.8040 Cl    1 <1>  -0.1770 
  2 C       -2.5270     0.8990    -1.0860 C.ar  1 <1>   0.1770 
  3 C       -3.4800     0.1830    -1.7840 C.ar  1 <1>  -0.1500 
  4 C       -2.7970     1.3990     0.1730 C.ar  1 <1>  -0.1500 
  5 C       -4.7210    -0.0320    -1.2090 C.ar  1 <1>  -0.1500 
  6 C       -4.0410     1.1770     0.7370 C.ar  1 <1>  -0.1500 
  7 C       -5.0340     0.4580     0.0640 C.ar  1 <1>   0.0540 
  8 C       -6.3380     0.2320     0.6680 C.2   1 <1>   0.4620 
  9 N       -6.7040     0.6320     1.8340 N.2   1 <1>  -0.4100 
 10 N       -7.3170    -0.4330     0.0460 N.2   1 <1>  -0.5650 
 11 O       -7.9240     0.2400     2.0250 O.3   1 <1>  -0.0190 
 12 C       -8.2320    -0.3880     0.9210 C.2   1 <1>   0.2980 
 13 C       -9.6210    -0.9810     0.7840 C.3   1 <1>   0.0200 
 14 C      -10.6800     0.1250     0.6300 C.3   1 <1>  -0.0990 
 15 C      -12.1010    -0.4120     0.5360 C.2   1 <1>   0.5690 
 16 O      -12.2570    -1.5940     0.3580 O.2   1 <1>  -0.5700 
 17 N      -13.1810     0.4300     0.6460 N.am  1 <1>  -0.6600 
 18 C      -13.1230     1.9260     0.6140 C.3   1 <1>   0.1400 
 19 C      -14.5700    -0.1270     0.7420 C.3   1 <1>   0.1400 
 20 C      -14.0640     2.4940    -0.4710 C.3   1 <1>   0.3430 
 21 C      -15.4730     0.4490    -0.3620 C.3   1 <1>   0.3430 
 22 N      -15.4690     1.9570    -0.3610 N.4   1 <1>  -0.9590 
 23 C      -16.3390     2.4920    -1.4530 C.3   1 <1>   0.2630 
 24 H       -3.2500    -0.1980    -2.7630 H     1 <1>   0.1500 
 25 H       -2.0410     1.9540     0.7000 H     1 <1>   0.1500 
 26 H       -5.4600    -0.5910    -1.7560 H     1 <1>   0.1500 
 27 H       -4.2470     1.5680     1.7190 H     1 <1>   0.1500 
 28 H       -9.8320    -1.5800     1.6530 H     1 <1>   0.0800 
 29 H       -9.6400    -1.6260    -0.0770 H     1 <1>   0.0800 
 30 H      -10.4630     0.6870    -0.2590 H     1 <1>   0.0800 
 31 H      -10.6170     0.7810     1.4790 H     1 <1>   0.0800 
 32 H      -12.1230     2.2660     0.4120 H     1 <1>   0.0800 
 33 H      -13.4080     2.3100     1.5790 H     1 <1>   0.0800 
 34 H      -14.9800     0.1080     1.7080 H     1 <1>   0.0800 
 35 H      -14.5600    -1.2010     0.6540 H     1 <1>   0.0800 
 36 H      -13.6590     2.2390    -1.4360 H     1 <1>   0.0800 
 37 H      -14.0780     3.5690    -0.3960 H     1 <1>   0.0800 
 38 H      -16.4770     0.0830    -0.2210 H     1 <1>   0.0800 
 39 H      -15.1190     0.0830    -1.3130 H     1 <1>   0.0800 
 40 H      -15.8530     2.2650     0.5450 H     1 <1>   0.4500 
 41 H      -15.9650     2.1820    -2.4160 H     1 <1>   0.0800 
 42 H      -16.3600     3.5690    -1.4230 H     1 <1>   0.0800 
 43 H      -17.3470     2.1270    -1.3430 H     1 <1>   0.0800 
@<TRIPOS>BOND
  1   1   2  1   
  2   2   3  ar  
  3   2   4  ar  
  4   3   5  ar  
  5   3  24  1   
  6   4   6  ar  
  7   4  25  1   
  8   5   7  ar  
  9   5  26  1   
 10   6   7  ar  
 11   6  27  1   
 12   7   8  1   
 13   8   9  2   
 14   8  10  1   
 15   9  11  1   
 16  10  12  2   
 17  11  12  1   
 18  12  13  1   
 19  13  14  1   
 20  13  28  1   
 21  13  29  1   
 22  14  15  1   
 23  14  30  1   
 24  14  31  1   
 25  15  16  2   
 26  15  17  am  
 27  17  18  1   
 28  17  19  1   
 29  18  20  1   
 30  18  32  1   
 31  18  33  1   
 32  19  21  1   
 33  19  34  1   
 34  19  35  1   
 35  20  22  1   
 36  20  36  1   
 37  20  37  1   
 38  21  22  1   
 39  21  38  1   
 40  21  39  1   
 41  22  23  1   
 42  22  40  1   
 43  23  41  1   
 44  23  42  1   
 45  23  43  1   
@<TRIPOS>SUBSTRUCTURE
  1 ****  12 GROUP 4 **** **** 0

# MOE 2024.06 (io_trps.svl 2023.06)
