@<TRIPOS>MOLECULE
NONAME
48 49 1 0 0 
SMALL
USER_CHARGES


@<TRIPOS>ATOM
  1 S       -0.4850     0.0490     0.3600 S.o2  1 <1>   1.3330 
  2 O       -1.0390     1.1470     1.1200 O.2   1 <1>  -0.6500 
  3 O        0.0030     0.2810    -0.9810 O.2   1 <1>  -0.6500 
  4 N       -1.6670    -1.1590     0.2600 N.am  1 <1>  -0.8490 
  5 C        0.7970    -0.7350     1.3480 C.3   1 <1>  -0.0550 
  6 C       -3.0320    -0.5950     0.2560 C.3   1 <1>   0.1960 
  7 C       -1.4440    -2.1070    -0.8320 C.3   1 <1>   0.1960 
  8 C        2.0310     0.1480     1.6090 C.3   1 <1>  -0.2400 
  9 C       -4.1040    -1.5640    -0.2770 C.3   1 <1>  -0.0190 
 10 C       -2.3420    -3.3430    -0.6510 C.3   1 <1>  -0.1600 
 11 C       -5.4560    -1.1710     0.3030 C.2   1 <1>   0.5690 
 12 C       -3.7060    -3.0270    -0.0060 C.3   1 <1>  -0.1600 
 13 O       -5.8510    -1.7130     1.3060 O.2   1 <1>  -0.5700 
 14 N       -6.1460    -0.1880    -0.3480 N.am  1 <1>  -0.5470 
 15 C       -7.3480     0.4910    -0.0730 C.ar  1 <1>   0.1170 
 16 C       -7.6530     1.6130    -0.8500 C.ar  1 <1>   0.0820 
 17 C       -8.2370     0.1030     0.9240 C.ar  1 <1>  -0.1500 
 18 O       -6.7560     1.9590    -1.8240 O.3   1 <1>  -0.3630 
 19 C       -8.8230     2.3260    -0.6150 C.ar  1 <1>  -0.1500 
 20 C       -9.4010     0.8140     1.1550 C.ar  1 <1>  -0.1500 
 21 C       -6.9310     3.1330    -2.5880 C.3   1 <1>   0.0400 
 22 C       -9.6970     1.9330     0.3840 C.ar  1 <1>   0.0820 
 23 O      -10.8150     2.6890     0.5450 O.3   1 <1>  -0.3620 
 24 C      -11.7680     2.3710     1.5350 C.3   1 <1>   0.0400 
 25 H        1.1180    -1.6320     0.8540 H     1 <1>   0.0800 
 26 H        0.3740    -1.0200     2.2920 H     1 <1>   0.0800 
 27 H       -3.0550     0.3040    -0.3390 H     1 <1>   0.0800 
 28 H       -3.2740    -0.3170     1.2700 H     1 <1>   0.0800 
 29 H       -0.4130    -2.4190    -0.8550 H     1 <1>   0.0800 
 30 H       -1.6620    -1.6240    -1.7720 H     1 <1>   0.0800 
 31 H        2.4890     0.4290     0.6760 H     1 <1>   0.0800 
 32 H        2.7510    -0.3840     2.2040 H     1 <1>   0.0800 
 33 H        1.7390     1.0430     2.1310 H     1 <1>   0.0800 
 34 H       -4.1650    -1.4380    -1.3430 H     1 <1>   0.0800 
 35 H       -1.8280    -4.0650    -0.0410 H     1 <1>   0.0800 
 36 H       -2.4930    -3.7920    -1.6160 H     1 <1>   0.0800 
 37 H       -4.4600    -3.7010    -0.3730 H     1 <1>   0.0800 
 38 H       -3.6290    -3.1680     1.0590 H     1 <1>   0.0800 
 39 H       -5.6900     0.2150    -1.1680 H     1 <1>   0.3700 
 40 H       -8.0290    -0.7590     1.5290 H     1 <1>   0.1500 
 41 H       -9.0870     3.1910    -1.1900 H     1 <1>   0.1500 
 42 H      -10.0560     0.4800     1.9360 H     1 <1>   0.1500 
 43 H       -6.0950     3.2260    -3.2570 H     1 <1>   0.0800 
 44 H       -6.9630     3.9800    -1.9250 H     1 <1>   0.0800 
 45 H       -7.8430     3.0510    -3.1530 H     1 <1>   0.0800 
 46 H      -12.5600     3.0960     1.4810 H     1 <1>   0.0800 
 47 H      -11.2970     2.4170     2.5010 H     1 <1>   0.0800 
 48 H      -12.1590     1.3880     1.3410 H     1 <1>   0.0800 
@<TRIPOS>BOND
  1   1   2  2   
  2   1   3  2   
  3   1   4  am  
  4   1   5  1   
  5   4   6  1   
  6   4   7  1   
  7   5   8  1   
  8   5  25  1   
  9   5  26  1   
 10   6   9  1   
 11   6  27  1   
 12   6  28  1   
 13   7  10  1   
 14   7  29  1   
 15   7  30  1   
 16   8  31  1   
 17   8  32  1   
 18   8  33  1   
 19   9  11  1   
 20   9  12  1   
 21   9  34  1   
 22  10  12  1   
 23  10  35  1   
 24  10  36  1   
 25  11  13  2   
 26  11  14  am  
 27  12  37  1   
 28  12  38  1   
 29  14  15  1   
 30  14  39  1   
 31  15  16  ar  
 32  15  17  ar  
 33  16  18  1   
 34  16  19  ar  
 35  17  20  ar  
 36  17  40  1   
 37  18  21  1   
 38  19  22  ar  
 39  19  41  1   
 40  20  22  ar  
 41  20  42  1   
 42  21  43  1   
 43  21  44  1   
 44  21  45  1   
 45  22  23  1   
 46  23  24  1   
 47  24  46  1   
 48  24  47  1   
 49  24  48  1   
@<TRIPOS>SUBSTRUCTURE
  1 ****  14 GROUP 4 **** **** 0

# MOE 2024.06 (io_trps.svl 2023.06)
