@<TRIPOS>MOLECULE
NONAME
47 48 1 0 0 
SMALL
USER_CHARGES


@<TRIPOS>ATOM
  1 O       -5.3930     6.9620    -0.0950 O.3   1 <1>  -0.3630 
  2 C       -6.5960     7.5880    -0.0110 C.ar  1 <1>   0.0820 
  3 C       -4.1760     7.6490     0.0280 C.3   1 <1>   0.1200 
  4 C       -7.7560     6.8230    -0.1670 C.ar  1 <1>  -0.1440 
  5 C       -6.6950     8.9590     0.2250 C.ar  1 <1>  -0.1500 
  6 C       -3.0670     6.6100    -0.1390 C.3   1 <1>   0.3430 
  7 C       -8.9890     7.4580    -0.0820 C.ar  1 <1>  -0.1500 
  8 C       -7.7570     5.3090    -0.4280 C.3   1 <1>   0.0630 
  9 C       -7.9320     9.5690     0.3050 C.ar  1 <1>  -0.1500 
 10 N       -1.7110     7.2230    -0.0280 N.4   1 <1>  -0.9060 
 11 C       -9.0800     8.8180     0.1510 C.ar  1 <1>  -0.1500 
 12 C       -7.1650     4.5320     0.7640 C.3   1 <1>  -0.1600 
 13 C       -7.0830     4.9710    -1.7670 C.3   1 <1>  -0.2400 
 14 C       -0.6160     6.2450    -0.1840 C.3   1 <1>   0.4860 
 15 C       -7.3700     3.0140     0.6670 C.3   1 <1>  -0.2400 
 16 C        0.6650     7.0290    -0.0400 C.ar  1 <1>  -0.1430 
 17 C        1.2440     7.1980     1.2100 C.ar  1 <1>  -0.1500 
 18 C        1.2660     7.5970    -1.1560 C.ar  1 <1>  -0.1500 
 19 C        2.4070     7.9360     1.3430 C.ar  1 <1>  -0.1500 
 20 C        2.4280     8.3350    -1.0190 C.ar  1 <1>  -0.1500 
 21 C        2.9980     8.5060     0.2300 C.ar  1 <1>  -0.1500 
 22 H       -4.1450     8.1000     1.0040 H     1 <1>   0.0800 
 23 H       -4.1340     8.3930    -0.7490 H     1 <1>   0.0800 
 24 H       -5.8300     9.5790     0.3500 H     1 <1>   0.1500 
 25 H       -3.1770     6.1440    -1.1050 H     1 <1>   0.0800 
 26 H       -3.1880     5.8550     0.6220 H     1 <1>   0.0800 
 27 H       -9.8990     6.8960    -0.1980 H     1 <1>   0.1500 
 28 H       -8.7820     4.9950    -0.5210 H     1 <1>   0.0800 
 29 H       -8.0070    10.6280     0.4870 H     1 <1>   0.1500 
 30 H       -1.5800     7.6830     0.8820 H     1 <1>   0.4500 
 31 H       -1.5700     7.9540    -0.7360 H     1 <1>   0.4500 
 32 H      -10.0460     9.2890     0.2130 H     1 <1>   0.1500 
 33 H       -7.6420     4.8830     1.6640 H     1 <1>   0.0800 
 34 H       -6.1150     4.7360     0.8570 H     1 <1>   0.0800 
 35 H       -6.0200     5.1050    -1.7120 H     1 <1>   0.0800 
 36 H       -7.4720     5.6110    -2.5390 H     1 <1>   0.0800 
 37 H       -7.2860     3.9530    -2.0440 H     1 <1>   0.0800 
 38 H       -0.6570     5.7770    -1.1550 H     1 <1>   0.0800 
 39 H       -0.6720     5.4830     0.5770 H     1 <1>   0.0800 
 40 H       -8.4150     2.7800     0.5570 H     1 <1>   0.0800 
 41 H       -7.0110     2.5390     1.5630 H     1 <1>   0.0800 
 42 H       -6.8320     2.6040    -0.1690 H     1 <1>   0.0800 
 43 H        0.8100     6.7590     2.0930 H     1 <1>   0.1500 
 44 H        0.8480     7.4740    -2.1410 H     1 <1>   0.1500 
 45 H        2.8590     8.0680     2.3120 H     1 <1>   0.1500 
 46 H        2.8970     8.7760    -1.8830 H     1 <1>   0.1500 
 47 H        3.9040     9.0790     0.3350 H     1 <1>   0.1500 
@<TRIPOS>BOND
  1   1   2  1   
  2   1   3  1   
  3   2   4  ar  
  4   2   5  ar  
  5   3   6  1   
  6   3  22  1   
  7   3  23  1   
  8   4   7  ar  
  9   4   8  1   
 10   5   9  ar  
 11   5  24  1   
 12   6  10  1   
 13   6  25  1   
 14   6  26  1   
 15   7  11  ar  
 16   7  27  1   
 17   8  12  1   
 18   8  13  1   
 19   8  28  1   
 20   9  11  ar  
 21   9  29  1   
 22  10  14  1   
 23  10  30  1   
 24  10  31  1   
 25  11  32  1   
 26  12  15  1   
 27  12  33  1   
 28  12  34  1   
 29  13  35  1   
 30  13  36  1   
 31  13  37  1   
 32  14  16  1   
 33  14  38  1   
 34  14  39  1   
 35  15  40  1   
 36  15  41  1   
 37  15  42  1   
 38  16  17  ar  
 39  16  18  ar  
 40  17  19  ar  
 41  17  43  1   
 42  18  20  ar  
 43  18  44  1   
 44  19  21  ar  
 45  19  45  1   
 46  20  21  ar  
 47  20  46  1   
 48  21  47  1   
@<TRIPOS>SUBSTRUCTURE
  1 ****   3 GROUP 4 **** **** 0

# MOE 2024.06 (io_trps.svl 2023.06)
