@<TRIPOS>MOLECULE
NONAME
49 51 1 0 0 
SMALL
USER_CHARGES


@<TRIPOS>ATOM
  1 O       -0.4430     1.0430    -2.5520 O.2   1 <1>  -0.5700 
  2 C       -0.2060     2.1090    -2.0180 C.2   1 <1>   0.5440 
  3 N       -1.2320     3.0290    -1.8960 N.am  1 <1>  -0.6600 
  4 C        1.1150     2.3710    -1.4990 C.ar  1 <1>   0.0860 
  5 C       -2.6350     2.6600    -2.2390 C.3   1 <1>   0.1400 
  6 C       -1.1420     4.2340    -1.0200 C.3   1 <1>   0.1400 
  7 C        1.3800     2.2690    -0.1310 C.ar  1 <1>   0.0830 
  8 C        2.1560     2.7440    -2.3470 C.ar  1 <1>  -0.1500 
  9 C       -3.4120     2.3800    -0.9420 C.3   1 <1>   0.3430 
 10 C       -1.9320     3.9910     0.2830 C.3   1 <1>   0.3430 
 11 O        0.3820     1.8650     0.6940 O.3   1 <1>  -0.3630 
 12 C        2.6400     2.5860     0.3820 C.ar  1 <1>   0.0820 
 13 C        3.4110     3.0380    -1.8510 C.ar  1 <1>  -0.1500 
 14 N       -3.3510     3.5440     0.0260 N.4   1 <1>  -0.9590 
 15 C        0.4720     0.5320     1.1520 C.3   1 <1>   0.0400 
 16 O        2.8190     2.5180     1.7320 O.3   1 <1>  -0.3630 
 17 C        3.6550     2.9660    -0.4900 C.ar  1 <1>  -0.1500 
 18 C       -4.0400     3.2210     1.3070 C.3   1 <1>   0.4860 
 19 C        4.0820     2.7350     2.3240 C.3   1 <1>   0.0400 
 20 C       -5.5010     2.9380     1.0330 C.ar  1 <1>  -0.1430 
 21 C       -6.3840     3.9870     0.8180 C.ar  1 <1>   0.1600 
 22 C       -5.9820     1.6430     0.9890 C.ar  1 <1>  -0.1500 
 23 N       -7.6670     3.8470     0.5440 N.ar  1 <1>  -0.6200 
 24 C       -7.3240     1.4830     0.7160 C.ar  1 <1>  -0.1500 
 25 C       -8.1120     2.6010     0.5010 C.ar  1 <1>   0.1600 
 26 H       -2.6600     1.7850    -2.8680 H     1 <1>   0.0800 
 27 H       -3.0970     3.4620    -2.7870 H     1 <1>   0.0800 
 28 H       -1.5460     5.0840    -1.5420 H     1 <1>   0.0800 
 29 H       -0.1180     4.4630    -0.7810 H     1 <1>   0.0800 
 30 H        1.9690     2.8020    -3.4070 H     1 <1>   0.1500 
 31 H       -2.9860     1.5020    -0.4830 H     1 <1>   0.0800 
 32 H       -4.4380     2.1590    -1.1900 H     1 <1>   0.0800 
 33 H       -1.9300     4.8970     0.8660 H     1 <1>   0.0800 
 34 H       -1.4160     3.2370     0.8530 H     1 <1>   0.0800 
 35 H        4.2020     3.3250    -2.5240 H     1 <1>   0.1500 
 36 H       -3.8590     4.3190    -0.4160 H     1 <1>   0.4500 
 37 H       -0.3800     0.3260     1.7740 H     1 <1>   0.0800 
 38 H        1.3770     0.4130     1.7220 H     1 <1>   0.0800 
 39 H        0.4780    -0.1280     0.3020 H     1 <1>   0.0800 
 40 H        4.6390     3.2100    -0.1370 H     1 <1>   0.1500 
 41 H       -3.9600     4.0510     1.9910 H     1 <1>   0.0800 
 42 H       -3.5810     2.3590     1.7660 H     1 <1>   0.0800 
 43 H        3.9830     2.5910     3.3850 H     1 <1>   0.0800 
 44 H        4.3960     3.7430     2.1210 H     1 <1>   0.0800 
 45 H        4.7820     2.0230     1.9240 H     1 <1>   0.0800 
 46 H       -6.0280     5.0030     0.8690 H     1 <1>   0.1500 
 47 H       -5.3560     0.7830     1.1620 H     1 <1>   0.1500 
 48 H       -7.7650     0.5030     0.6690 H     1 <1>   0.1500 
 49 H       -9.1590     2.4650     0.2870 H     1 <1>   0.1500 
@<TRIPOS>BOND
  1   1   2  2   
  2   2   3  am  
  3   2   4  1   
  4   3   5  1   
  5   3   6  1   
  6   4   7  ar  
  7   4   8  ar  
  8   5   9  1   
  9   5  26  1   
 10   5  27  1   
 11   6  10  1   
 12   6  28  1   
 13   6  29  1   
 14   7  11  1   
 15   7  12  ar  
 16   8  13  ar  
 17   8  30  1   
 18   9  14  1   
 19   9  31  1   
 20   9  32  1   
 21  10  14  1   
 22  10  33  1   
 23  10  34  1   
 24  11  15  1   
 25  12  16  1   
 26  12  17  ar  
 27  13  17  ar  
 28  13  35  1   
 29  14  18  1   
 30  14  36  1   
 31  15  37  1   
 32  15  38  1   
 33  15  39  1   
 34  16  19  1   
 35  17  40  1   
 36  18  20  1   
 37  18  41  1   
 38  18  42  1   
 39  19  43  1   
 40  19  44  1   
 41  19  45  1   
 42  20  21  ar  
 43  20  22  ar  
 44  21  23  ar  
 45  21  46  1   
 46  22  24  ar  
 47  22  47  1   
 48  23  25  ar  
 49  24  25  ar  
 50  24  48  1   
 51  25  49  1   
@<TRIPOS>SUBSTRUCTURE
  1 ****  10 GROUP 4 **** **** 0

# MOE 2024.06 (io_trps.svl 2023.06)
