@<TRIPOS>MOLECULE
NONAME
43 44 1 0 0 
SMALL
USER_CHARGES


@<TRIPOS>ATOM
  1 O       -0.1470    -4.0660    -1.0910 O.2   1 <1>  -0.5700 
  2 C        0.0510    -3.1390    -0.3510 C.2   1 <1>   0.6590 
  3 O       -0.7800    -2.1130    -0.2540 O.3   1 <1>  -0.4300 
  4 C        1.2970    -3.0630     0.5300 C.3   1 <1>  -0.0190 
  5 C       -1.9630    -2.0510    -1.0170 C.3   1 <1>   0.1200 
  6 C        2.4160    -2.2780    -0.1780 C.3   1 <1>  -0.1600 
  7 C        1.8090    -4.4590     0.9400 C.3   1 <1>  -0.1600 
  8 C       -2.6800    -0.7490    -0.6750 C.3   1 <1>  -0.2400 
  9 C        3.7010    -2.2400     0.6470 C.3   1 <1>   0.3430 
 10 C        3.1000    -4.3800     1.7500 C.3   1 <1>   0.3430 
 11 N        4.1280    -3.6330     0.9750 N.4   1 <1>  -0.9590 
 12 C        5.4500    -3.6540     1.6600 C.3   1 <1>   0.4860 
 13 C        6.4910    -3.0830     0.7200 C.ar  1 <1>  -0.1440 
 14 C        6.9050    -3.8080    -0.3890 C.ar  1 <1>  -0.1500 
 15 C        7.0320    -1.8280     0.9570 C.ar  1 <1>  -0.1500 
 16 C        7.8390    -3.2810    -1.2650 C.ar  1 <1>  -0.1440 
 17 C        7.9690    -1.3010     0.0860 C.ar  1 <1>  -0.1500 
 18 C        8.3680    -2.0250    -1.0220 C.ar  1 <1>  -0.1500 
 19 C        8.2940    -4.0740    -2.4780 C.3   1 <1>  -0.0970 
 20 H        1.0180    -2.5320     1.4240 H     1 <1>   0.0800 
 21 H       -2.5740    -2.9040    -0.7720 H     1 <1>   0.0800 
 22 H       -1.7000    -2.0850    -2.0610 H     1 <1>   0.0800 
 23 H        2.0860    -1.2690    -0.3560 H     1 <1>   0.0800 
 24 H        2.6230    -2.7200    -1.1380 H     1 <1>   0.0800 
 25 H        1.9810    -5.0640     0.0650 H     1 <1>   0.0800 
 26 H        1.0550    -4.9570     1.5250 H     1 <1>   0.0800 
 27 H       -2.9290    -0.7240     0.3710 H     1 <1>   0.0800 
 28 H       -3.5890    -0.6760    -1.2440 H     1 <1>   0.0800 
 29 H       -2.0580     0.0940    -0.9180 H     1 <1>   0.0800 
 30 H        3.5330    -1.6840     1.5560 H     1 <1>   0.0800 
 31 H        4.4710    -1.7390     0.0810 H     1 <1>   0.0800 
 32 H        3.4490    -5.3780     1.9650 H     1 <1>   0.0800 
 33 H        2.9090    -3.8770     2.6850 H     1 <1>   0.0800 
 34 H        4.2680    -4.1110     0.0760 H     1 <1>   0.4500 
 35 H        5.7220    -4.6660     1.9140 H     1 <1>   0.0800 
 36 H        5.4130    -3.0720     2.5660 H     1 <1>   0.0800 
 37 H        6.5110    -4.7910    -0.5830 H     1 <1>   0.1500 
 38 H        6.7410    -1.2470     1.8160 H     1 <1>   0.1500 
 39 H        8.3930    -0.3280     0.2680 H     1 <1>   0.1500 
 40 H        9.1000    -1.6070    -1.6930 H     1 <1>   0.1500 
 41 H        7.5120    -4.7270    -2.8220 H     1 <1>   0.0800 
 42 H        9.1540    -4.6670    -2.2240 H     1 <1>   0.0800 
 43 H        8.5580    -3.4120    -3.2830 H     1 <1>   0.0800 
@<TRIPOS>BOND
  1   1   2  2   
  2   2   3  1   
  3   2   4  1   
  4   3   5  1   
  5   4   6  1   
  6   4   7  1   
  7   4  20  1   
  8   5   8  1   
  9   5  21  1   
 10   5  22  1   
 11   6   9  1   
 12   6  23  1   
 13   6  24  1   
 14   7  10  1   
 15   7  25  1   
 16   7  26  1   
 17   8  27  1   
 18   8  28  1   
 19   8  29  1   
 20   9  11  1   
 21   9  30  1   
 22   9  31  1   
 23  10  11  1   
 24  10  32  1   
 25  10  33  1   
 26  11  12  1   
 27  11  34  1   
 28  12  13  1   
 29  12  35  1   
 30  12  36  1   
 31  13  14  ar  
 32  13  15  ar  
 33  14  16  ar  
 34  14  37  1   
 35  15  17  ar  
 36  15  38  1   
 37  16  18  ar  
 38  16  19  1   
 39  17  18  ar  
 40  17  39  1   
 41  18  40  1   
 42  19  41  1   
 43  19  42  1   
 44  19  43  1   
@<TRIPOS>SUBSTRUCTURE
  1 ****   9 GROUP 4 **** **** 0

# MOE 2024.06 (io_trps.svl 2023.06)
