@<TRIPOS>MOLECULE
NONAME
46 48 1 0 0 
SMALL
USER_CHARGES


@<TRIPOS>ATOM
  1 O        0.3380    -0.5880    -1.0360 O.2   1 <1>  -0.5700 
  2 C        0.0900    -1.7570    -0.8150 C.2   1 <1>   0.5690 
  3 N        1.0610    -2.7070    -0.9100 N.am  1 <1>  -0.4300 
  4 C       -1.3390    -2.1970    -0.4340 C.3   1 <1>   0.0610 
  5 N        2.4990    -2.4270    -0.9620 N.am  1 <1>  -0.4300 
  6 C       -1.8910    -3.2130    -1.4670 C.3   1 <1>  -0.1600 
  7 C       -1.3360    -2.8680     0.9640 C.3   1 <1>  -0.1600 
  8 C       -2.3180    -0.9920    -0.3810 C.3   1 <1>  -0.1600 
  9 C        3.3310    -2.4530     0.1160 C.2   1 <1>   0.5690 
 10 C       -3.3080    -3.6780    -1.0820 C.3   1 <1>  -0.0800 
 11 C       -2.7520    -3.3320     1.3570 C.3   1 <1>  -0.0800 
 12 C       -3.7380    -1.4440     0.0070 C.3   1 <1>  -0.0800 
 13 O        2.9760    -2.9540     1.1640 O.2   1 <1>  -0.5700 
 14 C        4.7570    -1.8560     0.0090 C.3   1 <1>   0.0610 
 15 C       -3.2630    -4.3380     0.3090 C.3   1 <1>  -0.1600 
 16 C       -4.2460    -2.4580    -1.0330 C.3   1 <1>  -0.1600 
 17 C       -3.6920    -2.1140     1.3920 C.3   1 <1>  -0.1600 
 18 C        4.9380    -0.7510     1.0670 C.3   1 <1>  -0.2400 
 19 C        5.0480    -1.2340    -1.3750 C.3   1 <1>  -0.2400 
 20 C        5.8050    -2.9550     0.2630 C.3   1 <1>  -0.2400 
 21 H        0.8120    -3.6810    -0.7200 H     1 <1>   0.3700 
 22 H        2.8330    -1.9960    -1.8280 H     1 <1>   0.3700 
 23 H       -1.9160    -2.7570    -2.4420 H     1 <1>   0.0800 
 24 H       -1.2480    -4.0730    -1.5280 H     1 <1>   0.0800 
 25 H       -0.9700    -2.1690     1.6960 H     1 <1>   0.0800 
 26 H       -0.6740    -3.7160     0.9730 H     1 <1>   0.0800 
 27 H       -2.3450    -0.5050    -1.3410 H     1 <1>   0.0800 
 28 H       -1.9630    -0.2700     0.3340 H     1 <1>   0.0800 
 29 H       -3.6710    -4.3850    -1.8080 H     1 <1>   0.0800 
 30 H       -2.7250    -3.7980     2.3270 H     1 <1>   0.0800 
 31 H       -4.3950    -0.5910     0.0360 H     1 <1>   0.0800 
 32 H       -2.6190    -5.2000     0.2850 H     1 <1>   0.0800 
 33 H       -4.2480    -4.6760     0.5820 H     1 <1>   0.0800 
 34 H       -5.2420    -2.7740    -0.7760 H     1 <1>   0.0800 
 35 H       -4.2920    -1.9930    -2.0030 H     1 <1>   0.0800 
 36 H       -3.3470    -1.4080     2.1270 H     1 <1>   0.0800 
 37 H       -4.6820    -2.4260     1.6780 H     1 <1>   0.0800 
 38 H        4.7890    -1.1530     2.0540 H     1 <1>   0.0800 
 39 H        4.2160     0.0320     0.9140 H     1 <1>   0.0800 
 40 H        5.9240    -0.3260     1.0180 H     1 <1>   0.0800 
 41 H        4.3540    -0.4380    -1.5870 H     1 <1>   0.0800 
 42 H        4.9790    -1.9750    -2.1510 H     1 <1>   0.0800 
 43 H        6.0420    -0.8210    -1.4000 H     1 <1>   0.0800 
 44 H        5.6640    -3.3840     1.2410 H     1 <1>   0.0800 
 45 H        6.8030    -2.5570     0.2090 H     1 <1>   0.0800 
 46 H        5.7080    -3.7420    -0.4640 H     1 <1>   0.0800 
@<TRIPOS>BOND
  1   1   2  2   
  2   2   3  am  
  3   2   4  1   
  4   3   5  1   
  5   3  21  1   
  6   4   6  1   
  7   4   7  1   
  8   4   8  1   
  9   5   9  am  
 10   5  22  1   
 11   6  10  1   
 12   6  23  1   
 13   6  24  1   
 14   7  11  1   
 15   7  25  1   
 16   7  26  1   
 17   8  12  1   
 18   8  27  1   
 19   8  28  1   
 20   9  13  2   
 21   9  14  1   
 22  10  15  1   
 23  10  16  1   
 24  10  29  1   
 25  11  15  1   
 26  11  17  1   
 27  11  30  1   
 28  12  16  1   
 29  12  17  1   
 30  12  31  1   
 31  14  18  1   
 32  14  19  1   
 33  14  20  1   
 34  15  32  1   
 35  15  33  1   
 36  16  34  1   
 37  16  35  1   
 38  17  36  1   
 39  17  37  1   
 40  18  38  1   
 41  18  39  1   
 42  18  40  1   
 43  19  41  1   
 44  19  42  1   
 45  19  43  1   
 46  20  44  1   
 47  20  45  1   
 48  20  46  1   
@<TRIPOS>SUBSTRUCTURE
  1 ****   2 GROUP 4 **** **** 0

# MOE 2024.06 (io_trps.svl 2023.06)
