@<TRIPOS>MOLECULE
NONAME
44 46 1 0 0 
SMALL
USER_CHARGES


@<TRIPOS>ATOM
  1 F       -1.3040     3.2040     2.0560 F     1 <1>  -0.1900 
  2 C       -0.6800     3.1910     0.9090 C.ar  1 <1>   0.1900 
  3 C       -1.2220     2.4570    -0.1310 C.ar  1 <1>  -0.1440 
  4 C        0.4890     3.9220     0.7790 C.ar  1 <1>  -0.1500 
  5 C       -0.5390     2.4900    -1.3330 C.ar  1 <1>   0.1900 
  6 C       -2.4930     1.6560     0.0400 C.3   1 <1>   0.4860 
  7 C        1.1490     3.9270    -0.4410 C.ar  1 <1>  -0.1500 
  8 F       -1.0250     1.8270    -2.3470 F     1 <1>  -0.1900 
  9 C        0.6330     3.2060    -1.5080 C.ar  1 <1>  -0.1500 
 10 N       -3.6480     2.5840     0.1470 N.4   1 <1>  -0.9590 
 11 C       -4.9050     1.8660     0.5680 C.3   1 <1>   0.3430 
 12 C       -3.8770     3.3520    -1.1340 C.3   1 <1>   0.3430 
 13 C       -6.1120     2.8190     0.6850 C.3   1 <1>   0.2090 
 14 C       -5.0770     4.3140    -1.0370 C.3   1 <1>   0.2090 
 15 N       -6.3040     3.5980    -0.5730 N.pl3 1 <1>  -0.8380 
 16 C       -7.4700     4.3770    -0.5980 C.ar  1 <1>   0.1000 
 17 C       -7.6910     5.4880     0.2370 C.ar  1 <1>   0.0830 
 18 C       -8.4550     4.0170    -1.5070 C.ar  1 <1>  -0.1500 
 19 O       -6.7120     5.8370     1.1310 O.3   1 <1>  -0.3620 
 20 C       -8.8860     6.1960     0.1350 C.ar  1 <1>  -0.1500 
 21 C       -9.6380     4.7260    -1.6010 C.ar  1 <1>  -0.1500 
 22 C       -6.8680     6.9470     1.9900 C.3   1 <1>   0.0400 
 23 C       -9.8530     5.8160    -0.7800 C.ar  1 <1>  -0.1500 
 24 H        0.8770     4.4760     1.6170 H     1 <1>   0.1500 
 25 H       -2.4140     1.0630     0.9380 H     1 <1>   0.0800 
 26 H       -2.6280     0.9880    -0.7960 H     1 <1>   0.0800 
 27 H        2.0620     4.4890    -0.5590 H     1 <1>   0.1500 
 28 H        1.1330     3.2000    -2.4620 H     1 <1>   0.1500 
 29 H       -3.4220     3.2710     0.8810 H     1 <1>   0.4500 
 30 H       -4.7520     1.3800     1.5170 H     1 <1>   0.0800 
 31 H       -5.1500     1.1090    -0.1590 H     1 <1>   0.0800 
 32 H       -4.0660     2.6620    -1.9400 H     1 <1>   0.0800 
 33 H       -2.9970     3.9200    -1.3870 H     1 <1>   0.0800 
 34 H       -5.9640     3.4880     1.5150 H     1 <1>   0.0800 
 35 H       -7.0020     2.2460     0.8800 H     1 <1>   0.0800 
 36 H       -5.2690     4.7450    -2.0040 H     1 <1>   0.0800 
 37 H       -4.8410     5.1160    -0.3610 H     1 <1>   0.0800 
 38 H       -8.2870     3.1700    -2.1450 H     1 <1>   0.1500 
 39 H       -9.0920     7.0480     0.7540 H     1 <1>   0.1500 
 40 H      -10.3890     4.4300    -2.3130 H     1 <1>   0.1500 
 41 H       -5.9830     7.0330     2.5940 H     1 <1>   0.0800 
 42 H       -7.7240     6.7830     2.6210 H     1 <1>   0.0800 
 43 H       -6.9910     7.8350     1.3960 H     1 <1>   0.0800 
 44 H      -10.7740     6.3690    -0.8530 H     1 <1>   0.1500 
@<TRIPOS>BOND
  1   1   2  1   
  2   2   3  ar  
  3   2   4  ar  
  4   3   5  ar  
  5   3   6  1   
  6   4   7  ar  
  7   4  24  1   
  8   5   8  1   
  9   5   9  ar  
 10   6  10  1   
 11   6  25  1   
 12   6  26  1   
 13   7   9  ar  
 14   7  27  1   
 15   9  28  1   
 16  10  11  1   
 17  10  12  1   
 18  10  29  1   
 19  11  13  1   
 20  11  30  1   
 21  11  31  1   
 22  12  14  1   
 23  12  32  1   
 24  12  33  1   
 25  13  15  1   
 26  13  34  1   
 27  13  35  1   
 28  14  15  1   
 29  14  36  1   
 30  14  37  1   
 31  15  16  1   
 32  16  17  ar  
 33  16  18  ar  
 34  17  19  1   
 35  17  20  ar  
 36  18  21  ar  
 37  18  38  1   
 38  19  22  1   
 39  20  23  ar  
 40  20  39  1   
 41  21  23  ar  
 42  21  40  1   
 43  22  41  1   
 44  22  42  1   
 45  22  43  1   
 46  23  44  1   
@<TRIPOS>SUBSTRUCTURE
  1 ****  12 GROUP 4 **** **** 0

# MOE 2024.06 (io_trps.svl 2023.06)
