@<TRIPOS>MOLECULE
NONAME
43 44 1 0 0 
SMALL
USER_CHARGES


@<TRIPOS>ATOM
  1 S       -0.0820    -0.0890     0.7770 S.o2  1 <1>   1.4470 
  2 O       -0.4190     0.2730     2.1360 O.2   1 <1>  -0.6500 
  3 O       -0.6070    -1.3010     0.1910 O.2   1 <1>  -0.6500 
  4 N       -0.6520     1.1260    -0.2290 N.am  1 <1>  -0.9140 
  5 C        1.7140     0.0010     0.5440 C.ar  1 <1>  -0.0090 
  6 C       -1.9030     1.7330     0.1760 C.3   1 <1>   0.2760 
  7 C        2.4340    -1.0760     0.0390 C.ar  1 <1>  -0.1500 
  8 C        2.4170     1.1560     0.8630 C.ar  1 <1>  -0.1500 
  9 C       -3.0760     0.7600    -0.0260 C.3   1 <1>  -0.1600 
 10 C       -2.0930     2.9940    -0.6750 C.3   1 <1>  -0.1600 
 11 C        3.8060    -1.0140    -0.1460 C.ar  1 <1>  -0.1430 
 12 C        3.7870     1.2380     0.6860 C.ar  1 <1>  -0.1500 
 13 C       -4.4240     1.4390     0.2620 C.3   1 <1>  -0.1600 
 14 C       -3.4360     3.6780    -0.3800 C.3   1 <1>  -0.1600 
 15 C        4.4930     0.1510     0.1790 C.ar  1 <1>   0.0830 
 16 C        4.5510    -2.2200    -0.7020 C.3   1 <1>  -0.0970 
 17 C       -4.6050     2.7060    -0.5820 C.3   1 <1>  -0.1600 
 18 O        5.8360     0.1690    -0.0180 O.3   1 <1>  -0.3630 
 19 C        6.6220     1.2940     0.2960 C.3   1 <1>   0.1200 
 20 C        8.0730     0.9650    -0.0410 C.3   1 <1>  -0.2400 
 21 H       -0.8280     0.6500    -1.1090 H     1 <1>   0.4200 
 22 H       -1.8520     2.0300     1.2110 H     1 <1>   0.0800 
 23 H        1.9050    -1.9800    -0.2130 H     1 <1>   0.1500 
 24 H        1.8790     2.0020     1.2570 H     1 <1>   0.1500 
 25 H       -2.9760    -0.0810     0.6360 H     1 <1>   0.0800 
 26 H       -3.0780     0.3980    -1.0390 H     1 <1>   0.0800 
 27 H       -2.0560     2.7340    -1.7180 H     1 <1>   0.0800 
 28 H       -1.2930     3.6830    -0.4680 H     1 <1>   0.0800 
 29 H        4.2820     2.1530     0.9490 H     1 <1>   0.1500 
 30 H       -4.4740     1.6970     1.3070 H     1 <1>   0.0800 
 31 H       -5.2250     0.7500     0.0560 H     1 <1>   0.0800 
 32 H       -3.5570     4.5290    -1.0280 H     1 <1>   0.0800 
 33 H       -3.4400     4.0340     0.6370 H     1 <1>   0.0800 
 34 H        3.8810    -3.0370    -0.9000 H     1 <1>   0.0800 
 35 H        5.2920    -2.5470     0.0060 H     1 <1>   0.0800 
 36 H        5.0460    -1.9510    -1.6180 H     1 <1>   0.0800 
 37 H       -5.5270     3.1900    -0.3120 H     1 <1>   0.0800 
 38 H       -4.6680     2.4350    -1.6230 H     1 <1>   0.0800 
 39 H        6.5130     1.5030     1.3460 H     1 <1>   0.0800 
 40 H        6.2750     2.1270    -0.2910 H     1 <1>   0.0800 
 41 H        8.4050     0.1220     0.5380 H     1 <1>   0.0800 
 42 H        8.7010     1.8070     0.1890 H     1 <1>   0.0800 
 43 H        8.1680     0.7420    -1.0880 H     1 <1>   0.0800 
@<TRIPOS>BOND
  1   1   2  2   
  2   1   3  2   
  3   1   4  am  
  4   1   5  1   
  5   4   6  1   
  6   4  21  1   
  7   5   7  ar  
  8   5   8  ar  
  9   6   9  1   
 10   6  10  1   
 11   6  22  1   
 12   7  11  ar  
 13   7  23  1   
 14   8  12  ar  
 15   8  24  1   
 16   9  13  1   
 17   9  25  1   
 18   9  26  1   
 19  10  14  1   
 20  10  27  1   
 21  10  28  1   
 22  11  15  ar  
 23  11  16  1   
 24  12  15  ar  
 25  12  29  1   
 26  13  17  1   
 27  13  30  1   
 28  13  31  1   
 29  14  17  1   
 30  14  32  1   
 31  14  33  1   
 32  15  18  1   
 33  16  34  1   
 34  16  35  1   
 35  16  36  1   
 36  17  37  1   
 37  17  38  1   
 38  18  19  1   
 39  19  20  1   
 40  19  39  1   
 41  19  40  1   
 42  20  41  1   
 43  20  42  1   
 44  20  43  1   
@<TRIPOS>SUBSTRUCTURE
  1 ****   5 GROUP 4 **** **** 0

# MOE 2024.06 (io_trps.svl 2023.06)
