@<TRIPOS>MOLECULE
NONAME
52 53 1 0 0 
SMALL
USER_CHARGES


@<TRIPOS>ATOM
  1 S       -0.0620    -0.1430    -0.0870 S.o2  1 <1>   1.4470 
  2 O       -0.8920    -0.5000     1.0460 O.2   1 <1>  -0.6500 
  3 O       -0.6290    -0.3020    -1.4100 O.2   1 <1>  -0.6500 
  4 N        0.3910     1.4910     0.1190 N.am  1 <1>  -0.8490 
  5 C        1.5150    -1.0640    -0.0600 C.ar  1 <1>  -0.0090 
  6 C        0.4160     1.9260     1.5260 C.3   1 <1>   0.1960 
  7 C       -0.3870     2.4090    -0.7240 C.3   1 <1>   0.1960 
  8 C        1.6000    -2.4150     0.2890 C.ar  1 <1>  -0.1440 
  9 C        2.6910    -0.4220    -0.4310 C.ar  1 <1>  -0.1500 
 10 C        1.5820     1.2930     2.2830 C.3   1 <1>  -0.2400 
 11 C        0.3560     3.7310    -0.9280 C.3   1 <1>  -0.2400 
 12 C        2.8270    -3.0590     0.2850 C.ar  1 <1>  -0.1500 
 13 C        0.3660    -3.2230     0.6710 C.3   1 <1>  -0.0970 
 14 C        3.9390    -1.0410    -0.4330 C.ar  1 <1>   0.0860 
 15 C        3.9770    -2.3840    -0.0700 C.ar  1 <1>  -0.1500 
 16 C        5.1370    -0.3030    -0.7990 C.2   1 <1>   0.5440 
 17 O        5.0730     0.6480    -1.5520 O.2   1 <1>  -0.5700 
 18 N        6.3530    -0.6540    -0.2830 N.am  1 <1>  -0.7300 
 19 C        7.6310     0.0160    -0.5700 C.3   1 <1>   0.2200 
 20 C        8.6490    -1.0330    -1.0270 C.3   1 <1>  -0.1600 
 21 C        8.1060     0.7380     0.6950 C.3   1 <1>  -0.1600 
 22 C       10.0350    -0.4060    -1.2400 C.3   1 <1>  -0.1600 
 23 C        9.4910     1.3700     0.4860 C.3   1 <1>  -0.1600 
 24 C       10.5140     0.3230     0.0240 C.3   1 <1>  -0.1600 
 25 H       -0.5190     1.6970     2.0110 H     1 <1>   0.0800 
 26 H        0.5500     2.9910     1.5830 H     1 <1>   0.0800 
 27 H       -1.3640     2.5730    -0.3000 H     1 <1>   0.0800 
 28 H       -0.5200     1.9870    -1.7060 H     1 <1>   0.0800 
 29 H        2.6490     0.6120    -0.7330 H     1 <1>   0.1500 
 30 H        1.4410     0.2350     2.4050 H     1 <1>   0.0800 
 31 H        1.6430     1.7280     3.2640 H     1 <1>   0.0800 
 32 H        2.5080     1.4860     1.7710 H     1 <1>   0.0800 
 33 H        0.3580     4.3320    -0.0400 H     1 <1>   0.0800 
 34 H       -0.1340     4.2940    -1.7010 H     1 <1>   0.0800 
 35 H        1.3680     3.5400    -1.2400 H     1 <1>   0.0800 
 36 H        2.8930    -4.0990     0.5560 H     1 <1>   0.1500 
 37 H       -0.4190    -3.0780    -0.0500 H     1 <1>   0.0800 
 38 H        0.0100    -2.9200     1.6400 H     1 <1>   0.0800 
 39 H        0.5870    -4.2750     0.7080 H     1 <1>   0.0800 
 40 H        4.9140    -2.9120    -0.0750 H     1 <1>   0.1500 
 41 H        6.4010    -1.3750     0.4350 H     1 <1>   0.3700 
 42 H        7.4970     0.7400    -1.3580 H     1 <1>   0.0800 
 43 H        8.3140    -1.4730    -1.9500 H     1 <1>   0.0800 
 44 H        8.7270    -1.8090    -0.2860 H     1 <1>   0.0800 
 45 H        8.1600     0.0410     1.5120 H     1 <1>   0.0800 
 46 H        7.3990     1.5090     0.9470 H     1 <1>   0.0800 
 47 H        9.9870     0.2940    -2.0570 H     1 <1>   0.0800 
 48 H       10.7430    -1.1730    -1.5050 H     1 <1>   0.0800 
 49 H        9.8250     1.8210     1.4040 H     1 <1>   0.0800 
 50 H        9.4170     2.1470    -0.2560 H     1 <1>   0.0800 
 51 H       11.4570     0.8040    -0.1740 H     1 <1>   0.0800 
 52 H       10.6710    -0.3940     0.8110 H     1 <1>   0.0800 
@<TRIPOS>BOND
  1   1   2  2   
  2   1   3  2   
  3   1   4  am  
  4   1   5  1   
  5   4   6  1   
  6   4   7  1   
  7   5   8  ar  
  8   5   9  ar  
  9   6  10  1   
 10   6  25  1   
 11   6  26  1   
 12   7  11  1   
 13   7  27  1   
 14   7  28  1   
 15   8  12  ar  
 16   8  13  1   
 17   9  14  ar  
 18   9  29  1   
 19  10  30  1   
 20  10  31  1   
 21  10  32  1   
 22  11  33  1   
 23  11  34  1   
 24  11  35  1   
 25  12  15  ar  
 26  12  36  1   
 27  13  37  1   
 28  13  38  1   
 29  13  39  1   
 30  14  15  ar  
 31  14  16  1   
 32  15  40  1   
 33  16  17  2   
 34  16  18  am  
 35  18  19  1   
 36  18  41  1   
 37  19  20  1   
 38  19  21  1   
 39  19  42  1   
 40  20  22  1   
 41  20  43  1   
 42  20  44  1   
 43  21  23  1   
 44  21  45  1   
 45  21  46  1   
 46  22  24  1   
 47  22  47  1   
 48  22  48  1   
 49  23  24  1   
 50  23  49  1   
 51  23  50  1   
 52  24  51  1   
 53  24  52  1   
@<TRIPOS>SUBSTRUCTURE
  1 ****  14 GROUP 4 **** **** 0

# MOE 2024.06 (io_trps.svl 2023.06)
