@<TRIPOS>MOLECULE
NONAME
47 47 1 0 0 
SMALL
USER_CHARGES


@<TRIPOS>ATOM
  1 O       -2.3690     1.8170     1.5190 O.2   1 <1>  -0.5700 
  2 C       -1.8930     2.2500     0.4960 C.2   1 <1>   0.5690 
  3 N       -2.5490     2.0410    -0.6840 N.am  1 <1>  -0.6600 
  4 C       -0.5740     3.0260     0.5340 C.3   1 <1>  -0.0190 
  5 C       -2.7890     0.6220    -1.0720 C.3   1 <1>   0.1400 
  6 C       -3.7320     2.9050    -0.9550 C.3   1 <1>   0.1400 
  7 C       -0.8230     4.5050     0.1540 C.3   1 <1>  -0.1600 
  8 C        0.4940     2.3310    -0.3470 C.3   1 <1>  -0.1600 
  9 C       -4.0280     0.0610    -0.3410 C.3   1 <1>   0.3430 
 10 C       -4.9730     2.3590    -0.2190 C.3   1 <1>   0.3430 
 11 C        0.3990     5.4220     0.3070 C.3   1 <1>  -0.1600 
 12 C        1.9060     2.3660     0.2570 C.3   1 <1>  -0.2400 
 13 N       -5.2510     0.9140    -0.5550 N.4   1 <1>  -0.9590 
 14 C        0.0160     6.8920     0.0970 C.3   1 <1>  -0.1600 
 15 C       -6.3850     0.4070     0.2510 C.3   1 <1>   0.4810 
 16 C        1.2400     7.8020     0.2320 C.3   1 <1>  -0.2400 
 17 C       -7.6260     1.1560    -0.1810 C.2   1 <1>  -0.2880 
 18 C       -8.3020     2.0310     0.5720 C.2   1 <1>  -0.3000 
 19 H       -0.2400     2.9980     1.5570 H     1 <1>   0.0800 
 20 H       -1.9290     0.0300    -0.8090 H     1 <1>   0.0800 
 21 H       -2.9210     0.5550    -2.1380 H     1 <1>   0.0800 
 22 H       -3.9150     2.9500    -2.0140 H     1 <1>   0.0800 
 23 H       -3.5350     3.9070    -0.6120 H     1 <1>   0.0800 
 24 H       -1.6070     4.8820     0.7880 H     1 <1>   0.0800 
 25 H       -1.1690     4.5600    -0.8630 H     1 <1>   0.0800 
 26 H        0.5040     2.7700    -1.3310 H     1 <1>   0.0800 
 27 H        0.2340     1.2940    -0.4670 H     1 <1>   0.0800 
 28 H       -3.7990     0.0170     0.7120 H     1 <1>   0.0800 
 29 H       -4.2140    -0.9450    -0.6800 H     1 <1>   0.0800 
 30 H       -5.8290     2.9650    -0.4670 H     1 <1>   0.0800 
 31 H       -4.8000     2.4530     0.8420 H     1 <1>   0.0800 
 32 H        1.1440     5.1540    -0.4220 H     1 <1>   0.0800 
 33 H        0.8220     5.3010     1.2900 H     1 <1>   0.0800 
 34 H        2.2600     3.3710     0.3900 H     1 <1>   0.0800 
 35 H        2.5930     1.8530    -0.3930 H     1 <1>   0.0800 
 36 H        1.9160     1.8730     1.2130 H     1 <1>   0.0800 
 37 H       -5.5250     0.8650    -1.5420 H     1 <1>   0.4500 
 38 H       -0.7210     7.1840     0.8250 H     1 <1>   0.0800 
 39 H       -0.4110     7.0190    -0.8830 H     1 <1>   0.0800 
 40 H       -6.1960     0.5740     1.3000 H     1 <1>   0.0800 
 41 H       -6.5240    -0.6500     0.0900 H     1 <1>   0.0800 
 42 H        1.6730     7.7070     1.2130 H     1 <1>   0.0800 
 43 H        0.9530     8.8280     0.0830 H     1 <1>   0.0800 
 44 H        1.9840     7.5450    -0.5020 H     1 <1>   0.0800 
 45 H       -7.9360     0.9080    -1.1820 H     1 <1>   0.1500 
 46 H       -9.1900     2.5460     0.2400 H     1 <1>   0.1500 
 47 H       -8.0450     2.3100     1.5810 H     1 <1>   0.1500 
@<TRIPOS>BOND
  1   1   2  2   
  2   2   3  am  
  3   2   4  1   
  4   3   5  1   
  5   3   6  1   
  6   4   7  1   
  7   4   8  1   
  8   4  19  1   
  9   5   9  1   
 10   5  20  1   
 11   5  21  1   
 12   6  10  1   
 13   6  22  1   
 14   6  23  1   
 15   7  11  1   
 16   7  24  1   
 17   7  25  1   
 18   8  12  1   
 19   8  26  1   
 20   8  27  1   
 21   9  13  1   
 22   9  28  1   
 23   9  29  1   
 24  10  13  1   
 25  10  30  1   
 26  10  31  1   
 27  11  14  1   
 28  11  32  1   
 29  11  33  1   
 30  12  34  1   
 31  12  35  1   
 32  12  36  1   
 33  13  15  1   
 34  13  37  1   
 35  14  16  1   
 36  14  38  1   
 37  14  39  1   
 38  15  17  1   
 39  15  40  1   
 40  15  41  1   
 41  16  42  1   
 42  16  43  1   
 43  16  44  1   
 44  17  18  2   
 45  17  45  1   
 46  18  46  1   
 47  18  47  1   
@<TRIPOS>SUBSTRUCTURE
  1 ****   3 GROUP 4 **** **** 0

# MOE 2024.06 (io_trps.svl 2023.06)
