@<TRIPOS>MOLECULE
NONAME
44 44 1 0 0 
SMALL
USER_CHARGES


@<TRIPOS>ATOM
  1 O       -5.3820     5.4500    -0.8150 O.3   1 <1>  -0.3630 
  2 C       -6.5970     5.3350    -0.2330 C.ar  1 <1>   0.0830 
  3 C       -4.2540     5.1470    -0.0280 C.3   1 <1>   0.2000 
  4 C       -7.1040     6.3410     0.5870 C.ar  1 <1>  -0.1440 
  5 C       -7.3410     4.1930    -0.4850 C.ar  1 <1>  -0.1500 
  6 C       -3.1110     6.0270    -0.5570 C.3   1 <1>  -0.1600 
  7 C       -3.9720     3.6460    -0.1520 C.3   1 <1>  -0.2400 
  8 C       -8.3480     6.1630     1.1740 C.ar  1 <1>  -0.1500 
  9 C       -6.3400     7.6330     0.8380 C.3   1 <1>  -0.0970 
 10 C       -8.5810     4.0280     0.1030 C.ar  1 <1>  -0.1500 
 11 C       -1.8230     5.9480     0.2870 C.3   1 <1>  -0.1600 
 12 C       -9.0820     5.0130     0.9370 C.ar  1 <1>  -0.1500 
 13 C       -0.6950     6.8250    -0.2730 C.3   1 <1>   0.4230 
 14 N        0.5420     6.4890     0.4550 N.4   1 <1>  -0.9060 
 15 C       -0.9730     8.3190    -0.0950 C.3   1 <1>  -0.2400 
 16 C        1.7800     6.9390    -0.2540 C.3   1 <1>   0.3430 
 17 C        3.0500     6.5470     0.5100 C.3   1 <1>   0.1200 
 18 O        4.1290     6.9890    -0.2310 O.3   1 <1>  -0.6800 
 19 H       -4.4770     5.4010     0.9950 H     1 <1>   0.0800 
 20 H       -6.9450     3.4400    -1.1410 H     1 <1>   0.1500 
 21 H       -3.4720     7.0400    -0.5670 H     1 <1>   0.0800 
 22 H       -2.9000     5.7390    -1.5730 H     1 <1>   0.0800 
 23 H       -3.7690     3.3850    -1.1750 H     1 <1>   0.0800 
 24 H       -4.8220     3.0840     0.1920 H     1 <1>   0.0800 
 25 H       -3.1350     3.3610     0.4550 H     1 <1>   0.0800 
 26 H       -8.7570     6.9220     1.8170 H     1 <1>   0.1500 
 27 H       -5.5900     7.4760     1.5910 H     1 <1>   0.0800 
 28 H       -7.0060     8.4080     1.1710 H     1 <1>   0.0800 
 29 H       -5.8690     7.9650    -0.0690 H     1 <1>   0.0800 
 30 H       -9.1560     3.1390    -0.0890 H     1 <1>   0.1500 
 31 H       -1.4910     4.9250     0.2920 H     1 <1>   0.0800 
 32 H       -2.0490     6.2370     1.3000 H     1 <1>   0.0800 
 33 H      -10.0450     4.8860     1.3990 H     1 <1>   0.1500 
 34 H       -0.5690     6.6010    -1.3220 H     1 <1>   0.0800 
 35 H        0.5760     5.4720     0.5810 H     1 <1>   0.4500 
 36 H        0.4940     6.9150     1.3870 H     1 <1>   0.4500 
 37 H       -1.1490     8.5620     0.9380 H     1 <1>   0.0800 
 38 H       -1.8470     8.6010    -0.6540 H     1 <1>   0.0800 
 39 H       -0.1620     8.9160    -0.4690 H     1 <1>   0.0800 
 40 H        1.7690     8.0110    -0.3680 H     1 <1>   0.0800 
 41 H        1.8180     6.4930    -1.2350 H     1 <1>   0.0800 
 42 H        3.1330     5.4780     0.6110 H     1 <1>   0.0800 
 43 H        3.0900     7.0240     1.4740 H     1 <1>   0.0800 
 44 H        4.9850     6.7760     0.2020 H     1 <1>   0.4000 
@<TRIPOS>BOND
  1   1   2  1   
  2   1   3  1   
  3   2   4  ar  
  4   2   5  ar  
  5   3   6  1   
  6   3   7  1   
  7   3  19  1   
  8   4   8  ar  
  9   4   9  1   
 10   5  10  ar  
 11   5  20  1   
 12   6  11  1   
 13   6  21  1   
 14   6  22  1   
 15   7  23  1   
 16   7  24  1   
 17   7  25  1   
 18   8  12  ar  
 19   8  26  1   
 20   9  27  1   
 21   9  28  1   
 22   9  29  1   
 23  10  12  ar  
 24  10  30  1   
 25  11  13  1   
 26  11  31  1   
 27  11  32  1   
 28  12  33  1   
 29  13  14  1   
 30  13  15  1   
 31  13  34  1   
 32  14  16  1   
 33  14  35  1   
 34  14  36  1   
 35  15  37  1   
 36  15  38  1   
 37  15  39  1   
 38  16  17  1   
 39  16  40  1   
 40  16  41  1   
 41  17  18  1   
 42  17  42  1   
 43  17  43  1   
 44  18  44  1   
@<TRIPOS>SUBSTRUCTURE
  1 ****   6 GROUP 4 **** **** 0

# MOE 2024.06 (io_trps.svl 2023.06)
