@<TRIPOS>MOLECULE
NONAME
46 47 1 0 0 
SMALL
USER_CHARGES


@<TRIPOS>ATOM
  1 S        0.1640    -0.1460     0.4700 S.o2  1 <1>   1.4470 
  2 O       -0.2210     0.0130     1.8570 O.2   1 <1>  -0.6500 
  3 O       -0.5960    -1.0710    -0.3450 O.2   1 <1>  -0.6500 
  4 N        0.0840     1.3900    -0.2650 N.am  1 <1>  -0.8490 
  5 C        1.9080    -0.6300     0.3310 C.ar  1 <1>  -0.0090 
  6 C        0.4110     2.5240     0.6400 C.3   1 <1>   0.2760 
  7 C       -1.2350     1.5600    -0.8980 C.3   1 <1>   0.1960 
  8 C        2.5880    -1.2060     1.3980 C.ar  1 <1>  -0.1500 
  9 C        2.6100    -0.4490    -0.8550 C.ar  1 <1>  -0.1500 
 10 C        0.3070     3.8620    -0.1260 C.3   1 <1>  -0.1600 
 11 C        1.8330     2.3890     1.2420 C.3   1 <1>  -0.1600 
 12 C       -1.3160     2.8520    -1.7090 C.3   1 <1>  -0.1600 
 13 C        3.9160    -1.5760     1.2890 C.ar  1 <1>  -0.1500 
 14 C        3.9390    -0.8170    -0.9690 C.ar  1 <1>  -0.1500 
 15 C       -1.0410     4.0580    -0.8200 C.3   1 <1>  -0.1600 
 16 C        2.2970     3.5740     2.1060 C.3   1 <1>  -0.2400 
 17 C        4.6170    -1.3830     0.1030 C.ar  1 <1>   0.1170 
 18 N        5.9600    -1.7470    -0.0630 N.am  1 <1>  -0.5470 
 19 C        6.9560    -1.9510     0.8520 C.2   1 <1>   0.5690 
 20 O        6.8190    -1.8100     2.0410 O.2   1 <1>  -0.5700 
 21 C        8.3160    -2.3730     0.3230 C.3   1 <1>  -0.0990 
 22 C        9.0150    -1.2690    -0.4870 C.3   1 <1>  -0.2400 
 23 H       -0.3030     2.5410     1.4480 H     1 <1>   0.0800 
 24 H       -2.0040     1.5500    -0.1430 H     1 <1>   0.0800 
 25 H       -1.4270     0.7480    -1.5790 H     1 <1>   0.0800 
 26 H        2.0700    -1.3670     2.3290 H     1 <1>   0.1500 
 27 H        2.1030    -0.0100    -1.6980 H     1 <1>   0.1500 
 28 H        1.0950     3.9070    -0.8570 H     1 <1>   0.0800 
 29 H        0.4410     4.6840     0.5520 H     1 <1>   0.0800 
 30 H        2.5440     2.2440     0.4480 H     1 <1>   0.0800 
 31 H        1.8670     1.5350     1.8900 H     1 <1>   0.0800 
 32 H       -2.2950     2.9390    -2.1450 H     1 <1>   0.0800 
 33 H       -0.5990     2.8090    -2.5100 H     1 <1>   0.0800 
 34 H        4.4060    -2.0210     2.1370 H     1 <1>   0.1500 
 35 H        4.4500    -0.6580    -1.9000 H     1 <1>   0.1500 
 36 H       -1.0250     4.9570    -1.4110 H     1 <1>   0.0800 
 37 H       -1.8190     4.1510    -0.0810 H     1 <1>   0.0800 
 38 H        2.4870     4.4460     1.5060 H     1 <1>   0.0800 
 39 H        3.2130     3.3170     2.6070 H     1 <1>   0.0800 
 40 H        1.5580     3.8100     2.8520 H     1 <1>   0.0800 
 41 H        6.2610    -1.8300    -1.0310 H     1 <1>   0.3700 
 42 H        8.1960    -3.2530    -0.2830 H     1 <1>   0.0800 
 43 H        8.9370    -2.6400     1.1610 H     1 <1>   0.0800 
 44 H        8.4410    -1.0060    -1.3570 H     1 <1>   0.0800 
 45 H        9.9860    -1.6050    -0.8050 H     1 <1>   0.0800 
 46 H        9.1410    -0.3900     0.1220 H     1 <1>   0.0800 
@<TRIPOS>BOND
  1   1   2  2   
  2   1   3  2   
  3   1   4  am  
  4   1   5  1   
  5   4   6  1   
  6   4   7  1   
  7   5   8  ar  
  8   5   9  ar  
  9   6  10  1   
 10   6  11  1   
 11   6  23  1   
 12   7  12  1   
 13   7  24  1   
 14   7  25  1   
 15   8  13  ar  
 16   8  26  1   
 17   9  14  ar  
 18   9  27  1   
 19  10  15  1   
 20  10  28  1   
 21  10  29  1   
 22  11  16  1   
 23  11  30  1   
 24  11  31  1   
 25  12  15  1   
 26  12  32  1   
 27  12  33  1   
 28  13  17  ar  
 29  13  34  1   
 30  14  17  ar  
 31  14  35  1   
 32  15  36  1   
 33  15  37  1   
 34  16  38  1   
 35  16  39  1   
 36  16  40  1   
 37  17  18  1   
 38  18  19  am  
 39  18  41  1   
 40  19  20  2   
 41  19  21  1   
 42  21  22  1   
 43  21  42  1   
 44  21  43  1   
 45  22  44  1   
 46  22  45  1   
 47  22  46  1   
@<TRIPOS>SUBSTRUCTURE
  1 ****   5 GROUP 4 **** **** 0

# MOE 2024.06 (io_trps.svl 2023.06)
