@<TRIPOS>MOLECULE
NONAME
32 33 1 0 0 
SMALL
USER_CHARGES


@<TRIPOS>ATOM
  1 O        0.0240    -0.5470     0.0210 O.2   1 <1>  -0.5700 
  2 C        0.7470    -1.5060     0.0520 C.2   1 <1>   0.5690 
  3 N        0.2050    -2.7480     0.1060 N.am  1 <1>  -0.4900 
  4 C        2.2840    -1.3670     0.0700 C.3   1 <1>   0.0610 
  5 C        0.8660    -3.9330     0.1110 C.2   1 <1>   0.5690 
  6 C        2.8930    -2.6030    -0.6610 C.3   1 <1>   0.0630 
  7 C        2.7440    -1.2510     1.5410 C.3   1 <1>  -0.2400 
  8 C        2.7190    -0.0710    -0.6550 C.3   1 <1>  -0.2400 
  9 O        0.2600    -4.9450     0.3380 O.2   1 <1>  -0.5700 
 10 C        2.3700    -3.9580    -0.1220 C.3   1 <1>   0.1810 
 11 C        4.4260    -2.5880    -0.7560 C.ar  1 <1>  -0.1440 
 12 C        2.7030    -5.0490    -1.0800 C.1   1 <1>   0.3570 
 13 C        5.0230    -2.2290    -1.9580 C.ar  1 <1>  -0.1500 
 14 C        5.2440    -2.9310     0.3150 C.ar  1 <1>  -0.1500 
 15 N        2.9670    -5.8560    -1.8380 N.1   1 <1>  -0.5570 
 16 C        6.4000    -2.2100    -2.0880 C.ar  1 <1>  -0.1500 
 17 C        6.6220    -2.9120     0.1870 C.ar  1 <1>  -0.1500 
 18 C        7.2020    -2.5500    -1.0150 C.ar  1 <1>  -0.1500 
 19 H       -0.8090    -2.7900     0.1950 H     1 <1>   0.3700 
 20 H        2.5250    -2.5400    -1.6730 H     1 <1>   0.0800 
 21 H        2.5250    -2.1430     2.0980 H     1 <1>   0.0800 
 22 H        2.2320    -0.4320     2.0170 H     1 <1>   0.0800 
 23 H        3.7980    -1.0500     1.6030 H     1 <1>   0.0800 
 24 H        2.3990    -0.0830    -1.6820 H     1 <1>   0.0800 
 25 H        3.7880     0.0500    -0.6300 H     1 <1>   0.0800 
 26 H        2.2800     0.7910    -0.1820 H     1 <1>   0.0800 
 27 H        2.8310    -4.1940     0.8160 H     1 <1>   0.0800 
 28 H        4.4240    -1.9620    -2.8110 H     1 <1>   0.1500 
 29 H        4.8320    -3.2160     1.2650 H     1 <1>   0.1500 
 30 H        6.8490    -1.9310    -3.0250 H     1 <1>   0.1500 
 31 H        7.2460    -3.1790     1.0220 H     1 <1>   0.1500 
 32 H        8.2730    -2.5360    -1.1150 H     1 <1>   0.1500 
@<TRIPOS>BOND
  1   1   2  2   
  2   2   3  am  
  3   2   4  1   
  4   3   5  am  
  5   3  19  1   
  6   4   6  1   
  7   4   7  1   
  8   4   8  1   
  9   5   9  2   
 10   5  10  1   
 11   6  10  1   
 12   6  11  1   
 13   6  20  1   
 14   7  21  1   
 15   7  22  1   
 16   7  23  1   
 17   8  24  1   
 18   8  25  1   
 19   8  26  1   
 20  10  12  1   
 21  10  27  1   
 22  11  13  ar  
 23  11  14  ar  
 24  12  15  3   
 25  13  16  ar  
 26  13  28  1   
 27  14  17  ar  
 28  14  29  1   
 29  16  18  ar  
 30  16  30  1   
 31  17  18  ar  
 32  17  31  1   
 33  18  32  1   
@<TRIPOS>SUBSTRUCTURE
  1 ****   6 GROUP 4 **** **** 0

# MOE 2024.06 (io_trps.svl 2023.06)
