@<TRIPOS>MOLECULE
NONAME
38 40 1 0 0 
SMALL
USER_CHARGES


@<TRIPOS>ATOM
  1 S        0.0090    -2.0020    -2.0410 S.3   1 <1>  -0.0800 
  2 C        0.5150    -2.0690    -0.3600 C.2   1 <1>  -0.1400 
  3 C       -1.6070    -1.4950    -1.5810 C.2   1 <1>  -0.1100 
  4 C       -0.5020    -1.7230     0.4510 C.2   1 <1>  -0.1500 
  5 C        1.9440    -2.4880    -0.0640 C.3   1 <1>   0.3200 
  6 C       -1.7110    -1.3960    -0.2430 C.2   1 <1>  -0.1500 
  7 N        2.8620    -1.3870    -0.3710 N.am  1 <1>  -0.7300 
  8 C        3.5770    -0.6930     0.5440 C.2   1 <1>   0.5690 
  9 O        3.2920    -0.7670     1.7200 O.2   1 <1>  -0.5700 
 10 C        4.6830     0.2740     0.0680 C.3   1 <1>  -0.0190 
 11 C        5.7490    -0.2570    -0.9580 C.3   1 <1>  -0.1860 
 12 C        5.4270     0.9800     1.2410 C.3   1 <1>  -0.0800 
 13 C        5.4640    -1.6170    -1.5880 C.2   1 <1>   0.9060 
 14 C        7.1840    -0.0960    -0.3890 C.3   1 <1>  -0.0800 
 15 C        6.3650     2.0620     0.6600 C.3   1 <1>  -0.1600 
 16 C        6.3100    -0.0410     1.9910 C.3   1 <1>  -0.1600 
 17 O        6.0580    -2.6360    -1.2290 O.co2 1 <1>  -0.9000 
 18 O        4.5920    -1.6550    -2.4670 O.co2 1 <1>  -0.9000 
 19 C        7.4570     1.4140    -0.2230 C.3   1 <1>  -0.1600 
 20 C        7.2690    -0.7440     1.0080 C.3   1 <1>  -0.1600 
 21 H       -2.3120    -1.3220    -2.3730 H     1 <1>   0.1500 
 22 H       -0.4480    -1.6770     1.5250 H     1 <1>   0.1500 
 23 H        2.2120    -3.3450    -0.6590 H     1 <1>   0.0800 
 24 H        2.0340    -2.7560     0.9740 H     1 <1>   0.0800 
 25 H       -2.5940    -1.1030     0.2960 H     1 <1>   0.1500 
 26 H        3.2540    -1.4380    -1.3350 H     1 <1>   0.3700 
 27 H        4.1360     1.0410    -0.4480 H     1 <1>   0.0800 
 28 H        5.7000     0.4040    -1.8030 H     1 <1>   0.0800 
 29 H        4.7190     1.4300     1.9160 H     1 <1>   0.0800 
 30 H        7.9020    -0.5430    -1.0550 H     1 <1>   0.0800 
 31 H        6.8280     2.6100     1.4620 H     1 <1>   0.0800 
 32 H        5.7900     2.7580     0.0750 H     1 <1>   0.0800 
 33 H        5.7030    -0.7790     2.4840 H     1 <1>   0.0800 
 34 H        6.8780     0.4660     2.7510 H     1 <1>   0.0800 
 35 H        7.4760     1.8900    -1.1880 H     1 <1>   0.0800 
 36 H        8.4220     1.5530     0.2300 H     1 <1>   0.0800 
 37 H        8.2770    -0.6880     1.3770 H     1 <1>   0.0800 
 38 H        7.0090    -1.7860     0.9380 H     1 <1>   0.0800 
@<TRIPOS>BOND
  1   1   2  1   
  2   1   3  1   
  3   2   4  2   
  4   2   5  1   
  5   3   6  2   
  6   3  21  1   
  7   4   6  1   
  8   4  22  1   
  9   5   7  1   
 10   5  23  1   
 11   5  24  1   
 12   6  25  1   
 13   7   8  am  
 14   7  26  1   
 15   8   9  2   
 16   8  10  1   
 17  10  11  1   
 18  10  12  1   
 19  10  27  1   
 20  11  13  1   
 21  11  14  1   
 22  11  28  1   
 23  12  15  1   
 24  12  16  1   
 25  12  29  1   
 26  13  17  ar  
 27  13  18  ar  
 28  14  19  1   
 29  14  20  1   
 30  14  30  1   
 31  15  19  1   
 32  15  31  1   
 33  15  32  1   
 34  16  20  1   
 35  16  33  1   
 36  16  34  1   
 37  19  35  1   
 38  19  36  1   
 39  20  37  1   
 40  20  38  1   
@<TRIPOS>SUBSTRUCTURE
  1 ****   8 GROUP 4 **** **** 0

# MOE 2024.06 (io_trps.svl 2023.06)
