@<TRIPOS>MOLECULE
NONAME
52 53 1 0 0 
SMALL
USER_CHARGES


@<TRIPOS>ATOM
  1 O        4.7800    -5.4360    -0.0110 O.3   1 <1>  -0.3630 
  2 C        6.1320    -5.3250     0.0280 C.ar  1 <1>   0.0830 
  3 C        4.1390    -6.6650     0.2360 C.3   1 <1>   0.1200 
  4 C        6.6600    -4.0680    -0.2210 C.ar  1 <1>  -0.1500 
  5 C        6.9910    -6.3860     0.2990 C.ar  1 <1>  -0.1500 
  6 C        2.6320    -6.4390     0.1240 C.3   1 <1>  -0.1600 
  7 C        8.0290    -3.8510    -0.2020 C.ar  1 <1>  -0.1440 
  8 C        8.3610    -6.1850     0.3200 C.ar  1 <1>  -0.1430 
  9 C        1.8610    -7.7270     0.4280 C.3   1 <1>   0.1100 
 10 C        8.8710    -4.9200     0.0710 C.ar  1 <1>  -0.1500 
 11 C        8.5810    -2.4550    -0.4780 C.3   1 <1>   0.0640 
 12 C        9.3080    -7.3330     0.6160 C.3   1 <1>  -0.0970 
 13 N        0.4280    -7.5570     0.1360 N.3   1 <1>  -0.8100 
 14 C        9.4690    -2.4550    -1.7270 C.3   1 <1>  -0.2400 
 15 C        9.3490    -1.9200     0.7350 C.3   1 <1>  -0.2400 
 16 C       -0.2590    -8.8680     0.0420 C.3   1 <1>   0.1100 
 17 C       -0.2630    -6.6830     1.1220 C.3   1 <1>   0.1100 
 18 C       -1.7560    -8.7230    -0.3350 C.3   1 <1>   0.3430 
 19 C       -1.7850    -6.5660     0.8520 C.3   1 <1>   0.3430 
 20 N       -2.1610    -7.2800    -0.4110 N.4   1 <1>  -0.9590 
 21 C       -3.5810    -7.0780    -0.8150 C.3   1 <1>   0.2630 
 22 H        4.4070    -6.9900     1.2260 H     1 <1>   0.0800 
 23 H        4.4770    -7.3760    -0.4980 H     1 <1>   0.0800 
 24 H        5.9810    -3.2630    -0.4290 H     1 <1>   0.1500 
 25 H        6.6100    -7.3690     0.4960 H     1 <1>   0.1500 
 26 H        2.4050    -6.1180    -0.8780 H     1 <1>   0.0800 
 27 H        2.3560    -5.6680     0.8190 H     1 <1>   0.0800 
 28 H        2.0040    -8.0170     1.4560 H     1 <1>   0.0800 
 29 H        2.2560    -8.5090    -0.1990 H     1 <1>   0.0800 
 30 H        9.9350    -4.7690     0.0910 H     1 <1>   0.1500 
 31 H        7.7560    -1.7880    -0.6640 H     1 <1>   0.0800 
 32 H        8.8200    -8.2790     0.4680 H     1 <1>   0.0800 
 33 H        9.6460    -7.2720     1.6350 H     1 <1>   0.0800 
 34 H       10.1620    -7.2870    -0.0360 H     1 <1>   0.0800 
 35 H       10.3380    -3.0700    -1.5800 H     1 <1>   0.0800 
 36 H        9.7890    -1.4550    -1.9580 H     1 <1>   0.0800 
 37 H        8.9160    -2.8400    -2.5660 H     1 <1>   0.0800 
 38 H       10.2150    -2.5230     0.9370 H     1 <1>   0.0800 
 39 H        8.7130    -1.9340     1.6020 H     1 <1>   0.0800 
 40 H        9.6660    -0.9080     0.5590 H     1 <1>   0.0800 
 41 H       -0.1800    -9.3900     0.9810 H     1 <1>   0.0800 
 42 H        0.2250    -9.4740    -0.7060 H     1 <1>   0.0800 
 43 H        0.1580    -5.6940     1.0840 H     1 <1>   0.0800 
 44 H       -0.1100    -7.0600     2.1190 H     1 <1>   0.0800 
 45 H       -2.3560    -9.2390     0.3960 H     1 <1>   0.0800 
 46 H       -1.9200    -9.1980    -1.2890 H     1 <1>   0.0800 
 47 H       -2.0460    -5.5230     0.7790 H     1 <1>   0.0800 
 48 H       -2.3250    -6.9830     1.6850 H     1 <1>   0.0800 
 49 H       -1.5140    -6.8840    -1.1150 H     1 <1>   0.4500 
 50 H       -4.2440    -7.4950    -0.0740 H     1 <1>   0.0800 
 51 H       -3.7720    -7.5600    -1.7600 H     1 <1>   0.0800 
 52 H       -3.7940    -6.0260    -0.9170 H     1 <1>   0.0800 
@<TRIPOS>BOND
  1   1   2  1   
  2   1   3  1   
  3   2   4  ar  
  4   2   5  ar  
  5   3   6  1   
  6   3  22  1   
  7   3  23  1   
  8   4   7  ar  
  9   4  24  1   
 10   5   8  ar  
 11   5  25  1   
 12   6   9  1   
 13   6  26  1   
 14   6  27  1   
 15   7  10  ar  
 16   7  11  1   
 17   8  10  ar  
 18   8  12  1   
 19   9  13  1   
 20   9  28  1   
 21   9  29  1   
 22  10  30  1   
 23  11  14  1   
 24  11  15  1   
 25  11  31  1   
 26  12  32  1   
 27  12  33  1   
 28  12  34  1   
 29  13  16  1   
 30  13  17  1   
 31  14  35  1   
 32  14  36  1   
 33  14  37  1   
 34  15  38  1   
 35  15  39  1   
 36  15  40  1   
 37  16  18  1   
 38  16  41  1   
 39  16  42  1   
 40  17  19  1   
 41  17  43  1   
 42  17  44  1   
 43  18  20  1   
 44  18  45  1   
 45  18  46  1   
 46  19  20  1   
 47  19  47  1   
 48  19  48  1   
 49  20  21  1   
 50  20  49  1   
 51  21  50  1   
 52  21  51  1   
 53  21  52  1   
@<TRIPOS>SUBSTRUCTURE
  1 ****   3 GROUP 4 **** **** 0

# MOE 2024.06 (io_trps.svl 2023.06)
