@<TRIPOS>MOLECULE
NONAME
34 35 1 0 0 
SMALL
USER_CHARGES


@<TRIPOS>ATOM
  1 CL      -0.0820     1.5670    -0.1300 Cl    1 <1>  -0.1230 
  2 C       -1.7030     0.9280     0.0680 C.2   1 <1>   0.1230 
  3 C       -2.1490     0.1580     1.1270 C.2   1 <1>   0.1390 
  4 C       -2.7510     1.0790    -0.7590 C.2   1 <1>  -0.3020 
  5 N       -3.4030    -0.1580     0.9780 N.2   1 <1>  -0.7070 
  6 N       -3.7900     0.4130    -0.1980 N.pl3 1 <1>   0.6010 
  7 C       -5.0780     0.3310    -0.7600 C.2   1 <1>  -0.1810 
  8 C       -6.1760    -0.3110    -0.2810 C.2   1 <1>   0.0770 
  9 O       -7.3320    -0.2650    -0.9860 O.3   1 <1>  -0.1530 
 10 C       -6.4220    -1.0800     0.8750 C.2   1 <1>  -0.1500 
 11 C       -8.2970    -0.9780    -0.3160 C.2   1 <1>   0.0770 
 12 C       -7.7160    -1.4780     0.8390 C.2   1 <1>  -0.1500 
 13 C       -9.5980    -1.1080    -0.8060 C.2   1 <1>  -0.0500 
 14 O       -9.9850    -0.6050    -1.8750 O.3   1 <1>  -0.8500 
 15 N      -10.5680    -1.8170    -0.1200 N.pl3 1 <1>  -0.8380 
 16 C      -11.1130    -2.9240    -0.9330 C.3   1 <1>   0.2090 
 17 C      -11.6010    -0.9330     0.4600 C.3   1 <1>   0.2090 
 18 C      -11.5370    -4.0680    -0.0180 C.3   1 <1>  -0.2400 
 19 C      -11.4450    -0.9420     1.9760 C.3   1 <1>  -0.2400 
 20 H       -1.5430    -0.1420     1.9640 H     1 <1>   0.1500 
 21 H       -2.8240     1.6060    -1.6900 H     1 <1>   0.1500 
 22 H       -5.1670     0.8560    -1.6900 H     1 <1>   0.1500 
 23 H       -5.6930    -1.2960     1.6340 H     1 <1>   0.1500 
 24 H       -8.2590    -2.0770     1.5440 H     1 <1>   0.1500 
 25 H      -10.3470    -3.2640    -1.6100 H     1 <1>   0.0800 
 26 H      -11.9350    -2.5650    -1.5270 H     1 <1>   0.0800 
 27 H      -12.5840    -1.2670     0.1810 H     1 <1>   0.0800 
 28 H      -11.4700     0.0690     0.0840 H     1 <1>   0.0800 
 29 H      -10.6940    -4.3800     0.5710 H     1 <1>   0.0800 
 30 H      -11.8770    -4.8950    -0.6110 H     1 <1>   0.0800 
 31 H      -12.3310    -3.7500     0.6290 H     1 <1>   0.0800 
 32 H      -11.5610    -1.9420     2.3490 H     1 <1>   0.0800 
 33 H      -12.1850    -0.3050     2.4220 H     1 <1>   0.0800 
 34 H      -10.4670    -0.5760     2.2290 H     1 <1>   0.0800 
@<TRIPOS>BOND
  1   1   2  1   
  2   2   3  1   
  3   2   4  2   
  4   3   5  2   
  5   3  20  1   
  6   4   6  1   
  7   4  21  1   
  8   5   6  1   
  9   6   7  1   
 10   7   8  2   
 11   7  22  1   
 12   8   9  1   
 13   8  10  1   
 14   9  11  1   
 15  10  12  2   
 16  10  23  1   
 17  11  12  1   
 18  11  13  2   
 19  12  24  1   
 20  13  14  1   
 21  13  15  1   
 22  15  16  1   
 23  15  17  1   
 24  16  18  1   
 25  16  25  1   
 26  16  26  1   
 27  17  19  1   
 28  17  27  1   
 29  17  28  1   
 30  18  29  1   
 31  18  30  1   
 32  18  31  1   
 33  19  32  1   
 34  19  33  1   
 35  19  34  1   
@<TRIPOS>SUBSTRUCTURE
  1 ****   8 GROUP 4 **** **** 0

# MOE 2024.06 (io_trps.svl 2023.06)
