@<TRIPOS>MOLECULE
NONAME
26 27 1 0 0 
SMALL
USER_CHARGES


@<TRIPOS>ATOM
  1 O        3.2720    -1.7750     0.0840 O.3   1 <1>  -0.3630 
  2 C        2.1340    -2.5230     0.0470 C.ar  1 <1>   0.0820 
  3 C        4.5440    -2.3790     0.0200 C.3   1 <1>   0.0400 
  4 C        0.9390    -1.8400     0.1160 C.ar  1 <1>  -0.1500 
  5 C        2.1380    -3.9280    -0.0540 C.ar  1 <1>  -0.1500 
  6 C       -0.2590    -2.5480     0.0830 C.ar  1 <1>   0.2270 
  7 C        0.9560    -4.6330    -0.0870 C.ar  1 <1>  -0.1500 
  8 N       -1.5370    -2.0850     0.1380 N.2   1 <1>  -0.5650 
  9 C       -0.2480    -3.9260    -0.0170 C.ar  1 <1>  -0.1520 
 10 C       -2.2700    -3.1490     0.0720 C.2   1 <1>   0.0070 
 11 N       -1.5540    -4.3060    -0.0240 N.pl3 1 <1>   0.0480 
 12 C       -3.7950    -3.1300     0.1000 C.3   1 <1>   0.3000 
 13 C       -2.0280    -5.7010    -0.1150 C.3   1 <1>   0.0160 
 14 O       -4.2010    -1.8190     0.2180 O.3   1 <1>  -0.6800 
 15 H        5.2850    -1.6010     0.0640 H     1 <1>   0.0800 
 16 H        4.6320    -2.9130    -0.9100 H     1 <1>   0.0800 
 17 H        4.6600    -3.0410     0.8600 H     1 <1>   0.0800 
 18 H        0.9130    -0.7710     0.1940 H     1 <1>   0.1500 
 19 H        3.0630    -4.4690    -0.1080 H     1 <1>   0.1500 
 20 H        0.9520    -5.7050    -0.1640 H     1 <1>   0.1500 
 21 H       -4.1750    -3.6750     0.9460 H     1 <1>   0.0800 
 22 H       -4.2040    -3.5250    -0.8130 H     1 <1>   0.0800 
 23 H       -1.6130    -6.1570    -0.9960 H     1 <1>   0.0800 
 24 H       -3.1000    -5.7310    -0.1720 H     1 <1>   0.0800 
 25 H       -1.7000    -6.2410     0.7550 H     1 <1>   0.0800 
 26 H       -3.3630    -1.2980     0.2410 H     1 <1>   0.4000 
@<TRIPOS>BOND
  1   1   2  1   
  2   1   3  1   
  3   2   4  ar  
  4   2   5  ar  
  5   3  15  1   
  6   3  16  1   
  7   3  17  1   
  8   4   6  ar  
  9   4  18  1   
 10   5   7  ar  
 11   5  19  1   
 12   6   8  1   
 13   6   9  ar  
 14   7   9  ar  
 15   7  20  1   
 16   8  10  2   
 17   9  11  1   
 18  10  11  1   
 19  10  12  1   
 20  11  13  1   
 21  12  14  1   
 22  12  21  1   
 23  12  22  1   
 24  13  23  1   
 25  13  24  1   
 26  13  25  1   
 27  14  26  1   
@<TRIPOS>SUBSTRUCTURE
  1 ****   6 GROUP 4 **** **** 0

# MOE 2024.06 (io_trps.svl 2023.06)
