@<TRIPOS>MOLECULE
NONAME
35 36 1 0 0 
SMALL
USER_CHARGES


@<TRIPOS>ATOM
  1 CL       0.2180    -0.0350    -0.6510 Cl    1 <1>  -0.1770 
  2 C        0.0390     1.6860    -0.4210 C.ar  1 <1>   0.1770 
  3 C       -1.2240     2.2250    -0.3010 C.ar  1 <1>  -0.1500 
  4 C        1.1670     2.4780    -0.3600 C.ar  1 <1>  -0.1500 
  5 C       -1.3850     3.5950    -0.1160 C.ar  1 <1>   0.1170 
  6 C        1.0190     3.8410    -0.1720 C.ar  1 <1>  -0.1500 
  7 N       -2.6570     4.1790     0.0300 N.am  1 <1>  -0.5470 
  8 C       -0.2440     4.4040    -0.0500 C.ar  1 <1>  -0.1430 
  9 C       -3.8760     3.7660    -0.4480 C.2   1 <1>   0.5690 
 10 C       -0.3450     5.9120     0.1490 C.3   1 <1>  -0.0960 
 11 O       -4.0240     2.7870    -1.1400 O.2   1 <1>  -0.5700 
 12 C       -5.1440     4.5680    -0.1020 C.3   1 <1>   0.4040 
 13 N       -6.4210     3.7800    -0.2940 N.4   1 <1>  -0.9590 
 14 C       -7.6730     4.5680    -0.2550 C.3   1 <1>   0.3430 
 15 C       -6.5840     2.6640     0.6680 C.3   1 <1>   0.3430 
 16 C       -8.7620     3.5300    -0.0140 C.3   1 <1>  -0.1600 
 17 C       -8.0570     2.2970     0.5640 C.3   1 <1>  -0.1600 
 18 H       -2.0670     1.5630    -0.3490 H     1 <1>   0.1500 
 19 H        2.1410     2.0340    -0.4570 H     1 <1>   0.1500 
 20 H        1.9000     4.4570    -0.1250 H     1 <1>   0.1500 
 21 H       -2.6150     5.0770     0.5100 H     1 <1>   0.3700 
 22 H       -0.9650     6.3480    -0.6130 H     1 <1>   0.0800 
 23 H        0.6260     6.3730     0.0870 H     1 <1>   0.0800 
 24 H       -0.7550     6.1340     1.1180 H     1 <1>   0.0800 
 25 H       -5.1650     5.4330    -0.7420 H     1 <1>   0.0800 
 26 H       -5.0780     4.9050     0.9170 H     1 <1>   0.0800 
 27 H       -6.3390     3.3270    -1.2200 H     1 <1>   0.4500 
 28 H       -7.8360     5.1100    -1.1740 H     1 <1>   0.0800 
 29 H       -7.6480     5.2590     0.5730 H     1 <1>   0.0800 
 30 H       -6.3660     3.0020     1.6680 H     1 <1>   0.0800 
 31 H       -5.9440     1.8290     0.4200 H     1 <1>   0.0800 
 32 H       -9.2440     3.2840    -0.9450 H     1 <1>   0.0800 
 33 H       -9.5060     3.9170     0.6610 H     1 <1>   0.0800 
 34 H       -8.4480     2.0270     1.5300 H     1 <1>   0.0800 
 35 H       -8.1740     1.4550    -0.0970 H     1 <1>   0.0800 
@<TRIPOS>BOND
  1   1   2  1   
  2   2   3  ar  
  3   2   4  ar  
  4   3   5  ar  
  5   3  18  1   
  6   4   6  ar  
  7   4  19  1   
  8   5   7  1   
  9   5   8  ar  
 10   6   8  ar  
 11   6  20  1   
 12   7   9  am  
 13   7  21  1   
 14   8  10  1   
 15   9  11  2   
 16   9  12  1   
 17  10  22  1   
 18  10  23  1   
 19  10  24  1   
 20  12  13  1   
 21  12  25  1   
 22  12  26  1   
 23  13  14  1   
 24  13  15  1   
 25  13  27  1   
 26  14  16  1   
 27  14  28  1   
 28  14  29  1   
 29  15  17  1   
 30  15  30  1   
 31  15  31  1   
 32  16  17  1   
 33  16  32  1   
 34  16  33  1   
 35  17  34  1   
 36  17  35  1   
@<TRIPOS>SUBSTRUCTURE
  1 ****   9 GROUP 4 **** **** 0

# MOE 2024.06 (io_trps.svl 2023.06)
