@<TRIPOS>MOLECULE
NONAME
46 47 1 0 0 
SMALL
USER_CHARGES


@<TRIPOS>ATOM
  1 N       -0.0820    -0.6300     0.2270 N.4   1 <1>  -0.9590 
  2 C       -0.8070     0.2870    -0.7050 C.3   1 <1>   0.3430 
  3 C       -0.9750    -1.2500     1.2490 C.3   1 <1>   0.3430 
  4 C        1.0480     0.0690     0.9080 C.3   1 <1>   0.3430 
  5 C       -1.9580    -0.4510    -1.3920 C.3   1 <1>  -0.1600 
  6 C       -2.1050    -2.0140     0.5580 C.3   1 <1>  -0.1600 
  7 C        2.1760     0.3150    -0.0870 C.3   1 <1>  -0.2400 
  8 C       -2.8990    -1.0710    -0.3600 C.3   1 <1>   0.4230 
  9 N       -4.0470    -1.7240    -1.0760 N.4   1 <1>  -0.9590 
 10 C       -5.3960    -1.4660    -0.4740 C.3   1 <1>   0.4230 
 11 C       -3.8960    -3.1880    -1.3830 C.3   1 <1>   0.2630 
 12 C       -5.7830     0.0070    -0.6680 C.3   1 <1>  -0.1600 
 13 C       -5.4910    -1.8730     1.0050 C.3   1 <1>  -0.1600 
 14 C       -7.1970     0.2700    -0.1290 C.3   1 <1>  -0.1600 
 15 C       -6.9070    -1.6210     1.5410 C.3   1 <1>  -0.1600 
 16 C       -7.3220    -0.1570     1.3400 C.3   1 <1>  -0.1600 
 17 H        0.3520    -1.3830    -0.3270 H     1 <1>   0.4500 
 18 H       -0.1290     0.6650    -1.4540 H     1 <1>   0.0800 
 19 H       -1.1940     1.1310    -0.1540 H     1 <1>   0.0800 
 20 H       -1.3890    -0.4840     1.8870 H     1 <1>   0.0800 
 21 H       -0.4080    -1.9290     1.8680 H     1 <1>   0.0800 
 22 H        1.4270    -0.5470     1.7090 H     1 <1>   0.0800 
 23 H        0.7160     1.0040     1.3320 H     1 <1>   0.0800 
 24 H       -1.5530    -1.2070    -2.0430 H     1 <1>   0.0800 
 25 H       -2.4960     0.2600    -1.9930 H     1 <1>   0.0800 
 26 H       -2.7440    -2.4240     1.3180 H     1 <1>   0.0800 
 27 H       -1.6690    -2.8280     0.0070 H     1 <1>   0.0800 
 28 H        2.5100    -0.6060    -0.5310 H     1 <1>   0.0800 
 29 H        3.0130     0.7470     0.4350 H     1 <1>   0.0800 
 30 H        1.8870     1.0080    -0.8570 H     1 <1>   0.0800 
 31 H       -3.2880    -0.2690     0.2470 H     1 <1>   0.0800 
 32 H       -4.1100    -1.2580    -1.9920 H     1 <1>   0.4500 
 33 H       -6.1240    -2.0520    -1.0140 H     1 <1>   0.0800 
 34 H       -3.8760    -3.7640    -0.4720 H     1 <1>   0.0800 
 35 H       -2.9840    -3.3680    -1.9280 H     1 <1>   0.0800 
 36 H       -4.7230    -3.5310    -1.9840 H     1 <1>   0.0800 
 37 H       -5.7680     0.2580    -1.7140 H     1 <1>   0.0800 
 38 H       -5.1030     0.6550    -0.1460 H     1 <1>   0.0800 
 39 H       -4.8100    -1.2970     1.6030 H     1 <1>   0.0800 
 40 H       -5.2660    -2.9180     1.1210 H     1 <1>   0.0800 
 41 H       -7.9180    -0.2730    -0.7170 H     1 <1>   0.0800 
 42 H       -7.4320     1.3180    -0.2170 H     1 <1>   0.0800 
 43 H       -6.9480    -1.8610     2.5910 H     1 <1>   0.0800 
 44 H       -7.6100    -2.2620     1.0350 H     1 <1>   0.0800 
 45 H       -8.3420    -0.0270     1.6640 H     1 <1>   0.0800 
 46 H       -6.7080     0.4800     1.9540 H     1 <1>   0.0800 
@<TRIPOS>BOND
  1   1   2  1   
  2   1   3  1   
  3   1   4  1   
  4   1  17  1   
  5   2   5  1   
  6   2  18  1   
  7   2  19  1   
  8   3   6  1   
  9   3  20  1   
 10   3  21  1   
 11   4   7  1   
 12   4  22  1   
 13   4  23  1   
 14   5   8  1   
 15   5  24  1   
 16   5  25  1   
 17   6   8  1   
 18   6  26  1   
 19   6  27  1   
 20   7  28  1   
 21   7  29  1   
 22   7  30  1   
 23   8   9  1   
 24   8  31  1   
 25   9  10  1   
 26   9  11  1   
 27   9  32  1   
 28  10  12  1   
 29  10  13  1   
 30  10  33  1   
 31  11  34  1   
 32  11  35  1   
 33  11  36  1   
 34  12  14  1   
 35  12  37  1   
 36  12  38  1   
 37  13  15  1   
 38  13  39  1   
 39  13  40  1   
 40  14  16  1   
 41  14  41  1   
 42  14  42  1   
 43  15  16  1   
 44  15  43  1   
 45  15  44  1   
 46  16  45  1   
 47  16  46  1   
@<TRIPOS>SUBSTRUCTURE
  1 ****   8 GROUP 4 **** **** 0

# MOE 2024.06 (io_trps.svl 2023.06)
