@<TRIPOS>MOLECULE
NONAME
43 44 1 0 0 
SMALL
USER_CHARGES


@<TRIPOS>ATOM
  1 O       -0.2750    -0.0330    -0.1870 O.2   1 <1>  -0.5700 
  2 C       -0.7930    -0.9630     0.3980 C.2   1 <1>   0.6900 
  3 N       -0.2040    -2.1970     0.4240 N.am  1 <1>  -0.6600 
  4 N       -1.9830    -0.7300     0.9910 N.am  1 <1>  -0.7300 
  5 C       -0.4270    -3.2140     1.4890 C.3   1 <1>   0.1400 
  6 C        0.9140    -2.5470    -0.4940 C.3   1 <1>   0.1400 
  7 C       -3.1920    -1.5330     0.7050 C.3   1 <1>   0.1400 
  8 C       -0.5350    -4.6150     0.8640 C.3   1 <1>   0.1200 
  9 C        0.7490    -3.9880    -1.0060 C.3   1 <1>   0.1200 
 10 C       -4.0100    -0.8750    -0.4050 C.3   1 <1>  -0.0160 
 11 O        0.5790    -4.8840     0.0590 O.3   1 <1>  -0.5600 
 12 C       -5.2040    -1.7500    -0.7470 C.ar  1 <1>  -0.1440 
 13 C       -6.4130    -1.5830    -0.0900 C.ar  1 <1>  -0.1500 
 14 C       -5.0870    -2.7320    -1.7150 C.ar  1 <1>  -0.1500 
 15 C       -7.5130    -2.3860    -0.3850 C.ar  1 <1>   0.0820 
 16 C       -6.1670    -3.5420    -2.0130 C.ar  1 <1>  -0.1500 
 17 O       -8.7070    -2.1930     0.2490 O.3   1 <1>  -0.3620 
 18 C       -7.3780    -3.3940    -1.3580 C.ar  1 <1>   0.0820 
 19 C       -9.0060    -0.9920     0.9260 C.3   1 <1>   0.0400 
 20 O       -8.3400    -4.2780    -1.7520 O.3   1 <1>  -0.3630 
 21 C       -9.4640    -4.5820    -0.9580 C.3   1 <1>   0.0400 
 22 H       -2.1670     0.2710     1.0580 H     1 <1>   0.3700 
 23 H       -1.3150    -2.9940     2.0520 H     1 <1>   0.0800 
 24 H        0.4060    -3.1970     2.1690 H     1 <1>   0.0800 
 25 H        1.8480    -2.4560     0.0320 H     1 <1>   0.0800 
 26 H        0.9350    -1.8700    -1.3310 H     1 <1>   0.0800 
 27 H       -3.7850    -1.6180     1.5990 H     1 <1>   0.0800 
 28 H       -2.9080    -2.5230     0.3910 H     1 <1>   0.0800 
 29 H       -1.4230    -4.6950     0.2610 H     1 <1>   0.0800 
 30 H       -0.5710    -5.3640     1.6350 H     1 <1>   0.0800 
 31 H        1.6240    -4.2890    -1.5530 H     1 <1>   0.0800 
 32 H       -0.1060    -4.0600    -1.6550 H     1 <1>   0.0800 
 33 H       -3.3950    -0.7490    -1.2790 H     1 <1>   0.0800 
 34 H       -4.3470     0.0950    -0.0860 H     1 <1>   0.0800 
 35 H       -6.4800    -0.8180     0.6590 H     1 <1>   0.1500 
 36 H       -4.1590    -2.8730    -2.2400 H     1 <1>   0.1500 
 37 H       -6.0740    -4.3060    -2.7630 H     1 <1>   0.1500 
 38 H      -10.0470    -1.0090     1.1920 H     1 <1>   0.0800 
 39 H       -8.8100    -0.1620     0.2700 H     1 <1>   0.0800 
 40 H       -8.4050    -0.9320     1.8160 H     1 <1>   0.0800 
 41 H       -9.9280    -5.4650    -1.3590 H     1 <1>   0.0800 
 42 H      -10.1520    -3.7580    -1.0020 H     1 <1>   0.0800 
 43 H       -9.1420    -4.7610     0.0520 H     1 <1>   0.0800 
@<TRIPOS>BOND
  1   1   2  2   
  2   2   3  am  
  3   2   4  am  
  4   3   5  1   
  5   3   6  1   
  6   4   7  1   
  7   4  22  1   
  8   5   8  1   
  9   5  23  1   
 10   5  24  1   
 11   6   9  1   
 12   6  25  1   
 13   6  26  1   
 14   7  10  1   
 15   7  27  1   
 16   7  28  1   
 17   8  11  1   
 18   8  29  1   
 19   8  30  1   
 20   9  11  1   
 21   9  31  1   
 22   9  32  1   
 23  10  12  1   
 24  10  33  1   
 25  10  34  1   
 26  12  13  ar  
 27  12  14  ar  
 28  13  15  ar  
 29  13  35  1   
 30  14  16  ar  
 31  14  36  1   
 32  15  17  1   
 33  15  18  ar  
 34  16  18  ar  
 35  16  37  1   
 36  17  19  1   
 37  18  20  1   
 38  19  38  1   
 39  19  39  1   
 40  19  40  1   
 41  20  21  1   
 42  21  41  1   
 43  21  42  1   
 44  21  43  1   
@<TRIPOS>SUBSTRUCTURE
  1 ****   7 GROUP 4 **** **** 0

# MOE 2024.06 (io_trps.svl 2023.06)
