@<TRIPOS>MOLECULE
NONAME
38 41 1 0 0 
SMALL
USER_CHARGES


@<TRIPOS>ATOM
  1 O       -0.6140    -1.6770     3.1230 O.2   1 <1>  -0.5700 
  2 C       -0.5980    -2.0660     1.9880 C.2   1 <1>   0.6590 
  3 O       -1.6670    -2.4300     1.3110 O.3   1 <1>  -0.4300 
  4 C        0.6310    -2.1950     1.1250 C.3   1 <1>  -0.0190 
  5 C       -1.3410    -2.7950    -0.0080 C.3   1 <1>   0.2000 
  6 C        1.1530    -3.6580     1.1730 C.3   1 <1>  -0.0190 
  7 C        0.0070    -2.1020    -0.2770 C.3   1 <1>  -0.0800 
  8 C       -0.9600    -4.2900    -0.0410 C.3   1 <1>  -0.1600 
  9 C        2.6710    -3.8170     1.2730 C.2   1 <1>   0.5690 
 10 C        0.5820    -4.2560    -0.1350 C.3   1 <1>  -0.0800 
 11 C        0.7710    -3.1120    -1.1170 C.3   1 <1>  -0.1600 
 12 O        3.0830    -4.8180     1.8010 O.2   1 <1>  -0.5700 
 13 N        3.4920    -2.8440     0.7640 N.am  1 <1>  -0.5470 
 14 C        4.8900    -2.7360     0.6900 C.ar  1 <1>   0.1170 
 15 C        5.4360    -1.4950     0.3920 C.ar  1 <1>  -0.1500 
 16 C        5.7580    -3.8080     0.8820 C.ar  1 <1>  -0.1500 
 17 C        6.8040    -1.3140     0.2880 C.ar  1 <1>   0.0820 
 18 C        7.1280    -3.6390     0.7820 C.ar  1 <1>  -0.1500 
 19 O        7.2300    -0.0600    -0.0090 O.3   1 <1>  -0.3630 
 20 C        7.6570    -2.3950     0.4860 C.ar  1 <1>  -0.1500 
 21 C        8.6040     0.2360    -0.1250 C.3   1 <1>   0.0400 
 22 H        1.3530    -1.4330     1.3500 H     1 <1>   0.0800 
 23 H       -2.1370    -2.5280    -0.6820 H     1 <1>   0.0800 
 24 H        0.7360    -4.1770     2.0200 H     1 <1>   0.0800 
 25 H       -0.0840    -1.1090    -0.6840 H     1 <1>   0.0800 
 26 H       -1.3650    -4.7470    -0.9270 H     1 <1>   0.0800 
 27 H       -1.3150    -4.8260     0.8230 H     1 <1>   0.0800 
 28 H        1.0270    -5.1940    -0.4260 H     1 <1>   0.0800 
 29 H        1.8000    -2.8440    -1.2780 H     1 <1>   0.0800 
 30 H        0.2980    -3.3000    -2.0670 H     1 <1>   0.0800 
 31 H        3.0070    -2.0400     0.3760 H     1 <1>   0.3700 
 32 H        4.7990    -0.6450     0.2390 H     1 <1>   0.1500 
 33 H        5.3730    -4.7850     1.1080 H     1 <1>   0.1500 
 34 H        7.7820    -4.4800     0.9360 H     1 <1>   0.1500 
 35 H        8.7220    -2.2910     0.4140 H     1 <1>   0.1500 
 36 H        8.7020     1.2810    -0.3570 H     1 <1>   0.0800 
 37 H        9.0220    -0.3550    -0.9200 H     1 <1>   0.0800 
 38 H        9.0880     0.0230     0.8110 H     1 <1>   0.0800 
@<TRIPOS>BOND
  1   1   2  2   
  2   2   3  1   
  3   2   4  1   
  4   3   5  1   
  5   4   6  1   
  6   4   7  1   
  7   4  22  1   
  8   5   7  1   
  9   5   8  1   
 10   5  23  1   
 11   6   9  1   
 12   6  10  1   
 13   6  24  1   
 14   7  11  1   
 15   7  25  1   
 16   8  10  1   
 17   8  26  1   
 18   8  27  1   
 19   9  12  2   
 20   9  13  am  
 21  10  11  1   
 22  10  28  1   
 23  11  29  1   
 24  11  30  1   
 25  13  14  1   
 26  13  31  1   
 27  14  15  ar  
 28  14  16  ar  
 29  15  17  ar  
 30  15  32  1   
 31  16  18  ar  
 32  16  33  1   
 33  17  19  1   
 34  17  20  ar  
 35  18  20  ar  
 36  18  34  1   
 37  19  21  1   
 38  20  35  1   
 39  21  36  1   
 40  21  37  1   
 41  21  38  1   
@<TRIPOS>SUBSTRUCTURE
  1 ****  13 GROUP 4 **** **** 0

# MOE 2024.06 (io_trps.svl 2023.06)
