@<TRIPOS>MOLECULE
NONAME
46 47 1 0 0 
SMALL
USER_CHARGES


@<TRIPOS>ATOM
  1 O        0.3320    -0.6760     0.6330 O.3   1 <1>  -0.3630 
  2 C       -0.8990    -1.0560     0.1990 C.ar  1 <1>   0.0830 
  3 C        1.3270    -0.6830    -0.3490 C.3   1 <1>   0.1200 
  4 C       -1.2640    -2.4020     0.2510 C.ar  1 <1>   0.0830 
  5 C       -1.7880    -0.0940    -0.2790 C.ar  1 <1>   0.0830 
  6 C        2.6120    -0.1990     0.3140 C.3   1 <1>  -0.1600 
  7 O       -0.3450    -3.3020     0.7090 O.3   1 <1>  -0.3630 
  8 C       -2.5370    -2.7760    -0.1690 C.ar  1 <1>  -0.1500 
  9 O       -1.3690     1.2050    -0.3260 O.3   1 <1>  -0.3620 
 10 C       -3.0570    -0.4900    -0.6950 C.ar  1 <1>  -0.1500 
 11 C        3.7490    -0.1550    -0.7010 C.3   1 <1>   0.3430 
 12 C       -0.7310    -4.6080     1.0780 C.3   1 <1>   0.0400 
 13 C       -3.4250    -1.8230    -0.6370 C.ar  1 <1>  -0.1500 
 14 C       -2.2900     2.2580    -0.5090 C.3   1 <1>   0.0400 
 15 N        5.0260     0.2190    -0.0320 N.4   1 <1>  -0.9590 
 16 C        5.0430     1.6520     0.3950 C.3   1 <1>   0.3430 
 17 C        6.1910    -0.1040    -0.9060 C.3   1 <1>   0.3430 
 18 C        6.3240     1.9430     1.1800 C.3   1 <1>  -0.1600 
 19 C        7.4940     0.1480    -0.1460 C.3   1 <1>  -0.1600 
 20 C        7.5800     1.5890     0.3730 C.3   1 <1>  -0.1600 
 21 H        1.0170    -0.0250    -1.1430 H     1 <1>   0.0800 
 22 H        1.4240    -1.6900    -0.7200 H     1 <1>   0.0800 
 23 H        2.8570    -0.8780     1.1110 H     1 <1>   0.0800 
 24 H        2.4260     0.7800     0.7160 H     1 <1>   0.0800 
 25 H       -2.8530    -3.8010    -0.1460 H     1 <1>   0.1500 
 26 H       -3.7680     0.2210    -1.0700 H     1 <1>   0.1500 
 27 H        3.5190     0.5500    -1.4830 H     1 <1>   0.0800 
 28 H        3.8500    -1.1320    -1.1470 H     1 <1>   0.0800 
 29 H        0.1180    -5.0940     1.5240 H     1 <1>   0.0800 
 30 H       -1.0370    -5.1450     0.1980 H     1 <1>   0.0800 
 31 H       -1.5320    -4.5460     1.7930 H     1 <1>   0.0800 
 32 H       -4.4080    -2.1200    -0.9600 H     1 <1>   0.1500 
 33 H       -1.7630     3.1870    -0.3890 H     1 <1>   0.0800 
 34 H       -3.0630     2.1780     0.2350 H     1 <1>   0.0800 
 35 H       -2.7000     2.1970    -1.5010 H     1 <1>   0.0800 
 36 H        5.1160    -0.3520     0.8190 H     1 <1>   0.4500 
 37 H        4.1910     1.8680     1.0190 H     1 <1>   0.0800 
 38 H        4.9980     2.2920    -0.4720 H     1 <1>   0.0800 
 39 H        6.1660     0.5130    -1.7900 H     1 <1>   0.0800 
 40 H        6.1490    -1.1380    -1.2110 H     1 <1>   0.0800 
 41 H        6.3110     1.3880     2.1020 H     1 <1>   0.0800 
 42 H        6.3490     2.9880     1.4360 H     1 <1>   0.0800 
 43 H        8.3260    -0.0430    -0.8020 H     1 <1>   0.0800 
 44 H        7.5690    -0.5440     0.6750 H     1 <1>   0.0800 
 45 H        8.4560     1.7050     0.9890 H     1 <1>   0.0800 
 46 H        7.6740     2.2660    -0.4600 H     1 <1>   0.0800 
@<TRIPOS>BOND
  1   1   2  1   
  2   1   3  1   
  3   2   4  ar  
  4   2   5  ar  
  5   3   6  1   
  6   3  21  1   
  7   3  22  1   
  8   4   7  1   
  9   4   8  ar  
 10   5   9  1   
 11   5  10  ar  
 12   6  11  1   
 13   6  23  1   
 14   6  24  1   
 15   7  12  1   
 16   8  13  ar  
 17   8  25  1   
 18   9  14  1   
 19  10  13  ar  
 20  10  26  1   
 21  11  15  1   
 22  11  27  1   
 23  11  28  1   
 24  12  29  1   
 25  12  30  1   
 26  12  31  1   
 27  13  32  1   
 28  14  33  1   
 29  14  34  1   
 30  14  35  1   
 31  15  16  1   
 32  15  17  1   
 33  15  36  1   
 34  16  18  1   
 35  16  37  1   
 36  16  38  1   
 37  17  19  1   
 38  17  39  1   
 39  17  40  1   
 40  18  20  1   
 41  18  41  1   
 42  18  42  1   
 43  19  20  1   
 44  19  43  1   
 45  19  44  1   
 46  20  45  1   
 47  20  46  1   
@<TRIPOS>SUBSTRUCTURE
  1 ****   3 GROUP 4 **** **** 0

# MOE 2024.06 (io_trps.svl 2023.06)
