@<TRIPOS>MOLECULE
NONAME
38 42 1 0 0 
SMALL
USER_CHARGES


@<TRIPOS>ATOM
  1 O       -0.3670    -1.1180    -2.5770 O.2   1 <1>  -0.5700 
  2 C       -0.6870    -1.7490    -1.5970 C.2   1 <1>   0.5690 
  3 N        0.1590    -2.3760    -0.7260 N.am  1 <1>  -0.1200 
  4 C       -2.1310    -1.9920    -1.2160 C.3   1 <1>  -0.0190 
  5 N        1.5960    -2.1240    -0.6650 N.am  1 <1>  -0.4300 
  6 C       -0.5260    -3.0870     0.2190 C.2   1 <1>   0.5690 
  7 C       -2.9000    -0.6920    -0.8690 C.3   1 <1>   0.1530 
  8 C       -2.0190    -2.9190     0.0430 C.3   1 <1>  -0.0190 
  9 C        2.1560    -1.0900     0.0290 C.2   1 <1>   0.5440 
 10 O       -0.0420    -3.8000     1.0660 O.2   1 <1>  -0.5700 
 11 C       -4.2270    -1.1900    -0.2970 C.2   1 <1>  -0.2880 
 12 C       -2.1280    -0.0020     0.2860 C.3   1 <1>  -0.1950 
 13 C       -2.7100    -2.2640     1.2660 C.3   1 <1>   0.1530 
 14 O        1.4250    -0.2950     0.5920 O.2   1 <1>  -0.5700 
 15 C        3.5910    -0.9300     0.0850 C.ar  1 <1>   0.0860 
 16 C       -4.1310    -1.9820     0.7790 C.2   1 <1>  -0.2880 
 17 C       -2.0190    -0.8930     1.4960 C.3   1 <1>  -0.1950 
 18 C       -2.7040     0.4410     1.6020 C.3   1 <1>  -0.2000 
 19 C        4.1500     0.3440     0.1750 C.ar  1 <1>   0.1600 
 20 C        4.4730    -2.0050     0.0540 C.ar  1 <1>  -0.1500 
 21 N        5.4450     0.6220     0.2140 N.ar  1 <1>  -0.6200 
 22 C        5.8240    -1.7370     0.0970 C.ar  1 <1>  -0.1500 
 23 C        6.2540    -0.4230     0.1730 C.ar  1 <1>   0.1600 
 24 H       -2.6250    -2.5070    -2.0190 H     1 <1>   0.0800 
 25 H        2.1840    -2.7490    -1.2170 H     1 <1>   0.3700 
 26 H       -3.0330    -0.0410    -1.7170 H     1 <1>   0.0800 
 27 H       -2.4600    -3.8780    -0.1570 H     1 <1>   0.0800 
 28 H       -5.1270    -0.8660    -0.7910 H     1 <1>   0.1500 
 29 H       -1.2340     0.5030    -0.0440 H     1 <1>   0.1000 
 30 H       -2.6890    -2.8840     2.1460 H     1 <1>   0.0800 
 31 H       -4.9370    -2.4300     1.3340 H     1 <1>   0.1500 
 32 H       -1.0530    -0.9780     1.9670 H     1 <1>   0.1000 
 33 H       -2.2000     1.2280     2.1360 H     1 <1>   0.1000 
 34 H       -3.7710     0.4920     1.7350 H     1 <1>   0.1000 
 35 H        3.4760     1.1840     0.2150 H     1 <1>   0.1500 
 36 H        4.1190    -3.0200     0.0100 H     1 <1>   0.1500 
 37 H        6.5450    -2.5350     0.0760 H     1 <1>   0.1500 
 38 H        7.3120    -0.2220     0.2060 H     1 <1>   0.1500 
@<TRIPOS>BOND
  1   1   2  2   
  2   2   3  am  
  3   2   4  1   
  4   3   5  1   
  5   3   6  am  
  6   4   7  1   
  7   4   8  1   
  8   4  24  1   
  9   5   9  am  
 10   5  25  1   
 11   6   8  1   
 12   6  10  2   
 13   7  11  1   
 14   7  12  1   
 15   7  26  1   
 16   8  13  1   
 17   8  27  1   
 18   9  14  2   
 19   9  15  1   
 20  11  16  2   
 21  11  28  1   
 22  12  17  1   
 23  12  18  1   
 24  12  29  1   
 25  13  16  1   
 26  13  17  1   
 27  13  30  1   
 28  15  19  ar  
 29  15  20  ar  
 30  16  31  1   
 31  17  18  1   
 32  17  32  1   
 33  18  33  1   
 34  18  34  1   
 35  19  21  ar  
 36  19  35  1   
 37  20  22  ar  
 38  20  36  1   
 39  21  23  ar  
 40  22  23  ar  
 41  22  37  1   
 42  23  38  1   
@<TRIPOS>SUBSTRUCTURE
  1 ****   3 GROUP 4 **** **** 0

# MOE 2024.06 (io_trps.svl 2023.06)
