@<TRIPOS>MOLECULE
NONAME
43 45 1 0 0 
SMALL
USER_CHARGES


@<TRIPOS>ATOM
  1 O        1.0930    -0.2250    -1.2000 O.3   1 <1>  -0.3630 
  2 C        1.9760    -0.5780    -0.2630 C.ar  1 <1>   0.0830 
  3 C        0.0770    -1.2290    -1.2020 C.3   1 <1>   0.4000 
  4 C        1.6000    -1.7490     0.3240 C.ar  1 <1>   0.0830 
  5 C        3.1250     0.0870     0.1140 C.ar  1 <1>  -0.1500 
  6 O        0.4590    -2.1870    -0.2160 O.3   1 <1>  -0.3630 
  7 C        2.3530    -2.3240     1.3270 C.ar  1 <1>  -0.1500 
  8 C        3.9080    -0.4780     1.1180 C.ar  1 <1>  -0.1440 
  9 C        3.5170    -1.6750     1.7220 C.ar  1 <1>  -0.1500 
 10 C        5.1880     0.2040     1.5340 C.3   1 <1>   0.4870 
 11 N        6.2200    -0.2590     0.5760 N.4   1 <1>  -0.9060 
 12 C        7.5640     0.3450     0.7210 C.3   1 <1>   0.4230 
 13 C        7.5430     1.8160     0.2880 C.3   1 <1>  -0.1600 
 14 C        8.5500    -0.4450    -0.1410 C.3   1 <1>  -0.1600 
 15 C        8.9480     2.4220     0.3100 C.3   1 <1>   0.3430 
 16 C        9.9460     0.1820    -0.1100 C.3   1 <1>   0.3430 
 17 N        9.8720     1.6120    -0.5360 N.4   1 <1>  -0.9590 
 18 C       11.2250     2.2450    -0.5490 C.3   1 <1>   0.3430 
 19 C       12.0340     1.7090    -1.7240 C.3   1 <1>  -0.2400 
 20 H        0.0330    -1.7010    -2.1680 H     1 <1>   0.0800 
 21 H       -0.8670    -0.7890    -0.9310 H     1 <1>   0.0800 
 22 H        3.3680     1.0130    -0.3750 H     1 <1>   0.1500 
 23 H        2.0310    -3.2460     1.7790 H     1 <1>   0.1500 
 24 H        4.1030    -2.1210     2.5090 H     1 <1>   0.1500 
 25 H        5.4460    -0.0730     2.5440 H     1 <1>   0.0800 
 26 H        5.0610     1.2730     1.4820 H     1 <1>   0.0800 
 27 H        5.8360    -0.1120    -0.3670 H     1 <1>   0.4500 
 28 H        6.2640    -1.2820     0.6800 H     1 <1>   0.4500 
 29 H        7.8770     0.2820     1.7530 H     1 <1>   0.0800 
 30 H        6.9280     2.3900     0.9580 H     1 <1>   0.0800 
 31 H        7.1400     1.9150    -0.7060 H     1 <1>   0.0800 
 32 H        8.2150    -0.4900    -1.1630 H     1 <1>   0.0800 
 33 H        8.6300    -1.4530     0.2300 H     1 <1>   0.0800 
 34 H        9.3180     2.4520     1.3240 H     1 <1>   0.0800 
 35 H        8.9090     3.4360    -0.0590 H     1 <1>   0.0800 
 36 H       10.5980    -0.3680    -0.7710 H     1 <1>   0.0800 
 37 H       10.3550     0.1190     0.8860 H     1 <1>   0.0800 
 38 H        9.5430     1.6500    -1.5130 H     1 <1>   0.4500 
 39 H       11.7440     2.0520     0.3770 H     1 <1>   0.0800 
 40 H       11.1270     3.3140    -0.6610 H     1 <1>   0.0800 
 41 H       12.2530     0.6620    -1.6150 H     1 <1>   0.0800 
 42 H       12.9750     2.2300    -1.7660 H     1 <1>   0.0800 
 43 H       11.5250     1.8810    -2.6560 H     1 <1>   0.0800 
@<TRIPOS>BOND
  1   1   2  1   
  2   1   3  1   
  3   2   4  ar  
  4   2   5  ar  
  5   3   6  1   
  6   3  20  1   
  7   3  21  1   
  8   4   6  1   
  9   4   7  ar  
 10   5   8  ar  
 11   5  22  1   
 12   7   9  ar  
 13   7  23  1   
 14   8   9  ar  
 15   8  10  1   
 16   9  24  1   
 17  10  11  1   
 18  10  25  1   
 19  10  26  1   
 20  11  12  1   
 21  11  27  1   
 22  11  28  1   
 23  12  13  1   
 24  12  14  1   
 25  12  29  1   
 26  13  15  1   
 27  13  30  1   
 28  13  31  1   
 29  14  16  1   
 30  14  32  1   
 31  14  33  1   
 32  15  17  1   
 33  15  34  1   
 34  15  35  1   
 35  16  17  1   
 36  16  36  1   
 37  16  37  1   
 38  17  18  1   
 39  17  38  1   
 40  18  19  1   
 41  18  39  1   
 42  18  40  1   
 43  19  41  1   
 44  19  42  1   
 45  19  43  1   
@<TRIPOS>SUBSTRUCTURE
  1 ****  11 GROUP 4 **** **** 0

# MOE 2024.06 (io_trps.svl 2023.06)
