@<TRIPOS>MOLECULE
NONAME
36 35 1 0 0 
SMALL
USER_CHARGES


@<TRIPOS>ATOM
  1 O       -0.1160     0.6510     1.1710 O.2   1 <1>  -0.5700 
  2 C       -0.2480     1.1100     0.0530 C.2   1 <1>   0.7800 
  3 O       -1.4450     1.4300    -0.4370 O.3   1 <1>  -0.4300 
  4 N        0.7910     1.3260    -0.7750 N.am  1 <1>  -0.7300 
  5 C       -2.6900     1.3250     0.2170 C.3   1 <1>   0.2800 
  6 C        2.2360     1.4060    -0.3920 C.3   1 <1>   0.1140 
  7 C       -2.7140     2.2250     1.4590 C.3   1 <1>  -0.2400 
  8 C       -2.9940    -0.1400     0.5490 C.3   1 <1>  -0.2400 
  9 C       -3.7160     1.8370    -0.7950 C.3   1 <1>  -0.2400 
 10 C        2.9240     2.6110    -1.0740 C.2   1 <1>   0.9060 
 11 C        2.8790     0.0520    -0.7530 C.3   1 <1>  -0.1600 
 12 O        2.4640     3.0150    -2.1560 O.co2 1 <1>  -0.9000 
 13 O        3.8880     3.1640    -0.5280 O.co2 1 <1>  -0.9000 
 14 C        4.3630    -0.0860    -0.3620 C.3   1 <1>  -0.0800 
 15 C        4.9010    -1.4400    -0.8390 C.3   1 <1>  -0.2400 
 16 C        4.5730     0.0460     1.1530 C.3   1 <1>  -0.2400 
 17 H        0.6260     1.8860    -1.6200 H     1 <1>   0.3700 
 18 H        2.2980     1.5640     0.6690 H     1 <1>   0.0800 
 19 H       -2.0520     1.8520     2.2190 H     1 <1>   0.0800 
 20 H       -3.7040     2.2540     1.8740 H     1 <1>   0.0800 
 21 H       -2.4210     3.2260     1.1980 H     1 <1>   0.0800 
 22 H       -2.3320    -0.5100     1.3100 H     1 <1>   0.0800 
 23 H       -2.8950    -0.7490    -0.3310 H     1 <1>   0.0800 
 24 H       -3.9990    -0.2330     0.9180 H     1 <1>   0.0800 
 25 H       -3.4990     2.8560    -1.0590 H     1 <1>   0.0800 
 26 H       -4.7060     1.7960    -0.3790 H     1 <1>   0.0800 
 27 H       -3.6940     1.2330    -1.6830 H     1 <1>   0.0800 
 28 H        2.7920    -0.0760    -1.8180 H     1 <1>   0.0800 
 29 H        2.3170    -0.7290    -0.2740 H     1 <1>   0.0800 
 30 H        4.9280     0.6910    -0.8520 H     1 <1>   0.0800 
 31 H        4.3680    -2.2460    -0.3670 H     1 <1>   0.0800 
 32 H        5.9460    -1.5290    -0.6030 H     1 <1>   0.0800 
 33 H        4.7870    -1.5270    -1.9050 H     1 <1>   0.0800 
 34 H        3.9530    -0.6530     1.6860 H     1 <1>   0.0800 
 35 H        4.3300     1.0440     1.4750 H     1 <1>   0.0800 
 36 H        5.6020    -0.1350     1.4040 H     1 <1>   0.0800 
@<TRIPOS>BOND
  1   1   2  2   
  2   2   3  1   
  3   2   4  am  
  4   3   5  1   
  5   4   6  1   
  6   4  17  1   
  7   5   7  1   
  8   5   8  1   
  9   5   9  1   
 10   6  10  1   
 11   6  11  1   
 12   6  18  1   
 13   7  19  1   
 14   7  20  1   
 15   7  21  1   
 16   8  22  1   
 17   8  23  1   
 18   8  24  1   
 19   9  25  1   
 20   9  26  1   
 21   9  27  1   
 22  10  12  ar  
 23  10  13  ar  
 24  11  14  1   
 25  11  28  1   
 26  11  29  1   
 27  14  15  1   
 28  14  16  1   
 29  14  30  1   
 30  15  31  1   
 31  15  32  1   
 32  15  33  1   
 33  16  34  1   
 34  16  35  1   
 35  16  36  1   
@<TRIPOS>SUBSTRUCTURE
  1 ****   4 GROUP 4 **** **** 0

# MOE 2024.06 (io_trps.svl 2023.06)
