@<TRIPOS>MOLECULE
NONAME
55 57 1 0 0 
SMALL
USER_CHARGES


@<TRIPOS>ATOM
  1 O        1.4420     1.9130    -0.8910 O.2   1 <1>  -0.5700 
  2 C        0.3930     1.8900    -0.3020 C.2   1 <1>   0.5690 
  3 N        0.1360     0.8990     0.5720 N.am  1 <1>  -0.8000 
  4 C       -0.6400     2.9850    -0.5480 C.3   1 <1>  -0.0190 
  5 C       -0.8440     3.8630     0.7040 C.3   1 <1>  -0.1600 
  6 C       -1.9870     2.4120    -1.0350 C.3   1 <1>  -0.1600 
  7 C       -1.8920     4.9510     0.4620 C.3   1 <1>   0.2090 
  8 C       -3.0200     3.5180    -1.2540 C.3   1 <1>   0.2090 
  9 N       -3.1440     4.3170    -0.0130 N.pl3 1 <1>  -0.7880 
 10 C       -4.3380     4.4700     0.6140 C.2   1 <1>   0.5500 
 11 N       -4.9220     5.5670     0.9610 N.2   1 <1>  -0.6610 
 12 N       -4.9480     3.3280     0.9780 N.pl3 1 <1>  -0.5500 
 13 C       -4.6450     6.7770     0.4290 C.2   1 <1>   0.7200 
 14 C       -6.1570     2.9080     0.5230 C.ar  1 <1>   0.7200 
 15 O       -3.6710     7.0980    -0.2190 O.2   1 <1>  -0.5700 
 16 C       -5.6730     7.8590     0.7090 C.3   1 <1>   0.0440 
 17 N       -6.4930     3.1680    -0.7360 N.ar  1 <1>  -0.6200 
 18 N       -6.8790     2.2600     1.4260 N.ar  1 <1>  -0.6200 
 19 C       -6.8500     7.8200    -0.2640 C.ar  1 <1>  -0.1430 
 20 C       -7.6830     2.7720    -1.1070 C.ar  1 <1>   0.1670 
 21 C       -8.0640     1.8630     1.0310 C.ar  1 <1>   0.1670 
 22 C       -7.0400     8.8380    -1.1860 C.ar  1 <1>  -0.1500 
 23 C       -7.7460     6.7610    -0.2320 C.ar  1 <1>  -0.1500 
 24 C       -8.5200     2.1030    -0.2450 C.ar  1 <1>  -0.1500 
 25 C       -8.0940     3.0890    -2.5280 C.3   1 <1>  -0.0970 
 26 C       -8.9150     1.1270     2.0440 C.3   1 <1>  -0.0970 
 27 C       -8.1140     8.8020    -2.0590 C.ar  1 <1>  -0.1500 
 28 C       -8.8200     6.7230    -1.1040 C.ar  1 <1>  -0.1500 
 29 C       -9.0060     7.7450    -2.0180 C.ar  1 <1>  -0.1500 
 30 H        0.8370     0.1720     0.7230 H     1 <1>   0.3700 
 31 H       -0.7350     0.8180     1.0940 H     1 <1>   0.3700 
 32 H       -0.2520     3.6160    -1.3290 H     1 <1>   0.0800 
 33 H        0.0880     4.3260     0.9740 H     1 <1>   0.0800 
 34 H       -1.1650     3.2590     1.5330 H     1 <1>   0.0800 
 35 H       -2.3840     1.7200    -0.3140 H     1 <1>   0.0800 
 36 H       -1.8410     1.8800    -1.9580 H     1 <1>   0.0800 
 37 H       -1.5430     5.6450    -0.2840 H     1 <1>   0.0800 
 38 H       -2.0790     5.4980     1.3710 H     1 <1>   0.0800 
 39 H       -3.9710     3.0910    -1.5230 H     1 <1>   0.0800 
 40 H       -2.7090     4.1670    -2.0550 H     1 <1>   0.0800 
 41 H       -4.8990     3.1500     1.9680 H     1 <1>   0.4000 
 42 H       -6.0410     7.7340     1.7100 H     1 <1>   0.0800 
 43 H       -5.1860     8.8140     0.6600 H     1 <1>   0.0800 
 44 H       -6.3510     9.6640    -1.2320 H     1 <1>   0.1500 
 45 H       -7.6080     5.9540     0.4690 H     1 <1>   0.1500 
 46 H       -9.4940     1.7790    -0.5580 H     1 <1>   0.1500 
 47 H       -9.1000     2.7650    -2.7230 H     1 <1>   0.0800 
 48 H       -7.4290     2.5960    -3.2130 H     1 <1>   0.0800 
 49 H       -8.0310     4.1500    -2.6900 H     1 <1>   0.0800 
 50 H       -9.8560     0.8320     1.6180 H     1 <1>   0.0800 
 51 H       -9.0990     1.7650     2.8890 H     1 <1>   0.0800 
 52 H       -8.3950     0.2490     2.3800 H     1 <1>   0.0800 
 53 H       -8.2530     9.5960    -2.7710 H     1 <1>   0.1500 
 54 H       -9.5070     5.8970    -1.0680 H     1 <1>   0.1500 
 55 H       -9.8400     7.7170    -2.6960 H     1 <1>   0.1500 
@<TRIPOS>BOND
  1   1   2  2   
  2   2   3  am  
  3   2   4  1   
  4   3  30  1   
  5   3  31  1   
  6   4   5  1   
  7   4   6  1   
  8   4  32  1   
  9   5   7  1   
 10   5  33  1   
 11   5  34  1   
 12   6   8  1   
 13   6  35  1   
 14   6  36  1   
 15   7   9  1   
 16   7  37  1   
 17   7  38  1   
 18   8   9  1   
 19   8  39  1   
 20   8  40  1   
 21   9  10  1   
 22  10  11  2   
 23  10  12  1   
 24  11  13  1   
 25  12  14  1   
 26  12  41  1   
 27  13  15  2   
 28  13  16  1   
 29  14  17  ar  
 30  14  18  ar  
 31  16  19  1   
 32  16  42  1   
 33  16  43  1   
 34  17  20  ar  
 35  18  21  ar  
 36  19  22  ar  
 37  19  23  ar  
 38  20  24  ar  
 39  20  25  1   
 40  21  24  ar  
 41  21  26  1   
 42  22  27  ar  
 43  22  44  1   
 44  23  28  ar  
 45  23  45  1   
 46  24  46  1   
 47  25  47  1   
 48  25  48  1   
 49  25  49  1   
 50  26  50  1   
 51  26  51  1   
 52  26  52  1   
 53  27  29  ar  
 54  27  53  1   
 55  28  29  ar  
 56  28  54  1   
 57  29  55  1   
@<TRIPOS>SUBSTRUCTURE
  1 ****  10 GROUP 4 **** **** 0

# MOE 2024.06 (io_trps.svl 2023.06)
