@<TRIPOS>MOLECULE
NONAME
39 39 1 0 0 
SMALL
USER_CHARGES


@<TRIPOS>ATOM
  1 O       -0.8110    -0.6980    -1.4210 O.2   1 <1>  -0.5700 
  2 C       -0.8380    -0.9350    -0.2300 C.2   1 <1>   0.6900 
  3 N        0.2420    -1.4280     0.4130 N.am  1 <1>  -0.7300 
  4 N       -1.9520    -0.7140     0.5030 N.am  1 <1>  -0.7300 
  5 C        1.5320    -1.7410    -0.2200 C.3   1 <1>   0.2200 
  6 C       -3.2240    -0.1880    -0.0300 C.3   1 <1>   0.1400 
  7 C        1.7510    -3.2550    -0.1770 C.3   1 <1>  -0.1600 
  8 C        2.6440    -1.0040     0.5300 C.3   1 <1>  -0.1600 
  9 C       -4.3810    -1.0060     0.5430 C.3   1 <1>  -0.1600 
 10 C        3.1320    -3.6290    -0.7350 C.3   1 <1>  -0.1600 
 11 C        4.0300    -1.3760    -0.0200 C.3   1 <1>  -0.1600 
 12 C       -5.7310    -0.5010     0.0220 C.3   1 <1>  -0.2400 
 13 C        4.2660    -2.8990     0.0080 C.3   1 <1>  -0.0800 
 14 C        5.6220    -3.2880    -0.6100 C.3   1 <1>  -0.1600 
 15 C        6.8270    -2.7500     0.1730 C.3   1 <1>  -0.2400 
 16 H        0.1590    -1.6840     1.3900 H     1 <1>   0.3700 
 17 H       -1.9060    -0.8430     1.5090 H     1 <1>   0.3700 
 18 H        1.5240    -1.4150    -1.2480 H     1 <1>   0.0800 
 19 H       -3.2260    -0.2530    -1.1060 H     1 <1>   0.0800 
 20 H       -3.3230     0.8470     0.2480 H     1 <1>   0.0800 
 21 H        0.9890    -3.7380    -0.7640 H     1 <1>   0.0800 
 22 H        1.6760    -3.6050     0.8370 H     1 <1>   0.0800 
 23 H        2.6040    -1.2560     1.5740 H     1 <1>   0.0800 
 24 H        2.4950     0.0570     0.4270 H     1 <1>   0.0800 
 25 H       -4.3730    -0.9400     1.6170 H     1 <1>   0.0800 
 26 H       -4.2590    -2.0370     0.2580 H     1 <1>   0.0800 
 27 H        3.1670    -3.3750    -1.7810 H     1 <1>   0.0800 
 28 H        3.2680    -4.6930    -0.6510 H     1 <1>   0.0800 
 29 H        4.7750    -0.8740     0.5710 H     1 <1>   0.0800 
 30 H        4.1150    -1.0180    -1.0320 H     1 <1>   0.0800 
 31 H       -5.8860     0.5260     0.3050 H     1 <1>   0.0800 
 32 H       -6.5300    -1.0930     0.4340 H     1 <1>   0.0800 
 33 H       -5.7710    -0.5750    -1.0510 H     1 <1>   0.0800 
 34 H        4.2560    -3.2260     1.0350 H     1 <1>   0.0800 
 35 H        5.6730    -2.9360    -1.6260 H     1 <1>   0.0800 
 36 H        5.6950    -4.3620    -0.6360 H     1 <1>   0.0800 
 37 H        6.8740    -1.6780     0.1200 H     1 <1>   0.0800 
 38 H        7.7370    -3.1450    -0.2440 H     1 <1>   0.0800 
 39 H        6.7690    -3.0480     1.2050 H     1 <1>   0.0800 
@<TRIPOS>BOND
  1   1   2  2   
  2   2   3  am  
  3   2   4  am  
  4   3   5  1   
  5   3  16  1   
  6   4   6  1   
  7   4  17  1   
  8   5   7  1   
  9   5   8  1   
 10   5  18  1   
 11   6   9  1   
 12   6  19  1   
 13   6  20  1   
 14   7  10  1   
 15   7  21  1   
 16   7  22  1   
 17   8  11  1   
 18   8  23  1   
 19   8  24  1   
 20   9  12  1   
 21   9  25  1   
 22   9  26  1   
 23  10  13  1   
 24  10  27  1   
 25  10  28  1   
 26  11  13  1   
 27  11  29  1   
 28  11  30  1   
 29  12  31  1   
 30  12  32  1   
 31  12  33  1   
 32  13  14  1   
 33  13  34  1   
 34  14  15  1   
 35  14  35  1   
 36  14  36  1   
 37  15  37  1   
 38  15  38  1   
 39  15  39  1   
@<TRIPOS>SUBSTRUCTURE
  1 ****   5 GROUP 4 **** **** 0

# MOE 2024.06 (io_trps.svl 2023.06)
