@<TRIPOS>MOLECULE
NONAME
57 59 1 0 0 
SMALL
USER_CHARGES


@<TRIPOS>ATOM
  1 O        0.3690    -1.7650     1.3890 O.2   1 <1>  -0.5700 
  2 C        0.8290    -1.8830     0.2770 C.2   1 <1>   0.5690 
  3 N        1.8870    -1.1480    -0.1690 N.am  1 <1>  -0.7300 
  4 C        0.1880    -2.8970    -0.6900 C.3   1 <1>   0.1710 
  5 C        2.7520    -0.1950     0.5680 C.3   1 <1>   0.3000 
  6 N       -1.2880    -2.7770    -0.9140 N.3   1 <1>  -0.8100 
  7 C        3.7820     0.3660    -0.4700 C.3   1 <1>   0.0630 
  8 C        1.9120     0.9620     1.1790 C.3   1 <1>  -0.1600 
  9 C        3.4230    -0.9800     1.7050 C.3   1 <1>  -0.2400 
 10 C       -1.6870    -1.3900    -1.2380 C.3   1 <1>   0.1100 
 11 C       -2.0530    -3.3140     0.2350 C.3   1 <1>   0.1100 
 12 C        4.8950    -0.6120    -0.8710 C.ar  1 <1>  -0.1430 
 13 C        4.3310     1.7410    -0.0480 C.3   1 <1>  -0.1600 
 14 C        1.8150     2.1980     0.2750 C.3   1 <1>  -0.1600 
 15 C       -3.2060    -1.2800    -1.4790 C.3   1 <1>   0.3430 
 16 C       -3.5730    -3.2150     0.0020 C.3   1 <1>   0.3430 
 17 C        4.7570    -1.3610    -2.0340 C.ar  1 <1>  -0.1500 
 18 C        6.0480    -0.7660    -0.1080 C.ar  1 <1>  -0.1500 
 19 C        3.2090     2.7980     0.0060 C.3   1 <1>  -0.1600 
 20 N       -3.9900    -1.8040    -0.3070 N.4   1 <1>  -0.9590 
 21 C        5.7420    -2.2520    -2.4210 C.ar  1 <1>  -0.1500 
 22 C        7.0380    -1.6550    -0.4910 C.ar  1 <1>  -0.1500 
 23 C       -5.4600    -1.7040    -0.5390 C.3   1 <1>   0.2630 
 24 C        6.8790    -2.3980    -1.6480 C.ar  1 <1>   0.0830 
 25 O        7.8270    -3.2640    -2.0340 O.3   1 <1>  -0.5330 
 26 H        2.3170    -1.4230    -1.0510 H     1 <1>   0.3700 
 27 H        0.4110    -3.8850    -0.3270 H     1 <1>   0.0800 
 28 H        0.6760    -2.8000    -1.6430 H     1 <1>   0.0800 
 29 H        3.2330     0.5680    -1.3730 H     1 <1>   0.0800 
 30 H        2.3770     1.2820     2.0960 H     1 <1>   0.0800 
 31 H        0.9260     0.6300     1.4430 H     1 <1>   0.0800 
 32 H        4.1580    -0.3710     2.1980 H     1 <1>   0.0800 
 33 H        3.9060    -1.8650     1.3320 H     1 <1>   0.0800 
 34 H        2.6970    -1.2730     2.4410 H     1 <1>   0.0800 
 35 H       -1.1690    -1.0710    -2.1260 H     1 <1>   0.0800 
 36 H       -1.4130    -0.7250    -0.4370 H     1 <1>   0.0800 
 37 H       -1.8060    -2.7820     1.1370 H     1 <1>   0.0800 
 38 H       -1.7910    -4.3480     0.3820 H     1 <1>   0.0800 
 39 H        5.0900     2.0630    -0.7400 H     1 <1>   0.0800 
 40 H        4.7850     1.6610     0.9240 H     1 <1>   0.0800 
 41 H        1.1880     2.9420     0.7350 H     1 <1>   0.0800 
 42 H        1.3540     1.9160    -0.6560 H     1 <1>   0.0800 
 43 H       -3.4520    -1.8440    -2.3630 H     1 <1>   0.0800 
 44 H       -3.4610    -0.2480    -1.6600 H     1 <1>   0.0800 
 45 H       -4.0870    -3.5670     0.8810 H     1 <1>   0.0800 
 46 H       -3.8340    -3.8610    -0.8200 H     1 <1>   0.0800 
 47 H        3.8870    -1.2540    -2.6570 H     1 <1>   0.1500 
 48 H        6.1860    -0.1970     0.7930 H     1 <1>   0.1500 
 49 H        3.1750     3.3360    -0.9260 H     1 <1>   0.0800 
 50 H        3.4480     3.5110     0.7780 H     1 <1>   0.0800 
 51 H       -3.7280    -1.2320     0.5090 H     1 <1>   0.4500 
 52 H        5.6390    -2.8330    -3.3200 H     1 <1>   0.1500 
 53 H        7.9210    -1.7630     0.1100 H     1 <1>   0.1500 
 54 H       -5.7460    -2.3010    -1.3900 H     1 <1>   0.0800 
 55 H       -5.7420    -0.6800    -0.7250 H     1 <1>   0.0800 
 56 H       -6.0000    -2.0560     0.3260 H     1 <1>   0.0800 
 57 H        8.5940    -3.2830    -1.4350 H     1 <1>   0.4500 
@<TRIPOS>BOND
  1   1   2  2   
  2   2   3  am  
  3   2   4  1   
  4   3   5  1   
  5   3  26  1   
  6   4   6  1   
  7   4  27  1   
  8   4  28  1   
  9   5   7  1   
 10   5   8  1   
 11   5   9  1   
 12   6  10  1   
 13   6  11  1   
 14   7  12  1   
 15   7  13  1   
 16   7  29  1   
 17   8  14  1   
 18   8  30  1   
 19   8  31  1   
 20   9  32  1   
 21   9  33  1   
 22   9  34  1   
 23  10  15  1   
 24  10  35  1   
 25  10  36  1   
 26  11  16  1   
 27  11  37  1   
 28  11  38  1   
 29  12  17  ar  
 30  12  18  ar  
 31  13  19  1   
 32  13  39  1   
 33  13  40  1   
 34  14  19  1   
 35  14  41  1   
 36  14  42  1   
 37  15  20  1   
 38  15  43  1   
 39  15  44  1   
 40  16  20  1   
 41  16  45  1   
 42  16  46  1   
 43  17  21  ar  
 44  17  47  1   
 45  18  22  ar  
 46  18  48  1   
 47  19  49  1   
 48  19  50  1   
 49  20  23  1   
 50  20  51  1   
 51  21  24  ar  
 52  21  52  1   
 53  22  24  ar  
 54  22  53  1   
 55  23  54  1   
 56  23  55  1   
 57  23  56  1   
 58  24  25  1   
 59  25  57  1   
@<TRIPOS>SUBSTRUCTURE
  1 ****   3 GROUP 4 **** **** 0

# MOE 2024.06 (io_trps.svl 2023.06)
