@<TRIPOS>MOLECULE
NONAME
45 47 1 0 0 
SMALL
USER_CHARGES


@<TRIPOS>ATOM
  1 S       -0.4940     0.4930    -0.2140 S.3   1 <1>  -0.0800 
  2 C        1.1320     0.1600     0.3000 C.2   1 <1>   0.4420 
  3 C       -0.7900    -1.2100    -0.1280 C.2   1 <1>   0.1980 
  4 N        1.3340    -1.0940     0.4820 N.2   1 <1>  -0.3380 
  5 N        2.0620     1.1550     0.4810 N.am  1 <1>  -0.4940 
  6 N        0.2360    -1.8700     0.2340 N.2   1 <1>  -0.3380 
  7 C       -2.1700    -1.7190    -0.4940 C.3   1 <1>   0.3000 
  8 C        2.0110     2.4950     0.2840 C.2   1 <1>   0.7800 
  9 O       -3.1430    -1.1100     0.3300 O.3   1 <1>  -0.3630 
 10 O        1.0510     3.0930    -0.1510 O.2   1 <1>  -0.5700 
 11 O        3.1250     3.1510     0.6010 O.3   1 <1>  -0.4300 
 12 C       -4.4620    -1.3810     0.1750 C.ar  1 <1>   0.0830 
 13 C        3.2170     4.5540     0.4450 C.3   1 <1>   0.0400 
 14 C       -4.9660    -2.3090    -0.7310 C.ar  1 <1>  -0.1500 
 15 C       -5.3400    -0.6750     0.9790 C.ar  1 <1>  -0.1500 
 16 C       -6.3310    -2.5170    -0.8220 C.ar  1 <1>  -0.1500 
 17 C       -6.7040    -0.8870     0.8850 C.ar  1 <1>  -0.1500 
 18 C       -7.2140    -1.8100    -0.0170 C.ar  1 <1>  -0.1430 
 19 C       -8.7170    -2.0570    -0.1350 C.3   1 <1>   0.0630 
 20 C       -9.4580    -0.7860    -0.5820 C.3   1 <1>  -0.1600 
 21 C       -9.2990    -2.5980     1.1820 C.3   1 <1>  -0.1600 
 22 C      -10.9700    -1.0280    -0.6950 C.3   1 <1>  -0.1600 
 23 C      -10.8110    -2.8400     1.0700 C.3   1 <1>  -0.1600 
 24 C      -11.5450    -1.5690     0.6220 C.3   1 <1>  -0.1600 
 25 H        2.9610     0.8330     0.8220 H     1 <1>   0.3700 
 26 H       -2.2170    -2.7830    -0.3440 H     1 <1>   0.0800 
 27 H       -2.3910    -1.4760    -1.5180 H     1 <1>   0.0800 
 28 H        4.1970     4.8690     0.7580 H     1 <1>   0.0800 
 29 H        2.4640     5.0230     1.0540 H     1 <1>   0.0800 
 30 H        3.0620     4.8010    -0.5920 H     1 <1>   0.0800 
 31 H       -4.3230    -2.8810    -1.3720 H     1 <1>   0.1500 
 32 H       -4.9500     0.0420     1.6790 H     1 <1>   0.1500 
 33 H       -6.7070    -3.2390    -1.5260 H     1 <1>   0.1500 
 34 H       -7.3660    -0.3260     1.5210 H     1 <1>   0.1500 
 35 H       -8.8810    -2.8070    -0.8900 H     1 <1>   0.0800 
 36 H       -9.0720    -0.4650    -1.5340 H     1 <1>   0.0800 
 37 H       -9.2830     0.0050     0.1260 H     1 <1>   0.0800 
 38 H       -9.1160    -1.8950     1.9750 H     1 <1>   0.0800 
 39 H       -8.8040    -3.5180     1.4390 H     1 <1>   0.0800 
 40 H      -11.1610    -1.7350    -1.4840 H     1 <1>   0.0800 
 41 H      -11.4640    -0.1060    -0.9520 H     1 <1>   0.0800 
 42 H      -11.1950    -3.1610     2.0230 H     1 <1>   0.0800 
 43 H      -10.9950    -3.6270     0.3590 H     1 <1>   0.0800 
 44 H      -12.5920    -1.7820     0.4970 H     1 <1>   0.0800 
 45 H      -11.4500    -0.8160     1.3860 H     1 <1>   0.0800 
@<TRIPOS>BOND
  1   1   2  1   
  2   1   3  1   
  3   2   4  2   
  4   2   5  1   
  5   3   6  2   
  6   3   7  1   
  7   4   6  1   
  8   5   8  am  
  9   5  25  1   
 10   7   9  1   
 11   7  26  1   
 12   7  27  1   
 13   8  10  2   
 14   8  11  1   
 15   9  12  1   
 16  11  13  1   
 17  12  14  ar  
 18  12  15  ar  
 19  13  28  1   
 20  13  29  1   
 21  13  30  1   
 22  14  16  ar  
 23  14  31  1   
 24  15  17  ar  
 25  15  32  1   
 26  16  18  ar  
 27  16  33  1   
 28  17  18  ar  
 29  17  34  1   
 30  18  19  1   
 31  19  20  1   
 32  19  21  1   
 33  19  35  1   
 34  20  22  1   
 35  20  36  1   
 36  20  37  1   
 37  21  23  1   
 38  21  38  1   
 39  21  39  1   
 40  22  24  1   
 41  22  40  1   
 42  22  41  1   
 43  23  24  1   
 44  23  42  1   
 45  23  43  1   
 46  24  44  1   
 47  24  45  1   
@<TRIPOS>SUBSTRUCTURE
  1 ****   9 GROUP 4 **** **** 0

# MOE 2024.06 (io_trps.svl 2023.06)
