@<TRIPOS>MOLECULE
NONAME
33 36 1 0 0 
SMALL
USER_CHARGES


@<TRIPOS>ATOM
  1 O        0.0280     1.0390    -1.8470 O.2   1 <1>  -0.5700 
  2 C        0.5690     1.8870    -1.1700 C.2   1 <1>   0.5690 
  3 N        1.9180     2.0000    -1.0430 N.am  1 <1>  -0.5470 
  4 C       -0.1160     2.9930    -0.3160 C.3   1 <1>   0.7650 
  5 C        2.2480     3.0490    -0.1950 C.ar  1 <1>   0.1170 
  6 O       -0.9570     2.4970     0.7070 O.3   1 <1>  -0.5600 
  7 O       -0.8920     3.9030    -1.0750 O.3   1 <1>  -0.5600 
  8 C        1.1090     3.6800     0.2750 C.ar  1 <1>  -0.1440 
  9 C        3.5060     3.4820     0.1910 C.ar  1 <1>  -0.1500 
 10 C       -2.2250     2.6540     0.2190 C.3   1 <1>   0.2000 
 11 C       -2.1090     3.9950    -0.4450 C.3   1 <1>   0.2000 
 12 C        1.2050     4.7540     1.1420 C.ar  1 <1>  -0.1500 
 13 C        3.6060     4.5580     1.0580 C.ar  1 <1>  -0.1500 
 14 C       -3.3510     2.6780     1.2460 C.3   1 <1>  -0.1600 
 15 C       -3.3180     4.2410    -1.3380 C.3   1 <1>  -0.1600 
 16 C        2.4630     5.1910     1.5310 C.ar  1 <1>  -0.1500 
 17 C       -4.6640     2.9840     0.4870 C.3   1 <1>  -0.1600 
 18 C       -4.5740     4.2280    -0.4350 C.3   1 <1>  -0.1600 
 19 H        2.5650     1.3710    -1.5170 H     1 <1>   0.3700 
 20 H        4.3860     2.9880    -0.1780 H     1 <1>   0.1500 
 21 H       -2.4050     1.8790    -0.5110 H     1 <1>   0.0800 
 22 H       -2.0340     4.7730     0.2970 H     1 <1>   0.0800 
 23 H        0.3170     5.2400     1.5070 H     1 <1>   0.1500 
 24 H        4.5760     4.9080     1.3680 H     1 <1>   0.1500 
 25 H       -3.1630     3.4390     1.9830 H     1 <1>   0.0800 
 26 H       -3.4210     1.7230     1.7340 H     1 <1>   0.0800 
 27 H       -3.3890     3.4670    -2.0830 H     1 <1>   0.0800 
 28 H       -3.2240     5.1940    -1.8280 H     1 <1>   0.0800 
 29 H        2.5540     6.0250     2.2050 H     1 <1>   0.1500 
 30 H       -5.4640     3.1190     1.1940 H     1 <1>   0.0800 
 31 H       -4.9140     2.1300    -0.1200 H     1 <1>   0.0800 
 32 H       -5.4570     4.2840    -1.0490 H     1 <1>   0.0800 
 33 H       -4.5590     5.1090     0.1840 H     1 <1>   0.0800 
@<TRIPOS>BOND
  1   1   2  2   
  2   2   3  am  
  3   2   4  1   
  4   3   5  1   
  5   3  19  1   
  6   4   6  1   
  7   4   7  1   
  8   4   8  1   
  9   5   8  ar  
 10   5   9  ar  
 11   6  10  1   
 12   7  11  1   
 13   8  12  ar  
 14   9  13  ar  
 15   9  20  1   
 16  10  11  1   
 17  10  14  1   
 18  10  21  1   
 19  11  15  1   
 20  11  22  1   
 21  12  16  ar  
 22  12  23  1   
 23  13  16  ar  
 24  13  24  1   
 25  14  17  1   
 26  14  25  1   
 27  14  26  1   
 28  15  18  1   
 29  15  27  1   
 30  15  28  1   
 31  16  29  1   
 32  17  18  1   
 33  17  30  1   
 34  17  31  1   
 35  18  32  1   
 36  18  33  1   
@<TRIPOS>SUBSTRUCTURE
  1 ****   4 GROUP 4 **** **** 0

# MOE 2024.06 (io_trps.svl 2023.06)
