@<TRIPOS>MOLECULE
NONAME
50 54 1 0 0 
SMALL
USER_CHARGES


@<TRIPOS>ATOM
  1 O        0.8130     1.0190    -0.5290 O.2   1 <1>  -0.5700 
  2 C        1.2650    -0.0690    -0.3050 C.2   1 <1>   0.4480 
  3 C        2.6230    -0.3020     0.3560 C.3   1 <1>   0.0610 
  4 C        0.5470    -1.3740    -0.6480 C.3   1 <1>   0.0610 
  5 C        2.3470    -1.1310     1.6250 C.3   1 <1>   0.1100 
  6 C        3.4470    -1.1400    -0.6410 C.3   1 <1>   0.1100 
  7 C        3.3630     1.0040     0.7090 C.3   1 <1>  -0.2400 
  8 C        0.3920    -2.1480     0.6770 C.3   1 <1>   0.1100 
  9 C        1.4900    -2.1580    -1.5840 C.3   1 <1>   0.1100 
 10 C       -0.8260    -1.1610    -1.3150 C.3   1 <1>  -0.2400 
 11 N        1.7250    -2.4230     1.2690 N.3   1 <1>  -0.8100 
 12 N        2.7790    -2.4330    -0.9010 N.3   1 <1>  -0.8100 
 13 C        2.5650    -3.2680     0.3400 C.3   1 <1>   0.7440 
 14 C        1.9490    -4.6970     0.0470 C.2   1 <1>   0.5690 
 15 C        3.8990    -3.7340     0.9890 C.ar  1 <1>  -0.1440 
 16 O        0.8700    -4.9180    -0.4760 O.2   1 <1>  -0.5700 
 17 N        2.7960    -5.6910     0.4620 N.am  1 <1>  -0.4770 
 18 C        3.9420    -5.1240     1.0160 C.ar  1 <1>   0.1170 
 19 C        4.9850    -3.0320     1.5130 C.ar  1 <1>  -0.1500 
 20 C        2.5400    -7.1530     0.3440 C.3   1 <1>   0.2200 
 21 C        5.0360    -5.7980     1.5500 C.ar  1 <1>  -0.1500 
 22 C        6.0730    -3.7030     2.0450 C.ar  1 <1>  -0.1500 
 23 C        2.4160    -7.5630    -1.1240 C.3   1 <1>  -0.2400 
 24 C        1.3080    -7.5530     1.1580 C.3   1 <1>  -0.2400 
 25 C        6.1000    -5.0850     2.0640 C.ar  1 <1>  -0.1500 
 26 H        3.2350    -1.2900     2.1990 H     1 <1>   0.0800 
 27 H        1.6740    -0.5830     2.2640 H     1 <1>   0.0800 
 28 H        4.4470    -1.3000    -0.2980 H     1 <1>   0.0800 
 29 H        3.5350    -0.6000    -1.5690 H     1 <1>   0.0800 
 30 H        2.7710     1.5940     1.3870 H     1 <1>   0.0800 
 31 H        3.5320     1.5870    -0.1800 H     1 <1>   0.0800 
 32 H        4.3110     0.7940     1.1700 H     1 <1>   0.0800 
 33 H       -0.1510    -3.0610     0.5210 H     1 <1>   0.0800 
 34 H       -0.1890    -1.5620     1.3690 H     1 <1>   0.0800 
 35 H        1.0280    -3.0720    -1.9080 H     1 <1>   0.0800 
 36 H        1.6750    -1.5780    -2.4720 H     1 <1>   0.0800 
 37 H       -0.7130    -0.6090    -2.2310 H     1 <1>   0.0800 
 38 H       -1.4740    -0.6020    -0.6630 H     1 <1>   0.0800 
 39 H       -1.2890    -2.1070    -1.5360 H     1 <1>   0.0800 
 40 H        5.0250    -1.9640     1.5290 H     1 <1>   0.1500 
 41 H        3.3750    -7.6890     0.7520 H     1 <1>   0.0800 
 42 H        5.0740    -6.8690     1.5730 H     1 <1>   0.1500 
 43 H        6.9040    -3.1470     2.4450 H     1 <1>   0.1500 
 44 H        1.5410    -7.1290    -1.5740 H     1 <1>   0.0800 
 45 H        2.3360    -8.6320    -1.1990 H     1 <1>   0.0800 
 46 H        3.2870    -7.2470    -1.6690 H     1 <1>   0.0800 
 47 H        0.4150    -7.1190     0.7460 H     1 <1>   0.0800 
 48 H        1.4200    -7.2310     2.1780 H     1 <1>   0.0800 
 49 H        1.1970    -8.6220     1.1490 H     1 <1>   0.0800 
 50 H        6.9490    -5.6020     2.4780 H     1 <1>   0.1500 
@<TRIPOS>BOND
  1   1   2  2   
  2   2   3  1   
  3   2   4  1   
  4   3   5  1   
  5   3   6  1   
  6   3   7  1   
  7   4   8  1   
  8   4   9  1   
  9   4  10  1   
 10   5  11  1   
 11   5  26  1   
 12   5  27  1   
 13   6  12  1   
 14   6  28  1   
 15   6  29  1   
 16   7  30  1   
 17   7  31  1   
 18   7  32  1   
 19   8  11  1   
 20   8  33  1   
 21   8  34  1   
 22   9  12  1   
 23   9  35  1   
 24   9  36  1   
 25  10  37  1   
 26  10  38  1   
 27  10  39  1   
 28  11  13  1   
 29  12  13  1   
 30  13  14  1   
 31  13  15  1   
 32  14  16  2   
 33  14  17  am  
 34  15  18  ar  
 35  15  19  ar  
 36  17  18  1   
 37  17  20  1   
 38  18  21  ar  
 39  19  22  ar  
 40  19  40  1   
 41  20  23  1   
 42  20  24  1   
 43  20  41  1   
 44  21  25  ar  
 45  21  42  1   
 46  22  25  ar  
 47  22  43  1   
 48  23  44  1   
 49  23  45  1   
 50  23  46  1   
 51  24  47  1   
 52  24  48  1   
 53  24  49  1   
 54  25  50  1   
@<TRIPOS>SUBSTRUCTURE
  1 ****  13 GROUP 4 **** **** 0

# MOE 2024.06 (io_trps.svl 2023.06)
