@<TRIPOS>MOLECULE
NONAME
44 45 1 0 0 
SMALL
USER_CHARGES


@<TRIPOS>ATOM
  1 O        1.9510    -1.9560     1.3720 O.2   1 <1>  -0.5700 
  2 C        1.8550    -1.3270     0.3510 C.2   1 <1>   0.5690 
  3 N        0.7700    -1.4670    -0.4300 N.am  1 <1>  -0.8000 
  4 C        2.9780    -0.3840    -0.0540 C.3   1 <1>  -0.0190 
  5 C        4.1180    -0.4990     0.9670 C.3   1 <1>   0.3430 
  6 C        2.4990     1.0810    -0.1720 C.3   1 <1>  -0.1600 
  7 N        5.3140     0.3530     0.6140 N.4   1 <1>  -0.9590 
  8 C        3.6430     2.0970     0.0150 C.3   1 <1>  -0.1600 
  9 C        5.0130     1.4980    -0.3090 C.3   1 <1>   0.3430 
 10 C        6.4230    -0.5010     0.1010 C.3   1 <1>   0.3430 
 11 C        7.7460     0.2640     0.1290 C.3   1 <1>  -0.1600 
 12 C        8.9380    -0.6370    -0.2310 C.3   1 <1>   0.0630 
 13 C       10.2340     0.1380    -0.0150 C.ar  1 <1>  -0.1440 
 14 C        8.8550    -1.1770    -1.6670 C.3   1 <1>  -0.2400 
 15 C       10.5750     1.2180    -0.8190 C.ar  1 <1>  -0.1500 
 16 C       11.0930    -0.2310     1.0110 C.ar  1 <1>  -0.1500 
 17 C       11.7490     1.9170    -0.5990 C.ar  1 <1>  -0.1500 
 18 C       12.2680     0.4670     1.2320 C.ar  1 <1>  -0.1500 
 19 C       12.5960     1.5430     0.4280 C.ar  1 <1>  -0.1500 
 20 H        0.0270    -2.1060    -0.1350 H     1 <1>   0.3700 
 21 H        0.5980    -0.9660    -1.3020 H     1 <1>   0.3700 
 22 H        3.3470    -0.7220    -1.0050 H     1 <1>   0.0800 
 23 H        4.4090    -1.5330     1.0630 H     1 <1>   0.0800 
 24 H        3.7320    -0.1880     1.9250 H     1 <1>   0.0800 
 25 H        1.7410     1.2810     0.5680 H     1 <1>   0.0800 
 26 H        2.0440     1.2200    -1.1390 H     1 <1>   0.0800 
 27 H        5.6410     0.7610     1.5020 H     1 <1>   0.4500 
 28 H        3.6530     2.4560     1.0300 H     1 <1>   0.0800 
 29 H        3.4680     2.9500    -0.6190 H     1 <1>   0.0800 
 30 H        5.0070     1.1500    -1.3290 H     1 <1>   0.0800 
 31 H        5.7750     2.2560    -0.2170 H     1 <1>   0.0800 
 32 H        6.2050    -0.8260    -0.9040 H     1 <1>   0.0800 
 33 H        6.5190    -1.3770     0.7230 H     1 <1>   0.0800 
 34 H        7.9120     0.6510     1.1190 H     1 <1>   0.0800 
 35 H        7.7160     1.0880    -0.5600 H     1 <1>   0.0800 
 36 H        8.9410    -1.4840     0.4340 H     1 <1>   0.0800 
 37 H        8.7530    -0.3780    -2.3790 H     1 <1>   0.0800 
 38 H        8.0300    -1.8550    -1.7830 H     1 <1>   0.0800 
 39 H        9.7590    -1.7150    -1.8980 H     1 <1>   0.0800 
 40 H        9.9350     1.5280    -1.6250 H     1 <1>   0.1500 
 41 H       10.8600    -1.0650     1.6490 H     1 <1>   0.1500 
 42 H       12.0060     2.7520    -1.2270 H     1 <1>   0.1500 
 43 H       12.9280     0.1730     2.0300 H     1 <1>   0.1500 
 44 H       13.5100     2.0850     0.6000 H     1 <1>   0.1500 
@<TRIPOS>BOND
  1   1   2  2   
  2   2   3  am  
  3   2   4  1   
  4   3  20  1   
  5   3  21  1   
  6   4   5  1   
  7   4   6  1   
  8   4  22  1   
  9   5   7  1   
 10   5  23  1   
 11   5  24  1   
 12   6   8  1   
 13   6  25  1   
 14   6  26  1   
 15   7   9  1   
 16   7  10  1   
 17   7  27  1   
 18   8   9  1   
 19   8  28  1   
 20   8  29  1   
 21   9  30  1   
 22   9  31  1   
 23  10  11  1   
 24  10  32  1   
 25  10  33  1   
 26  11  12  1   
 27  11  34  1   
 28  11  35  1   
 29  12  13  1   
 30  12  14  1   
 31  12  36  1   
 32  13  15  ar  
 33  13  16  ar  
 34  14  37  1   
 35  14  38  1   
 36  14  39  1   
 37  15  17  ar  
 38  15  40  1   
 39  16  18  ar  
 40  16  41  1   
 41  17  19  ar  
 42  17  42  1   
 43  18  19  ar  
 44  18  43  1   
 45  19  44  1   
@<TRIPOS>SUBSTRUCTURE
  1 ****  10 GROUP 4 **** **** 0

# MOE 2024.06 (io_trps.svl 2023.06)
