@<TRIPOS>MOLECULE
NONAME
43 45 1 0 0 
SMALL
USER_CHARGES


@<TRIPOS>ATOM
  1 CL       0.4770    -0.7310     2.4420 Cl    1 <1>  -0.1770 
  2 C        2.0500    -0.4700     1.7340 C.ar  1 <1>   0.1770 
  3 C        3.1750    -0.5390     2.5320 C.ar  1 <1>  -0.1500 
  4 C        2.1490    -0.2000     0.3830 C.ar  1 <1>  -0.1500 
  5 C        4.4200    -0.3280     1.9660 C.ar  1 <1>  -0.1500 
  6 C        3.3980     0.0090    -0.1770 C.ar  1 <1>  -0.1500 
  7 C        4.5450    -0.0420     0.6090 C.ar  1 <1>  -0.1430 
  8 C        5.9130     0.1950    -0.0450 C.3   1 <1>   0.3440 
  9 O        6.8660    -0.6040     0.6180 O.3   1 <1>  -0.4300 
 10 C        6.4120     1.6630    -0.0880 C.3   1 <1>   0.0610 
 11 C        8.1770    -0.4580     0.4830 C.2   1 <1>   0.6590 
 12 C        7.6840     1.5510    -0.9550 C.2   1 <1>   0.4480 
 13 C        6.7280     2.2250     1.3380 C.3   1 <1>  -0.1600 
 14 C        5.3400     2.5790    -0.7470 C.3   1 <1>  -0.1600 
 15 O        8.9090    -1.0690     1.2140 O.2   1 <1>  -0.5700 
 16 C        8.7270     0.4790    -0.6040 C.3   1 <1>   0.1220 
 17 O        7.8470     2.2240    -1.9320 O.2   1 <1>  -0.5700 
 18 C        6.5510     3.7460     1.5080 C.3   1 <1>  -0.1600 
 19 C        5.7520     4.0610    -0.8670 C.3   1 <1>  -0.1600 
 20 C        9.0550    -0.3700    -1.8560 C.3   1 <1>  -0.2400 
 21 C       10.0350     1.1700    -0.1470 C.3   1 <1>  -0.2400 
 22 C        6.7690     4.5010     0.1970 C.3   1 <1>  -0.1600 
 23 H        3.0740    -0.7570     3.5800 H     1 <1>   0.1500 
 24 H        1.2580    -0.1570    -0.2180 H     1 <1>   0.1500 
 25 H        5.2940    -0.3950     2.5930 H     1 <1>   0.1500 
 26 H        3.4660     0.2150    -1.2310 H     1 <1>   0.1500 
 27 H        5.8550    -0.1780    -1.0540 H     1 <1>   0.0800 
 28 H        7.7330     1.9720     1.6230 H     1 <1>   0.0800 
 29 H        6.0880     1.7620     2.0660 H     1 <1>   0.0800 
 30 H        4.4480     2.5490    -0.1450 H     1 <1>   0.0800 
 31 H        5.0810     2.2100    -1.7250 H     1 <1>   0.0800 
 32 H        7.2330     4.1090     2.2590 H     1 <1>   0.0800 
 33 H        5.5520     3.9490     1.8560 H     1 <1>   0.0800 
 34 H        4.8680     4.6700    -0.7890 H     1 <1>   0.0800 
 35 H        6.1760     4.2450    -1.8400 H     1 <1>   0.0800 
 36 H        9.4670     0.2480    -2.6360 H     1 <1>   0.0800 
 37 H        9.7730    -1.1340    -1.6140 H     1 <1>   0.0800 
 38 H        8.1670    -0.8450    -2.2350 H     1 <1>   0.0800 
 39 H       10.7960     0.4390     0.0650 H     1 <1>   0.0800 
 40 H       10.4010     1.8270    -0.9170 H     1 <1>   0.0800 
 41 H        9.8710     1.7510     0.7420 H     1 <1>   0.0800 
 42 H        7.7680     4.3130    -0.1570 H     1 <1>   0.0800 
 43 H        6.6800     5.5610     0.3620 H     1 <1>   0.0800 
@<TRIPOS>BOND
  1   1   2  1   
  2   2   3  ar  
  3   2   4  ar  
  4   3   5  ar  
  5   3  23  1   
  6   4   6  ar  
  7   4  24  1   
  8   5   7  ar  
  9   5  25  1   
 10   6   7  ar  
 11   6  26  1   
 12   7   8  1   
 13   8   9  1   
 14   8  10  1   
 15   8  27  1   
 16   9  11  1   
 17  10  12  1   
 18  10  13  1   
 19  10  14  1   
 20  11  15  2   
 21  11  16  1   
 22  12  16  1   
 23  12  17  2   
 24  13  18  1   
 25  13  28  1   
 26  13  29  1   
 27  14  19  1   
 28  14  30  1   
 29  14  31  1   
 30  16  20  1   
 31  16  21  1   
 32  18  22  1   
 33  18  32  1   
 34  18  33  1   
 35  19  22  1   
 36  19  34  1   
 37  19  35  1   
 38  20  36  1   
 39  20  37  1   
 40  20  38  1   
 41  21  39  1   
 42  21  40  1   
 43  21  41  1   
 44  22  42  1   
 45  22  43  1   
@<TRIPOS>SUBSTRUCTURE
  1 ****   8 GROUP 4 **** **** 0

# MOE 2024.06 (io_trps.svl 2023.06)
