@<TRIPOS>MOLECULE
NONAME
32 32 1 0 0 
SMALL
USER_CHARGES


@<TRIPOS>ATOM
  1 O        0.1370     0.6270     1.0020 O.2   1 <1>  -0.5700 
  2 C       -0.1790     1.6630     0.4500 C.2   1 <1>   0.6340 
  3 O        0.7740     2.3830    -0.1520 O.3   1 <1>  -0.4300 
  4 C       -1.5390     2.1610     0.4080 C.ar  1 <1>   0.0860 
  5 C        2.1210     1.9680    -0.1570 C.3   1 <1>   0.1200 
  6 C       -1.8780     3.3560    -0.2340 C.ar  1 <1>  -0.1500 
  7 C       -2.5850     1.4610     1.0160 C.ar  1 <1>  -0.1500 
  8 C        2.9340     3.0080    -0.9210 C.3   1 <1>  -0.2400 
  9 C       -3.1790     3.8190    -0.2660 C.ar  1 <1>  -0.1500 
 10 C       -3.8870     1.9230     0.9850 C.ar  1 <1>  -0.1500 
 11 C       -4.2100     3.1140     0.3420 C.ar  1 <1>   0.1170 
 12 N       -5.5060     3.6350     0.2760 N.am  1 <1>  -0.5470 
 13 C       -6.7180     3.2120     0.7510 C.2   1 <1>   0.5690 
 14 O       -6.8880     2.1970     1.3820 O.2   1 <1>  -0.5700 
 15 C       -7.9260     4.0970     0.4530 C.3   1 <1>   0.1810 
 16 O       -7.5600     5.2390    -0.2900 O.3   1 <1>  -0.5600 
 17 C       -8.6290     6.0800    -0.5870 C.3   1 <1>   0.0400 
 18 H        2.1790     1.0030    -0.6340 H     1 <1>   0.0800 
 19 H        2.4570     1.8870     0.8630 H     1 <1>   0.0800 
 20 H       -1.1070     3.9310    -0.7170 H     1 <1>   0.1500 
 21 H       -2.3680     0.5360     1.5220 H     1 <1>   0.1500 
 22 H        2.5800     3.0840    -1.9340 H     1 <1>   0.0800 
 23 H        3.9680     2.7160    -0.9410 H     1 <1>   0.0800 
 24 H        2.8580     3.9650    -0.4390 H     1 <1>   0.0800 
 25 H       -3.3980     4.7430    -0.7700 H     1 <1>   0.1500 
 26 H       -4.6530     1.3460     1.4680 H     1 <1>   0.1500 
 27 H       -5.6070     4.5210    -0.2290 H     1 <1>   0.3700 
 28 H       -8.3660     4.4140     1.3810 H     1 <1>   0.0800 
 29 H       -8.6440     3.5310    -0.1130 H     1 <1>   0.0800 
 30 H       -8.2530     6.9160    -1.1510 H     1 <1>   0.0800 
 31 H       -9.0720     6.4320     0.3290 H     1 <1>   0.0800 
 32 H       -9.3520     5.5430    -1.1770 H     1 <1>   0.0800 
@<TRIPOS>BOND
  1   1   2  2   
  2   2   3  1   
  3   2   4  1   
  4   3   5  1   
  5   4   6  ar  
  6   4   7  ar  
  7   5   8  1   
  8   5  18  1   
  9   5  19  1   
 10   6   9  ar  
 11   6  20  1   
 12   7  10  ar  
 13   7  21  1   
 14   8  22  1   
 15   8  23  1   
 16   8  24  1   
 17   9  11  ar  
 18   9  25  1   
 19  10  11  ar  
 20  10  26  1   
 21  11  12  1   
 22  12  13  am  
 23  12  27  1   
 24  13  14  2   
 25  13  15  1   
 26  15  16  1   
 27  15  28  1   
 28  15  29  1   
 29  16  17  1   
 30  17  30  1   
 31  17  31  1   
 32  17  32  1   
@<TRIPOS>SUBSTRUCTURE
  1 ****  11 GROUP 4 **** **** 0

# MOE 2024.06 (io_trps.svl 2023.06)
