@<TRIPOS>MOLECULE
NONAME
45 47 1 0 0 
SMALL
USER_CHARGES


@<TRIPOS>ATOM
  1 S        0.0700    -0.6000     0.2130 S.3   1 <1>  -0.3710 
  2 C       -1.2630     0.5310     0.5970 C.2   1 <1>   0.6510 
  3 C        1.4100     0.5750    -0.3270 C.3   1 <1>   0.1310 
  4 N       -1.0030     1.7740     0.4370 N.2   1 <1>  -0.6210 
  5 N       -2.4560    -0.0190     1.0320 N.am  1 <1>  -0.2370 
  6 C        2.7340    -0.0860    -0.7010 C.2   1 <1>   0.5690 
  7 C       -1.9870     2.6710     0.7260 C.2   1 <1>   0.0210 
  8 C       -3.4640     0.8890     1.3460 C.2   1 <1>   0.6160 
  9 C       -2.6760    -1.4100     1.0980 C.ar  1 <1>   0.1170 
 10 O        2.7830    -1.2880    -0.8440 O.2   1 <1>  -0.5700 
 11 N        3.8530     0.6980    -0.8820 N.am  1 <1>  -0.6600 
 12 O       -1.7250     3.8610     0.5600 O.3   1 <1>  -0.8500 
 13 C       -3.2150     2.2390     1.1830 C.2   1 <1>  -0.1360 
 14 O       -4.5600     0.4650     1.7600 O.2   1 <1>  -0.5700 
 15 C       -3.1310    -2.1320    -0.0080 C.ar  1 <1>  -0.1430 
 16 C       -2.4370    -2.0810     2.2930 C.ar  1 <1>  -0.1500 
 17 C        3.8690     2.1890    -0.8160 C.3   1 <1>   0.1400 
 18 C        5.1890     0.0940    -1.1410 C.3   1 <1>   0.1400 
 19 C       -3.3310    -3.4990     0.1000 C.ar  1 <1>  -0.1500 
 20 C       -3.4100    -1.4340    -1.3330 C.3   1 <1>  -0.0970 
 21 C       -2.6400    -3.4450     2.3930 C.ar  1 <1>  -0.1500 
 22 C        4.8240     2.6380     0.2940 C.3   1 <1>  -0.1600 
 23 C        6.1680     0.5270    -0.0430 C.3   1 <1>  -0.1600 
 24 C       -3.0870    -4.1560     1.2940 C.ar  1 <1>  -0.1500 
 25 C        6.2310     2.0550     0.0960 C.3   1 <1>  -0.1600 
 26 H        1.5580     1.2470     0.4970 H     1 <1>   0.0800 
 27 H        1.0210     1.1170    -1.1680 H     1 <1>   0.0800 
 28 H       -3.9700     2.9610     1.4100 H     1 <1>   0.1500 
 29 H       -2.0910    -1.5240     3.1440 H     1 <1>   0.1500 
 30 H        2.8890     2.5940    -0.6330 H     1 <1>   0.0800 
 31 H        4.2090     2.5740    -1.7620 H     1 <1>   0.0800 
 32 H        5.5420     0.4270    -2.1020 H     1 <1>   0.0800 
 33 H        5.1260    -0.9800    -1.1630 H     1 <1>   0.0800 
 34 H       -3.6790    -4.0640    -0.7470 H     1 <1>   0.1500 
 35 H       -4.1460    -0.6620    -1.1930 H     1 <1>   0.0800 
 36 H       -3.7800    -2.1270    -2.0660 H     1 <1>   0.0800 
 37 H       -2.5070    -0.9890    -1.7110 H     1 <1>   0.0800 
 38 H       -2.4490    -3.9500     3.3230 H     1 <1>   0.1500 
 39 H        4.4270     2.3210     1.2430 H     1 <1>   0.0800 
 40 H        4.8750     3.7130     0.3040 H     1 <1>   0.0800 
 41 H        7.1460     0.1410    -0.2680 H     1 <1>   0.0800 
 42 H        5.8500     0.0900     0.8880 H     1 <1>   0.0800 
 43 H       -3.2460    -5.2170     1.3680 H     1 <1>   0.1500 
 44 H        6.8560     2.3190     0.9320 H     1 <1>   0.0800 
 45 H        6.6690     2.4750    -0.7930 H     1 <1>   0.0800 
@<TRIPOS>BOND
  1   1   2  1   
  2   1   3  1   
  3   2   4  2   
  4   2   5  1   
  5   3   6  1   
  6   3  26  1   
  7   3  27  1   
  8   4   7  1   
  9   5   8  am  
 10   5   9  1   
 11   6  10  2   
 12   6  11  am  
 13   7  12  1   
 14   7  13  2   
 15   8  13  1   
 16   8  14  2   
 17   9  15  ar  
 18   9  16  ar  
 19  11  17  1   
 20  11  18  1   
 21  13  28  1   
 22  15  19  ar  
 23  15  20  1   
 24  16  21  ar  
 25  16  29  1   
 26  17  22  1   
 27  17  30  1   
 28  17  31  1   
 29  18  23  1   
 30  18  32  1   
 31  18  33  1   
 32  19  24  ar  
 33  19  34  1   
 34  20  35  1   
 35  20  36  1   
 36  20  37  1   
 37  21  24  ar  
 38  21  38  1   
 39  22  25  1   
 40  22  39  1   
 41  22  40  1   
 42  23  25  1   
 43  23  41  1   
 44  23  42  1   
 45  24  43  1   
 46  25  44  1   
 47  25  45  1   
@<TRIPOS>SUBSTRUCTURE
  1 ****   1 GROUP 4 **** **** 0

# MOE 2024.06 (io_trps.svl 2023.06)
