@<TRIPOS>MOLECULE
NONAME
35 36 1 0 0 
SMALL
USER_CHARGES


@<TRIPOS>ATOM
  1 O       -0.7980    -0.0950    -1.0150 O.2   1 <1>  -0.5700 
  2 C       -1.6880     0.6830    -0.7280 C.2   1 <1>   0.7060 
  3 O       -2.9120     0.1750    -0.5960 O.3   1 <1>  -0.2330 
  4 C       -1.5000     2.0960    -0.5230 C.2   1 <1>  -0.1240 
  5 C       -4.0010     0.9120    -0.2880 C.ar  1 <1>   0.0820 
  6 C       -2.5550     2.8860    -0.1850 C.2   1 <1>  -0.1670 
  7 C       -0.0680     2.6120    -0.7060 C.3   1 <1>  -0.0220 
  8 C       -3.8660     2.2930    -0.0780 C.ar  1 <1>   0.0280 
  9 C       -5.2310     0.2640    -0.1970 C.ar  1 <1>  -0.1440 
 10 C       -2.4400     4.3850     0.1050 C.3   1 <1>  -0.1020 
 11 C        0.7060     2.5540     0.6140 C.3   1 <1>  -0.2400 
 12 C       -5.0320     3.0050     0.2210 C.ar  1 <1>  -0.1500 
 13 C       -6.3680     1.0080     0.0940 C.ar  1 <1>   0.0830 
 14 C       -5.2980    -1.2470    -0.4320 C.3   1 <1>  -0.0970 
 15 C       -6.2550     2.3780     0.3100 C.ar  1 <1>  -0.1500 
 16 O       -7.5680     0.3750     0.1820 O.3   1 <1>  -0.2320 
 17 C       -8.7700     0.8370    -0.1580 C.2   1 <1>   0.6590 
 18 O       -8.9650     1.9080    -0.6700 O.2   1 <1>  -0.5700 
 19 C       -9.9180    -0.0950     0.1390 C.3   1 <1>  -0.1790 
 20 H       -0.0670     3.6160    -1.0870 H     1 <1>   0.0800 
 21 H        0.4490     2.0200    -1.4430 H     1 <1>   0.0800 
 22 H       -2.9670     4.9450    -0.6470 H     1 <1>   0.0800 
 23 H       -1.4270     4.7350     0.1330 H     1 <1>   0.0800 
 24 H       -2.8680     4.6040     1.0670 H     1 <1>   0.0800 
 25 H        0.2170     3.1500     1.3640 H     1 <1>   0.0800 
 26 H        1.7050     2.9260     0.4730 H     1 <1>   0.0800 
 27 H        0.7650     1.5380     0.9630 H     1 <1>   0.0800 
 28 H       -4.9980     4.0650     0.3870 H     1 <1>   0.1500 
 29 H       -4.5340    -1.7430     0.1390 H     1 <1>   0.0800 
 30 H       -5.1370    -1.4570    -1.4740 H     1 <1>   0.0800 
 31 H       -6.2440    -1.6650    -0.1420 H     1 <1>   0.0800 
 32 H       -7.1250     2.9620     0.5500 H     1 <1>   0.1500 
 33 H       -9.7800    -1.0170    -0.3930 H     1 <1>   0.0800 
 34 H      -10.8420     0.3560    -0.1730 H     1 <1>   0.0800 
 35 H       -9.9590    -0.2920     1.1930 H     1 <1>   0.0800 
@<TRIPOS>BOND
  1   1   2  2   
  2   2   3  1   
  3   2   4  1   
  4   3   5  1   
  5   4   6  2   
  6   4   7  1   
  7   5   8  ar  
  8   5   9  ar  
  9   6   8  1   
 10   6  10  1   
 11   7  11  1   
 12   7  20  1   
 13   7  21  1   
 14   8  12  ar  
 15   9  13  ar  
 16   9  14  1   
 17  10  22  1   
 18  10  23  1   
 19  10  24  1   
 20  11  25  1   
 21  11  26  1   
 22  11  27  1   
 23  12  15  ar  
 24  12  28  1   
 25  13  15  ar  
 26  13  16  1   
 27  14  29  1   
 28  14  30  1   
 29  14  31  1   
 30  15  32  1   
 31  16  17  1   
 32  17  18  2   
 33  17  19  1   
 34  19  33  1   
 35  19  34  1   
 36  19  35  1   
@<TRIPOS>SUBSTRUCTURE
  1 ****   5 GROUP 4 **** **** 0

# MOE 2024.06 (io_trps.svl 2023.06)
