@<TRIPOS>MOLECULE
NONAME
32 34 1 0 0 
SMALL
USER_CHARGES


@<TRIPOS>ATOM
  1 O       -3.4250    -0.7130     2.2030 O.2   1 <1>  -0.5700 
  2 C       -3.3890    -1.0590     1.0510 C.2   1 <1>   0.4230 
  3 C       -4.5260    -1.4090     0.2480 C.ar  1 <1>   0.0860 
  4 C       -2.0360    -1.1920     0.3970 C.3   1 <1>  -0.0990 
  5 C       -4.3200    -2.1070    -0.9480 C.ar  1 <1>   0.0830 
  6 C       -5.8350    -1.0840     0.6030 C.ar  1 <1>  -0.1500 
  7 C       -1.9920    -2.4920    -0.4250 C.3   1 <1>   0.2800 
  8 O       -3.0770    -2.4910    -1.3310 O.3   1 <1>  -0.3630 
  9 C       -5.3850    -2.4350    -1.7690 C.ar  1 <1>  -0.1500 
 10 C       -6.8980    -1.4230    -0.2130 C.ar  1 <1>  -0.1500 
 11 C       -2.1170    -3.7640     0.4380 C.3   1 <1>  -0.1600 
 12 C       -0.7160    -2.5770    -1.2720 C.3   1 <1>  -0.1600 
 13 C       -6.6740    -2.0950    -1.4030 C.ar  1 <1>  -0.1500 
 14 C       -0.8720    -3.9940     1.2910 C.3   1 <1>   0.3430 
 15 C        0.5230    -2.8260    -0.4130 C.3   1 <1>   0.3430 
 16 N        0.3280    -4.0520     0.4110 N.4   1 <1>  -0.9060 
 17 H       -1.2730    -1.1740     1.1530 H     1 <1>   0.0800 
 18 H       -1.8850    -0.3420    -0.2440 H     1 <1>   0.0800 
 19 H       -6.0110    -0.5590     1.5270 H     1 <1>   0.1500 
 20 H       -5.2050    -2.9600    -2.6910 H     1 <1>   0.1500 
 21 H       -7.9030    -1.1620     0.0750 H     1 <1>   0.1500 
 22 H       -2.2680    -4.6180    -0.1980 H     1 <1>   0.0800 
 23 H       -2.9690    -3.7000     1.0920 H     1 <1>   0.0800 
 24 H       -0.5840    -1.6610    -1.8210 H     1 <1>   0.0800 
 25 H       -0.8090    -3.3730    -1.9900 H     1 <1>   0.0800 
 26 H       -7.5040    -2.3530    -2.0400 H     1 <1>   0.1500 
 27 H       -0.9760    -4.9180     1.8380 H     1 <1>   0.0800 
 28 H       -0.7690    -3.1920     2.0050 H     1 <1>   0.0800 
 29 H        0.6930    -1.9770     0.2310 H     1 <1>   0.0800 
 30 H        1.3870    -2.9410    -1.0490 H     1 <1>   0.0800 
 31 H        0.2400    -4.8640    -0.2160 H     1 <1>   0.4500 
 32 H        1.1650    -4.2190     0.9850 H     1 <1>   0.4500 
@<TRIPOS>BOND
  1   1   2  2   
  2   2   3  1   
  3   2   4  1   
  4   3   5  ar  
  5   3   6  ar  
  6   4   7  1   
  7   4  17  1   
  8   4  18  1   
  9   5   8  1   
 10   5   9  ar  
 11   6  10  ar  
 12   6  19  1   
 13   7   8  1   
 14   7  11  1   
 15   7  12  1   
 16   9  13  ar  
 17   9  20  1   
 18  10  13  ar  
 19  10  21  1   
 20  11  14  1   
 21  11  22  1   
 22  11  23  1   
 23  12  15  1   
 24  12  24  1   
 25  12  25  1   
 26  13  26  1   
 27  14  16  1   
 28  14  27  1   
 29  14  28  1   
 30  15  16  1   
 31  15  29  1   
 32  15  30  1   
 33  16  31  1   
 34  16  32  1   
@<TRIPOS>SUBSTRUCTURE
  1 ****   7 GROUP 4 **** **** 0

# MOE 2024.06 (io_trps.svl 2023.06)
