@<TRIPOS>MOLECULE
NONAME
43 44 1 0 0 
SMALL
USER_CHARGES


@<TRIPOS>ATOM
  1 O       -0.6810    -0.3460     0.8140 O.2   1 <1>  -0.5700 
  2 C       -0.9400    -1.2910     0.1090 C.2   1 <1>   0.5690 
  3 N       -0.0100    -2.2080    -0.2970 N.am  1 <1>  -0.5470 
  4 C       -2.3810    -1.5120    -0.3560 C.3   1 <1>  -0.0190 
  5 C        1.3730    -2.3010    -0.0560 C.ar  1 <1>   0.1170 
  6 C       -3.1960    -0.2030    -0.4240 C.3   1 <1>  -0.1600 
  7 C       -3.1020    -2.5300     0.5490 C.3   1 <1>  -0.1600 
  8 C        2.0030    -3.5450    -0.1380 C.ar  1 <1>  -0.1440 
  9 C        2.1440    -1.1810     0.2420 C.ar  1 <1>  -0.1500 
 10 C       -4.6400    -0.4570    -0.8640 C.3   1 <1>   0.1400 
 11 C       -4.5490    -2.7600     0.1030 C.3   1 <1>   0.1400 
 12 C        3.3690    -3.6410     0.0790 C.ar  1 <1>  -0.1500 
 13 C        1.2220    -4.8140    -0.4570 C.3   1 <1>  -0.0970 
 14 C        3.5050    -1.2830     0.4610 C.ar  1 <1>  -0.1500 
 15 N       -5.2660    -1.4570     0.0440 N.am  1 <1>  -0.6600 
 16 C        4.1270    -2.5230     0.3790 C.ar  1 <1>   0.0820 
 17 C       -6.3870    -1.2380     0.8050 C.2   1 <1>   0.5690 
 18 O        5.4580    -2.7200     0.5770 O.3   1 <1>  -0.3630 
 19 O       -6.8690    -2.0960     1.5050 O.2   1 <1>  -0.5700 
 20 C       -7.0750     0.1070     0.7970 C.3   1 <1>  -0.1790 
 21 C        6.3040    -1.6450     0.9200 C.3   1 <1>   0.0400 
 22 H       -0.3810    -3.0000    -0.8130 H     1 <1>   0.3700 
 23 H       -2.3410    -1.9170    -1.3510 H     1 <1>   0.0800 
 24 H       -2.7270     0.4780    -1.1120 H     1 <1>   0.0800 
 25 H       -3.2100     0.2700     0.5430 H     1 <1>   0.0800 
 26 H       -3.1070    -2.1700     1.5640 H     1 <1>   0.0800 
 27 H       -2.5790    -3.4690     0.5400 H     1 <1>   0.0800 
 28 H        1.6810    -0.2130     0.3030 H     1 <1>   0.1500 
 29 H       -4.6530    -0.8430    -1.8690 H     1 <1>   0.0800 
 30 H       -5.1810     0.4710    -0.8610 H     1 <1>   0.0800 
 31 H       -5.0330    -3.4320     0.7930 H     1 <1>   0.0800 
 32 H       -4.5720    -3.2170    -0.8710 H     1 <1>   0.0800 
 33 H        3.8700    -4.5900     0.0200 H     1 <1>   0.1500 
 34 H        0.4180    -4.9400     0.2460 H     1 <1>   0.0800 
 35 H        1.8570    -5.6800    -0.3950 H     1 <1>   0.0800 
 36 H        0.8220    -4.7620    -1.4540 H     1 <1>   0.0800 
 37 H        4.0570    -0.3920     0.6900 H     1 <1>   0.1500 
 38 H       -7.4360     0.3270    -0.1890 H     1 <1>   0.0800 
 39 H       -6.3910     0.8680     1.1190 H     1 <1>   0.0800 
 40 H       -7.9110     0.0890     1.4730 H     1 <1>   0.0800 
 41 H        7.3010    -2.0310     1.0400 H     1 <1>   0.0800 
 42 H        5.9640    -1.2160     1.8460 H     1 <1>   0.0800 
 43 H        6.2860    -0.9190     0.1270 H     1 <1>   0.0800 
@<TRIPOS>BOND
  1   1   2  2   
  2   2   3  am  
  3   2   4  1   
  4   3   5  1   
  5   3  22  1   
  6   4   6  1   
  7   4   7  1   
  8   4  23  1   
  9   5   8  ar  
 10   5   9  ar  
 11   6  10  1   
 12   6  24  1   
 13   6  25  1   
 14   7  11  1   
 15   7  26  1   
 16   7  27  1   
 17   8  12  ar  
 18   8  13  1   
 19   9  14  ar  
 20   9  28  1   
 21  10  15  1   
 22  10  29  1   
 23  10  30  1   
 24  11  15  1   
 25  11  31  1   
 26  11  32  1   
 27  12  16  ar  
 28  12  33  1   
 29  13  34  1   
 30  13  35  1   
 31  13  36  1   
 32  14  16  ar  
 33  14  37  1   
 34  15  17  am  
 35  16  18  1   
 36  17  19  2   
 37  17  20  1   
 38  18  21  1   
 39  20  38  1   
 40  20  39  1   
 41  20  40  1   
 42  21  41  1   
 43  21  42  1   
 44  21  43  1   
@<TRIPOS>SUBSTRUCTURE
  1 ****   2 GROUP 4 **** **** 0

# MOE 2024.06 (io_trps.svl 2023.06)
