@<TRIPOS>MOLECULE
NONAME
34 34 1 0 0 
SMALL
USER_CHARGES


@<TRIPOS>ATOM
  1 O        0.7360     0.9610     2.3000 O.2   1 <1>  -0.5700 
  2 C       -0.1620     1.0230     1.4950 C.2   1 <1>   0.5690 
  3 N        0.0310     1.3140     0.1800 N.am  1 <1>  -0.7300 
  4 C       -1.5780     0.7610     1.9840 C.3   1 <1>   0.0440 
  5 C        1.2680     1.6050    -0.5450 C.3   1 <1>   0.3000 
  6 C       -2.6220     0.8490     0.8730 C.ar  1 <1>  -0.1440 
  7 C        0.8690     1.8580    -1.9970 C.3   1 <1>  -0.2400 
  8 C        2.2040     0.3990    -0.4680 C.3   1 <1>  -0.2400 
  9 C        1.9220     2.8580     0.0370 C.3   1 <1>  -0.2400 
 10 C       -3.1940     2.0690     0.5480 C.ar  1 <1>  -0.1500 
 11 C       -2.9900    -0.2850     0.1660 C.ar  1 <1>  -0.1500 
 12 C       -4.1240     2.1640    -0.4740 C.ar  1 <1>  -0.1440 
 13 C       -3.9180    -0.1970    -0.8570 C.ar  1 <1>  -0.1500 
 14 C       -4.4820     1.0250    -1.1760 C.ar  1 <1>  -0.1500 
 15 C       -4.7410     3.5060    -0.8230 C.3   1 <1>  -0.0970 
 16 H       -0.8060     1.3360    -0.4080 H     1 <1>   0.3700 
 17 H       -1.8050     1.4750     2.7530 H     1 <1>   0.0800 
 18 H       -1.6030    -0.2150     2.4320 H     1 <1>   0.0800 
 19 H        0.3940     0.9890    -2.4150 H     1 <1>   0.0800 
 20 H        1.7410     2.0800    -2.5860 H     1 <1>   0.0800 
 21 H        0.1970     2.6950    -2.0640 H     1 <1>   0.0800 
 22 H        1.7140    -0.4810    -0.8410 H     1 <1>   0.0800 
 23 H        2.5130     0.2250     0.5470 H     1 <1>   0.0800 
 24 H        3.0850     0.5770    -1.0570 H     1 <1>   0.0800 
 25 H        1.2350     3.6850     0.0170 H     1 <1>   0.0800 
 26 H        2.7930     3.1210    -0.5340 H     1 <1>   0.0800 
 27 H        2.2310     2.6860     1.0530 H     1 <1>   0.0800 
 28 H       -2.9100     2.9540     1.0910 H     1 <1>   0.1500 
 29 H       -2.5540    -1.2400     0.4040 H     1 <1>   0.1500 
 30 H       -4.2010    -1.0790    -1.4040 H     1 <1>   0.1500 
 31 H       -5.2020     1.0840    -1.9740 H     1 <1>   0.1500 
 32 H       -4.1130     4.0250    -1.5250 H     1 <1>   0.0800 
 33 H       -4.8480     4.1100     0.0600 H     1 <1>   0.0800 
 34 H       -5.7140     3.3720    -1.2610 H     1 <1>   0.0800 
@<TRIPOS>BOND
  1   1   2  2   
  2   2   3  am  
  3   2   4  1   
  4   3   5  1   
  5   3  16  1   
  6   4   6  1   
  7   4  17  1   
  8   4  18  1   
  9   5   7  1   
 10   5   8  1   
 11   5   9  1   
 12   6  10  ar  
 13   6  11  ar  
 14   7  19  1   
 15   7  20  1   
 16   7  21  1   
 17   8  22  1   
 18   8  23  1   
 19   8  24  1   
 20   9  25  1   
 21   9  26  1   
 22   9  27  1   
 23  10  12  ar  
 24  10  28  1   
 25  11  13  ar  
 26  11  29  1   
 27  12  14  ar  
 28  12  15  1   
 29  13  14  ar  
 30  13  30  1   
 31  14  31  1   
 32  15  32  1   
 33  15  33  1   
 34  15  34  1   
@<TRIPOS>SUBSTRUCTURE
  1 ****   3 GROUP 4 **** **** 0

# MOE 2024.06 (io_trps.svl 2023.06)
