@<TRIPOS>MOLECULE
NONAME
46 47 1 0 0 
SMALL
USER_CHARGES


@<TRIPOS>ATOM
  1 O        0.5200     0.5250     2.6210 O.2   1 <1>  -0.5700 
  2 C        0.9270     0.5100     1.4810 C.2   1 <1>   0.6900 
  3 N        1.3180    -0.6060     0.7980 N.am  1 <1>  -0.4200 
  4 N        1.0810     1.6210     0.7350 N.am  1 <1>  -0.7300 
  5 C        1.8040    -0.2420    -0.4230 C.2   1 <1>   0.5690 
  6 C        1.2240    -1.9890     1.3100 C.3   1 <1>   0.1400 
  7 C        1.6910     1.2900    -0.5580 C.3   1 <1>   0.3610 
  8 O        2.2520    -0.9910    -1.2610 O.2   1 <1>  -0.5700 
  9 C        0.0840    -2.7570     0.6260 C.3   1 <1>  -0.1600 
 10 C        3.0480     1.9890    -0.6570 C.3   1 <1>  -0.2400 
 11 C        0.7400     1.7270    -1.6740 C.3   1 <1>  -0.2400 
 12 C       -1.2960    -2.1130     0.8490 C.3   1 <1>  -0.1600 
 13 C       -2.4030    -2.9410     0.1990 C.3   1 <1>   0.1200 
 14 O       -3.6290    -2.2900     0.4310 O.3   1 <1>  -0.3630 
 15 C       -4.8060    -2.7920    -0.0300 C.ar  1 <1>   0.0820 
 16 C       -5.9690    -2.0880     0.2690 C.ar  1 <1>  -0.1440 
 17 C       -4.8870    -3.9640    -0.7780 C.ar  1 <1>  -0.1500 
 18 C       -7.1920    -2.5620    -0.1800 C.ar  1 <1>  -0.1500 
 19 C       -5.9060    -0.8040     1.0840 C.3   1 <1>  -0.0970 
 20 C       -6.1140    -4.4260    -1.2190 C.ar  1 <1>  -0.1500 
 21 C       -7.2720    -3.7280    -0.9210 C.ar  1 <1>  -0.1440 
 22 C       -8.6190    -4.2330    -1.4060 C.3   1 <1>  -0.0970 
 23 H        1.0260     2.5620     1.1210 H     1 <1>   0.3700 
 24 H        1.0630    -1.9660     2.3740 H     1 <1>   0.0800 
 25 H        2.1590    -2.4900     1.1230 H     1 <1>   0.0800 
 26 H        0.0720    -3.7580     1.0210 H     1 <1>   0.0800 
 27 H        0.2900    -2.8280    -0.4280 H     1 <1>   0.0800 
 28 H        3.6800     1.6980     0.1630 H     1 <1>   0.0800 
 29 H        2.9270     3.0570    -0.6530 H     1 <1>   0.0800 
 30 H        3.5340     1.7030    -1.5730 H     1 <1>   0.0800 
 31 H       -0.2180     1.2530    -1.5540 H     1 <1>   0.0800 
 32 H        1.1430     1.4340    -2.6270 H     1 <1>   0.0800 
 33 H        0.6120     2.7940    -1.6680 H     1 <1>   0.0800 
 34 H       -1.3140    -1.1260     0.4220 H     1 <1>   0.0800 
 35 H       -1.4890    -2.0320     1.9050 H     1 <1>   0.0800 
 36 H       -2.4540    -3.9240     0.6360 H     1 <1>   0.0800 
 37 H       -2.2530    -3.0090    -0.8650 H     1 <1>   0.0800 
 38 H       -4.0110    -4.5300    -1.0270 H     1 <1>   0.1500 
 39 H       -8.0910    -2.0180     0.0490 H     1 <1>   0.1500 
 40 H       -5.4680    -1.0050     2.0440 H     1 <1>   0.0800 
 41 H       -6.8850    -0.3880     1.2320 H     1 <1>   0.0800 
 42 H       -5.2970    -0.0800     0.5730 H     1 <1>   0.0800 
 43 H       -6.1640    -5.3320    -1.7970 H     1 <1>   0.1500 
 44 H       -8.8690    -3.7610    -2.3400 H     1 <1>   0.0800 
 45 H       -9.3850    -4.0050    -0.6860 H     1 <1>   0.0800 
 46 H       -8.5950    -5.2980    -1.5500 H     1 <1>   0.0800 
@<TRIPOS>BOND
  1   1   2  2   
  2   2   3  am  
  3   2   4  am  
  4   3   5  am  
  5   3   6  1   
  6   4   7  1   
  7   4  23  1   
  8   5   7  1   
  9   5   8  2   
 10   6   9  1   
 11   6  24  1   
 12   6  25  1   
 13   7  10  1   
 14   7  11  1   
 15   9  12  1   
 16   9  26  1   
 17   9  27  1   
 18  10  28  1   
 19  10  29  1   
 20  10  30  1   
 21  11  31  1   
 22  11  32  1   
 23  11  33  1   
 24  12  13  1   
 25  12  34  1   
 26  12  35  1   
 27  13  14  1   
 28  13  36  1   
 29  13  37  1   
 30  14  15  1   
 31  15  16  ar  
 32  15  17  ar  
 33  16  18  ar  
 34  16  19  1   
 35  17  20  ar  
 36  17  38  1   
 37  18  21  ar  
 38  18  39  1   
 39  19  40  1   
 40  19  41  1   
 41  19  42  1   
 42  20  21  ar  
 43  20  43  1   
 44  21  22  1   
 45  22  44  1   
 46  22  45  1   
 47  22  46  1   
@<TRIPOS>SUBSTRUCTURE
  1 ****  12 GROUP 4 **** **** 0

# MOE 2024.06 (io_trps.svl 2023.06)
