@<TRIPOS>MOLECULE
NONAME
44 45 1 0 0 
SMALL
USER_CHARGES


@<TRIPOS>ATOM
  1 P       -0.4140    -0.8800    -0.2460 P.3   1 <1>   1.2420 
  2 O       -1.3370     0.1950     0.1320 O.2   1 <1>  -0.7000 
  3 O       -1.0940    -2.3050     0.0850 O.3   1 <1>  -0.5510 
  4 O       -0.2650    -0.9360    -1.8510 O.3   1 <1>  -0.5510 
  5 C        1.2540    -0.8340     0.6270 C.3   1 <1>   0.3690 
  6 C       -2.3500    -2.6070    -0.4190 C.3   1 <1>   0.0400 
  7 C       -0.3450     0.2190    -2.6160 C.3   1 <1>   0.0400 
  8 N        1.0560    -1.1060     2.0180 N.pl3 1 <1>  -0.8690 
  9 C        3.8950    -2.4510     0.4980 C.3   1 <1>  -0.1600 
 10 C        1.6850     1.0520     0.5790 C.3   1 <1>  -0.1600 
 11 C        2.1000    -1.7620     1.6540 C.ar  1 <1>   0.1000 
 12 C        5.3200    -1.1980     0.5340 C.3   1 <1>  -0.1600 
 13 C        3.4670     1.6710     0.6240 C.3   1 <1>  -0.1600 
 14 C        3.1550    -0.6070     1.3700 C.ar  1 <1>  -0.1500 
 15 C        1.6110    -3.0030     0.7810 C.ar  1 <1>  -0.1500 
 16 C        5.0730     0.6700     0.6070 C.3   1 <1>  -0.1600 
 17 C        3.1920    -0.5460    -0.4710 C.ar  1 <1>  -0.1500 
 18 C        1.7900    -2.8280    -0.7100 C.ar  1 <1>  -0.1500 
 19 C        2.5020    -1.6290    -1.3130 C.ar  1 <1>  -0.1430 
 20 C        2.6150    -1.5490    -2.8250 C.3   1 <1>  -0.0970 
 21 H       -2.6290    -3.5870    -0.0740 H     1 <1>   0.0800 
 22 H       -2.3120    -2.5910    -1.4950 H     1 <1>   0.0800 
 23 H       -3.0550    -1.8760    -0.0600 H     1 <1>   0.0800 
 24 H        0.4630     0.8780    -2.3540 H     1 <1>   0.0800 
 25 H       -1.2930     0.6970    -2.4320 H     1 <1>   0.0800 
 26 H       -0.2710    -0.0560    -3.6530 H     1 <1>   0.0800 
 27 H        0.2240    -1.6970     2.1370 H     1 <1>   0.4000 
 28 H        4.1160    -3.0910    -0.3470 H     1 <1>   0.0800 
 29 H        4.0570    -3.1070     1.3460 H     1 <1>   0.0800 
 30 H        1.1360     1.5260     1.3730 H     1 <1>   0.0800 
 31 H        1.2640     1.4420    -0.3280 H     1 <1>   0.0800 
 32 H        5.9220    -1.3950    -0.3360 H     1 <1>   0.0800 
 33 H        5.9410    -1.4620     1.3720 H     1 <1>   0.0800 
 34 H        3.5260     2.2740     1.5140 H     1 <1>   0.0800 
 35 H        3.5520     2.3820    -0.1790 H     1 <1>   0.0800 
 36 H        3.5140    -0.0730     2.2420 H     1 <1>   0.1500 
 37 H        1.0850    -3.8370     1.2110 H     1 <1>   0.1500 
 38 H        5.6550     1.0690    -0.2050 H     1 <1>   0.0800 
 39 H        5.6070     0.9850     1.4860 H     1 <1>   0.0800 
 40 H        3.6700     0.1530    -1.1400 H     1 <1>   0.1500 
 41 H        1.3930    -3.5830    -1.3660 H     1 <1>   0.1500 
 42 H        2.5620    -0.5270    -3.1530 H     1 <1>   0.0800 
 43 H        1.8170    -2.0990    -3.2910 H     1 <1>   0.0800 
 44 H        3.5540    -1.9670    -3.1400 H     1 <1>   0.0800 
@<TRIPOS>BOND
  1   1   2  2   
  2   1   3  1   
  3   1   4  1   
  4   1   5  1   
  5   3   6  1   
  6   4   7  1   
  7   5   8  1   
  8   5   9  1   
  9   5  10  1   
 10   6  21  1   
 11   6  22  1   
 12   6  23  1   
 13   7  24  1   
 14   7  25  1   
 15   7  26  1   
 16   8  11  1   
 17   8  27  1   
 18   9  12  1   
 19   9  28  1   
 20   9  29  1   
 21  10  13  1   
 22  10  30  1   
 23  10  31  1   
 24  11  14  ar  
 25  11  15  ar  
 26  12  16  1   
 27  12  32  1   
 28  12  33  1   
 29  13  16  1   
 30  13  34  1   
 31  13  35  1   
 32  14  17  ar  
 33  14  36  1   
 34  15  18  ar  
 35  15  37  1   
 36  16  38  1   
 37  16  39  1   
 38  17  19  ar  
 39  17  40  1   
 40  18  19  ar  
 41  18  41  1   
 42  19  20  1   
 43  20  42  1   
 44  20  43  1   
 45  20  44  1   
@<TRIPOS>SUBSTRUCTURE
  1 ****   5 GROUP 4 **** **** 0

# MOE 2024.06 (io_trps.svl 2023.06)
