@<TRIPOS>MOLECULE
NONAME
42 43 1 0 0 
SMALL
USER_CHARGES


@<TRIPOS>ATOM
  1 BR       2.8880     1.8560     2.3900 Br    1 <1>  -0.1110 
  2 C        1.7370     2.5820     1.0200 C.ar  1 <1>   0.1110 
  3 C        2.2490     2.8050    -0.2510 C.ar  1 <1>   0.0830 
  4 C        0.4260     2.8600     1.3520 C.ar  1 <1>  -0.1500 
  5 O        3.5520     2.5000    -0.4810 O.3   1 <1>  -0.3630 
  6 C        1.3930     3.3290    -1.2150 C.ar  1 <1>  -0.1500 
  7 C       -0.4230     3.3820     0.3860 C.ar  1 <1>  -0.1430 
  8 C        4.1540     2.6970    -1.7540 C.3   1 <1>   0.1810 
  9 C        0.0740     3.6110    -0.8920 C.ar  1 <1>  -0.1500 
 10 C       -1.8750     3.6930     0.7410 C.3   1 <1>   0.0640 
 11 C        5.6180     2.2730    -1.7350 C.2   1 <1>   0.5690 
 12 C       -2.8360     2.8500    -0.1030 C.3   1 <1>  -0.2400 
 13 C       -2.1700     5.1870     0.5750 C.3   1 <1>  -0.2400 
 14 O        6.2650     2.3820    -2.7500 O.2   1 <1>  -0.5700 
 15 N        6.1520     1.7880    -0.5860 N.am  1 <1>  -0.7300 
 16 C        7.5340     1.3340    -0.3800 C.3   1 <1>   0.2200 
 17 C        7.5030    -0.0970     0.1420 C.3   1 <1>  -0.1600 
 18 C        8.1360     2.1160     0.7810 C.3   1 <1>  -0.1600 
 19 C        7.2130     0.0130     1.6430 C.3   1 <1>  -0.1600 
 20 C        7.6190     1.4350     2.0540 C.3   1 <1>  -0.1600 
 21 H        0.0820     2.6670     2.3520 H     1 <1>   0.1500 
 22 H        1.7280     3.5240    -2.2160 H     1 <1>   0.1500 
 23 H        4.0900     3.7390    -2.0040 H     1 <1>   0.0800 
 24 H        3.6230     2.1070    -2.4770 H     1 <1>   0.0800 
 25 H       -0.5720     4.0160    -1.6520 H     1 <1>   0.1500 
 26 H       -2.0410     3.4400     1.7750 H     1 <1>   0.0800 
 27 H       -2.7520     3.0990    -1.1460 H     1 <1>   0.0800 
 28 H       -3.8510     3.0200     0.2090 H     1 <1>   0.0800 
 29 H       -2.6110     1.8060     0.0200 H     1 <1>   0.0800 
 30 H       -2.0720     5.4870    -0.4530 H     1 <1>   0.0800 
 31 H       -1.4820     5.7640     1.1670 H     1 <1>   0.0800 
 32 H       -3.1700     5.4070     0.9020 H     1 <1>   0.0800 
 33 H        5.5460     1.7230     0.2370 H     1 <1>   0.3700 
 34 H        8.1070     1.4320    -1.2880 H     1 <1>   0.0800 
 35 H        8.4790    -0.5290     0.0050 H     1 <1>   0.0800 
 36 H        6.7830    -0.7040    -0.3790 H     1 <1>   0.0800 
 37 H        7.8880     3.1620     0.7370 H     1 <1>   0.0800 
 38 H        9.2060     2.0140     0.7400 H     1 <1>   0.0800 
 39 H        7.7610    -0.7290     2.1970 H     1 <1>   0.0800 
 40 H        6.1600    -0.1270     1.8240 H     1 <1>   0.0800 
 41 H        6.7580     1.9630     2.4270 H     1 <1>   0.0800 
 42 H        8.3770     1.4240     2.8180 H     1 <1>   0.0800 
@<TRIPOS>BOND
  1   1   2  1   
  2   2   3  ar  
  3   2   4  ar  
  4   3   5  1   
  5   3   6  ar  
  6   4   7  ar  
  7   4  21  1   
  8   5   8  1   
  9   6   9  ar  
 10   6  22  1   
 11   7   9  ar  
 12   7  10  1   
 13   8  11  1   
 14   8  23  1   
 15   8  24  1   
 16   9  25  1   
 17  10  12  1   
 18  10  13  1   
 19  10  26  1   
 20  11  14  2   
 21  11  15  am  
 22  12  27  1   
 23  12  28  1   
 24  12  29  1   
 25  13  30  1   
 26  13  31  1   
 27  13  32  1   
 28  15  16  1   
 29  15  33  1   
 30  16  17  1   
 31  16  18  1   
 32  16  34  1   
 33  17  19  1   
 34  17  35  1   
 35  17  36  1   
 36  18  20  1   
 37  18  37  1   
 38  18  38  1   
 39  19  20  1   
 40  19  39  1   
 41  19  40  1   
 42  20  41  1   
 43  20  42  1   
@<TRIPOS>SUBSTRUCTURE
  1 ****   5 GROUP 4 **** **** 0

# MOE 2024.06 (io_trps.svl 2023.06)
