@<TRIPOS>MOLECULE
NONAME
43 44 1 0 0 
SMALL
USER_CHARGES


@<TRIPOS>ATOM
  1 O       -0.0060     0.0400     0.6160 O.3   1 <1>  -0.3630 
  2 C       -1.2600    -0.1520     0.1370 C.ar  1 <1>   0.0830 
  3 C        0.9550    -0.9880     0.5710 C.3   1 <1>   0.1200 
  4 C       -1.7040    -1.3490    -0.4160 C.ar  1 <1>  -0.1500 
  5 C       -2.1280     0.9260     0.2140 C.ar  1 <1>  -0.1500 
  6 C        2.2580    -0.4510     1.1590 C.3   1 <1>  -0.1600 
  7 C       -3.0020    -1.4650    -0.8870 C.ar  1 <1>   0.0830 
  8 C       -3.4260     0.8160    -0.2540 C.ar  1 <1>  -0.1500 
  9 C        3.3530    -1.5210     1.1120 C.3   1 <1>   0.1200 
 10 O       -3.3520    -2.6670    -1.4110 O.3   1 <1>  -0.3630 
 11 C       -3.8660    -0.3750    -0.8040 C.ar  1 <1>  -0.1500 
 12 O        4.5440    -1.0070     1.6680 O.3   1 <1>  -0.3630 
 13 C       -4.6480    -2.8940    -1.9180 C.3   1 <1>   0.0400 
 14 C        5.3890    -0.1940     0.9820 C.ar  1 <1>   0.0830 
 15 C        5.2140     0.1770    -0.3490 C.ar  1 <1>  -0.1500 
 16 C        6.4910     0.2790     1.6750 C.ar  1 <1>  -0.1500 
 17 C        6.1320     1.0110    -0.9630 C.ar  1 <1>  -0.1500 
 18 C        7.4060     1.1130     1.0580 C.ar  1 <1>  -0.1500 
 19 C        7.2320     1.4850    -0.2660 C.ar  1 <1>  -0.1430 
 20 C        8.2360     2.4010    -0.9450 C.3   1 <1>  -0.0170 
 21 C        9.3420     1.5830    -1.6150 C.3   1 <1>  -0.2400 
 22 H        1.0910    -1.2760    -0.4570 H     1 <1>   0.0800 
 23 H        0.5880    -1.8200     1.1480 H     1 <1>   0.0800 
 24 H       -1.0680    -2.2070    -0.4940 H     1 <1>   0.1500 
 25 H       -1.7790     1.8480     0.6420 H     1 <1>   0.1500 
 26 H        2.0910    -0.1650     2.1830 H     1 <1>   0.0800 
 27 H        2.5640     0.4120     0.5970 H     1 <1>   0.0800 
 28 H       -4.0920     1.6590    -0.1890 H     1 <1>   0.1500 
 29 H        3.5500    -1.8690     0.1140 H     1 <1>   0.0800 
 30 H        3.0660    -2.3650     1.7150 H     1 <1>   0.0800 
 31 H       -4.8760    -0.4350    -1.1600 H     1 <1>   0.1500 
 32 H       -4.6940    -3.9070    -2.2760 H     1 <1>   0.0800 
 33 H       -4.8310    -2.2110    -2.7280 H     1 <1>   0.0800 
 34 H       -5.3630    -2.7550    -1.1260 H     1 <1>   0.0800 
 35 H        4.3750    -0.1680    -0.9210 H     1 <1>   0.1500 
 36 H        6.6250    -0.0090     2.7010 H     1 <1>   0.1500 
 37 H        5.9880     1.2910    -1.9920 H     1 <1>   0.1500 
 38 H        8.2560     1.4690     1.6120 H     1 <1>   0.1500 
 39 H        8.6690     3.0670    -0.2180 H     1 <1>   0.0800 
 40 H        7.7360     3.0050    -1.6820 H     1 <1>   0.0800 
 41 H        9.8580     0.9880    -0.8820 H     1 <1>   0.0800 
 42 H       10.0500     2.2360    -2.0920 H     1 <1>   0.0800 
 43 H        8.9210     0.9260    -2.3550 H     1 <1>   0.0800 
@<TRIPOS>BOND
  1   1   2  1   
  2   1   3  1   
  3   2   4  ar  
  4   2   5  ar  
  5   3   6  1   
  6   3  22  1   
  7   3  23  1   
  8   4   7  ar  
  9   4  24  1   
 10   5   8  ar  
 11   5  25  1   
 12   6   9  1   
 13   6  26  1   
 14   6  27  1   
 15   7  10  1   
 16   7  11  ar  
 17   8  11  ar  
 18   8  28  1   
 19   9  12  1   
 20   9  29  1   
 21   9  30  1   
 22  10  13  1   
 23  11  31  1   
 24  12  14  1   
 25  13  32  1   
 26  13  33  1   
 27  13  34  1   
 28  14  15  ar  
 29  14  16  ar  
 30  15  17  ar  
 31  15  35  1   
 32  16  18  ar  
 33  16  36  1   
 34  17  19  ar  
 35  17  37  1   
 36  18  19  ar  
 37  18  38  1   
 38  19  20  1   
 39  20  21  1   
 40  20  39  1   
 41  20  40  1   
 42  21  41  1   
 43  21  42  1   
 44  21  43  1   
@<TRIPOS>SUBSTRUCTURE
  1 ****   6 GROUP 4 **** **** 0

# MOE 2024.06 (io_trps.svl 2023.06)
