@<TRIPOS>MOLECULE
NONAME
34 35 1 0 0 
SMALL
USER_CHARGES


@<TRIPOS>ATOM
  1 S        0.6780    -0.4120    -0.4660 S.o2  1 <1>   1.4970 
  2 O        1.5640    -1.1420    -1.3500 O.2   1 <1>  -0.6500 
  3 O       -0.7070    -0.2780    -0.8700 O.2   1 <1>  -0.6500 
  4 N        0.6770    -1.2040     1.0080 N.2   1 <1>  -0.6380 
  5 C        1.4340     1.2090    -0.0170 C.ar  1 <1>  -0.0090 
  6 C        0.2330    -2.3820     1.0450 C.2   1 <1>   0.6410 
  7 C        0.6740     2.3790     0.1560 C.ar  1 <1>  -0.1440 
  8 C        2.8190     1.3140     0.1980 C.ar  1 <1>  -0.1440 
  9 S       -0.4070    -3.3650    -0.2720 S.3   1 <1>  -0.2820 
 10 N        0.1550    -3.1770     2.1600 N.pl3 1 <1>  -0.4080 
 11 C        1.2810     3.5810     0.4900 C.ar  1 <1>  -0.1500 
 12 C       -0.8430     2.4260     0.0010 C.3   1 <1>  -0.0970 
 13 C        3.4030     2.5260     0.5310 C.ar  1 <1>  -0.1500 
 14 C        3.7700     0.1240     0.0860 C.3   1 <1>  -0.0970 
 15 C       -0.6940    -4.7090     0.8410 C.2   1 <1>   0.5300 
 16 N       -0.3590    -4.4630     2.0390 N.2   1 <1>  -0.4920 
 17 C        2.6430     3.6650     0.6770 C.ar  1 <1>  -0.1430 
 18 C       -1.2910    -5.9600     0.2460 C.3   1 <1>  -0.1790 
 19 C        3.2940     4.9890     1.0370 C.3   1 <1>  -0.0970 
 20 H        0.4710    -2.8070     3.0610 H     1 <1>   0.4000 
 21 H        0.6880     4.4700     0.6080 H     1 <1>   0.1500 
 22 H       -1.3090     1.6970     0.6390 H     1 <1>   0.0800 
 23 H       -1.1190     2.2340    -1.0200 H     1 <1>   0.0800 
 24 H       -1.2380     3.3890     0.2710 H     1 <1>   0.0800 
 25 H        4.4670     2.5900     0.6790 H     1 <1>   0.1500 
 26 H        3.3930    -0.7250     0.6260 H     1 <1>   0.0800 
 27 H        4.7370     0.3580     0.4930 H     1 <1>   0.0800 
 28 H        3.9040    -0.1450    -0.9470 H     1 <1>   0.0800 
 29 H       -0.6370    -6.3470    -0.5130 H     1 <1>   0.0800 
 30 H       -2.2460    -5.7330    -0.1890 H     1 <1>   0.0800 
 31 H       -1.4190    -6.7010     1.0130 H     1 <1>   0.0800 
 32 H        2.6160     5.6010     1.6040 H     1 <1>   0.0800 
 33 H        3.5680     5.5150     0.1400 H     1 <1>   0.0800 
 34 H        4.1770     4.8270     1.6280 H     1 <1>   0.0800 
@<TRIPOS>BOND
  1   1   2  2   
  2   1   3  2   
  3   1   4  1   
  4   1   5  1   
  5   4   6  2   
  6   5   7  ar  
  7   5   8  ar  
  8   6   9  1   
  9   6  10  1   
 10   7  11  ar  
 11   7  12  1   
 12   8  13  ar  
 13   8  14  1   
 14   9  15  1   
 15  10  16  1   
 16  10  20  1   
 17  11  17  ar  
 18  11  21  1   
 19  12  22  1   
 20  12  23  1   
 21  12  24  1   
 22  13  17  ar  
 23  13  25  1   
 24  14  26  1   
 25  14  27  1   
 26  14  28  1   
 27  15  16  2   
 28  15  18  1   
 29  17  19  1   
 30  18  29  1   
 31  18  30  1   
 32  18  31  1   
 33  19  32  1   
 34  19  33  1   
 35  19  34  1   
@<TRIPOS>SUBSTRUCTURE
  1 ****   1 GROUP 4 **** **** 0

# MOE 2024.06 (io_trps.svl 2023.06)
