@<TRIPOS>MOLECULE
NONAME
51 54 1 0 0 
SMALL
USER_CHARGES


@<TRIPOS>ATOM
  1 O        0.4600     0.0700     1.0290 O.3   1 <1>  -0.3630 
  2 C        1.5790    -0.4740     0.4850 C.ar  1 <1>   0.0830 
  3 C        0.4710     1.3700     1.5740 C.3   1 <1>   0.0400 
  4 C        2.8040     0.1790     0.4170 C.ar  1 <1>  -0.1500 
  5 C        1.4600    -1.7580    -0.0230 C.ar  1 <1>  -0.1500 
  6 C        3.9050    -0.4430    -0.1550 C.ar  1 <1>   0.1000 
  7 C        2.5520    -2.3870    -0.5950 C.ar  1 <1>  -0.1500 
  8 N        5.1210     0.2310    -0.2120 N.pl3 1 <1>  -0.8380 
  9 C        3.7680    -1.7320    -0.6600 C.ar  1 <1>  -0.1500 
 10 C        5.5750     0.6450    -1.5700 C.3   1 <1>   0.2090 
 11 C        6.1990    -0.2930     0.6750 C.3   1 <1>   0.2090 
 12 C        6.7590     1.6300    -1.4740 C.3   1 <1>   0.3430 
 13 C        7.3770     0.7000     0.7490 C.3   1 <1>   0.3430 
 14 N        7.8920     1.1010    -0.6200 N.4   1 <1>  -0.9590 
 15 C        9.0470     2.0550    -0.5920 C.3   1 <1>   0.4230 
 16 C       10.3240     1.3590    -0.1030 C.3   1 <1>  -0.0170 
 17 C        8.7620     3.2950     0.2650 C.3   1 <1>  -0.1600 
 18 C       11.4790     2.3400     0.0150 C.ar  1 <1>  -0.1430 
 19 C        9.8730     4.3300     0.0520 C.3   1 <1>  -0.0170 
 20 C       11.2650     3.7130     0.0980 C.ar  1 <1>  -0.1430 
 21 C       12.7720     1.8430     0.0520 C.ar  1 <1>  -0.1500 
 22 C       12.3530     4.5650     0.2150 C.ar  1 <1>  -0.1500 
 23 C       13.8510     2.7000     0.1690 C.ar  1 <1>  -0.1500 
 24 C       13.6400     4.0630     0.2510 C.ar  1 <1>  -0.1500 
 25 H       -0.5150     1.5860     1.9420 H     1 <1>   0.0800 
 26 H        0.7340     2.0710     0.8010 H     1 <1>   0.0800 
 27 H        1.1780     1.4040     2.3830 H     1 <1>   0.0800 
 28 H        2.9320     1.1710     0.7990 H     1 <1>   0.1500 
 29 H        0.5100    -2.2570     0.0330 H     1 <1>   0.1500 
 30 H        2.4490    -3.3840    -0.9870 H     1 <1>   0.1500 
 31 H        4.6100    -2.2250    -1.1050 H     1 <1>   0.1500 
 32 H        4.7570     1.1190    -2.0850 H     1 <1>   0.0800 
 33 H        5.8630    -0.2230    -2.1380 H     1 <1>   0.0800 
 34 H        6.5410    -1.2450     0.3090 H     1 <1>   0.0800 
 35 H        5.7980    -0.4450     1.6640 H     1 <1>   0.0800 
 36 H        6.3880     2.5480    -1.0520 H     1 <1>   0.0800 
 37 H        7.1170     1.8440    -2.4670 H     1 <1>   0.0800 
 38 H        8.1700     0.2570     1.3280 H     1 <1>   0.0800 
 39 H        7.0350     1.5760     1.2750 H     1 <1>   0.0800 
 40 H        8.2190     0.2410    -1.0780 H     1 <1>   0.4500 
 41 H        9.2370     2.3910    -1.5990 H     1 <1>   0.0800 
 42 H       10.5950     0.5840    -0.7970 H     1 <1>   0.0800 
 43 H       10.1720     0.9220     0.8670 H     1 <1>   0.0800 
 44 H        8.7470     3.0330     1.3080 H     1 <1>   0.0800 
 45 H        7.8230     3.7470     0.0050 H     1 <1>   0.0800 
 46 H        9.7940     5.0960     0.8050 H     1 <1>   0.0800 
 47 H        9.7470     4.8020    -0.9070 H     1 <1>   0.0800 
 48 H       12.9560     0.7840    -0.0070 H     1 <1>   0.1500 
 49 H       12.2060     5.6290     0.2790 H     1 <1>   0.1500 
 50 H       14.8530     2.3080     0.1970 H     1 <1>   0.1500 
 51 H       14.4780     4.7330     0.3420 H     1 <1>   0.1500 
@<TRIPOS>BOND
  1   1   2  1   
  2   1   3  1   
  3   2   4  ar  
  4   2   5  ar  
  5   3  25  1   
  6   3  26  1   
  7   3  27  1   
  8   4   6  ar  
  9   4  28  1   
 10   5   7  ar  
 11   5  29  1   
 12   6   8  1   
 13   6   9  ar  
 14   7   9  ar  
 15   7  30  1   
 16   8  10  1   
 17   8  11  1   
 18   9  31  1   
 19  10  12  1   
 20  10  32  1   
 21  10  33  1   
 22  11  13  1   
 23  11  34  1   
 24  11  35  1   
 25  12  14  1   
 26  12  36  1   
 27  12  37  1   
 28  13  14  1   
 29  13  38  1   
 30  13  39  1   
 31  14  15  1   
 32  14  40  1   
 33  15  16  1   
 34  15  17  1   
 35  15  41  1   
 36  16  18  1   
 37  16  42  1   
 38  16  43  1   
 39  17  19  1   
 40  17  44  1   
 41  17  45  1   
 42  18  20  ar  
 43  18  21  ar  
 44  19  20  1   
 45  19  46  1   
 46  19  47  1   
 47  20  22  ar  
 48  21  23  ar  
 49  21  48  1   
 50  22  24  ar  
 51  22  49  1   
 52  23  24  ar  
 53  23  50  1   
 54  24  51  1   
@<TRIPOS>SUBSTRUCTURE
  1 ****  13 GROUP 4 **** **** 0

# MOE 2024.06 (io_trps.svl 2023.06)
