@<TRIPOS>MOLECULE
NONAME
47 49 1 0 0 
SMALL
USER_CHARGES


@<TRIPOS>ATOM
  1 O        0.3390     0.8480     0.1840 O.2   1 <1>  -0.5750 
  2 C        0.9090     1.9190     0.2310 C.2   1 <1>   0.6860 
  3 N        0.2370     3.0550     0.6720 N.am  1 <1>  -0.4260 
  4 N        2.2440     2.0010    -0.1540 N.am  1 <1>  -0.4420 
  5 C        0.8830     4.2790     0.7770 C.2   1 <1>   0.6990 
  6 C       -1.2150     2.9630     1.0120 C.3   1 <1>   0.1320 
  7 C        2.8810     3.2200    -0.0410 C.2   1 <1>   0.4200 
  8 C        2.9630     0.7900    -0.6500 C.3   1 <1>   0.0520 
  9 O        0.3010     5.2730     1.1790 O.2   1 <1>  -0.5750 
 10 C        2.2570     4.3390     0.4020 C.2   1 <1>   0.2700 
 11 C       -2.0620     3.2560    -0.2300 C.3   1 <1>  -0.1680 
 12 N        4.1850     3.5140    -0.3290 N.pl3 1 <1>  -0.7040 
 13 N        3.2190     5.3600     0.3810 N.pl3 1 <1>  -0.6330 
 14 C       -3.5580     3.1690     0.0920 C.3   1 <1>  -0.1680 
 15 C        4.3440     4.8160    -0.0600 C.cat 1 <1>   1.0690 
 16 C        3.4880     6.6880     0.6440 C.2   1 <1>   0.2220 
 17 C       -4.4050     3.4660    -1.1480 C.3   1 <1>  -0.2470 
 18 N        5.3380     5.7100    -0.1080 N.pl3 1 <1>  -0.5720 
 19 C        4.7900     6.9030     0.3450 C.2   1 <1>   0.1570 
 20 C        6.7370     5.4650    -0.5310 C.3   1 <1>   0.1600 
 21 C        5.5960     8.1840     0.4540 C.3   1 <1>  -0.1100 
 22 C        7.5510     4.9510     0.6580 C.3   1 <1>  -0.1680 
 23 C        8.9980     4.6620     0.2500 C.3   1 <1>  -0.2470 
 24 H       -1.4560     3.6670     1.7910 H     1 <1>   0.0720 
 25 H       -1.4450     1.9790     1.3850 H     1 <1>   0.0720 
 26 H        2.2700     0.1020    -1.1050 H     1 <1>   0.0720 
 27 H        3.4470     0.2940     0.1730 H     1 <1>   0.0720 
 28 H        3.6960     1.0600    -1.3890 H     1 <1>   0.0720 
 29 H       -1.8280     2.5410    -1.0000 H     1 <1>   0.0720 
 30 H       -1.8390     4.2450    -0.5930 H     1 <1>   0.0720 
 31 H        4.9180     2.8880    -0.6540 H     1 <1>   0.4440 
 32 H       -3.8060     3.8770     0.8650 H     1 <1>   0.0720 
 33 H       -3.7960     2.1820     0.4530 H     1 <1>   0.0720 
 34 H        2.7390     7.3680     1.0220 H     1 <1>   0.1420 
 35 H       -4.2030     4.4580    -1.5130 H     1 <1>   0.0720 
 36 H       -5.4500     3.3980    -0.9030 H     1 <1>   0.0720 
 37 H       -4.1900     2.7570    -1.9280 H     1 <1>   0.0720 
 38 H        7.1710     6.3770    -0.9060 H     1 <1>   0.0720 
 39 H        6.7530     4.7400    -1.3270 H     1 <1>   0.0720 
 40 H        6.4320     8.0430     1.1150 H     1 <1>   0.0720 
 41 H        4.9850     8.9800     0.8430 H     1 <1>   0.0720 
 42 H        5.9620     8.4780    -0.5140 H     1 <1>   0.0720 
 43 H        7.1150     4.0460     1.0440 H     1 <1>   0.0720 
 44 H        7.5550     5.6900     1.4410 H     1 <1>   0.0720 
 45 H        9.0380     3.9090    -0.5180 H     1 <1>   0.0720 
 46 H        9.5560     4.3080     1.0990 H     1 <1>   0.0720 
 47 H        9.4750     5.5550    -0.1170 H     1 <1>   0.0720 
@<TRIPOS>BOND
  1   1   2  2   
  2   2   3  am  
  3   2   4  am  
  4   3   5  am  
  5   3   6  1   
  6   4   7  1   
  7   4   8  1   
  8   5   9  2   
  9   5  10  1   
 10   6  11  1   
 11   6  24  1   
 12   6  25  1   
 13   7  10  2   
 14   7  12  1   
 15   8  26  1   
 16   8  27  1   
 17   8  28  1   
 18  10  13  1   
 19  11  14  1   
 20  11  29  1   
 21  11  30  1   
 22  12  15  ar  
 23  12  31  1   
 24  13  15  ar  
 25  13  16  1   
 26  14  17  1   
 27  14  32  1   
 28  14  33  1   
 29  15  18  ar  
 30  16  19  2   
 31  16  34  1   
 32  17  35  1   
 33  17  36  1   
 34  17  37  1   
 35  18  19  1   
 36  18  20  1   
 37  19  21  1   
 38  20  22  1   
 39  20  38  1   
 40  20  39  1   
 41  21  40  1   
 42  21  41  1   
 43  21  42  1   
 44  22  23  1   
 45  22  43  1   
 46  22  44  1   
 47  23  45  1   
 48  23  46  1   
 49  23  47  1   
@<TRIPOS>SUBSTRUCTURE
  1 ****  10 GROUP 4 **** **** 0

# MOE 2024.06 (io_trps.svl 2023.06)
