@<TRIPOS>MOLECULE
NONAME
39 41 1 0 0 
SMALL
USER_CHARGES


@<TRIPOS>ATOM
  1 S       -0.0680     0.0380    -0.5500 S.3   1 <1>  -0.3710 
  2 C       -1.5540     0.8900    -0.1470 C.2   1 <1>   0.6510 
  3 C        0.9200     1.5650    -0.7060 C.3   1 <1>   0.1310 
  4 N       -2.6200     0.2200     0.1150 N.2   1 <1>  -0.6210 
  5 N       -1.3960     2.2440    -0.1450 N.am  1 <1>  -0.2290 
  6 C       -0.0760     2.6640    -0.3800 C.2   1 <1>   0.5690 
  7 C       -3.7120     0.9430     0.4210 C.2   1 <1>   0.0330 
  8 C       -2.5020     3.0230     0.1450 C.2   1 <1>   0.1090 
  9 O        0.3140     3.7990    -0.3290 O.2   1 <1>  -0.5700 
 10 C       -3.7040     2.3230     0.4310 C.2   1 <1>  -0.1380 
 11 C       -4.9100     0.0570     0.7310 C.3   1 <1>  -0.1020 
 12 C       -2.4320     4.4280     0.1520 C.2   1 <1>   0.0000 
 13 C       -4.9490     3.1700     0.7240 C.3   1 <1>   0.6180 
 14 C       -2.5920     5.1730     1.3450 C.2   1 <1>  -0.1500 
 15 C       -2.2130     5.1730    -1.0300 C.2   1 <1>  -0.1500 
 16 O       -5.1930     3.1510     2.0700 O.3   1 <1>  -0.6800 
 17 O       -6.0830     2.6440     0.1300 O.3   1 <1>  -0.5600 
 18 C       -2.5440     6.5390     1.3550 C.2   1 <1>  -0.1360 
 19 C       -2.1630     6.5400    -1.0230 C.2   1 <1>  -0.1360 
 20 C       -7.1680     3.5130     0.0680 C.3   1 <1>   0.1200 
 21 C       -2.3320     7.2730     0.1690 C.2   1 <1>   0.5410 
 22 C       -8.3040     2.7730    -0.6270 C.3   1 <1>  -0.2400 
 23 O       -2.3090     8.5100     0.1740 O.2   1 <1>  -0.5700 
 24 H        1.2830     1.6360    -1.7150 H     1 <1>   0.0800 
 25 H        1.7240     1.5260     0.0060 H     1 <1>   0.0800 
 26 H       -4.5850    -0.8510     1.2060 H     1 <1>   0.0800 
 27 H       -5.4100    -0.2000    -0.1850 H     1 <1>   0.0800 
 28 H       -5.6130     0.5310     1.3880 H     1 <1>   0.0800 
 29 H       -4.8380     4.1900     0.4010 H     1 <1>   0.0800 
 30 H       -2.7530     4.6320     2.2630 H     1 <1>   0.1500 
 31 H       -2.0780     4.6330    -1.9510 H     1 <1>   0.1500 
 32 H       -5.3790     2.2240     2.2970 H     1 <1>   0.4000 
 33 H       -2.6650     7.1050     2.2600 H     1 <1>   0.1500 
 34 H       -1.9920     7.1070    -1.9190 H     1 <1>   0.1500 
 35 H       -6.8860     4.3880    -0.4940 H     1 <1>   0.0800 
 36 H       -7.4560     3.7940     1.0680 H     1 <1>   0.0800 
 37 H       -8.0050     2.4840    -1.6190 H     1 <1>   0.0800 
 38 H       -9.1650     3.4130    -0.7000 H     1 <1>   0.0800 
 39 H       -8.5740     1.8980    -0.0650 H     1 <1>   0.0800 
@<TRIPOS>BOND
  1   1   2  1   
  2   1   3  1   
  3   2   4  2   
  4   2   5  1   
  5   3   6  1   
  6   3  24  1   
  7   3  25  1   
  8   4   7  1   
  9   5   6  am  
 10   5   8  1   
 11   6   9  2   
 12   7  10  2   
 13   7  11  1   
 14   8  10  1   
 15   8  12  2   
 16  10  13  1   
 17  11  26  1   
 18  11  27  1   
 19  11  28  1   
 20  12  14  1   
 21  12  15  1   
 22  13  16  1   
 23  13  17  1   
 24  13  29  1   
 25  14  18  2   
 26  14  30  1   
 27  15  19  2   
 28  15  31  1   
 29  16  32  1   
 30  17  20  1   
 31  18  21  1   
 32  18  33  1   
 33  19  21  1   
 34  19  34  1   
 35  20  22  1   
 36  20  35  1   
 37  20  36  1   
 38  21  23  2   
 39  22  37  1   
 40  22  38  1   
 41  22  39  1   
@<TRIPOS>SUBSTRUCTURE
  1 ****   8 GROUP 4 **** **** 0

# MOE 2024.06 (io_trps.svl 2023.06)
