@<TRIPOS>MOLECULE
NONAME
38 39 1 0 0 
SMALL
USER_CHARGES


@<TRIPOS>ATOM
  1 O        0.4410     0.4410    -1.1820 O.2   1 <1>  -0.5700 
  2 C        1.2230     1.2210    -0.6790 C.2   1 <1>   0.6900 
  3 N        1.0700     2.5960    -0.7650 N.am  1 <1>  -0.4690 
  4 N        2.2800     0.7120    -0.0290 N.am  1 <1>  -0.7300 
  5 C        1.9990     3.4700    -0.1850 C.2   1 <1>  -0.0290 
  6 C       -0.1050     3.1120    -1.5370 C.3   1 <1>   0.0600 
  7 C        3.4150     1.5030     0.4510 C.3   1 <1>   0.5020 
  8 C        3.1490     3.0050     0.3860 C.2   1 <1>  -0.1240 
  9 C        1.6390     4.9580    -0.2200 C.3   1 <1>  -0.1020 
 10 C        4.6350     1.0960    -0.3800 C.ar  1 <1>  -0.1440 
 11 C        4.2250     3.7610     0.9570 C.2   1 <1>   0.7060 
 12 C        5.6640     0.3050     0.1340 C.ar  1 <1>  -0.1440 
 13 C        4.7130     1.5320    -1.6980 C.ar  1 <1>  -0.1500 
 14 O        4.5390     4.8780     0.5950 O.2   1 <1>  -0.5700 
 15 O        4.9360     3.2010     1.9460 O.3   1 <1>  -0.4300 
 16 C        6.7450    -0.0170    -0.6730 C.ar  1 <1>  -0.1500 
 17 C        5.6470    -0.2280     1.5600 C.3   1 <1>  -0.0970 
 18 C        5.7940     1.2050    -2.4940 C.ar  1 <1>  -0.1500 
 19 C        6.0570     3.8520     2.5150 C.3   1 <1>   0.0400 
 20 C        6.8140     0.4290    -1.9790 C.ar  1 <1>  -0.1500 
 21 H        2.4670    -0.2730    -0.1940 H     1 <1>   0.3700 
 22 H       -0.5320     2.3450    -2.1590 H     1 <1>   0.0800 
 23 H        0.1970     3.9190    -2.1790 H     1 <1>   0.0800 
 24 H       -0.8600     3.4560    -0.8530 H     1 <1>   0.0800 
 25 H        3.5570     1.2380     1.4820 H     1 <1>   0.0800 
 26 H        0.6170     5.1060     0.0750 H     1 <1>   0.0800 
 27 H        1.7830     5.3480    -1.2110 H     1 <1>   0.0800 
 28 H        2.2320     5.5400     0.4570 H     1 <1>   0.0800 
 29 H        3.9230     2.1330    -2.1170 H     1 <1>   0.1500 
 30 H        7.5480    -0.6230    -0.2890 H     1 <1>   0.1500 
 31 H        5.7080     0.5840     2.2610 H     1 <1>   0.0800 
 32 H        6.4810    -0.8840     1.7360 H     1 <1>   0.0800 
 33 H        4.7450    -0.7850     1.7390 H     1 <1>   0.0800 
 34 H        5.8400     1.5520    -3.5110 H     1 <1>   0.1500 
 35 H        6.4680     3.2180     3.2800 H     1 <1>   0.0800 
 36 H        5.7390     4.7890     2.9390 H     1 <1>   0.0800 
 37 H        6.7880     4.0220     1.7430 H     1 <1>   0.0800 
 38 H        7.6590     0.1720    -2.5940 H     1 <1>   0.1500 
@<TRIPOS>BOND
  1   1   2  2   
  2   2   3  am  
  3   2   4  am  
  4   3   5  1   
  5   3   6  1   
  6   4   7  1   
  7   4  21  1   
  8   5   8  2   
  9   5   9  1   
 10   6  22  1   
 11   6  23  1   
 12   6  24  1   
 13   7   8  1   
 14   7  10  1   
 15   7  25  1   
 16   8  11  1   
 17   9  26  1   
 18   9  27  1   
 19   9  28  1   
 20  10  12  ar  
 21  10  13  ar  
 22  11  14  2   
 23  11  15  1   
 24  12  16  ar  
 25  12  17  1   
 26  13  18  ar  
 27  13  29  1   
 28  15  19  1   
 29  16  20  ar  
 30  16  30  1   
 31  17  31  1   
 32  17  32  1   
 33  17  33  1   
 34  18  20  ar  
 35  18  34  1   
 36  19  35  1   
 37  19  36  1   
 38  19  37  1   
 39  20  38  1   
@<TRIPOS>SUBSTRUCTURE
  1 ****   7 GROUP 4 **** **** 0

# MOE 2024.06 (io_trps.svl 2023.06)
