@<TRIPOS>MOLECULE
NONAME
34 35 1 0 0 
SMALL
USER_CHARGES


@<TRIPOS>ATOM
  1 F       -0.6740    -0.1310     1.2470 F     1 <1>  -0.1900 
  2 C       -1.7020    -0.7720     0.7630 C.ar  1 <1>   0.1900 
  3 C       -2.3560    -1.6860     1.5650 C.ar  1 <1>  -0.1500 
  4 C       -2.0970    -0.5150    -0.5350 C.ar  1 <1>  -0.1500 
  5 C       -3.4490    -2.3620     1.0490 C.ar  1 <1>  -0.1500 
  6 C       -3.1910    -1.1950    -1.0440 C.ar  1 <1>  -0.1500 
  7 C       -3.8740    -2.1150    -0.2540 C.ar  1 <1>  -0.1430 
  8 C       -5.0820    -2.8460    -0.8120 C.3   1 <1>   0.4870 
  9 N       -6.3100    -2.3160    -0.1600 N.4   1 <1>  -0.9590 
 10 C       -7.4620    -3.2240    -0.4080 C.3   1 <1>   0.3430 
 11 C       -6.5570    -0.8940    -0.5440 C.3   1 <1>   0.3430 
 12 C       -8.6740    -2.8740     0.4570 C.3   1 <1>  -0.1600 
 13 C       -7.2700    -0.1690     0.5950 C.3   1 <1>  -0.1600 
 14 C       -9.3860    -1.5890     0.0100 C.3   1 <1>  -0.1600 
 15 C       -8.8020    -0.3000     0.6040 C.3   1 <1>  -0.1600 
 16 H       -2.0090    -1.8600     2.5690 H     1 <1>   0.1500 
 17 H       -1.5540     0.2010    -1.1270 H     1 <1>   0.1500 
 18 H       -3.9520    -3.0810     1.6730 H     1 <1>   0.1500 
 19 H       -3.4950    -0.9980    -2.0590 H     1 <1>   0.1500 
 20 H       -4.9770    -3.8990    -0.6060 H     1 <1>   0.0800 
 21 H       -5.1370    -2.7120    -1.8800 H     1 <1>   0.0800 
 22 H       -6.1190    -2.3100     0.8490 H     1 <1>   0.4500 
 23 H       -7.1690    -4.2370    -0.1810 H     1 <1>   0.0800 
 24 H       -7.7430    -3.1870    -1.4490 H     1 <1>   0.0800 
 25 H       -7.1320    -0.8330    -1.4540 H     1 <1>   0.0800 
 26 H       -5.6140    -0.3980    -0.7090 H     1 <1>   0.0800 
 27 H       -8.4090    -2.8290     1.4990 H     1 <1>   0.0800 
 28 H       -9.3770    -3.6830     0.3500 H     1 <1>   0.0800 
 29 H       -7.0380     0.8800     0.5150 H     1 <1>   0.0800 
 30 H       -6.8680    -0.4940     1.5390 H     1 <1>   0.0800 
 31 H      -10.4190    -1.6460     0.3160 H     1 <1>   0.0800 
 32 H       -9.3910    -1.5280    -1.0660 H     1 <1>   0.0800 
 33 H       -9.2240     0.5290     0.0600 H     1 <1>   0.0800 
 34 H       -9.1430    -0.1990     1.6220 H     1 <1>   0.0800 
@<TRIPOS>BOND
  1   1   2  1   
  2   2   3  ar  
  3   2   4  ar  
  4   3   5  ar  
  5   3  16  1   
  6   4   6  ar  
  7   4  17  1   
  8   5   7  ar  
  9   5  18  1   
 10   6   7  ar  
 11   6  19  1   
 12   7   8  1   
 13   8   9  1   
 14   8  20  1   
 15   8  21  1   
 16   9  10  1   
 17   9  11  1   
 18   9  22  1   
 19  10  12  1   
 20  10  23  1   
 21  10  24  1   
 22  11  13  1   
 23  11  25  1   
 24  11  26  1   
 25  12  14  1   
 26  12  27  1   
 27  12  28  1   
 28  13  15  1   
 29  13  29  1   
 30  13  30  1   
 31  14  15  1   
 32  14  31  1   
 33  14  32  1   
 34  15  33  1   
 35  15  34  1   
@<TRIPOS>SUBSTRUCTURE
  1 ****   7 GROUP 4 **** **** 0

# MOE 2024.06 (io_trps.svl 2023.06)
