@<TRIPOS>MOLECULE
NONAME
46 47 1 0 0 
SMALL
USER_CHARGES


@<TRIPOS>ATOM
  1 O        0.3650    -2.6490    -1.6240 O.2   1 <1>  -0.5700 
  2 C       -0.0960    -2.0730    -0.6670 C.2   1 <1>   0.5690 
  3 N        0.6290    -1.2930     0.1850 N.am  1 <1>  -0.5470 
  4 C       -1.5910    -2.2070    -0.3670 C.3   1 <1>   0.1710 
  5 C        1.9690    -0.8670     0.2370 C.ar  1 <1>   0.1170 
  6 N       -2.1230    -1.1790     0.5880 N.3   1 <1>  -0.8100 
  7 C        2.3160     0.1230     1.1630 C.ar  1 <1>   0.0830 
  8 C        2.9570    -1.3920    -0.5860 C.ar  1 <1>  -0.1500 
  9 C       -3.4360    -1.5840     1.1280 C.3   1 <1>   0.1100 
 10 C       -2.2530     0.1480    -0.0710 C.3   1 <1>   0.1100 
 11 O        1.3150     0.6160     1.9580 O.3   1 <1>  -0.3630 
 12 C        3.6310     0.5690     1.2460 C.ar  1 <1>  -0.1500 
 13 C        4.2670    -0.9500    -0.5050 C.ar  1 <1>   0.0830 
 14 C       -4.5570    -1.6230     0.0530 C.3   1 <1>   0.2000 
 15 C       -3.6320     0.4140    -0.7350 C.3   1 <1>   0.2000 
 16 C        1.5910     1.5300     2.9970 C.3   1 <1>   0.0400 
 17 C        4.6030     0.0360     0.4170 C.ar  1 <1>  -0.1500 
 18 O        5.1600    -1.5240    -1.3530 O.3   1 <1>  -0.3630 
 19 O       -4.2950    -0.7780    -1.0340 O.3   1 <1>  -0.5600 
 20 C       -5.9310    -1.2600     0.6190 C.3   1 <1>  -0.2400 
 21 C       -3.5000     1.1880    -2.0430 C.3   1 <1>  -0.2400 
 22 C        6.5160    -1.1360    -1.3610 C.3   1 <1>   0.0400 
 23 H        0.0350    -0.8650     0.9050 H     1 <1>   0.3700 
 24 H       -1.7370    -3.1870     0.0500 H     1 <1>   0.0800 
 25 H       -2.1290    -2.1630    -1.2970 H     1 <1>   0.0800 
 26 H        2.7200    -2.1550    -1.3020 H     1 <1>   0.1500 
 27 H       -3.7130    -0.8830     1.8970 H     1 <1>   0.0800 
 28 H       -3.3590    -2.5470     1.6020 H     1 <1>   0.0800 
 29 H       -1.4730     0.2700    -0.8030 H     1 <1>   0.0800 
 30 H       -2.0920     0.9120     0.6690 H     1 <1>   0.0800 
 31 H        3.9220     1.3300     1.9450 H     1 <1>   0.1500 
 32 H       -4.6080    -2.6190    -0.3490 H     1 <1>   0.0800 
 33 H       -4.2520     0.9740    -0.0560 H     1 <1>   0.0800 
 34 H        0.6710     1.7360     3.5130 H     1 <1>   0.0800 
 35 H        1.9810     2.4370     2.5700 H     1 <1>   0.0800 
 36 H        2.2970     1.0850     3.6750 H     1 <1>   0.0800 
 37 H        5.6090     0.3990     0.5030 H     1 <1>   0.1500 
 38 H       -5.9260    -0.2690     1.0330 H     1 <1>   0.0800 
 39 H       -6.2000    -1.9530     1.3950 H     1 <1>   0.0800 
 40 H       -6.6700    -1.3180    -0.1600 H     1 <1>   0.0800 
 41 H       -2.9150     0.6260    -2.7490 H     1 <1>   0.0800 
 42 H       -3.0180     2.1330    -1.8680 H     1 <1>   0.0800 
 43 H       -4.4750     1.3720    -2.4570 H     1 <1>   0.0800 
 44 H        7.0240    -1.7160    -2.1100 H     1 <1>   0.0800 
 45 H        6.9410    -1.3350    -0.3930 H     1 <1>   0.0800 
 46 H        6.5780    -0.0900    -1.6050 H     1 <1>   0.0800 
@<TRIPOS>BOND
  1   1   2  2   
  2   2   3  am  
  3   2   4  1   
  4   3   5  1   
  5   3  23  1   
  6   4   6  1   
  7   4  24  1   
  8   4  25  1   
  9   5   7  ar  
 10   5   8  ar  
 11   6   9  1   
 12   6  10  1   
 13   7  11  1   
 14   7  12  ar  
 15   8  13  ar  
 16   8  26  1   
 17   9  14  1   
 18   9  27  1   
 19   9  28  1   
 20  10  15  1   
 21  10  29  1   
 22  10  30  1   
 23  11  16  1   
 24  12  17  ar  
 25  12  31  1   
 26  13  17  ar  
 27  13  18  1   
 28  14  19  1   
 29  14  20  1   
 30  14  32  1   
 31  15  19  1   
 32  15  21  1   
 33  15  33  1   
 34  16  34  1   
 35  16  35  1   
 36  16  36  1   
 37  17  37  1   
 38  18  22  1   
 39  20  38  1   
 40  20  39  1   
 41  20  40  1   
 42  21  41  1   
 43  21  42  1   
 44  21  43  1   
 45  22  44  1   
 46  22  45  1   
 47  22  46  1   
@<TRIPOS>SUBSTRUCTURE
  1 ****   3 GROUP 4 **** **** 0

# MOE 2024.06 (io_trps.svl 2023.06)
