@<TRIPOS>MOLECULE
NONAME
45 46 1 0 0 
SMALL
USER_CHARGES


@<TRIPOS>ATOM
  1 O        1.2720    -3.3890    -0.3840 O.3   1 <1>  -0.3630 
  2 C        0.1020    -2.7660    -0.0790 C.ar  1 <1>   0.0830 
  3 C        2.2630    -3.6210     0.5930 C.3   1 <1>   0.1200 
  4 C       -0.8010    -2.5480    -1.1160 C.ar  1 <1>  -0.1440 
  5 C       -0.2190    -2.3470     1.2100 C.ar  1 <1>  -0.1500 
  6 C        3.4440    -4.3310    -0.0790 C.3   1 <1>   0.2000 
  7 C       -2.0060    -1.9160    -0.8520 C.ar  1 <1>  -0.1500 
  8 C       -0.4830    -2.9930    -2.5360 C.3   1 <1>  -0.0960 
  9 C       -1.4250    -1.7180     1.4590 C.ar  1 <1>  -0.1500 
 10 O        2.9640    -5.4360    -0.7860 O.3   1 <1>  -0.6800 
 11 C        4.5070    -4.8080     0.9340 C.3   1 <1>   0.3430 
 12 C       -2.3240    -1.4980     0.4300 C.ar  1 <1>  -0.1440 
 13 N        5.3110    -5.9290     0.3580 N.4   1 <1>  -0.9590 
 14 C       -3.6490    -0.8100     0.7010 C.3   1 <1>  -0.0970 
 15 C        5.8470    -6.8490     1.3990 C.3   1 <1>   0.3430 
 16 C        6.3540    -5.4610    -0.5980 C.3   1 <1>   0.3430 
 17 C        6.4740    -8.0730     0.7290 C.3   1 <1>  -0.1600 
 18 C        6.9880    -6.6650    -1.2960 C.3   1 <1>  -0.1600 
 19 C        7.5500    -7.6780    -0.2900 C.3   1 <1>  -0.1600 
 20 H        1.8380    -4.2360     1.3680 H     1 <1>   0.0800 
 21 H        2.5670    -2.6720     1.0000 H     1 <1>   0.0800 
 22 H        0.4470    -2.4980     2.0360 H     1 <1>   0.1500 
 23 H        3.8950    -3.6590    -0.7890 H     1 <1>   0.0800 
 24 H       -2.7080    -1.7470    -1.6500 H     1 <1>   0.1500 
 25 H        0.4300    -2.5320    -2.8680 H     1 <1>   0.0800 
 26 H       -1.2700    -2.7160    -3.2140 H     1 <1>   0.0800 
 27 H       -0.3660    -4.0610    -2.5660 H     1 <1>   0.0800 
 28 H       -1.6630    -1.4000     2.4580 H     1 <1>   0.1500 
 29 H        2.1210    -5.1740    -1.2280 H     1 <1>   0.4000 
 30 H        3.9910    -5.1580     1.8130 H     1 <1>   0.0800 
 31 H        5.1420    -3.9890     1.2270 H     1 <1>   0.0800 
 32 H        4.6130    -6.4500    -0.2090 H     1 <1>   0.4500 
 33 H       -4.4120    -1.5470     0.8770 H     1 <1>   0.0800 
 34 H       -3.9370    -0.2060    -0.1420 H     1 <1>   0.0800 
 35 H       -3.5750    -0.1720     1.5640 H     1 <1>   0.0800 
 36 H        5.0530    -7.1680     2.0550 H     1 <1>   0.0800 
 37 H        6.5930    -6.3390     1.9870 H     1 <1>   0.0800 
 38 H        7.1150    -4.9100    -0.0690 H     1 <1>   0.0800 
 39 H        5.9130    -4.8130    -1.3380 H     1 <1>   0.0800 
 40 H        5.7030    -8.6460     0.2440 H     1 <1>   0.0800 
 41 H        6.9120    -8.7020     1.4850 H     1 <1>   0.0800 
 42 H        7.7810    -6.3230    -1.9390 H     1 <1>   0.0800 
 43 H        6.2510    -7.1400    -1.9210 H     1 <1>   0.0800 
 44 H        7.9010    -8.5540    -0.8100 H     1 <1>   0.0800 
 45 H        8.3920    -7.2440     0.2250 H     1 <1>   0.0800 
@<TRIPOS>BOND
  1   1   2  1   
  2   1   3  1   
  3   2   4  ar  
  4   2   5  ar  
  5   3   6  1   
  6   3  20  1   
  7   3  21  1   
  8   4   7  ar  
  9   4   8  1   
 10   5   9  ar  
 11   5  22  1   
 12   6  10  1   
 13   6  11  1   
 14   6  23  1   
 15   7  12  ar  
 16   7  24  1   
 17   8  25  1   
 18   8  26  1   
 19   8  27  1   
 20   9  12  ar  
 21   9  28  1   
 22  10  29  1   
 23  11  13  1   
 24  11  30  1   
 25  11  31  1   
 26  12  14  1   
 27  13  15  1   
 28  13  16  1   
 29  13  32  1   
 30  14  33  1   
 31  14  34  1   
 32  14  35  1   
 33  15  17  1   
 34  15  36  1   
 35  15  37  1   
 36  16  18  1   
 37  16  38  1   
 38  16  39  1   
 39  17  19  1   
 40  17  40  1   
 41  17  41  1   
 42  18  19  1   
 43  18  42  1   
 44  18  43  1   
 45  19  44  1   
 46  19  45  1   
@<TRIPOS>SUBSTRUCTURE
  1 ****   3 GROUP 4 **** **** 0

# MOE 2024.06 (io_trps.svl 2023.06)
