@<TRIPOS>MOLECULE
NONAME
35 35 1 0 0 
SMALL
USER_CHARGES


@<TRIPOS>ATOM
  1 CL       3.6750    -2.1540    -2.7850 Cl    1 <1>  -0.1770 
  2 C        4.1530    -0.9680    -1.5960 C.ar  1 <1>   0.1770 
  3 C        4.6250     0.2620    -2.0170 C.ar  1 <1>  -0.1500 
  4 C        4.0520    -1.2760    -0.2530 C.ar  1 <1>  -0.1500 
  5 C        5.0050     1.2040    -1.0760 C.ar  1 <1>  -0.1500 
  6 C        4.4330    -0.3330     0.6860 C.ar  1 <1>  -0.1500 
  7 C        4.9120     0.9060     0.2840 C.ar  1 <1>   0.0830 
  8 O        5.2700     1.7610     1.2760 O.3   1 <1>  -0.3630 
  9 C        5.8000     3.0580     1.0120 C.3   1 <1>   0.2610 
 10 C        7.2040     2.9700     0.3950 C.2   1 <1>   0.5690 
 11 C        5.8160     3.8460     2.3340 C.3   1 <1>  -0.1600 
 12 O        7.5600     3.8420    -0.3630 O.2   1 <1>  -0.5700 
 13 N        8.0020     1.9110     0.7010 N.am  1 <1>  -0.7300 
 14 C        4.4230     4.0020     2.9640 C.3   1 <1>  -0.2400 
 15 C        9.3230     1.6380     0.1350 C.3   1 <1>   0.2200 
 16 C        9.2130     0.3910    -0.7350 C.3   1 <1>  -0.2400 
 17 C       10.3000     1.4300     1.2860 C.3   1 <1>  -0.2400 
 18 H        4.6920     0.4750    -3.0690 H     1 <1>   0.1500 
 19 H        3.6800    -2.2390     0.0490 H     1 <1>   0.1500 
 20 H        5.3700     2.1520    -1.4260 H     1 <1>   0.1500 
 21 H        4.3610    -0.5530     1.7360 H     1 <1>   0.1500 
 22 H        5.1400     3.5510     0.3210 H     1 <1>   0.0800 
 23 H        6.2190     4.8250     2.1390 H     1 <1>   0.0800 
 24 H        6.4780     3.3580     3.0280 H     1 <1>   0.0800 
 25 H        7.6040     1.1650     1.2730 H     1 <1>   0.3700 
 26 H        3.7540     4.4950     2.2810 H     1 <1>   0.0800 
 27 H        4.0110     3.0410     3.2170 H     1 <1>   0.0800 
 28 H        4.4900     4.5900     3.8630 H     1 <1>   0.0800 
 29 H        9.6440     2.4740    -0.4670 H     1 <1>   0.0800 
 30 H        8.8930    -0.4560    -0.1550 H     1 <1>   0.0800 
 31 H       10.1690     0.1660    -1.1730 H     1 <1>   0.0800 
 32 H        8.5100     0.5620    -1.5310 H     1 <1>   0.0800 
 33 H        9.9990     0.6000     1.8990 H     1 <1>   0.0800 
 34 H       10.3490     2.3200     1.8880 H     1 <1>   0.0800 
 35 H       11.2830     1.2320     0.8990 H     1 <1>   0.0800 
@<TRIPOS>BOND
  1   1   2  1   
  2   2   3  ar  
  3   2   4  ar  
  4   3   5  ar  
  5   3  18  1   
  6   4   6  ar  
  7   4  19  1   
  8   5   7  ar  
  9   5  20  1   
 10   6   7  ar  
 11   6  21  1   
 12   7   8  1   
 13   8   9  1   
 14   9  10  1   
 15   9  11  1   
 16   9  22  1   
 17  10  12  2   
 18  10  13  am  
 19  11  14  1   
 20  11  23  1   
 21  11  24  1   
 22  13  15  1   
 23  13  25  1   
 24  14  26  1   
 25  14  27  1   
 26  14  28  1   
 27  15  16  1   
 28  15  17  1   
 29  15  29  1   
 30  16  30  1   
 31  16  31  1   
 32  16  32  1   
 33  17  33  1   
 34  17  34  1   
 35  17  35  1   
@<TRIPOS>SUBSTRUCTURE
  1 ****   7 GROUP 4 **** **** 0

# MOE 2024.06 (io_trps.svl 2023.06)
