@<TRIPOS>MOLECULE
NONAME
52 54 1 0 0 
SMALL
USER_CHARGES


@<TRIPOS>ATOM
  1 O       -0.5600    -0.1170     1.3790 O.2   1 <1>  -0.5700 
  2 C       -1.0800    -1.0440     0.7910 C.2   1 <1>   0.5440 
  3 N       -0.3050    -1.9580     0.1150 N.am  1 <1>  -0.5470 
  4 C       -2.5250    -1.1750     0.7650 C.ar  1 <1>   0.0860 
  5 C        1.0900    -2.1100     0.0540 C.ar  1 <1>   0.1170 
  6 C       -3.3470    -0.0480     0.7810 C.ar  1 <1>  -0.1500 
  7 C       -3.1550    -2.4210     0.7220 C.ar  1 <1>  -0.1500 
  8 C        1.6540    -2.6980    -1.0720 C.ar  1 <1>  -0.1500 
  9 C        1.9370    -1.7120     1.0830 C.ar  1 <1>  -0.1500 
 10 C       -4.7250    -0.1570     0.7360 C.ar  1 <1>  -0.1500 
 11 C       -4.5330    -2.5290     0.6760 C.ar  1 <1>  -0.1500 
 12 C        3.0220    -2.8790    -1.1700 C.ar  1 <1>  -0.1500 
 13 C        3.3050    -1.8930     0.9870 C.ar  1 <1>  -0.1500 
 14 C       -5.3380    -1.3990     0.6790 C.ar  1 <1>   0.0730 
 15 C        3.8640    -2.4830    -0.1380 C.ar  1 <1>   0.1170 
 16 C       -6.7620    -1.5230     0.6260 C.1   1 <1>  -0.0730 
 17 N        5.2510    -2.6500    -0.2190 N.am  1 <1>  -0.5470 
 18 C       -7.9440    -1.6620     0.5760 C.1   1 <1>  -0.2000 
 19 C        5.9960    -3.7550    -0.4740 C.2   1 <1>   0.5690 
 20 C       -9.4180    -1.8700     0.5090 C.3   1 <1>   0.4800 
 21 O        7.1950    -3.6730    -0.5270 O.2   1 <1>  -0.5700 
 22 C        5.3460    -5.1040    -0.6750 C.3   1 <1>  -0.1790 
 23 O       -9.6150    -3.2020     0.2350 O.3   1 <1>  -0.6800 
 24 C      -10.0570    -1.0500    -0.6300 C.3   1 <1>  -0.1600 
 25 C      -10.0970    -1.5800     1.8530 C.3   1 <1>  -0.1600 
 26 C      -11.5360    -0.6660    -0.4000 C.3   1 <1>  -0.1600 
 27 C      -11.6180    -1.8590     1.8520 C.3   1 <1>  -0.1600 
 28 C      -12.2820    -1.6840     0.4720 C.3   1 <1>  -0.1600 
 29 H       -0.8270    -2.5630    -0.5160 H     1 <1>   0.3700 
 30 H       -2.8910     0.9270     0.8280 H     1 <1>   0.1500 
 31 H       -2.5650    -3.3200     0.7350 H     1 <1>   0.1500 
 32 H        1.0220    -3.0090    -1.8840 H     1 <1>   0.1500 
 33 H        1.5270    -1.2580     1.9670 H     1 <1>   0.1500 
 34 H       -5.3350     0.7300     0.7470 H     1 <1>   0.1500 
 35 H       -4.9990    -3.4990     0.6410 H     1 <1>   0.1500 
 36 H        3.4410    -3.3210    -2.0550 H     1 <1>   0.1500 
 37 H        3.9410    -1.5770     1.7940 H     1 <1>   0.1500 
 38 H        5.8220    -1.8310    -0.0050 H     1 <1>   0.3700 
 39 H        4.5200    -5.2250    -0.0010 H     1 <1>   0.0800 
 40 H        6.0640    -5.8800    -0.4840 H     1 <1>   0.0800 
 41 H        5.0030    -5.1920    -1.6880 H     1 <1>   0.0800 
 42 H      -10.5740    -3.3620     0.2610 H     1 <1>   0.4000 
 43 H       -9.9520    -1.5920    -1.5530 H     1 <1>   0.0800 
 44 H       -9.5060    -0.1330    -0.7470 H     1 <1>   0.0800 
 45 H       -9.9400    -0.5400     2.0770 H     1 <1>   0.0800 
 46 H       -9.6180    -2.1450     2.6330 H     1 <1>   0.0800 
 47 H      -12.0320    -0.5600    -1.3490 H     1 <1>   0.0800 
 48 H      -11.5760     0.2910     0.0920 H     1 <1>   0.0800 
 49 H      -12.0840    -1.1930     2.5580 H     1 <1>   0.0800 
 50 H      -11.7990    -2.8630     2.1980 H     1 <1>   0.0800 
 51 H      -12.3080    -2.6290    -0.0440 H     1 <1>   0.0800 
 52 H      -13.3030    -1.3690     0.6050 H     1 <1>   0.0800 
@<TRIPOS>BOND
  1   1   2  2   
  2   2   3  am  
  3   2   4  1   
  4   3   5  1   
  5   3  29  1   
  6   4   6  ar  
  7   4   7  ar  
  8   5   8  ar  
  9   5   9  ar  
 10   6  10  ar  
 11   6  30  1   
 12   7  11  ar  
 13   7  31  1   
 14   8  12  ar  
 15   8  32  1   
 16   9  13  ar  
 17   9  33  1   
 18  10  14  ar  
 19  10  34  1   
 20  11  14  ar  
 21  11  35  1   
 22  12  15  ar  
 23  12  36  1   
 24  13  15  ar  
 25  13  37  1   
 26  14  16  1   
 27  15  17  1   
 28  16  18  3   
 29  17  19  am  
 30  17  38  1   
 31  18  20  1   
 32  19  21  2   
 33  19  22  1   
 34  20  23  1   
 35  20  24  1   
 36  20  25  1   
 37  22  39  1   
 38  22  40  1   
 39  22  41  1   
 40  23  42  1   
 41  24  26  1   
 42  24  43  1   
 43  24  44  1   
 44  25  27  1   
 45  25  45  1   
 46  25  46  1   
 47  26  28  1   
 48  26  47  1   
 49  26  48  1   
 50  27  28  1   
 51  27  49  1   
 52  27  50  1   
 53  28  51  1   
 54  28  52  1   
@<TRIPOS>SUBSTRUCTURE
  1 ****   7 GROUP 4 **** **** 0

# MOE 2024.06 (io_trps.svl 2023.06)
