@<TRIPOS>MOLECULE
NONAME
45 46 1 0 0 
SMALL
USER_CHARGES


@<TRIPOS>ATOM
  1 O       -0.1450     0.2890     0.7190 O.3   1 <1>  -0.3630 
  2 C       -0.0440     1.6120     0.4450 C.ar  1 <1>   0.0830 
  3 C       -1.3200    -0.4310     0.4150 C.3   1 <1>   0.0400 
  4 C       -1.0320     2.3510    -0.1940 C.ar  1 <1>  -0.1500 
  5 C        1.1280     2.2340     0.8370 C.ar  1 <1>  -0.1500 
  6 C       -0.8460     3.7010    -0.4340 C.ar  1 <1>   0.0830 
  7 C        1.3300     3.5830     0.5910 C.ar  1 <1>  -0.1430 
  8 O       -1.8610     4.3490    -1.0570 O.3   1 <1>  -0.3630 
  9 C        0.3380     4.3190    -0.0420 C.ar  1 <1>  -0.1500 
 10 C        2.6320     4.2300     0.9980 C.3   1 <1>   0.4860 
 11 C       -1.8730     5.7500    -1.2150 C.3   1 <1>   0.0400 
 12 N        3.5950     3.9240    -0.0790 N.4   1 <1>  -0.9060 
 13 C        4.9680     4.4050     0.1540 C.3   1 <1>   0.4230 
 14 C        5.0220     5.9240    -0.0790 C.3   1 <1>  -0.1600 
 15 C        5.8880     3.5920    -0.7630 C.3   1 <1>  -0.1600 
 16 C        6.3080     6.5410     0.4910 C.3   1 <1>  -0.1600 
 17 C        7.3780     3.9670    -0.6860 C.3   1 <1>  -0.1600 
 18 C        7.5030     6.5460    -0.4740 C.3   1 <1>  -0.1600 
 19 C        7.6830     5.3080    -1.3670 C.3   1 <1>  -0.1600 
 20 H       -1.1840    -1.4480     0.7380 H     1 <1>   0.0800 
 21 H       -1.4830    -0.4050    -0.6480 H     1 <1>   0.0800 
 22 H       -2.1480     0.0110     0.9420 H     1 <1>   0.0800 
 23 H       -1.9540     1.9050    -0.5130 H     1 <1>   0.1500 
 24 H        1.8680     1.6330     1.3380 H     1 <1>   0.1500 
 25 H        0.4840     5.3670    -0.2300 H     1 <1>   0.1500 
 26 H        2.9680     3.8200     1.9370 H     1 <1>   0.0800 
 27 H        2.4990     5.2940     1.1070 H     1 <1>   0.0800 
 28 H       -2.8060     6.0250    -1.6740 H     1 <1>   0.0800 
 29 H       -1.0570     6.0390    -1.8520 H     1 <1>   0.0800 
 30 H       -1.7950     6.2130    -0.2470 H     1 <1>   0.0800 
 31 H        3.2370     4.3040    -0.9610 H     1 <1>   0.4500 
 32 H        3.6020     2.9060    -0.2000 H     1 <1>   0.4500 
 33 H        5.2470     4.2020     1.1770 H     1 <1>   0.0800 
 34 H        4.2050     6.3940     0.4370 H     1 <1>   0.0800 
 35 H        4.9310     6.1600    -1.1250 H     1 <1>   0.0800 
 36 H        5.5640     3.6830    -1.7860 H     1 <1>   0.0800 
 37 H        5.8100     2.5550    -0.4860 H     1 <1>   0.0800 
 38 H        6.5870     6.0340     1.3990 H     1 <1>   0.0800 
 39 H        6.1130     7.5660     0.7620 H     1 <1>   0.0800 
 40 H        7.9320     3.2060    -1.2100 H     1 <1>   0.0800 
 41 H        7.7310     3.9680     0.3310 H     1 <1>   0.0800 
 42 H        8.3980     6.6800     0.1100 H     1 <1>   0.0800 
 43 H        7.4270     7.4070    -1.1180 H     1 <1>   0.0800 
 44 H        7.0820     5.4130    -2.2550 H     1 <1>   0.0800 
 45 H        8.7080     5.2970    -1.6980 H     1 <1>   0.0800 
@<TRIPOS>BOND
  1   1   2  1   
  2   1   3  1   
  3   2   4  ar  
  4   2   5  ar  
  5   3  20  1   
  6   3  21  1   
  7   3  22  1   
  8   4   6  ar  
  9   4  23  1   
 10   5   7  ar  
 11   5  24  1   
 12   6   8  1   
 13   6   9  ar  
 14   7   9  ar  
 15   7  10  1   
 16   8  11  1   
 17   9  25  1   
 18  10  12  1   
 19  10  26  1   
 20  10  27  1   
 21  11  28  1   
 22  11  29  1   
 23  11  30  1   
 24  12  13  1   
 25  12  31  1   
 26  12  32  1   
 27  13  14  1   
 28  13  15  1   
 29  13  33  1   
 30  14  16  1   
 31  14  34  1   
 32  14  35  1   
 33  15  17  1   
 34  15  36  1   
 35  15  37  1   
 36  16  18  1   
 37  16  38  1   
 38  16  39  1   
 39  17  19  1   
 40  17  40  1   
 41  17  41  1   
 42  18  19  1   
 43  18  42  1   
 44  18  43  1   
 45  19  44  1   
 46  19  45  1   
@<TRIPOS>SUBSTRUCTURE
  1 ****  12 GROUP 4 **** **** 0

# MOE 2024.06 (io_trps.svl 2023.06)
