@<TRIPOS>MOLECULE
NONAME
40 41 1 0 0 
SMALL
USER_CHARGES


@<TRIPOS>ATOM
  1 S        0.2890    -0.1460    -0.3770 S.3   1 <1>  -0.3320 
  2 C       -1.2270     0.7840    -0.3110 C.ar  1 <1>   0.7220 
  3 C        1.4710     0.9860    -1.2520 C.3   1 <1>   0.1310 
  4 N       -2.2320     0.1580     0.2680 N.ar  1 <1>  -0.6200 
  5 N       -1.1860     1.9950    -0.8370 N.ar  1 <1>  -0.6200 
  6 C        2.8670     0.3820    -1.2870 C.2   1 <1>   0.5690 
  7 C       -3.3740     0.8350     0.3270 C.ar  1 <1>   0.1660 
  8 C       -2.3160     2.6550    -0.7760 C.ar  1 <1>   0.1660 
  9 O        3.2400    -0.0470    -2.3550 O.2   1 <1>  -0.5700 
 10 N        3.6730     0.3560    -0.1610 N.am  1 <1>  -0.4770 
 11 C       -3.4430     2.1130    -0.2000 C.ar  1 <1>  -0.1500 
 12 C       -4.6220     0.1840     0.9870 C.3   1 <1>   1.1640 
 13 C       -2.3270     4.0490    -1.3700 C.3   1 <1>  -0.0960 
 14 C        4.9560    -0.2180    -0.1770 C.ar  1 <1>   0.1170 
 15 C        3.2670     0.9660     1.1350 C.3   1 <1>   0.1400 
 16 F       -5.6830     0.9880     0.9860 F     1 <1>  -0.3400 
 17 F       -5.0130    -0.9260     0.3710 F     1 <1>  -0.3400 
 18 F       -4.4220    -0.1420     2.2600 F     1 <1>  -0.3400 
 19 C        5.9750     0.3430    -0.9390 C.ar  1 <1>  -0.1500 
 20 C        5.2360    -1.3530     0.5770 C.ar  1 <1>  -0.1500 
 21 C        3.7160     2.4250     1.1840 C.3   1 <1>  -0.2400 
 22 C        7.2450    -0.2040    -0.9360 C.ar  1 <1>  -0.1500 
 23 C        6.5060    -1.9030     0.5840 C.ar  1 <1>  -0.1500 
 24 C        7.5130    -1.3270    -0.1720 C.ar  1 <1>  -0.1500 
 25 H        1.4670     1.9290    -0.7410 H     1 <1>   0.0800 
 26 H        1.0970     1.1150    -2.2510 H     1 <1>   0.0800 
 27 H       -4.3530     2.6850    -0.1690 H     1 <1>   0.1500 
 28 H       -1.6020     4.6620    -0.8670 H     1 <1>   0.0800 
 29 H       -3.2950     4.5060    -1.2720 H     1 <1>   0.0800 
 30 H       -2.0720     3.9980    -2.4130 H     1 <1>   0.0800 
 31 H        3.7290     0.4260     1.9440 H     1 <1>   0.0800 
 32 H        2.2030     0.8980     1.2750 H     1 <1>   0.0800 
 33 H        5.7610     1.2080    -1.5380 H     1 <1>   0.1500 
 34 H        4.4520    -1.8060     1.1540 H     1 <1>   0.1500 
 35 H        4.7870     2.4850     1.1000 H     1 <1>   0.0800 
 36 H        3.4270     2.8610     2.1240 H     1 <1>   0.0800 
 37 H        3.2660     2.9930     0.3910 H     1 <1>   0.0800 
 38 H        8.0240     0.2410    -1.5310 H     1 <1>   0.1500 
 39 H        6.7100    -2.7800     1.1720 H     1 <1>   0.1500 
 40 H        8.5000    -1.7540    -0.1690 H     1 <1>   0.1500 
@<TRIPOS>BOND
  1   1   2  1   
  2   1   3  1   
  3   2   4  ar  
  4   2   5  ar  
  5   3   6  1   
  6   3  25  1   
  7   3  26  1   
  8   4   7  ar  
  9   5   8  ar  
 10   6   9  2   
 11   6  10  am  
 12   7  11  ar  
 13   7  12  1   
 14   8  11  ar  
 15   8  13  1   
 16  10  14  1   
 17  10  15  1   
 18  11  27  1   
 19  12  16  1   
 20  12  17  1   
 21  12  18  1   
 22  13  28  1   
 23  13  29  1   
 24  13  30  1   
 25  14  19  ar  
 26  14  20  ar  
 27  15  21  1   
 28  15  31  1   
 29  15  32  1   
 30  19  22  ar  
 31  19  33  1   
 32  20  23  ar  
 33  20  34  1   
 34  21  35  1   
 35  21  36  1   
 36  21  37  1   
 37  22  24  ar  
 38  22  38  1   
 39  23  24  ar  
 40  23  39  1   
 41  24  40  1   
@<TRIPOS>SUBSTRUCTURE
  1 ****   1 GROUP 4 **** **** 0

# MOE 2024.06 (io_trps.svl 2023.06)
