@<TRIPOS>MOLECULE
NONAME
34 35 1 0 0 
SMALL
USER_CHARGES


@<TRIPOS>ATOM
  1 F       -0.3160    -1.5500     1.9820 F     1 <1>  -0.1900 
  2 C       -0.8280    -2.0280     0.8740 C.ar  1 <1>   0.1900 
  3 C       -0.0140    -2.7740     0.0220 C.ar  1 <1>   0.1170 
  4 C       -2.1570    -1.7600     0.6090 C.ar  1 <1>  -0.1500 
  5 N        1.3340    -3.0010     0.3620 N.am  1 <1>  -0.5470 
  6 C       -0.6030    -3.2490    -1.1470 C.ar  1 <1>  -0.1500 
  7 C       -2.7160    -2.2500    -0.5590 C.ar  1 <1>  -0.1500 
  8 C        2.2850    -3.8540    -0.1120 C.2   1 <1>   0.6900 
  9 C       -1.9350    -2.9910    -1.4330 C.ar  1 <1>  -0.1500 
 10 O        2.0400    -4.6710    -0.9790 O.2   1 <1>  -0.5700 
 11 N        3.5380    -3.7380     0.4260 N.am  1 <1>  -0.6600 
 12 C        4.4270    -4.9010     0.7000 C.3   1 <1>   0.2200 
 13 C        4.2940    -2.4820     0.1820 C.3   1 <1>   0.1400 
 14 C        5.3250    -5.1480    -0.5190 C.3   1 <1>  -0.1600 
 15 C        3.6560    -6.1550     1.1220 C.3   1 <1>  -0.2400 
 16 C        5.2130    -2.6720    -1.0320 C.3   1 <1>  -0.1600 
 17 C        6.1360    -3.8910    -0.8710 C.3   1 <1>  -0.1600 
 18 H       -2.7400    -1.1810     1.3020 H     1 <1>   0.1500 
 19 H        1.6460    -2.5180     1.2010 H     1 <1>   0.3700 
 20 H       -0.0240    -3.8230    -1.8480 H     1 <1>   0.1500 
 21 H       -3.7490    -2.0560    -0.7890 H     1 <1>   0.1500 
 22 H       -2.3660    -3.3730    -2.3430 H     1 <1>   0.1500 
 23 H        5.0600    -4.6310     1.5290 H     1 <1>   0.0800 
 24 H        4.8760    -2.2430     1.0550 H     1 <1>   0.0800 
 25 H        3.6150    -1.6680    -0.0060 H     1 <1>   0.0800 
 26 H        4.7090    -5.4320    -1.3560 H     1 <1>   0.0800 
 27 H        5.9960    -5.9620    -0.3140 H     1 <1>   0.0800 
 28 H        3.0990    -6.5640     0.2990 H     1 <1>   0.0800 
 29 H        2.9840    -5.9230     1.9280 H     1 <1>   0.0800 
 30 H        4.3450    -6.9060     1.4590 H     1 <1>   0.0800 
 31 H        5.8050    -1.7860    -1.1740 H     1 <1>   0.0800 
 32 H        4.6010    -2.8010    -1.9080 H     1 <1>   0.0800 
 33 H        6.6830    -4.0560    -1.7840 H     1 <1>   0.0800 
 34 H        6.8480    -3.6970    -0.0870 H     1 <1>   0.0800 
@<TRIPOS>BOND
  1   1   2  1   
  2   2   3  ar  
  3   2   4  ar  
  4   3   5  1   
  5   3   6  ar  
  6   4   7  ar  
  7   4  18  1   
  8   5   8  am  
  9   5  19  1   
 10   6   9  ar  
 11   6  20  1   
 12   7   9  ar  
 13   7  21  1   
 14   8  10  2   
 15   8  11  am  
 16   9  22  1   
 17  11  12  1   
 18  11  13  1   
 19  12  14  1   
 20  12  15  1   
 21  12  23  1   
 22  13  16  1   
 23  13  24  1   
 24  13  25  1   
 25  14  17  1   
 26  14  26  1   
 27  14  27  1   
 28  15  28  1   
 29  15  29  1   
 30  15  30  1   
 31  16  17  1   
 32  16  31  1   
 33  16  32  1   
 34  17  33  1   
 35  17  34  1   
@<TRIPOS>SUBSTRUCTURE
  1 ****   5 GROUP 4 **** **** 0

# MOE 2024.06 (io_trps.svl 2023.06)
