@<TRIPOS>MOLECULE
NONAME
30 31 1 0 0 
SMALL
USER_CHARGES


@<TRIPOS>ATOM
  1 F       -0.4900     0.9670     0.9870 F     1 <1>  -0.3400 
  2 C       -1.5900     0.5740     0.3460 C.3   1 <1>   1.0810 
  3 F       -1.7870    -0.6920     0.7160 F     1 <1>  -0.3400 
  4 F       -1.2550     0.5220    -0.9430 F     1 <1>  -0.3400 
  5 C       -2.8290     1.4680     0.6040 C.2   1 <1>   0.6590 
  6 O       -2.8070     2.4560     1.3060 O.2   1 <1>  -0.5700 
  7 O       -3.9450     1.0580    -0.0070 O.3   1 <1>  -0.2330 
  8 C       -5.1730     1.6490    -0.0180 C.ar  1 <1>   0.0820 
  9 C       -6.3000     0.8350     0.0050 C.ar  1 <1>  -0.1440 
 10 C       -5.3080     3.0300    -0.0700 C.ar  1 <1>  -0.1500 
 11 C       -7.5730     1.4140    -0.0040 C.ar  1 <1>   0.1000 
 12 C       -6.1460    -0.6850     0.0640 C.3   1 <1>  -0.0160 
 13 C       -6.5670     3.6000    -0.0830 C.ar  1 <1>  -0.1500 
 14 N       -8.7230     0.6230     0.0310 N.pl3 1 <1>  -0.8690 
 15 C       -7.6980     2.8040    -0.0500 C.ar  1 <1>  -0.1430 
 16 C       -7.4320    -1.4120    -0.3440 C.3   1 <1>  -0.1600 
 17 C       -8.6370    -0.8110     0.3720 C.3   1 <1>   0.2090 
 18 C       -9.0690     3.4690    -0.0740 C.3   1 <1>  -0.0970 
 19 H       -4.4460     3.6700    -0.1030 H     1 <1>   0.1500 
 20 H       -5.8880    -0.9600     1.0720 H     1 <1>   0.0800 
 21 H       -5.3520    -1.0060    -0.5860 H     1 <1>   0.0800 
 22 H       -6.6560     4.6710    -0.1200 H     1 <1>   0.1500 
 23 H       -9.5480     1.0940     0.4110 H     1 <1>   0.4000 
 24 H       -7.3520    -2.4580    -0.1100 H     1 <1>   0.0800 
 25 H       -7.5790    -1.3140    -1.4050 H     1 <1>   0.0800 
 26 H       -9.5380    -1.3080     0.0540 H     1 <1>   0.0800 
 27 H       -8.5340    -0.9210     1.4380 H     1 <1>   0.0800 
 28 H       -9.5840     3.2790     0.8500 H     1 <1>   0.0800 
 29 H       -9.6500     3.0760    -0.8890 H     1 <1>   0.0800 
 30 H       -8.9820     4.5320    -0.2040 H     1 <1>   0.0800 
@<TRIPOS>BOND
  1   1   2  1   
  2   2   3  1   
  3   2   4  1   
  4   2   5  1   
  5   5   6  2   
  6   5   7  1   
  7   7   8  1   
  8   8   9  ar  
  9   8  10  ar  
 10   9  11  ar  
 11   9  12  1   
 12  10  13  ar  
 13  10  19  1   
 14  11  14  1   
 15  11  15  ar  
 16  12  16  1   
 17  12  20  1   
 18  12  21  1   
 19  13  15  ar  
 20  13  22  1   
 21  14  17  1   
 22  14  23  1   
 23  15  18  1   
 24  16  17  1   
 25  16  24  1   
 26  16  25  1   
 27  17  26  1   
 28  17  27  1   
 29  18  28  1   
 30  18  29  1   
 31  18  30  1   
@<TRIPOS>SUBSTRUCTURE
  1 ****   8 GROUP 4 **** **** 0

# MOE 2024.06 (io_trps.svl 2023.06)
