@<TRIPOS>MOLECULE
NONAME
33 36 1 0 0 
SMALL
USER_CHARGES


@<TRIPOS>ATOM
  1 O        0.3110    -1.3510     1.3410 O.2   1 <1>  -0.5700 
  2 C       -0.3090    -2.1180     0.6340 C.2   1 <1>   0.5440 
  3 N        0.1400    -3.3450     0.1900 N.am  1 <1>  -0.4200 
  4 C       -1.6500    -1.9090     0.1710 C.ar  1 <1>   0.0860 
  5 C       -0.9240    -3.9670    -0.4290 C.2   1 <1>   0.5440 
  6 C        1.4160    -4.0250     0.5780 C.3   1 <1>   0.2200 
  7 C       -2.0330    -3.0600    -0.4920 C.ar  1 <1>   0.0860 
  8 C       -2.5280    -0.8380     0.2840 C.ar  1 <1>  -0.1500 
  9 O       -0.9350    -5.1170    -0.8160 O.2   1 <1>  -0.5700 
 10 C        2.6210    -3.1000     0.8760 C.3   1 <1>  -0.0800 
 11 C        1.9990    -4.9520    -0.5140 C.3   1 <1>  -0.1600 
 12 C       -3.3010    -3.1590    -1.0520 C.ar  1 <1>  -0.1500 
 13 C       -3.7910    -0.9350    -0.2770 C.ar  1 <1>  -0.1500 
 14 C        3.7700    -4.0950     0.8110 C.3   1 <1>  -0.1600 
 15 C        2.9480    -2.2020    -0.3360 C.3   1 <1>  -0.1600 
 16 C        3.4750    -4.5300    -0.6130 C.3   1 <1>  -0.0800 
 17 C       -4.1760    -2.0920    -0.9430 C.ar  1 <1>  -0.1500 
 18 C        3.5340    -3.1880    -1.3580 C.3   1 <1>  -0.1600 
 19 H        1.2180    -4.6140     1.4560 H     1 <1>   0.0800 
 20 H       -2.2160     0.0520     0.8050 H     1 <1>   0.1500 
 21 H        2.5490    -2.5780     1.8150 H     1 <1>   0.0800 
 22 H        1.5110    -4.8440    -1.4660 H     1 <1>   0.0800 
 23 H        1.9250    -5.9760    -0.1950 H     1 <1>   0.0800 
 24 H       -3.5850    -4.0640    -1.5640 H     1 <1>   0.1500 
 25 H       -4.4800    -0.1100    -0.1960 H     1 <1>   0.1500 
 26 H        3.6730    -4.8980     1.5220 H     1 <1>   0.0800 
 27 H        4.7350    -3.6250     0.9130 H     1 <1>   0.0800 
 28 H        3.6870    -1.4690    -0.0610 H     1 <1>   0.0800 
 29 H        2.0840    -1.6910    -0.7220 H     1 <1>   0.0800 
 30 H        4.1270    -5.2860    -1.0150 H     1 <1>   0.0800 
 31 H       -5.1610    -2.1580    -1.3750 H     1 <1>   0.1500 
 32 H        4.5540    -2.9290    -1.5820 H     1 <1>   0.0800 
 33 H        2.9660    -3.2070    -2.2720 H     1 <1>   0.0800 
@<TRIPOS>BOND
  1   1   2  2   
  2   2   3  am  
  3   2   4  1   
  4   3   5  am  
  5   3   6  1   
  6   4   7  ar  
  7   4   8  ar  
  8   5   7  1   
  9   5   9  2   
 10   6  10  1   
 11   6  11  1   
 12   6  19  1   
 13   7  12  ar  
 14   8  13  ar  
 15   8  20  1   
 16  10  14  1   
 17  10  15  1   
 18  10  21  1   
 19  11  16  1   
 20  11  22  1   
 21  11  23  1   
 22  12  17  ar  
 23  12  24  1   
 24  13  17  ar  
 25  13  25  1   
 26  14  16  1   
 27  14  26  1   
 28  14  27  1   
 29  15  18  1   
 30  15  28  1   
 31  15  29  1   
 32  16  18  1   
 33  16  30  1   
 34  17  31  1   
 35  18  32  1   
 36  18  33  1   
@<TRIPOS>SUBSTRUCTURE
  1 ****   3 GROUP 4 **** **** 0

# MOE 2024.06 (io_trps.svl 2023.06)
