@<TRIPOS>MOLECULE
NONAME
54 56 1 0 0 
SMALL
USER_CHARGES


@<TRIPOS>ATOM
  1 O        0.5350    -1.0390    -0.4200 O.3   1 <1>  -0.5600 
  2 C        1.6390    -0.4710    -1.0730 C.3   1 <1>   0.1200 
  3 C        0.7940    -2.3040     0.1280 C.3   1 <1>   0.1200 
  4 C        2.8320    -0.3050    -0.1140 C.3   1 <1>   0.2090 
  5 C        1.9280    -2.2320     1.1650 C.3   1 <1>   0.2090 
  6 N        3.1420    -1.6020     0.5610 N.pl3 1 <1>  -0.8380 
  7 C        4.3160    -2.2880     0.3320 C.ar  1 <1>   0.7200 
  8 N        5.3650    -1.5770     0.0040 N.ar  1 <1>  -0.6200 
  9 N        4.2870    -3.5920     0.4550 N.ar  1 <1>  -0.6200 
 10 C        6.4380    -2.2820    -0.1970 C.ar  1 <1>   0.7200 
 11 C        5.4300    -4.1630     0.2160 C.ar  1 <1>   0.7200 
 12 N        6.5430    -3.5780    -0.1190 N.ar  1 <1>  -0.6200 
 13 N        7.5230    -1.5430    -0.5310 N.pl3 1 <1>  -0.8690 
 14 N        5.4240    -5.5100     0.3410 N.pl3 1 <1>  -0.8690 
 15 C        8.9290    -1.8050    -0.2250 C.3   1 <1>   0.3690 
 16 C        6.4150    -6.4140    -0.2580 C.3   1 <1>   0.2890 
 17 C        9.6630    -0.4930    -0.4870 C.3   1 <1>  -0.2400 
 18 C        9.0960    -2.1950     1.2440 C.3   1 <1>  -0.2400 
 19 C        9.4700    -2.8850    -1.1620 C.3   1 <1>  -0.2400 
 20 C        5.6860    -7.6210    -0.8540 C.3   1 <1>  -0.1600 
 21 C        7.4090    -6.8450     0.8240 C.3   1 <1>  -0.1600 
 22 C        6.6800    -8.6550    -1.4030 C.3   1 <1>  -0.1600 
 23 C        8.4090    -7.8780     0.2830 C.3   1 <1>  -0.1600 
 24 C        7.6820    -9.0870    -0.3230 C.3   1 <1>  -0.1600 
 25 H        1.3360     0.4860    -1.4570 H     1 <1>   0.0800 
 26 H        1.9120    -1.1050    -1.8990 H     1 <1>   0.0800 
 27 H        1.0610    -2.9780    -0.6680 H     1 <1>   0.0800 
 28 H       -0.1100    -2.6530     0.5920 H     1 <1>   0.0800 
 29 H        2.5890     0.4310     0.6320 H     1 <1>   0.0800 
 30 H        3.6760     0.0600    -0.6700 H     1 <1>   0.0800 
 31 H        2.1390    -3.2180     1.5390 H     1 <1>   0.0800 
 32 H        1.6030    -1.6350     1.9990 H     1 <1>   0.0800 
 33 H        7.2980    -0.5540    -0.5100 H     1 <1>   0.4000 
 34 H        4.5030    -5.9020     0.5140 H     1 <1>   0.4000 
 35 H        6.9490    -5.9060    -1.0450 H     1 <1>   0.0800 
 36 H        9.2930     0.2830     0.1580 H     1 <1>   0.0800 
 37 H        9.5390    -0.1920    -1.5120 H     1 <1>   0.0800 
 38 H       10.7150    -0.6130    -0.2970 H     1 <1>   0.0800 
 39 H        8.6510    -1.4540     1.8820 H     1 <1>   0.0800 
 40 H       10.1390    -2.2760     1.4880 H     1 <1>   0.0800 
 41 H        8.6390    -3.1470     1.4420 H     1 <1>   0.0800 
 42 H        9.2860    -2.6150    -2.1860 H     1 <1>   0.0800 
 43 H        9.0050    -3.8310    -0.9620 H     1 <1>   0.0800 
 44 H       10.5290    -3.0010    -1.0210 H     1 <1>   0.0800 
 45 H        5.0420    -7.2890    -1.6500 H     1 <1>   0.0800 
 46 H        5.0830    -8.0860    -0.0940 H     1 <1>   0.0800 
 47 H        6.8710    -7.2710     1.6520 H     1 <1>   0.0800 
 48 H        7.9430    -5.9790     1.1750 H     1 <1>   0.0800 
 49 H        7.2160    -8.2280    -2.2340 H     1 <1>   0.0800 
 50 H        6.1440    -9.5160    -1.7630 H     1 <1>   0.0800 
 51 H        9.0540    -8.2060     1.0800 H     1 <1>   0.0800 
 52 H        9.0230    -7.4160    -0.4710 H     1 <1>   0.0800 
 53 H        8.4030    -9.7640    -0.7500 H     1 <1>   0.0800 
 54 H        7.1590    -9.6140     0.4570 H     1 <1>   0.0800 
@<TRIPOS>BOND
  1   1   2  1   
  2   1   3  1   
  3   2   4  1   
  4   2  25  1   
  5   2  26  1   
  6   3   5  1   
  7   3  27  1   
  8   3  28  1   
  9   4   6  1   
 10   4  29  1   
 11   4  30  1   
 12   5   6  1   
 13   5  31  1   
 14   5  32  1   
 15   6   7  1   
 16   7   8  ar  
 17   7   9  ar  
 18   8  10  ar  
 19   9  11  ar  
 20  10  12  ar  
 21  10  13  1   
 22  11  12  ar  
 23  11  14  1   
 24  13  15  1   
 25  13  33  1   
 26  14  16  1   
 27  14  34  1   
 28  15  17  1   
 29  15  18  1   
 30  15  19  1   
 31  16  20  1   
 32  16  21  1   
 33  16  35  1   
 34  17  36  1   
 35  17  37  1   
 36  17  38  1   
 37  18  39  1   
 38  18  40  1   
 39  18  41  1   
 40  19  42  1   
 41  19  43  1   
 42  19  44  1   
 43  20  22  1   
 44  20  45  1   
 45  20  46  1   
 46  21  23  1   
 47  21  47  1   
 48  21  48  1   
 49  22  24  1   
 50  22  49  1   
 51  22  50  1   
 52  23  24  1   
 53  23  51  1   
 54  23  52  1   
 55  24  53  1   
 56  24  54  1   
@<TRIPOS>SUBSTRUCTURE
  1 ****  11 GROUP 4 **** **** 0

# MOE 2024.06 (io_trps.svl 2023.06)
