@<TRIPOS>MOLECULE
NONAME
41 42 1 0 0 
SMALL
USER_CHARGES


@<TRIPOS>ATOM
  1 O       -1.0900    -0.6590     2.1330 O.2   1 <1>  -0.5700 
  2 C       -1.2880    -1.2980     1.1330 C.2   1 <1>   0.5690 
  3 N       -2.4210    -2.0170     1.0040 N.am  1 <1>  -0.7300 
  4 C       -0.2520    -1.2760     0.0360 C.3   1 <1>  -0.1790 
  5 C       -2.9170    -2.7690    -0.1520 C.3   1 <1>   0.3640 
  6 C       -4.4320    -2.6180    -0.2170 C.ar  1 <1>  -0.1430 
  7 C       -2.5030    -4.2310    -0.0060 C.3   1 <1>  -0.2400 
  8 C       -5.2470    -3.0470     0.8220 C.ar  1 <1>  -0.1500 
  9 C       -5.0220    -2.0390    -1.3300 C.ar  1 <1>  -0.1500 
 10 C       -6.6210    -2.9010     0.7460 C.ar  1 <1>  -0.1500 
 11 C       -6.3960    -1.8940    -1.4050 C.ar  1 <1>  -0.1500 
 12 C       -7.2110    -2.3230    -0.3690 C.ar  1 <1>  -0.1430 
 13 C       -8.7260    -2.1530    -0.4690 C.3   1 <1>   0.0630 
 14 C       -9.2580    -1.2300     0.6410 C.3   1 <1>  -0.1600 
 15 C       -9.4440    -3.5130    -0.4440 C.3   1 <1>  -0.1600 
 16 C      -10.7820    -1.0610     0.5500 C.3   1 <1>  -0.1600 
 17 C      -10.9680    -3.3450    -0.5350 C.3   1 <1>  -0.1600 
 18 C      -11.4910    -2.4220     0.5740 C.3   1 <1>  -0.1600 
 19 H       -3.1010    -1.9170     1.7580 H     1 <1>   0.3700 
 20 H        0.6160    -0.7390     0.3720 H     1 <1>   0.0800 
 21 H        0.0390    -2.2780    -0.2160 H     1 <1>   0.0800 
 22 H       -0.6500    -0.7830    -0.8300 H     1 <1>   0.0800 
 23 H       -2.4820    -2.3700    -1.0530 H     1 <1>   0.0800 
 24 H       -2.8770    -4.6450     0.9120 H     1 <1>   0.0800 
 25 H       -1.4320    -4.3180    -0.0210 H     1 <1>   0.0800 
 26 H       -2.9020    -4.8000    -0.8260 H     1 <1>   0.0800 
 27 H       -4.8200    -3.5000     1.6990 H     1 <1>   0.1500 
 28 H       -4.4160    -1.6930    -2.1490 H     1 <1>   0.1500 
 29 H       -7.2300    -3.2420     1.5640 H     1 <1>   0.1500 
 30 H       -6.8280    -1.4410    -2.2790 H     1 <1>   0.1500 
 31 H       -8.9540    -1.6860    -1.4120 H     1 <1>   0.0800 
 32 H       -8.7830    -0.2670     0.5600 H     1 <1>   0.0800 
 33 H       -9.0090    -1.6390     1.6030 H     1 <1>   0.0800 
 34 H       -9.2040    -4.0330     0.4660 H     1 <1>   0.0800 
 35 H       -9.0980    -4.1130    -1.2670 H     1 <1>   0.0800 
 36 H      -11.0300    -0.5460    -0.3630 H     1 <1>   0.0800 
 37 H      -11.1270    -0.4590     1.3720 H     1 <1>   0.0800 
 38 H      -11.4420    -4.3080    -0.4560 H     1 <1>   0.0800 
 39 H      -11.2250    -2.9300    -1.4950 H     1 <1>   0.0800 
 40 H      -12.5510    -2.2780     0.4520 H     1 <1>   0.0800 
 41 H      -11.3310    -2.8890     1.5310 H     1 <1>   0.0800 
@<TRIPOS>BOND
  1   1   2  2   
  2   2   3  am  
  3   2   4  1   
  4   3   5  1   
  5   3  19  1   
  6   4  20  1   
  7   4  21  1   
  8   4  22  1   
  9   5   6  1   
 10   5   7  1   
 11   5  23  1   
 12   6   8  ar  
 13   6   9  ar  
 14   7  24  1   
 15   7  25  1   
 16   7  26  1   
 17   8  10  ar  
 18   8  27  1   
 19   9  11  ar  
 20   9  28  1   
 21  10  12  ar  
 22  10  29  1   
 23  11  12  ar  
 24  11  30  1   
 25  12  13  1   
 26  13  14  1   
 27  13  15  1   
 28  13  31  1   
 29  14  16  1   
 30  14  32  1   
 31  14  33  1   
 32  15  17  1   
 33  15  34  1   
 34  15  35  1   
 35  16  18  1   
 36  16  36  1   
 37  16  37  1   
 38  17  18  1   
 39  17  38  1   
 40  17  39  1   
 41  18  40  1   
 42  18  41  1   
@<TRIPOS>SUBSTRUCTURE
  1 ****  10 GROUP 4 **** **** 0

# MOE 2024.06 (io_trps.svl 2023.06)
