@<TRIPOS>MOLECULE
NONAME
30 30 1 0 0 
SMALL
USER_CHARGES


@<TRIPOS>ATOM
  1 S       -0.0300     0.1160     0.0380 S.o2  1 <1>   1.3330 
  2 O       -0.1040     1.4360    -0.5460 O.2   1 <1>  -0.6500 
  3 O        0.1310    -0.0230     1.4690 O.2   1 <1>  -0.6500 
  4 N       -1.4340    -0.7320    -0.3960 N.am  1 <1>  -0.8490 
  5 C        1.2670    -0.7990    -0.8090 C.3   1 <1>  -0.0550 
  6 C       -2.6120     0.1520    -0.4260 C.3   1 <1>   0.1960 
  7 C       -1.6630    -1.9020     0.4600 C.3   1 <1>   0.1960 
  8 C        2.6850    -0.2410    -0.5920 C.3   1 <1>  -0.2400 
  9 C       -3.8590    -0.5890    -0.9280 C.3   1 <1>  -0.0190 
 10 C       -2.8460    -2.7220    -0.0630 C.3   1 <1>  -0.1600 
 11 C       -5.0560     0.3520    -0.9270 C.2   1 <1>   0.5690 
 12 C       -4.1210    -1.8740    -0.1200 C.3   1 <1>  -0.1600 
 13 O       -5.5640     0.6720    -1.9680 O.2   1 <1>  -0.5700 
 14 N       -5.5510     0.8320     0.2310 N.am  1 <1>  -0.8000 
 15 H        1.0560    -0.7970    -1.8610 H     1 <1>   0.0800 
 16 H        1.2490    -1.8190    -0.4780 H     1 <1>   0.0800 
 17 H       -2.4280     0.9810    -1.0900 H     1 <1>   0.0800 
 18 H       -2.7850     0.5490     0.5610 H     1 <1>   0.0800 
 19 H       -1.8600    -1.5850     1.4720 H     1 <1>   0.0800 
 20 H       -0.7830    -2.5230     0.4720 H     1 <1>   0.0800 
 21 H        2.7390     0.7740    -0.9460 H     1 <1>   0.0800 
 22 H        3.4060    -0.8340    -1.1270 H     1 <1>   0.0800 
 23 H        2.9310    -0.2540     0.4550 H     1 <1>   0.0800 
 24 H       -3.6740    -0.8650    -1.9510 H     1 <1>   0.0800 
 25 H       -3.0040    -3.5700     0.5810 H     1 <1>   0.0800 
 26 H       -2.6060    -3.0940    -1.0440 H     1 <1>   0.0800 
 27 H       -4.9170    -2.4360    -0.5790 H     1 <1>   0.0800 
 28 H       -4.4220    -1.6240     0.8820 H     1 <1>   0.0800 
 29 H       -6.3550     1.4610     0.1970 H     1 <1>   0.3700 
 30 H       -5.1940     0.5990     1.1560 H     1 <1>   0.3700 
@<TRIPOS>BOND
  1   1   2  2   
  2   1   3  2   
  3   1   4  am  
  4   1   5  1   
  5   4   6  1   
  6   4   7  1   
  7   5   8  1   
  8   5  15  1   
  9   5  16  1   
 10   6   9  1   
 11   6  17  1   
 12   6  18  1   
 13   7  10  1   
 14   7  19  1   
 15   7  20  1   
 16   8  21  1   
 17   8  22  1   
 18   8  23  1   
 19   9  11  1   
 20   9  12  1   
 21   9  24  1   
 22  10  12  1   
 23  10  25  1   
 24  10  26  1   
 25  11  13  2   
 26  11  14  am  
 27  12  27  1   
 28  12  28  1   
 29  14  29  1   
 30  14  30  1   
@<TRIPOS>SUBSTRUCTURE
  1 ****   4 GROUP 4 **** **** 0

# MOE 2024.06 (io_trps.svl 2023.06)
