@<TRIPOS>MOLECULE
NONAME
56 57 1 0 0 
SMALL
USER_CHARGES


@<TRIPOS>ATOM
  1 O        2.0080    -1.3650     1.6670 O.2   1 <1>  -0.5700 
  2 C        2.2510    -1.5430     0.4960 C.2   1 <1>   0.5690 
  3 N        1.3580    -2.1630    -0.3430 N.am  1 <1>  -0.6600 
  4 C        3.6040    -1.0410    -0.0070 C.3   1 <1>  -0.0190 
  5 C        1.5410    -2.3660    -1.8060 C.3   1 <1>   0.1400 
  6 C        0.0490    -2.6430     0.1870 C.3   1 <1>   0.1400 
  7 C        4.6040    -1.0910     1.1680 C.3   1 <1>   0.3430 
  8 C        3.4820     0.3740    -0.6240 C.3   1 <1>  -0.1600 
  9 C        2.1260    -3.7530    -2.0620 C.3   1 <1>  -0.2400 
 10 C       -1.0000    -1.5440     0.0320 C.3   1 <1>  -0.2400 
 11 N        5.7610    -0.1520     0.9860 N.4   1 <1>  -0.9590 
 12 C        3.8840     1.4530     0.3890 C.3   1 <1>  -0.1600 
 13 C        5.3230     1.2880     0.9040 C.3   1 <1>   0.3430 
 14 C        6.6350    -0.5510    -0.1540 C.3   1 <1>   0.4860 
 15 C        7.9110     0.2640    -0.1040 C.ar  1 <1>  -0.1430 
 16 C        8.0660     1.3400    -0.9630 C.ar  1 <1>  -0.1500 
 17 C        8.9250    -0.0450     0.7920 C.ar  1 <1>  -0.1500 
 18 C        9.1970     2.1360    -0.9310 C.ar  1 <1>   0.0830 
 19 C       10.0770     0.7340     0.8390 C.ar  1 <1>   0.0830 
 20 O        9.1760     3.1610    -1.8310 O.3   1 <1>  -0.3630 
 21 C       10.2120     1.8290    -0.0130 C.ar  1 <1>   0.0830 
 22 O       11.1080     0.4830     1.6990 O.3   1 <1>  -0.3630 
 23 C       10.2930     3.9870    -2.0760 C.3   1 <1>   0.0400 
 24 O       11.3510     2.5460     0.1150 O.3   1 <1>  -0.5330 
 25 C       11.2040    -0.7330     2.4110 C.3   1 <1>   0.0400 
 26 H        3.9510    -1.7230    -0.7590 H     1 <1>   0.0800 
 27 H        2.1870    -1.6100    -2.2160 H     1 <1>   0.0800 
 28 H        0.5900    -2.2780    -2.3050 H     1 <1>   0.0800 
 29 H        0.1470    -2.9020     1.2290 H     1 <1>   0.0800 
 30 H       -0.2610    -3.5270    -0.3420 H     1 <1>   0.0800 
 31 H        4.9510    -2.1030     1.3020 H     1 <1>   0.0800 
 32 H        4.0900    -0.8080     2.0720 H     1 <1>   0.0800 
 33 H        2.4710     0.5490    -0.9570 H     1 <1>   0.0800 
 34 H        4.1180     0.4500    -1.4890 H     1 <1>   0.0800 
 35 H        3.0740    -3.8680    -1.5690 H     1 <1>   0.0800 
 36 H        2.2700    -3.8950    -3.1180 H     1 <1>   0.0800 
 37 H        1.4520    -4.5150    -1.7110 H     1 <1>   0.0800 
 38 H       -0.7010    -0.6690     0.5820 H     1 <1>   0.0800 
 39 H       -1.9390    -1.8860     0.4280 H     1 <1>   0.0800 
 40 H       -1.1390    -1.2890    -1.0020 H     1 <1>   0.0800 
 41 H        6.3560    -0.2160     1.8210 H     1 <1>   0.4500 
 42 H        3.2080     1.4210     1.2280 H     1 <1>   0.0800 
 43 H        3.7820     2.4290    -0.0540 H     1 <1>   0.0800 
 44 H        5.9900     1.8360     0.2580 H     1 <1>   0.0800 
 45 H        5.3870     1.7410     1.8800 H     1 <1>   0.0800 
 46 H        6.1300    -0.3820    -1.0900 H     1 <1>   0.0800 
 47 H        6.8800    -1.5990    -0.0840 H     1 <1>   0.0800 
 48 H        7.3040     1.5910    -1.6810 H     1 <1>   0.1500 
 49 H        8.8160    -0.8870     1.4500 H     1 <1>   0.1500 
 50 H       10.0520     4.6470    -2.8880 H     1 <1>   0.0800 
 51 H       11.1330     3.3690    -2.3430 H     1 <1>   0.0800 
 52 H       10.5060     4.5590    -1.1910 H     1 <1>   0.0800 
 53 H       11.9060     2.1430     0.8140 H     1 <1>   0.4500 
 54 H       12.1460    -0.7420     2.9300 H     1 <1>   0.0800 
 55 H       11.1650    -1.5520     1.7150 H     1 <1>   0.0800 
 56 H       10.4000    -0.7880     3.1230 H     1 <1>   0.0800 
@<TRIPOS>BOND
  1   1   2  2   
  2   2   3  am  
  3   2   4  1   
  4   3   5  1   
  5   3   6  1   
  6   4   7  1   
  7   4   8  1   
  8   4  26  1   
  9   5   9  1   
 10   5  27  1   
 11   5  28  1   
 12   6  10  1   
 13   6  29  1   
 14   6  30  1   
 15   7  11  1   
 16   7  31  1   
 17   7  32  1   
 18   8  12  1   
 19   8  33  1   
 20   8  34  1   
 21   9  35  1   
 22   9  36  1   
 23   9  37  1   
 24  10  38  1   
 25  10  39  1   
 26  10  40  1   
 27  11  13  1   
 28  11  14  1   
 29  11  41  1   
 30  12  13  1   
 31  12  42  1   
 32  12  43  1   
 33  13  44  1   
 34  13  45  1   
 35  14  15  1   
 36  14  46  1   
 37  14  47  1   
 38  15  16  ar  
 39  15  17  ar  
 40  16  18  ar  
 41  16  48  1   
 42  17  19  ar  
 43  17  49  1   
 44  18  20  1   
 45  18  21  ar  
 46  19  21  ar  
 47  19  22  1   
 48  20  23  1   
 49  21  24  1   
 50  22  25  1   
 51  23  50  1   
 52  23  51  1   
 53  23  52  1   
 54  24  53  1   
 55  25  54  1   
 56  25  55  1   
 57  25  56  1   
@<TRIPOS>SUBSTRUCTURE
  1 ****  14 GROUP 4 **** **** 0

# MOE 2024.06 (io_trps.svl 2023.06)
