@<TRIPOS>MOLECULE
NONAME
46 48 1 0 0 
SMALL
USER_CHARGES


@<TRIPOS>ATOM
  1 O        1.2340    -0.2480    -2.1680 O.3   1 <1>  -0.3630 
  2 C        2.2160    -0.0440    -1.2550 C.ar  1 <1>   0.0830 
  3 C        0.6620    -1.5230    -2.3580 C.3   1 <1>   0.0400 
  4 C        2.7060     1.2450    -1.1420 C.ar  1 <1>  -0.1500 
  5 C        2.7430    -1.0430    -0.4440 C.ar  1 <1>  -0.1500 
  6 C        3.7090     1.5370    -0.2360 C.ar  1 <1>  -0.1500 
  7 C        3.7480    -0.7460     0.4610 C.ar  1 <1>  -0.1500 
  8 C        4.2510     0.5470     0.5760 C.ar  1 <1>  -0.1430 
  9 C        5.3630     0.9190     1.5730 C.3   1 <1>   0.3190 
 10 N        6.3320     1.9210     0.9980 N.pl3 1 <1>   0.0480 
 11 C        6.1420    -0.2680     2.1640 C.3   1 <1>  -0.2400 
 12 C        6.5480     3.1680     1.4980 C.2   1 <1>  -0.3320 
 13 C        7.1400     1.7690    -0.0860 C.2   1 <1>  -0.3320 
 14 C        7.4930     3.8240     0.7310 C.ar  1 <1>   0.0000 
 15 C        5.8070     3.6810     2.7310 C.3   1 <1>  -0.0600 
 16 C        7.8880     2.9140    -0.2730 C.ar  1 <1>   0.0000 
 17 C        7.1840     0.5080    -0.9450 C.3   1 <1>  -0.0600 
 18 C        8.1240     5.1020     0.6920 C.ar  1 <1>   0.1670 
 19 C        8.9020     3.3600    -1.1670 C.ar  1 <1>   0.1670 
 20 N        9.0250     5.4240    -0.1780 N.ar  1 <1>  -0.3100 
 21 C        7.7510     6.1790     1.6910 C.3   1 <1>  -0.0970 
 22 N        9.4250     4.5410    -1.1130 N.ar  1 <1>  -0.3100 
 23 C        9.4380     2.4350    -2.2430 C.3   1 <1>  -0.0970 
 24 H       -0.0880    -1.4410    -3.1230 H     1 <1>   0.0800 
 25 H        0.2110    -1.8430    -1.4360 H     1 <1>   0.0800 
 26 H        1.4310    -2.2070    -2.6700 H     1 <1>   0.0800 
 27 H        2.2980     2.0160    -1.7690 H     1 <1>   0.1500 
 28 H        2.3850    -2.0520    -0.5040 H     1 <1>   0.1500 
 29 H        4.0690     2.5510    -0.1760 H     1 <1>   0.1500 
 30 H        4.1250    -1.5470     1.0700 H     1 <1>   0.1500 
 31 H        4.8600     1.3840     2.3980 H     1 <1>   0.0800 
 32 H        6.5550    -0.8830     1.3880 H     1 <1>   0.0800 
 33 H        5.4910    -0.8700     2.7720 H     1 <1>   0.0800 
 34 H        6.9390     0.0940     2.7880 H     1 <1>   0.0800 
 35 H        5.9700     3.0180     3.5610 H     1 <1>   0.0800 
 36 H        4.7520     3.7380     2.5280 H     1 <1>   0.0800 
 37 H        6.1350     4.6520     3.0330 H     1 <1>   0.0800 
 38 H        6.2560    -0.0290    -0.9250 H     1 <1>   0.0800 
 39 H        7.9660    -0.1430    -0.6000 H     1 <1>   0.0800 
 40 H        7.3650     0.7550    -1.9730 H     1 <1>   0.0800 
 41 H        6.6960     6.3740     1.6400 H     1 <1>   0.0800 
 42 H        8.2720     7.0930     1.4700 H     1 <1>   0.0800 
 43 H        8.0250     5.8660     2.6810 H     1 <1>   0.0800 
 44 H        9.6960     1.4850    -1.8160 H     1 <1>   0.0800 
 45 H       10.3210     2.8550    -2.6910 H     1 <1>   0.0800 
 46 H        8.6980     2.3060    -3.0110 H     1 <1>   0.0800 
@<TRIPOS>BOND
  1   1   2  1   
  2   1   3  1   
  3   2   4  ar  
  4   2   5  ar  
  5   3  24  1   
  6   3  25  1   
  7   3  26  1   
  8   4   6  ar  
  9   4  27  1   
 10   5   7  ar  
 11   5  28  1   
 12   6   8  ar  
 13   6  29  1   
 14   7   8  ar  
 15   7  30  1   
 16   8   9  1   
 17   9  10  1   
 18   9  11  1   
 19   9  31  1   
 20  10  12  1   
 21  10  13  1   
 22  11  32  1   
 23  11  33  1   
 24  11  34  1   
 25  12  14  2   
 26  12  15  1   
 27  13  16  2   
 28  13  17  1   
 29  14  16  ar  
 30  14  18  ar  
 31  15  35  1   
 32  15  36  1   
 33  15  37  1   
 34  16  19  ar  
 35  17  38  1   
 36  17  39  1   
 37  17  40  1   
 38  18  20  ar  
 39  18  21  1   
 40  19  22  ar  
 41  19  23  1   
 42  20  22  ar  
 43  21  41  1   
 44  21  42  1   
 45  21  43  1   
 46  23  44  1   
 47  23  45  1   
 48  23  46  1   
@<TRIPOS>SUBSTRUCTURE
  1 ****  10 GROUP 4 **** **** 0

# MOE 2024.06 (io_trps.svl 2023.06)
