@<TRIPOS>MOLECULE
NONAME
23 23 1 0 0 
SMALL
USER_CHARGES


@<TRIPOS>ATOM
  1 O        1.1170    -2.7660    -0.0190 O.2   1 <1>  -0.5700 
  2 C        0.3400    -1.8840    -0.2880 C.2   1 <1>   0.5690 
  3 N        0.7810    -0.6390    -0.5360 N.am  1 <1>  -0.8000 
  4 C       -1.1420    -2.2060    -0.3370 C.3   1 <1>  -0.0190 
  5 C       -1.3740    -3.5910    -0.9830 C.3   1 <1>   0.4230 
  6 C       -1.7740    -2.1060     1.0690 C.3   1 <1>  -0.0220 
  7 N       -0.8200    -4.6590    -0.1160 N.4   1 <1>  -0.8530 
  8 C       -2.8780    -3.8510    -1.1560 C.3   1 <1>  -0.0220 
  9 C       -3.1140    -2.8260     1.1310 C.2   1 <1>  -0.2880 
 10 C       -3.6100    -3.5870     0.1500 C.2   1 <1>  -0.2880 
 11 H        1.7840    -0.4400    -0.4800 H     1 <1>   0.3700 
 12 H        0.1920     0.1720    -0.7350 H     1 <1>   0.3700 
 13 H       -1.6190    -1.4770    -0.9670 H     1 <1>   0.0800 
 14 H       -0.8870    -3.6200    -1.9450 H     1 <1>   0.0800 
 15 H       -1.1170    -2.5300     1.8110 H     1 <1>   0.0800 
 16 H       -1.9140    -1.0680     1.3210 H     1 <1>   0.0800 
 17 H       -1.3840    -4.7080     0.7400 H     1 <1>   0.4500 
 18 H        0.1480    -4.3840     0.1400 H     1 <1>   0.4500 
 19 H       -0.8020    -5.5740    -0.5710 H     1 <1>   0.4500 
 20 H       -3.2780    -3.1990    -1.9140 H     1 <1>   0.0800 
 21 H       -3.0420    -4.8630    -1.4810 H     1 <1>   0.0800 
 22 H       -3.6460    -2.6500     2.0550 H     1 <1>   0.1500 
 23 H       -4.5810    -4.0590     0.2080 H     1 <1>   0.1500 
@<TRIPOS>BOND
  1   1   2  2   
  2   2   3  am  
  3   2   4  1   
  4   3  11  1   
  5   3  12  1   
  6   4   5  1   
  7   4   6  1   
  8   4  13  1   
  9   5   7  1   
 10   5   8  1   
 11   5  14  1   
 12   6   9  1   
 13   6  15  1   
 14   6  16  1   
 15   7  17  1   
 16   7  18  1   
 17   7  19  1   
 18   8  10  1   
 19   8  20  1   
 20   8  21  1   
 21   9  10  2   
 22   9  22  1   
 23  10  23  1   
@<TRIPOS>SUBSTRUCTURE
  1 ****   4 GROUP 4 **** **** 0

# MOE 2024.06 (io_trps.svl 2023.06)
