@<TRIPOS>MOLECULE
Structure2520
29 30 1 0 0 
SMALL
USER_CHARGES


@<TRIPOS>ATOM
  1 O       -0.2260     0.9890     1.1620 O.3   1 <1>  -0.3630 
  2 C        1.0330     1.4000     0.8700 C.ar  1 <1>   0.0830 
  3 C       -1.0510     0.3970     0.1790 C.3   1 <1>   0.2000 
  4 C        1.5680     2.3970     1.6680 C.ar  1 <1>  -0.1500 
  5 C        1.7850     0.8840    -0.1810 C.ar  1 <1>  -0.1500 
  6 C       -1.3700     1.4460    -0.8840 C.3   1 <1>   0.3430 
  7 C       -2.4090     0.1690     0.8230 C.3   1 <1>  -0.1600 
  8 C        2.8300     2.8980     1.4070 C.ar  1 <1>  -0.1500 
  9 C        3.0470     1.3900    -0.4390 C.ar  1 <1>  -0.1500 
 10 N       -2.3620     2.3460    -0.2280 N.4   1 <1>  -0.9060 
 11 C       -3.0900     1.5380     0.7950 C.3   1 <1>   0.3430 
 12 C        3.5730     2.4020     0.3490 C.ar  1 <1>  -0.1430 
 13 C        4.9600     2.9510     0.0640 C.3   1 <1>  -0.0970 
 14 H       -0.5940    -0.5050    -0.1910 H     1 <1>   0.0800 
 15 H        1.0000     2.7810     2.4960 H     1 <1>   0.1500 
 16 H        1.4240     0.0870    -0.8010 H     1 <1>   0.1500 
 17 H       -1.8220     0.9630    -1.7350 H     1 <1>   0.0800 
 18 H       -0.4850     1.9750    -1.1990 H     1 <1>   0.0800 
 19 H       -2.3260    -0.2230     1.8220 H     1 <1>   0.0800 
 20 H       -2.9830    -0.5220     0.2320 H     1 <1>   0.0800 
 21 H        3.2360     3.6740     2.0340 H     1 <1>   0.1500 
 22 H        3.6280     0.9890    -1.2520 H     1 <1>   0.1500 
 23 H       -2.9910     2.8020    -0.9000 H     1 <1>   0.4500 
 24 H       -1.8310     3.0780     0.2660 H     1 <1>   0.4500 
 25 H       -3.0040     2.0090     1.7610 H     1 <1>   0.0800 
 26 H       -4.1340     1.4360     0.5430 H     1 <1>   0.0800 
 27 H        5.0240     3.9840     0.3570 H     1 <1>   0.0800 
 28 H        5.1870     2.8820    -0.9840 H     1 <1>   0.0800 
 29 H        5.6930     2.3890     0.6160 H     1 <1>   0.0800 
@<TRIPOS>BOND
  1   1   2  1   
  2   1   3  1   
  3   2   4  ar  
  4   2   5  ar  
  5   3   6  1   
  6   3   7  1   
  7   3  14  1   
  8   4   8  ar  
  9   4  15  1   
 10   5   9  ar  
 11   5  16  1   
 12   6  10  1   
 13   6  17  1   
 14   6  18  1   
 15   7  11  1   
 16   7  19  1   
 17   7  20  1   
 18   8  12  ar  
 19   8  21  1   
 20   9  12  ar  
 21   9  22  1   
 22  10  11  1   
 23  10  23  1   
 24  10  24  1   
 25  11  25  1   
 26  11  26  1   
 27  12  13  1   
 28  13  27  1   
 29  13  28  1   
 30  13  29  1   
@<TRIPOS>SUBSTRUCTURE
  1 ****   2 GROUP 4 **** **** 0

# MOE 2024.06 (io_trps.svl 2023.06)
