@<TRIPOS>MOLECULE
NONAME
50 52 1 0 0 
SMALL
USER_CHARGES


@<TRIPOS>ATOM
  1 S        0.2970     0.5630    -1.6180 S.o2  1 <1>   1.4470 
  2 O        1.0420     0.3710    -2.8390 O.2   1 <1>  -0.6500 
  3 O       -0.0840     1.8940    -1.2040 O.2   1 <1>  -0.6500 
  4 N        1.3110    -0.0330    -0.4320 N.am  1 <1>  -0.9140 
  5 C       -1.1370    -0.5430    -1.5520 C.ar  1 <1>  -0.0090 
  6 C        2.3190     0.9350    -0.0630 C.3   1 <1>   0.3390 
  7 C       -1.8080    -0.7650    -0.3590 C.ar  1 <1>  -0.1500 
  8 C       -1.6100    -1.1850    -2.6890 C.ar  1 <1>  -0.1500 
  9 C        3.4290     0.2040     0.6700 C.ar  1 <1>  -0.1440 
 10 C       -2.9250    -1.5930    -0.2680 C.ar  1 <1>   0.0860 
 11 C       -2.7110    -2.0200    -2.6300 C.ar  1 <1>  -0.1500 
 12 C        4.6940     0.1000     0.1100 C.ar  1 <1>  -0.1500 
 13 C        3.1860    -0.3690     1.9100 C.ar  1 <1>  -0.1500 
 14 C       -3.3700    -2.2280    -1.4310 C.ar  1 <1>  -0.1430 
 15 C       -3.5910    -1.7590     1.0090 C.2   1 <1>   0.5440 
 16 C        5.7030    -0.5670     0.7830 C.ar  1 <1>  -0.1500 
 17 C        4.1940    -1.0370     2.5830 C.ar  1 <1>  -0.1500 
 18 C       -4.5800    -3.1520    -1.3860 C.3   1 <1>  -0.0970 
 19 O       -3.3570    -2.7500     1.6750 O.2   1 <1>  -0.5700 
 20 N       -4.4810    -0.8150     1.4810 N.am  1 <1>  -0.6600 
 21 C        5.4540    -1.1350     2.0200 C.ar  1 <1>  -0.1500 
 22 C       -5.2030    -0.9890     2.7720 C.3   1 <1>   0.1400 
 23 C       -4.8580     0.4180     0.7340 C.3   1 <1>   0.1400 
 24 C       -6.7140    -1.0060     2.5170 C.3   1 <1>  -0.1600 
 25 C       -6.3660     0.4140     0.4600 C.3   1 <1>  -0.1600 
 26 C       -7.1760     0.2440     1.7530 C.3   1 <1>  -0.1600 
 27 H        1.8190    -0.7900    -0.8850 H     1 <1>   0.4200 
 28 H        1.8860     1.6890     0.5740 H     1 <1>   0.0800 
 29 H        2.7190     1.4170    -0.9410 H     1 <1>   0.0800 
 30 H       -1.4580    -0.2810     0.5370 H     1 <1>   0.1500 
 31 H       -1.1100    -1.0330    -3.6320 H     1 <1>   0.1500 
 32 H       -3.0510    -2.5070    -3.5280 H     1 <1>   0.1500 
 33 H        4.9030     0.5360    -0.8520 H     1 <1>   0.1500 
 34 H        2.2060    -0.3010     2.3500 H     1 <1>   0.1500 
 35 H        6.6830    -0.6450     0.3440 H     1 <1>   0.1500 
 36 H        3.9970    -1.4790     3.5440 H     1 <1>   0.1500 
 37 H       -5.4410    -2.6180    -1.0250 H     1 <1>   0.0800 
 38 H       -4.3850    -3.9760    -0.7210 H     1 <1>   0.0800 
 39 H       -4.8060    -3.5480    -2.3590 H     1 <1>   0.0800 
 40 H        6.2390    -1.6540     2.5430 H     1 <1>   0.1500 
 41 H       -4.9500    -0.1730     3.4260 H     1 <1>   0.0800 
 42 H       -4.9100    -1.9050     3.2570 H     1 <1>   0.0800 
 43 H       -4.3270     0.4890    -0.1990 H     1 <1>   0.0800 
 44 H       -4.5990     1.2770     1.3300 H     1 <1>   0.0800 
 45 H       -7.2310    -1.0670     3.4580 H     1 <1>   0.0800 
 46 H       -6.9570    -1.8890     1.9520 H     1 <1>   0.0800 
 47 H       -6.5930    -0.3890    -0.2190 H     1 <1>   0.0800 
 48 H       -6.6420     1.3370    -0.0190 H     1 <1>   0.0800 
 49 H       -7.0410     1.1110     2.3760 H     1 <1>   0.0800 
 50 H       -8.2230     0.1610     1.5190 H     1 <1>   0.0800 
@<TRIPOS>BOND
  1   1   2  2   
  2   1   3  2   
  3   1   4  am  
  4   1   5  1   
  5   4   6  1   
  6   4  27  1   
  7   5   7  ar  
  8   5   8  ar  
  9   6   9  1   
 10   6  28  1   
 11   6  29  1   
 12   7  10  ar  
 13   7  30  1   
 14   8  11  ar  
 15   8  31  1   
 16   9  12  ar  
 17   9  13  ar  
 18  10  14  ar  
 19  10  15  1   
 20  11  14  ar  
 21  11  32  1   
 22  12  16  ar  
 23  12  33  1   
 24  13  17  ar  
 25  13  34  1   
 26  14  18  1   
 27  15  19  2   
 28  15  20  am  
 29  16  21  ar  
 30  16  35  1   
 31  17  21  ar  
 32  17  36  1   
 33  18  37  1   
 34  18  38  1   
 35  18  39  1   
 36  20  22  1   
 37  20  23  1   
 38  21  40  1   
 39  22  24  1   
 40  22  41  1   
 41  22  42  1   
 42  23  25  1   
 43  23  43  1   
 44  23  44  1   
 45  24  26  1   
 46  24  45  1   
 47  24  46  1   
 48  25  26  1   
 49  25  47  1   
 50  25  48  1   
 51  26  49  1   
 52  26  50  1   
@<TRIPOS>SUBSTRUCTURE
  1 ****   7 GROUP 4 **** **** 0

# MOE 2024.06 (io_trps.svl 2023.06)
