@<TRIPOS>MOLECULE
NONAME
60 64 1 0 0 
SMALL
USER_CHARGES


@<TRIPOS>ATOM
  1 O       -1.8320    -0.7450    -2.8140 O.2   1 <1>  -0.5700 
  2 C       -2.2440    -1.0840    -1.7290 C.2   1 <1>   0.5690 
  3 N       -1.8970    -2.2960    -1.1920 N.am  1 <1>  -0.6600 
  4 C       -3.1850    -0.1320    -1.0010 C.3   1 <1>  -0.0990 
  5 C       -2.3840    -2.8990     0.0700 C.3   1 <1>   0.1400 
  6 C       -0.9610    -3.2090    -1.8830 C.3   1 <1>   0.1400 
  7 C       -2.5000     1.0170    -0.2210 C.3   1 <1>   0.0000 
  8 C       -1.8890    -4.3400     0.0330 C.3   1 <1>  -0.1600 
  9 C       -0.6580    -4.3030    -0.8660 C.3   1 <1>  -0.1600 
 10 C       -1.7130     1.9510    -1.1710 C.3   1 <1>  -0.1600 
 11 C       -3.5890     1.8580     0.4850 C.3   1 <1>  -0.1600 
 12 C       -1.5290     0.4790     0.8540 C.3   1 <1>  -0.1600 
 13 C       -1.0620     3.1310    -0.4110 C.3   1 <1>   0.0000 
 14 C       -2.9600     3.0200     1.2720 C.3   1 <1>  -0.0800 
 15 C       -0.8870     1.6380     1.6360 C.3   1 <1>  -0.0800 
 16 C       -2.1800     3.9250     0.3030 C.3   1 <1>  -0.1600 
 17 C       -0.1140     2.5450     0.6600 C.3   1 <1>  -0.1600 
 18 C       -0.3030     4.0210    -1.4270 C.3   1 <1>  -0.0990 
 19 C       -1.9910     2.4570     2.3270 C.3   1 <1>  -0.1600 
 20 C        0.4130     5.2310    -0.8370 C.2   1 <1>   0.5690 
 21 O       -0.2410     6.2260    -0.6270 O.2   1 <1>  -0.5700 
 22 N        1.7590     5.2080    -0.5840 N.am  1 <1>  -0.6600 
 23 C        2.7150     4.1290    -0.9170 C.3   1 <1>   0.1400 
 24 C        2.4600     6.3710     0.0020 C.3   1 <1>   0.1400 
 25 C        4.0280     4.5580    -0.2720 C.3   1 <1>  -0.1600 
 26 C        3.9420     6.0790    -0.2000 C.3   1 <1>  -0.1600 
 27 H       -3.8130    -0.6880    -0.3340 H     1 <1>   0.0800 
 28 H       -3.8340     0.2970    -1.7420 H     1 <1>   0.0800 
 29 H       -3.4580    -2.8610     0.1340 H     1 <1>   0.0800 
 30 H       -1.9440    -2.3800     0.9040 H     1 <1>   0.0800 
 31 H       -0.0710    -2.6860    -2.1880 H     1 <1>   0.0800 
 32 H       -1.4510    -3.6200    -2.7500 H     1 <1>   0.0800 
 33 H       -2.6480    -4.9580    -0.4150 H     1 <1>   0.0800 
 34 H       -1.6680    -4.7140     1.0170 H     1 <1>   0.0800 
 35 H        0.2070    -4.0160    -0.2940 H     1 <1>   0.0800 
 36 H       -0.4650    -5.2480    -1.3430 H     1 <1>   0.0800 
 37 H       -2.3750     2.3310    -1.9290 H     1 <1>   0.0800 
 38 H       -0.9420     1.3910    -1.6700 H     1 <1>   0.0800 
 39 H       -4.1530     1.2380     1.1600 H     1 <1>   0.0800 
 40 H       -4.2750     2.2550    -0.2430 H     1 <1>   0.0800 
 41 H       -0.7530    -0.1060     0.3920 H     1 <1>   0.0800 
 42 H       -2.0600    -0.1570     1.5390 H     1 <1>   0.0800 
 43 H       -3.7320     3.5920     1.7580 H     1 <1>   0.0800 
 44 H       -0.2110     1.2460     2.3770 H     1 <1>   0.0800 
 45 H       -2.8550     4.3440    -0.4230 H     1 <1>   0.0800 
 46 H       -1.7580     4.7440     0.8590 H     1 <1>   0.0800 
 47 H        0.3570     3.3390     1.2120 H     1 <1>   0.0800 
 48 H        0.6580     1.9660     0.1860 H     1 <1>   0.0800 
 49 H       -1.0080     4.3950    -2.1470 H     1 <1>   0.0800 
 50 H        0.3970     3.4200    -1.9730 H     1 <1>   0.0800 
 51 H       -1.5500     3.2660     2.8830 H     1 <1>   0.0800 
 52 H       -2.5280     1.8360     3.0220 H     1 <1>   0.0800 
 53 H        2.8250     4.0750    -1.9870 H     1 <1>   0.0800 
 54 H        2.3880     3.1790    -0.5350 H     1 <1>   0.0800 
 55 H        2.2210     6.4280     1.0500 H     1 <1>   0.0800 
 56 H        2.1620     7.2840    -0.4850 H     1 <1>   0.0800 
 57 H        4.8800     4.2200    -0.8350 H     1 <1>   0.0800 
 58 H        4.0780     4.1480     0.7220 H     1 <1>   0.0800 
 59 H        4.5410     6.4890     0.5940 H     1 <1>   0.0800 
 60 H        4.2570     6.5090    -1.1350 H     1 <1>   0.0800 
@<TRIPOS>BOND
  1   1   2  2   
  2   2   3  am  
  3   2   4  1   
  4   3   5  1   
  5   3   6  1   
  6   4   7  1   
  7   4  27  1   
  8   4  28  1   
  9   5   8  1   
 10   5  29  1   
 11   5  30  1   
 12   6   9  1   
 13   6  31  1   
 14   6  32  1   
 15   7  10  1   
 16   7  11  1   
 17   7  12  1   
 18   8   9  1   
 19   8  33  1   
 20   8  34  1   
 21   9  35  1   
 22   9  36  1   
 23  10  13  1   
 24  10  37  1   
 25  10  38  1   
 26  11  14  1   
 27  11  39  1   
 28  11  40  1   
 29  12  15  1   
 30  12  41  1   
 31  12  42  1   
 32  13  16  1   
 33  13  17  1   
 34  13  18  1   
 35  14  16  1   
 36  14  19  1   
 37  14  43  1   
 38  15  17  1   
 39  15  19  1   
 40  15  44  1   
 41  16  45  1   
 42  16  46  1   
 43  17  47  1   
 44  17  48  1   
 45  18  20  1   
 46  18  49  1   
 47  18  50  1   
 48  19  51  1   
 49  19  52  1   
 50  20  21  2   
 51  20  22  am  
 52  22  23  1   
 53  22  24  1   
 54  23  25  1   
 55  23  53  1   
 56  23  54  1   
 57  24  26  1   
 58  24  55  1   
 59  24  56  1   
 60  25  26  1   
 61  25  57  1   
 62  25  58  1   
 63  26  59  1   
 64  26  60  1   
@<TRIPOS>SUBSTRUCTURE
  1 ****  10 GROUP 4 **** **** 0

# MOE 2024.06 (io_trps.svl 2023.06)
