@<TRIPOS>MOLECULE
NONAME
52 54 1 0 0 
SMALL
USER_CHARGES


@<TRIPOS>ATOM
  1 O        0.4210    -0.9200    -0.7810 O.2   1 <1>  -0.5700 
  2 C        0.7910    -1.9840    -0.3270 C.2   1 <1>   0.7800 
  3 O        0.0840    -3.0900    -0.5500 O.3   1 <1>  -0.4300 
  4 N        1.9470    -2.1010     0.4010 N.am  1 <1>  -0.6600 
  5 C       -1.1230    -3.0410    -1.2770 C.3   1 <1>   0.1200 
  6 C        2.5190    -3.4130     0.8240 C.3   1 <1>   0.1400 
  7 C        2.8060    -0.9180     0.6890 C.3   1 <1>   0.1400 
  8 C       -1.6860    -4.4560    -1.3560 C.3   1 <1>  -0.2400 
  9 C        3.9400    -3.5930     0.2560 C.3   1 <1>   0.3430 
 10 C        4.2100    -1.1230     0.0930 C.3   1 <1>   0.3430 
 11 N        4.8460    -2.4130     0.5510 N.4   1 <1>  -0.9590 
 12 C        6.2170    -2.5550    -0.0730 C.3   1 <1>   0.3430 
 13 C        7.1520    -3.5820     0.6040 C.3   1 <1>   0.2070 
 14 C        8.5820    -3.3590     0.1050 C.ar  1 <1>  -0.1440 
 15 C        6.6300    -5.0090     0.4210 C.ar  1 <1>  -0.1440 
 16 C        9.2150    -2.1610     0.4210 C.ar  1 <1>  -0.1500 
 17 C        9.2830    -4.2980    -0.6440 C.ar  1 <1>  -0.1500 
 18 C        6.2680    -5.4940    -0.8320 C.ar  1 <1>  -0.1500 
 19 C        6.4840    -5.8340     1.5280 C.ar  1 <1>  -0.1500 
 20 C       10.5010    -1.8990    -0.0180 C.ar  1 <1>  -0.1500 
 21 C       10.5690    -4.0370    -1.0840 C.ar  1 <1>  -0.1500 
 22 C        5.7500    -6.7700    -0.9690 C.ar  1 <1>  -0.1500 
 23 C        5.9670    -7.1100     1.3900 C.ar  1 <1>  -0.1500 
 24 C       11.1780    -2.8360    -0.7740 C.ar  1 <1>  -0.1500 
 25 C        5.5960    -7.5770     0.1430 C.ar  1 <1>  -0.1500 
 26 H       -0.9160    -2.6520    -2.2600 H     1 <1>   0.0800 
 27 H       -1.8040    -2.3820    -0.7640 H     1 <1>   0.0800 
 28 H        1.9030    -4.2280     0.4840 H     1 <1>   0.0800 
 29 H        2.5470    -3.4570     1.8990 H     1 <1>   0.0800 
 30 H        2.8730    -0.7770     1.7540 H     1 <1>   0.0800 
 31 H        2.3740    -0.0240     0.2710 H     1 <1>   0.0800 
 32 H       -0.9960    -5.1040    -1.8650 H     1 <1>   0.0800 
 33 H       -2.6120    -4.4460    -1.9040 H     1 <1>   0.0800 
 34 H       -1.8790    -4.8350    -0.3690 H     1 <1>   0.0800 
 35 H        3.8640    -3.7340    -0.8090 H     1 <1>   0.0800 
 36 H        4.3510    -4.4960     0.6740 H     1 <1>   0.0800 
 37 H        4.8320    -0.2880     0.3720 H     1 <1>   0.0800 
 38 H        4.1220    -1.1240    -0.9810 H     1 <1>   0.0800 
 39 H        4.9510    -2.3610     1.5730 H     1 <1>   0.4500 
 40 H        6.7110    -1.5990    -0.0320 H     1 <1>   0.0800 
 41 H        6.1160    -2.8110    -1.1150 H     1 <1>   0.0800 
 42 H        7.1670    -3.3580     1.6560 H     1 <1>   0.0800 
 43 H        8.7240    -1.4130     1.0190 H     1 <1>   0.1500 
 44 H        8.8570    -5.2530    -0.8970 H     1 <1>   0.1500 
 45 H        6.3940    -4.8950    -1.7170 H     1 <1>   0.1500 
 46 H        6.7760    -5.4990     2.5100 H     1 <1>   0.1500 
 47 H       10.9810    -0.9680     0.2320 H     1 <1>   0.1500 
 48 H       11.0990    -4.7720    -1.6640 H     1 <1>   0.1500 
 49 H        5.4750    -7.1430    -1.9410 H     1 <1>   0.1500 
 50 H        5.8600    -7.7460     2.2530 H     1 <1>   0.1500 
 51 H       12.1790    -2.6350    -1.1160 H     1 <1>   0.1500 
 52 H        5.1980    -8.5720     0.0370 H     1 <1>   0.1500 
@<TRIPOS>BOND
  1   1   2  2   
  2   2   3  1   
  3   2   4  am  
  4   3   5  1   
  5   4   6  1   
  6   4   7  1   
  7   5   8  1   
  8   5  26  1   
  9   5  27  1   
 10   6   9  1   
 11   6  28  1   
 12   6  29  1   
 13   7  10  1   
 14   7  30  1   
 15   7  31  1   
 16   8  32  1   
 17   8  33  1   
 18   8  34  1   
 19   9  11  1   
 20   9  35  1   
 21   9  36  1   
 22  10  11  1   
 23  10  37  1   
 24  10  38  1   
 25  11  12  1   
 26  11  39  1   
 27  12  13  1   
 28  12  40  1   
 29  12  41  1   
 30  13  14  1   
 31  13  15  1   
 32  13  42  1   
 33  14  16  ar  
 34  14  17  ar  
 35  15  18  ar  
 36  15  19  ar  
 37  16  20  ar  
 38  16  43  1   
 39  17  21  ar  
 40  17  44  1   
 41  18  22  ar  
 42  18  45  1   
 43  19  23  ar  
 44  19  46  1   
 45  20  24  ar  
 46  20  47  1   
 47  21  24  ar  
 48  21  48  1   
 49  22  25  ar  
 50  22  49  1   
 51  23  25  ar  
 52  23  50  1   
 53  24  51  1   
 54  25  52  1   
@<TRIPOS>SUBSTRUCTURE
  1 ****   9 GROUP 4 **** **** 0

# MOE 2024.06 (io_trps.svl 2023.06)
