@<TRIPOS>MOLECULE
NONAME
36 36 1 0 0 
SMALL
USER_CHARGES


@<TRIPOS>ATOM
  1 CL      -1.5730    -3.0860     2.5080 Cl    1 <1>  -0.1770 
  2 C       -0.8820    -3.3580     0.9230 C.ar  1 <1>   0.1770 
  3 C       -1.5600    -2.9010    -0.2100 C.ar  1 <1>   0.1170 
  4 C        0.3270    -4.0220     0.8440 C.ar  1 <1>  -0.1500 
  5 N       -2.7910    -2.2320    -0.0620 N.am  1 <1>  -0.5470 
  6 C       -0.9770    -3.1480    -1.4530 C.ar  1 <1>  -0.1500 
  7 C        0.8750    -4.2410    -0.4040 C.ar  1 <1>   0.1770 
  8 C       -3.4810    -1.4030    -0.9010 C.2   1 <1>   0.5690 
  9 C        0.2350    -3.8110    -1.5530 C.ar  1 <1>  -0.1500 
 10 CL       2.4020    -5.0770    -0.5340 Cl    1 <1>  -0.1770 
 11 O       -3.0900    -1.0880    -1.9970 O.2   1 <1>  -0.5700 
 12 C       -4.7880    -0.8170    -0.3970 C.3   1 <1>  -0.0990 
 13 C       -5.7960    -1.8810     0.0710 C.3   1 <1>  -0.1600 
 14 C       -7.0400    -1.3100     0.7920 C.3   1 <1>  -0.1860 
 15 C       -7.8390    -2.4750     1.3780 C.2   1 <1>   0.9060 
 16 C       -7.9250    -0.4130    -0.1110 C.3   1 <1>  -0.1600 
 17 O       -7.7480    -2.6910     2.5910 O.co2 1 <1>  -0.9000 
 18 O       -8.5190    -3.1850     0.6270 O.co2 1 <1>  -0.9000 
 19 C       -7.6040     1.0860     0.0100 C.3   1 <1>  -0.1600 
 20 C       -8.5050     1.9140    -0.9100 C.3   1 <1>  -0.2400 
 21 H        0.8300    -4.3610     1.7300 H     1 <1>   0.1500 
 22 H       -3.2340    -2.3610     0.8510 H     1 <1>   0.3700 
 23 H       -1.4690    -2.8250    -2.3530 H     1 <1>   0.1500 
 24 H        0.6820    -3.9960    -2.5140 H     1 <1>   0.1500 
 25 H       -5.2240    -0.2470    -1.1970 H     1 <1>   0.0800 
 26 H       -4.5660    -0.1450     0.4110 H     1 <1>   0.0800 
 27 H       -5.3170    -2.5560     0.7590 H     1 <1>   0.0800 
 28 H       -6.1180    -2.4690    -0.7720 H     1 <1>   0.0800 
 29 H       -6.7160    -0.7350     1.6390 H     1 <1>   0.0800 
 30 H       -8.9530    -0.5510     0.1820 H     1 <1>   0.0800 
 31 H       -7.8480    -0.7410    -1.1330 H     1 <1>   0.0800 
 32 H       -6.5780     1.2790    -0.2410 H     1 <1>   0.0800 
 33 H       -7.7580     1.3970     1.0290 H     1 <1>   0.0800 
 34 H       -8.3540     1.6290    -1.9360 H     1 <1>   0.0800 
 35 H       -8.2790     2.9600    -0.8050 H     1 <1>   0.0800 
 36 H       -9.5390     1.7580    -0.6560 H     1 <1>   0.0800 
@<TRIPOS>BOND
  1   1   2  1   
  2   2   3  ar  
  3   2   4  ar  
  4   3   5  1   
  5   3   6  ar  
  6   4   7  ar  
  7   4  21  1   
  8   5   8  am  
  9   5  22  1   
 10   6   9  ar  
 11   6  23  1   
 12   7   9  ar  
 13   7  10  1   
 14   8  11  2   
 15   8  12  1   
 16   9  24  1   
 17  12  13  1   
 18  12  25  1   
 19  12  26  1   
 20  13  14  1   
 21  13  27  1   
 22  13  28  1   
 23  14  15  1   
 24  14  16  1   
 25  14  29  1   
 26  15  17  ar  
 27  15  18  ar  
 28  16  19  1   
 29  16  30  1   
 30  16  31  1   
 31  19  20  1   
 32  19  32  1   
 33  19  33  1   
 34  20  34  1   
 35  20  35  1   
 36  20  36  1   
@<TRIPOS>SUBSTRUCTURE
  1 ****   5 GROUP 4 **** **** 0

# MOE 2024.06 (io_trps.svl 2023.06)
