@<TRIPOS>MOLECULE
NONAME
33 33 1 0 0 
SMALL
USER_CHARGES


@<TRIPOS>ATOM
  1 O        0.2330    -0.2210    -0.0070 O.3   1 <1>  -0.3630 
  2 C        1.5920    -0.1590    -0.1160 C.ar  1 <1>   0.0830 
  3 C       -0.4690    -1.4350    -0.1340 C.3   1 <1>   0.1200 
  4 C        2.2050     1.0900     0.0110 C.ar  1 <1>   0.0830 
  5 C        2.3760    -1.2860    -0.3450 C.ar  1 <1>  -0.1500 
  6 C       -1.9600    -1.1430     0.0340 C.3   1 <1>  -0.1600 
  7 O        1.4080     2.1750     0.2370 O.3   1 <1>  -0.3630 
  8 C        3.5900     1.1900    -0.0950 C.ar  1 <1>  -0.1500 
  9 C        3.7510    -1.1720    -0.4480 C.ar  1 <1>  -0.1500 
 10 C       -2.7960    -2.4230    -0.0930 C.3   1 <1>  -0.1600 
 11 C        1.9330     3.4780     0.3480 C.3   1 <1>   0.0400 
 12 C        4.3650     0.0640    -0.3260 C.ar  1 <1>  -0.1430 
 13 C       -4.2880    -2.1240     0.0760 C.3   1 <1>  -0.2400 
 14 C        5.8750     0.1750    -0.4390 C.3   1 <1>   0.2630 
 15 O        6.4210    -0.3710     0.7040 O.3   1 <1>  -0.6800 
 16 H       -0.1250    -2.1070     0.6330 H     1 <1>   0.0800 
 17 H       -0.2680    -1.8420    -1.1100 H     1 <1>   0.0800 
 18 H        1.9390    -2.2610    -0.4460 H     1 <1>   0.1500 
 19 H       -2.2640    -0.4390    -0.7210 H     1 <1>   0.0800 
 20 H       -2.1220    -0.7020     1.0020 H     1 <1>   0.0800 
 21 H        4.0790     2.1400     0.0000 H     1 <1>   0.1500 
 22 H        4.3480    -2.0510    -0.6220 H     1 <1>   0.1500 
 23 H       -2.4910    -3.1310     0.6590 H     1 <1>   0.0800 
 24 H       -2.6320    -2.8690    -1.0590 H     1 <1>   0.0800 
 25 H        1.1110     4.1530     0.5100 H     1 <1>   0.0800 
 26 H        2.4370     3.7310    -0.5670 H     1 <1>   0.0800 
 27 H        2.6050     3.5140     1.1870 H     1 <1>   0.0800 
 28 H       -4.4780    -1.6960     1.0450 H     1 <1>   0.0800 
 29 H       -4.8590    -3.0310    -0.0150 H     1 <1>   0.0800 
 30 H       -4.6200    -1.4330    -0.6790 H     1 <1>   0.0800 
 31 H        6.1900     1.2020    -0.5060 H     1 <1>   0.0800 
 32 H        6.2490    -0.3710    -1.2890 H     1 <1>   0.0800 
 33 H        5.8100    -0.2090     1.4480 H     1 <1>   0.4000 
@<TRIPOS>BOND
  1   1   2  1   
  2   1   3  1   
  3   2   4  ar  
  4   2   5  ar  
  5   3   6  1   
  6   3  16  1   
  7   3  17  1   
  8   4   7  1   
  9   4   8  ar  
 10   5   9  ar  
 11   5  18  1   
 12   6  10  1   
 13   6  19  1   
 14   6  20  1   
 15   7  11  1   
 16   8  12  ar  
 17   8  21  1   
 18   9  12  ar  
 19   9  22  1   
 20  10  13  1   
 21  10  23  1   
 22  10  24  1   
 23  11  25  1   
 24  11  26  1   
 25  11  27  1   
 26  12  14  1   
 27  13  28  1   
 28  13  29  1   
 29  13  30  1   
 30  14  15  1   
 31  14  31  1   
 32  14  32  1   
 33  15  33  1   
@<TRIPOS>SUBSTRUCTURE
  1 ****   2 GROUP 4 **** **** 0

# MOE 2024.06 (io_trps.svl 2023.06)
