@<TRIPOS>MOLECULE
NONAME
43 45 1 0 0 
SMALL
USER_CHARGES


@<TRIPOS>ATOM
  1 BR      -1.3820    -0.4440     2.3450 Br    1 <1>  -0.1110 
  2 C       -2.4240     0.1360     0.8300 C.ar  1 <1>   0.1110 
  3 C       -3.1820    -0.7880     0.1280 C.ar  1 <1>  -0.1440 
  4 C       -2.3860     1.4750     0.4930 C.ar  1 <1>  -0.1500 
  5 C       -3.9220    -0.3380    -0.9570 C.ar  1 <1>  -0.1500 
  6 C       -3.2110    -2.2510     0.5220 C.3   1 <1>   0.4870 
  7 C       -3.1340     1.9080    -0.5870 C.ar  1 <1>  -0.1500 
  8 C       -3.8980     1.0030    -1.3080 C.ar  1 <1>  -0.1500 
  9 N       -3.9810    -2.4140     1.7940 N.4   1 <1>  -0.9590 
 10 C       -3.9630    -3.8470     2.2720 C.3   1 <1>   0.3430 
 11 C       -5.3770    -1.8300     1.6820 C.3   1 <1>   0.3430 
 12 C       -5.0540    -4.7620     1.6450 C.3   1 <1>   0.1960 
 13 C       -6.4930    -2.8160     2.0970 C.3   1 <1>   0.1960 
 14 N       -6.3610    -4.1060     1.3910 N.am  1 <1>  -0.8490 
 15 S       -6.7680    -3.9970    -0.2580 S.o2  1 <1>   1.4470 
 16 O       -7.9100    -3.1170    -0.3310 O.2   1 <1>  -0.6500 
 17 O       -5.5450    -3.5850    -0.9150 O.2   1 <1>  -0.6500 
 18 C       -7.2180    -5.6960    -0.7000 C.ar  1 <1>  -0.0090 
 19 C       -8.1810    -6.3900     0.0230 C.ar  1 <1>  -0.1500 
 20 C       -6.6090    -6.3470    -1.7680 C.ar  1 <1>  -0.1500 
 21 C       -8.5190    -7.6940    -0.2990 C.ar  1 <1>  -0.1500 
 22 C       -6.9410    -7.6500    -2.0960 C.ar  1 <1>  -0.1500 
 23 C       -7.8960    -8.3250    -1.3600 C.ar  1 <1>  -0.1500 
 24 H       -1.7850     2.1660     1.0600 H     1 <1>   0.1500 
 25 H       -4.5210    -1.0210    -1.5390 H     1 <1>   0.1500 
 26 H       -2.1990    -2.5960     0.6580 H     1 <1>   0.0800 
 27 H       -3.6510    -2.8290    -0.2700 H     1 <1>   0.0800 
 28 H       -3.1210     2.9480    -0.8710 H     1 <1>   0.1500 
 29 H       -4.4740     1.3470    -2.1520 H     1 <1>   0.1500 
 30 H       -3.4690    -1.8400     2.4790 H     1 <1>   0.4500 
 31 H       -4.1270    -3.8490     3.3370 H     1 <1>   0.0800 
 32 H       -2.9920    -4.2840     2.1060 H     1 <1>   0.0800 
 33 H       -5.5670    -1.5310     0.6640 H     1 <1>   0.0800 
 34 H       -5.4490    -0.9420     2.2890 H     1 <1>   0.0800 
 35 H       -5.2190    -5.5870     2.3170 H     1 <1>   0.0800 
 36 H       -4.6650    -5.1930     0.7370 H     1 <1>   0.0800 
 37 H       -7.4570    -2.3760     1.9020 H     1 <1>   0.0800 
 38 H       -6.4430    -2.9840     3.1600 H     1 <1>   0.0800 
 39 H       -8.6760    -5.9060     0.8480 H     1 <1>   0.1500 
 40 H       -5.8660    -5.8320    -2.3550 H     1 <1>   0.1500 
 41 H       -9.2680    -8.2160     0.2720 H     1 <1>   0.1500 
 42 H       -6.4590    -8.1390    -2.9260 H     1 <1>   0.1500 
 43 H       -8.1570    -9.3390    -1.6130 H     1 <1>   0.1500 
@<TRIPOS>BOND
  1   1   2  1   
  2   2   3  ar  
  3   2   4  ar  
  4   3   5  ar  
  5   3   6  1   
  6   4   7  ar  
  7   4  24  1   
  8   5   8  ar  
  9   5  25  1   
 10   6   9  1   
 11   6  26  1   
 12   6  27  1   
 13   7   8  ar  
 14   7  28  1   
 15   8  29  1   
 16   9  10  1   
 17   9  11  1   
 18   9  30  1   
 19  10  12  1   
 20  10  31  1   
 21  10  32  1   
 22  11  13  1   
 23  11  33  1   
 24  11  34  1   
 25  12  14  1   
 26  12  35  1   
 27  12  36  1   
 28  13  14  1   
 29  13  37  1   
 30  13  38  1   
 31  14  15  am  
 32  15  16  2   
 33  15  17  2   
 34  15  18  1   
 35  18  19  ar  
 36  18  20  ar  
 37  19  21  ar  
 38  19  39  1   
 39  20  22  ar  
 40  20  40  1   
 41  21  23  ar  
 42  21  41  1   
 43  22  23  ar  
 44  22  42  1   
 45  23  43  1   
@<TRIPOS>SUBSTRUCTURE
  1 ****  17 GROUP 4 **** **** 0

# MOE 2024.06 (io_trps.svl 2023.06)
