@<TRIPOS>MOLECULE
NONAME
43 45 1 0 0 
SMALL
USER_CHARGES


@<TRIPOS>ATOM
  1 CL       2.8200    -2.3520    -3.2080 Cl    1 <1>  -0.1770 
  2 C        2.7520    -1.7000    -1.5850 C.ar  1 <1>   0.1770 
  3 C        1.7430    -2.0870    -0.7120 C.ar  1 <1>   0.0820 
  4 C        3.7290    -0.8000    -1.2060 C.ar  1 <1>  -0.1500 
  5 O        0.8130    -2.9770    -1.1480 O.3   1 <1>  -0.3630 
  6 C        1.7360    -1.5410     0.5680 C.ar  1 <1>  -0.1500 
  7 C        3.7330    -0.2550     0.0720 C.ar  1 <1>  -0.0090 
  8 C       -0.2750    -3.3740    -0.3430 C.3   1 <1>   0.0400 
  9 C        2.7190    -0.6400     0.9450 C.ar  1 <1>  -0.1500 
 10 S        5.0180     0.9230     0.5750 S.o2  1 <1>   1.4470 
 11 O        5.0860     0.9910     2.0190 O.2   1 <1>  -0.6500 
 12 O        4.8650     2.1390    -0.1910 O.2   1 <1>  -0.6500 
 13 N        6.4420     0.1770     0.0440 N.am  1 <1>  -0.8490 
 14 C        7.5670     1.1330     0.0060 C.3   1 <1>   0.1960 
 15 C        6.8200    -0.9830     0.8790 C.3   1 <1>   0.1960 
 16 C        8.8630     0.4920    -0.5280 C.3   1 <1>   0.2090 
 17 C        8.0850    -1.6880     0.3550 C.3   1 <1>   0.2090 
 18 N        9.2260    -0.7320     0.2460 N.pl3 1 <1>  -0.8380 
 19 C       10.4660    -1.2910    -0.0370 C.ar  1 <1>   0.1000 
 20 C       10.7400    -1.8800    -1.2670 C.ar  1 <1>  -0.1500 
 21 C       11.4630    -1.2670     0.9280 C.ar  1 <1>  -0.1500 
 22 C       11.9830    -2.4320    -1.5250 C.ar  1 <1>  -0.1500 
 23 C       12.7070    -1.8170     0.6760 C.ar  1 <1>  -0.1500 
 24 C       12.9680    -2.4000    -0.5520 C.ar  1 <1>  -0.1500 
 25 H        4.4920    -0.5210    -1.9120 H     1 <1>   0.1500 
 26 H        0.9770    -1.8030     1.2820 H     1 <1>   0.1500 
 27 H       -0.8770    -4.0590    -0.9120 H     1 <1>   0.0800 
 28 H       -0.8550    -2.5050    -0.0850 H     1 <1>   0.0800 
 29 H        0.1010    -3.8640     0.5370 H     1 <1>   0.0800 
 30 H        2.7000    -0.2240     1.9400 H     1 <1>   0.1500 
 31 H        7.7510     1.5200     0.9950 H     1 <1>   0.0800 
 32 H        7.3150     1.9640    -0.6320 H     1 <1>   0.0800 
 33 H        6.0130    -1.6950     0.8960 H     1 <1>   0.0800 
 34 H        7.0040    -0.6650     1.8930 H     1 <1>   0.0800 
 35 H        9.6680     1.2030    -0.4610 H     1 <1>   0.0800 
 36 H        8.7280     0.2370    -1.5650 H     1 <1>   0.0800 
 37 H        7.8800    -2.1180    -0.6100 H     1 <1>   0.0800 
 38 H        8.3570    -2.4840     1.0260 H     1 <1>   0.0800 
 39 H        9.9760    -1.9040    -2.0210 H     1 <1>   0.1500 
 40 H       11.2490    -0.8110     1.8770 H     1 <1>   0.1500 
 41 H       12.1850    -2.8850    -2.4790 H     1 <1>   0.1500 
 42 H       13.4700    -1.7910     1.4340 H     1 <1>   0.1500 
 43 H       13.9350    -2.8290    -0.7500 H     1 <1>   0.1500 
@<TRIPOS>BOND
  1   1   2  1   
  2   2   3  ar  
  3   2   4  ar  
  4   3   5  1   
  5   3   6  ar  
  6   4   7  ar  
  7   4  25  1   
  8   5   8  1   
  9   6   9  ar  
 10   6  26  1   
 11   7   9  ar  
 12   7  10  1   
 13   8  27  1   
 14   8  28  1   
 15   8  29  1   
 16   9  30  1   
 17  10  11  2   
 18  10  12  2   
 19  10  13  am  
 20  13  14  1   
 21  13  15  1   
 22  14  16  1   
 23  14  31  1   
 24  14  32  1   
 25  15  17  1   
 26  15  33  1   
 27  15  34  1   
 28  16  18  1   
 29  16  35  1   
 30  16  36  1   
 31  17  18  1   
 32  17  37  1   
 33  17  38  1   
 34  18  19  1   
 35  19  20  ar  
 36  19  21  ar  
 37  20  22  ar  
 38  20  39  1   
 39  21  23  ar  
 40  21  40  1   
 41  22  24  ar  
 42  22  41  1   
 43  23  24  ar  
 44  23  42  1   
 45  24  43  1   
@<TRIPOS>SUBSTRUCTURE
  1 ****  15 GROUP 4 **** **** 0

# MOE 2024.06 (io_trps.svl 2023.06)
