@<TRIPOS>MOLECULE
NONAME
43 45 1 0 0 
SMALL
USER_CHARGES


@<TRIPOS>ATOM
  1 CL      -1.4630    -0.3860    -2.6320 Cl    1 <1>  -0.1770 
  2 C       -2.1870    -0.8570    -1.1140 C.ar  1 <1>   0.1770 
  3 C       -2.6990     0.1120    -0.2630 C.ar  1 <1>  -0.1440 
  4 C       -2.2160    -2.1990    -0.7880 C.ar  1 <1>  -0.1500 
  5 C       -3.2560    -0.2960     0.9440 C.ar  1 <1>  -0.1500 
  6 C       -2.6370     1.5800    -0.6660 C.3   1 <1>   0.7100 
  7 C       -2.7690    -2.5910     0.4180 C.ar  1 <1>  -0.1500 
  8 C       -3.2880    -1.6400     1.2800 C.ar  1 <1>  -0.1500 
  9 N       -1.5410     2.2150     0.1250 N.4   1 <1>  -0.9590 
 10 C       -3.9770     2.2880    -0.4360 C.ar  1 <1>  -0.1430 
 11 C       -1.5630     3.6990     0.0010 C.3   1 <1>   0.3430 
 12 C       -0.1980     1.6580    -0.2300 C.3   1 <1>   0.2630 
 13 C       -4.0680     3.5300     0.1830 C.ar  1 <1>  -0.1430 
 14 C       -5.1460     1.6820    -0.8750 C.ar  1 <1>  -0.1500 
 15 C       -2.8220     4.2560     0.6620 C.3   1 <1>  -0.0170 
 16 C       -5.3050     4.1260     0.3690 C.ar  1 <1>  -0.1500 
 17 C       -6.3890     2.2640    -0.7010 C.ar  1 <1>   0.0830 
 18 C       -6.4790     3.5120    -0.0610 C.ar  1 <1>   0.0830 
 19 O       -7.4160     1.5140    -1.1980 O.3   1 <1>  -0.3630 
 20 O       -7.6930     4.1040     0.1350 O.3   1 <1>  -0.3620 
 21 C       -8.7590     1.9420    -1.2200 C.3   1 <1>   0.0400 
 22 C       -7.8500     5.3380     0.8010 C.3   1 <1>   0.0400 
 23 H       -1.8130    -2.9300    -1.4680 H     1 <1>   0.1500 
 24 H       -3.6830     0.4180     1.6300 H     1 <1>   0.1500 
 25 H       -2.4070     1.6580    -1.7160 H     1 <1>   0.0800 
 26 H       -2.8010    -3.6350     0.6850 H     1 <1>   0.1500 
 27 H       -3.7250    -1.9510     2.2150 H     1 <1>   0.1500 
 28 H       -1.7600     1.9670     1.0970 H     1 <1>   0.4500 
 29 H       -1.5520     3.9770    -1.0410 H     1 <1>   0.0800 
 30 H       -0.6950     4.1260     0.4760 H     1 <1>   0.0800 
 31 H        0.0230     1.8420    -1.2700 H     1 <1>   0.0800 
 32 H       -0.1740     0.5940    -0.0580 H     1 <1>   0.0800 
 33 H        0.5690     2.1160     0.3730 H     1 <1>   0.0800 
 34 H       -5.1180     0.7250    -1.3690 H     1 <1>   0.1500 
 35 H       -2.8990     5.3040     0.4290 H     1 <1>   0.0800 
 36 H       -2.7420     4.1650     1.7310 H     1 <1>   0.0800 
 37 H       -5.3400     5.0820     0.8560 H     1 <1>   0.1500 
 38 H       -9.3430     1.1870    -1.7140 H     1 <1>   0.0800 
 39 H       -8.8220     2.8670    -1.7650 H     1 <1>   0.0800 
 40 H       -9.1020     2.0660    -0.2090 H     1 <1>   0.0800 
 41 H       -8.8990     5.5680     0.8340 H     1 <1>   0.0800 
 42 H       -7.3280     6.1020     0.2520 H     1 <1>   0.0800 
 43 H       -7.4670     5.2470     1.8030 H     1 <1>   0.0800 
@<TRIPOS>BOND
  1   1   2  1   
  2   2   3  ar  
  3   2   4  ar  
  4   3   5  ar  
  5   3   6  1   
  6   4   7  ar  
  7   4  23  1   
  8   5   8  ar  
  9   5  24  1   
 10   6   9  1   
 11   6  10  1   
 12   6  25  1   
 13   7   8  ar  
 14   7  26  1   
 15   8  27  1   
 16   9  11  1   
 17   9  12  1   
 18   9  28  1   
 19  10  13  ar  
 20  10  14  ar  
 21  11  15  1   
 22  11  29  1   
 23  11  30  1   
 24  12  31  1   
 25  12  32  1   
 26  12  33  1   
 27  13  15  1   
 28  13  16  ar  
 29  14  17  ar  
 30  14  34  1   
 31  15  35  1   
 32  15  36  1   
 33  16  18  ar  
 34  16  37  1   
 35  17  18  ar  
 36  17  19  1   
 37  18  20  1   
 38  19  21  1   
 39  20  22  1   
 40  21  38  1   
 41  21  39  1   
 42  21  40  1   
 43  22  41  1   
 44  22  42  1   
 45  22  43  1   
@<TRIPOS>SUBSTRUCTURE
  1 ****  10 GROUP 4 **** **** 0

# MOE 2024.06 (io_trps.svl 2023.06)
