@<TRIPOS>MOLECULE
NONAME
50 52 1 0 0 
SMALL
USER_CHARGES


@<TRIPOS>ATOM
  1 S       -0.4730     0.2420    -0.7060 S.3   1 <1>  -0.2860 
  2 C        1.1090     1.0820    -0.8170 C.2   1 <1>   0.2420 
  3 C       -1.5860     1.3360    -1.7190 C.3   1 <1>   0.1310 
  4 N        1.2620     2.1930    -1.4430 N.2   1 <1>  -0.3380 
  5 N        2.2280     0.6130    -0.2710 N.pl3 1 <1>   0.0480 
  6 C       -3.0160     0.8210    -1.7330 C.2   1 <1>   0.5690 
  7 N        2.5490     2.4980    -1.3250 N.2   1 <1>  -0.3380 
  8 C        3.1360     1.5560    -0.6250 C.2   1 <1>   0.1330 
  9 C        2.3800    -0.6640     0.4720 C.3   1 <1>   0.0960 
 10 O       -3.7240     1.1200    -2.6630 O.2   1 <1>  -0.5700 
 11 N       -3.4650     0.0550    -0.7030 N.am  1 <1>  -0.7300 
 12 C        4.5530     1.5500    -0.3090 C.ar  1 <1>   0.3630 
 13 C        2.9800    -1.7490    -0.4280 C.3   1 <1>  -0.2400 
 14 C       -4.8140    -0.5190    -0.5800 C.3   1 <1>   0.2200 
 15 N        4.9950     0.8350     0.7340 N.ar  1 <1>  -0.6200 
 16 C        5.4340     2.2960    -1.0970 C.ar  1 <1>  -0.1500 
 17 C       -5.4570     0.0740     0.6790 C.3   1 <1>  -0.1600 
 18 C       -4.6770    -2.0480    -0.5790 C.3   1 <1>  -0.1600 
 19 C        6.2920     0.8680     0.9840 C.ar  1 <1>   0.1600 
 20 C        6.7840     2.3220    -0.8300 C.ar  1 <1>  -0.1500 
 21 C       -6.8500    -0.4790     1.0220 C.3   1 <1>  -0.1600 
 22 C       -6.0250    -2.7570    -0.7810 C.3   1 <1>  -0.1600 
 23 C        7.2170     1.5830     0.2460 C.ar  1 <1>  -0.1500 
 24 C       -6.7920    -1.9110     1.5740 C.3   1 <1>  -0.1600 
 25 C       -6.8210    -3.0170     0.5080 C.3   1 <1>  -0.1600 
 26 H       -1.1870     1.3590    -2.7160 H     1 <1>   0.0800 
 27 H       -1.5470     2.3200    -1.2900 H     1 <1>   0.0800 
 28 H        1.4180    -0.9840     0.8280 H     1 <1>   0.0800 
 29 H        3.0010    -0.5050     1.3350 H     1 <1>   0.0800 
 30 H       -2.8090    -0.2090     0.0330 H     1 <1>   0.3700 
 31 H        2.3470    -1.9220    -1.2810 H     1 <1>   0.0800 
 32 H        3.0700    -2.6680     0.1220 H     1 <1>   0.0800 
 33 H        3.9610    -1.4590    -0.7630 H     1 <1>   0.0800 
 34 H       -5.3980    -0.2240    -1.4380 H     1 <1>   0.0800 
 35 H        5.0480     2.8610    -1.9270 H     1 <1>   0.1500 
 36 H       -5.5520     1.1350     0.5230 H     1 <1>   0.0800 
 37 H       -4.8030    -0.0720     1.5200 H     1 <1>   0.0800 
 38 H       -4.2020    -2.3900     0.3230 H     1 <1>   0.0800 
 39 H       -4.0480    -2.3170    -1.4090 H     1 <1>   0.0800 
 40 H        6.6410     0.2940     1.8260 H     1 <1>   0.1500 
 41 H        7.4670     2.8960    -1.4340 H     1 <1>   0.1500 
 42 H       -7.5060    -0.4230     0.1710 H     1 <1>   0.0800 
 43 H       -7.2680     0.1520     1.7880 H     1 <1>   0.0800 
 44 H       -5.8470    -3.7080    -1.2530 H     1 <1>   0.0800 
 45 H       -6.6290    -2.1850    -1.4650 H     1 <1>   0.0800 
 46 H        8.2590     1.5600     0.5120 H     1 <1>   0.1500 
 47 H       -7.6380    -2.0620     2.2230 H     1 <1>   0.0800 
 48 H       -5.9130    -2.0250     2.1850 H     1 <1>   0.0800 
 49 H       -6.4540    -3.9220     0.9620 H     1 <1>   0.0800 
 50 H       -7.8440    -3.2020     0.2300 H     1 <1>   0.0800 
@<TRIPOS>BOND
  1   1   2  1   
  2   1   3  1   
  3   2   4  2   
  4   2   5  1   
  5   3   6  1   
  6   3  26  1   
  7   3  27  1   
  8   4   7  1   
  9   5   8  1   
 10   5   9  1   
 11   6  10  2   
 12   6  11  am  
 13   7   8  2   
 14   8  12  1   
 15   9  13  1   
 16   9  28  1   
 17   9  29  1   
 18  11  14  1   
 19  11  30  1   
 20  12  15  ar  
 21  12  16  ar  
 22  13  31  1   
 23  13  32  1   
 24  13  33  1   
 25  14  17  1   
 26  14  18  1   
 27  14  34  1   
 28  15  19  ar  
 29  16  20  ar  
 30  16  35  1   
 31  17  21  1   
 32  17  36  1   
 33  17  37  1   
 34  18  22  1   
 35  18  38  1   
 36  18  39  1   
 37  19  23  ar  
 38  19  40  1   
 39  20  23  ar  
 40  20  41  1   
 41  21  24  1   
 42  21  42  1   
 43  21  43  1   
 44  22  25  1   
 45  22  44  1   
 46  22  45  1   
 47  23  46  1   
 48  24  25  1   
 49  24  47  1   
 50  24  48  1   
 51  25  49  1   
 52  25  50  1   
@<TRIPOS>SUBSTRUCTURE
  1 ****   1 GROUP 4 **** **** 0

# MOE 2024.06 (io_trps.svl 2023.06)
