@<TRIPOS>MOLECULE
NONAME
29 29 1 0 0 
SMALL
USER_CHARGES


@<TRIPOS>ATOM
  1 O        0.5920    -1.6340    -0.0410 O.co2 1 <1>  -0.9000 
  2 C       -0.0890    -1.9690    -1.0200 C.2   1 <1>   0.9060 
  3 O        0.3670    -2.0650    -2.1520 O.co2 1 <1>  -0.9000 
  4 C       -1.4490    -2.5600    -0.7430 C.3   1 <1>  -0.1860 
  5 C       -1.0970    -3.9680    -0.2450 C.3   1 <1>   0.4230 
  6 C       -2.3060    -1.6410     0.1650 C.3   1 <1>  -0.1600 
  7 N       -0.3490    -3.8500     1.0170 N.4   1 <1>  -0.8530 
  8 C       -2.2110    -5.0140    -0.0350 C.3   1 <1>  -0.1600 
  9 C       -3.8270    -1.8380     0.0520 C.3   1 <1>  -0.1600 
 10 C       -3.4980    -4.8400    -0.8620 C.3   1 <1>  -0.1600 
 11 C       -4.3760    -3.0450     0.8240 C.3   1 <1>  -0.1600 
 12 C       -4.6730    -4.2770    -0.0480 C.3   1 <1>  -0.1600 
 13 H       -1.9200    -2.6220    -1.7050 H     1 <1>   0.0800 
 14 H       -0.4300    -4.3710    -0.9930 H     1 <1>   0.0800 
 15 H       -1.9890    -1.6920     1.1910 H     1 <1>   0.0800 
 16 H       -2.1100    -0.6280    -0.1510 H     1 <1>   0.0800 
 17 H        0.2970    -3.0340     0.8620 H     1 <1>   0.4500 
 18 H        0.2190    -4.6670     1.2310 H     1 <1>   0.4500 
 19 H       -0.9610    -3.5740     1.7810 H     1 <1>   0.4500 
 20 H       -1.7850    -5.9630    -0.3110 H     1 <1>   0.0800 
 21 H       -2.4740    -5.0960     1.0040 H     1 <1>   0.0800 
 22 H       -4.2850    -0.9570     0.4700 H     1 <1>   0.0800 
 23 H       -4.1280    -1.8740    -0.9820 H     1 <1>   0.0800 
 24 H       -3.3330    -4.2440    -1.7410 H     1 <1>   0.0800 
 25 H       -3.8020    -5.8090    -1.2220 H     1 <1>   0.0800 
 26 H       -3.7260    -3.2960     1.6420 H     1 <1>   0.0800 
 27 H       -5.3120    -2.7490     1.2680 H     1 <1>   0.0800 
 28 H       -5.4720    -4.0360    -0.7290 H     1 <1>   0.0800 
 29 H       -5.0430    -5.0550     0.5980 H     1 <1>   0.0800 
@<TRIPOS>BOND
  1   1   2  ar  
  2   2   3  ar  
  3   2   4  1   
  4   4   5  1   
  5   4   6  1   
  6   4  13  1   
  7   5   7  1   
  8   5   8  1   
  9   5  14  1   
 10   6   9  1   
 11   6  15  1   
 12   6  16  1   
 13   7  17  1   
 14   7  18  1   
 15   7  19  1   
 16   8  10  1   
 17   8  20  1   
 18   8  21  1   
 19   9  11  1   
 20   9  22  1   
 21   9  23  1   
 22  10  12  1   
 23  10  24  1   
 24  10  25  1   
 25  11  12  1   
 26  11  26  1   
 27  11  27  1   
 28  12  28  1   
 29  12  29  1   
@<TRIPOS>SUBSTRUCTURE
  1 ****   4 GROUP 4 **** **** 0

# MOE 2024.06 (io_trps.svl 2023.06)
