@<TRIPOS>MOLECULE
NONAME
47 48 1 0 0 
SMALL
USER_CHARGES


@<TRIPOS>ATOM
  1 O       -0.4870    -0.3250    -0.1050 O.2   1 <1>  -0.5700 
  2 C       -0.3650    -1.4820     0.2510 C.2   1 <1>   0.6900 
  3 N       -1.3170    -2.0600     1.0460 N.am  1 <1>  -0.6600 
  4 N        0.7180    -2.2150    -0.1100 N.am  1 <1>  -0.7300 
  5 C       -2.4860    -1.2460     1.5070 C.3   1 <1>   0.3200 
  6 C       -1.4120    -3.5210     1.3020 C.3   1 <1>   0.1400 
  7 C        1.8470    -1.8540    -0.9680 C.3   1 <1>   0.3000 
  8 C       -3.7360    -1.5330     0.6870 C.2   1 <1>   0.2980 
  9 C       -0.7040    -3.8490     2.6140 C.3   1 <1>  -0.2400 
 10 C        2.7370    -3.0920    -1.0540 C.3   1 <1>  -0.2400 
 11 C        2.6300    -0.7030    -0.3370 C.3   1 <1>  -0.2400 
 12 C        1.3430    -1.4890    -2.3660 C.3   1 <1>  -0.2400 
 13 O       -3.7690    -1.1560    -0.5640 O.3   1 <1>  -0.0190 
 14 N       -4.7800    -2.1240     1.1070 N.2   1 <1>  -0.5650 
 15 N       -4.9350    -1.5420    -0.9780 N.2   1 <1>  -0.4100 
 16 C       -5.5360    -2.1150     0.0030 C.2   1 <1>   0.4620 
 17 C       -6.8690    -2.6940    -0.0410 C.ar  1 <1>   0.0540 
 18 C       -7.6220    -2.6900    -1.2160 C.ar  1 <1>  -0.1500 
 19 C       -7.4550    -3.2810     1.0830 C.ar  1 <1>  -0.1500 
 20 C       -8.8900    -3.2400    -1.2690 C.ar  1 <1>  -0.1500 
 21 C       -8.7220    -3.8320     1.0360 C.ar  1 <1>  -0.1500 
 22 C       -9.4500    -3.8150    -0.1410 C.ar  1 <1>  -0.1440 
 23 C      -10.8400    -4.4210    -0.1950 C.3   1 <1>  -0.0970 
 24 H        0.8130    -3.1190     0.3380 H     1 <1>   0.3700 
 25 H       -2.2660    -0.1950     1.4500 H     1 <1>   0.0800 
 26 H       -2.6850    -1.4780     2.5370 H     1 <1>   0.0800 
 27 H       -0.9660    -4.0680     0.4890 H     1 <1>   0.0800 
 28 H       -2.4450    -3.8190     1.3610 H     1 <1>   0.0800 
 29 H        0.3290    -3.5550     2.5690 H     1 <1>   0.0800 
 30 H       -0.7520    -4.9080     2.7950 H     1 <1>   0.0800 
 31 H       -1.1820    -3.3430     3.4330 H     1 <1>   0.0800 
 32 H        2.1970    -3.9160    -1.4830 H     1 <1>   0.0800 
 33 H        3.0960    -3.3690    -0.0790 H     1 <1>   0.0800 
 34 H        3.5890    -2.8900    -1.6790 H     1 <1>   0.0800 
 35 H        2.9400    -0.9590     0.6600 H     1 <1>   0.0800 
 36 H        2.0280     0.1870    -0.2960 H     1 <1>   0.0800 
 37 H        3.5040    -0.4830    -0.9220 H     1 <1>   0.0800 
 38 H        0.7520    -2.2890    -2.7730 H     1 <1>   0.0800 
 39 H        2.1730    -1.3070    -3.0230 H     1 <1>   0.0800 
 40 H        0.7460    -0.5960    -2.3330 H     1 <1>   0.0800 
 41 H       -7.2070    -2.2490    -2.1060 H     1 <1>   0.1500 
 42 H       -6.9090    -3.3060     2.0090 H     1 <1>   0.1500 
 43 H       -9.4390    -3.2200    -2.1940 H     1 <1>   0.1500 
 44 H       -9.1400    -4.2770     1.9220 H     1 <1>   0.1500 
 45 H      -10.7730    -5.4600    -0.4630 H     1 <1>   0.0800 
 46 H      -11.4440    -3.9120    -0.9250 H     1 <1>   0.0800 
 47 H      -11.3240    -4.3380     0.7620 H     1 <1>   0.0800 
@<TRIPOS>BOND
  1   1   2  2   
  2   2   3  am  
  3   2   4  am  
  4   3   5  1   
  5   3   6  1   
  6   4   7  1   
  7   4  24  1   
  8   5   8  1   
  9   5  25  1   
 10   5  26  1   
 11   6   9  1   
 12   6  27  1   
 13   6  28  1   
 14   7  10  1   
 15   7  11  1   
 16   7  12  1   
 17   8  13  1   
 18   8  14  2   
 19   9  29  1   
 20   9  30  1   
 21   9  31  1   
 22  10  32  1   
 23  10  33  1   
 24  10  34  1   
 25  11  35  1   
 26  11  36  1   
 27  11  37  1   
 28  12  38  1   
 29  12  39  1   
 30  12  40  1   
 31  13  15  1   
 32  14  16  1   
 33  15  16  2   
 34  16  17  1   
 35  17  18  ar  
 36  17  19  ar  
 37  18  20  ar  
 38  18  41  1   
 39  19  21  ar  
 40  19  42  1   
 41  20  22  ar  
 42  20  43  1   
 43  21  22  ar  
 44  21  44  1   
 45  22  23  1   
 46  23  45  1   
 47  23  46  1   
 48  23  47  1   
@<TRIPOS>SUBSTRUCTURE
  1 ****   8 GROUP 4 **** **** 0

# MOE 2024.06 (io_trps.svl 2023.06)
