@<TRIPOS>MOLECULE
NONAME
39 39 1 0 0 
SMALL
USER_CHARGES


@<TRIPOS>ATOM
  1 BR      -0.2800     0.4400     1.7300 Br    1 <1>  -0.1110 
  2 C        0.8030     1.9450     1.1950 C.ar  1 <1>   0.1110 
  3 C        0.1880     3.1220     0.7970 C.ar  1 <1>   0.0830 
  4 C        2.1750     1.7930     1.2150 C.ar  1 <1>  -0.1500 
  5 O       -1.1640     3.1950     0.7720 O.3   1 <1>  -0.3630 
  6 C        1.0130     4.1920     0.4360 C.ar  1 <1>   0.0830 
  7 C        3.0060     2.8430     0.8230 C.ar  1 <1>   0.0860 
  8 C       -1.7730     3.2830    -0.4950 C.3   1 <1>   0.1200 
  9 O        0.5280     5.4030     0.0690 O.3   1 <1>  -0.3620 
 10 C        2.3900     4.0400     0.4420 C.ar  1 <1>  -0.1500 
 11 C        4.4500     2.6870     0.8200 C.2   1 <1>   0.5440 
 12 C       -3.2850     3.2790    -0.2920 C.3   1 <1>  -0.2400 
 13 C       -0.1940     6.1230     1.0470 C.3   1 <1>   0.0400 
 14 O        4.9760     1.8930     1.5750 O.2   1 <1>  -0.5700 
 15 N        5.2190     3.4230    -0.0430 N.am  1 <1>  -0.7300 
 16 C        6.6780     3.4480    -0.2040 C.3   1 <1>   0.3000 
 17 C        6.9730     4.4800    -1.2910 C.3   1 <1>  -0.2400 
 18 C        7.1740     2.0750    -0.6550 C.3   1 <1>  -0.2400 
 19 C        7.3400     3.8830     1.1040 C.3   1 <1>  -0.2400 
 20 H        2.6060     0.8590     1.5320 H     1 <1>   0.1500 
 21 H       -1.4610     2.4350    -1.0790 H     1 <1>   0.0800 
 22 H       -1.4530     4.1920    -0.9740 H     1 <1>   0.0800 
 23 H        2.9910     4.8830     0.1580 H     1 <1>   0.1500 
 24 H       -3.5880     2.3700     0.1960 H     1 <1>   0.0800 
 25 H       -3.7800     3.3390    -1.2440 H     1 <1>   0.0800 
 26 H       -3.5810     4.1240     0.3030 H     1 <1>   0.0800 
 27 H       -0.3720     7.1140     0.6710 H     1 <1>   0.0800 
 28 H        0.3910     6.1700     1.9490 H     1 <1>   0.0800 
 29 H       -1.1320     5.6320     1.2340 H     1 <1>   0.0800 
 30 H        4.7400     3.9940    -0.7350 H     1 <1>   0.3700 
 31 H        6.5090     4.1970    -2.2190 H     1 <1>   0.0800 
 32 H        8.0330     4.5480    -1.4550 H     1 <1>   0.0800 
 33 H        6.6180     5.4520    -0.9960 H     1 <1>   0.0800 
 34 H        6.6670     1.7660    -1.5510 H     1 <1>   0.0800 
 35 H        7.0060     1.3400     0.1110 H     1 <1>   0.0800 
 36 H        8.2300     2.1090    -0.8530 H     1 <1>   0.0800 
 37 H        6.9430     4.8260     1.4330 H     1 <1>   0.0800 
 38 H        8.4010     3.9860     0.9660 H     1 <1>   0.0800 
 39 H        7.1790     3.1500     1.8740 H     1 <1>   0.0800 
@<TRIPOS>BOND
  1   1   2  1   
  2   2   3  ar  
  3   2   4  ar  
  4   3   5  1   
  5   3   6  ar  
  6   4   7  ar  
  7   4  20  1   
  8   5   8  1   
  9   6   9  1   
 10   6  10  ar  
 11   7  10  ar  
 12   7  11  1   
 13   8  12  1   
 14   8  21  1   
 15   8  22  1   
 16   9  13  1   
 17  10  23  1   
 18  11  14  2   
 19  11  15  am  
 20  12  24  1   
 21  12  25  1   
 22  12  26  1   
 23  13  27  1   
 24  13  28  1   
 25  13  29  1   
 26  15  16  1   
 27  15  30  1   
 28  16  17  1   
 29  16  18  1   
 30  16  19  1   
 31  17  31  1   
 32  17  32  1   
 33  17  33  1   
 34  18  34  1   
 35  18  35  1   
 36  18  36  1   
 37  19  37  1   
 38  19  38  1   
 39  19  39  1   
@<TRIPOS>SUBSTRUCTURE
  1 ****   7 GROUP 4 **** **** 0

# MOE 2024.06 (io_trps.svl 2023.06)
