@<TRIPOS>MOLECULE
NONAME
50 51 1 0 0 
SMALL
USER_CHARGES


@<TRIPOS>ATOM
  1 CL       1.5500    -1.3540    -1.0580 Cl    1 <1>  -0.1770 
  2 C        0.8920    -2.3490     0.2240 C.ar  1 <1>   0.1770 
  3 C        1.7400    -2.9430     1.1490 C.ar  1 <1>   0.0830 
  4 C       -0.4760    -2.5230     0.2860 C.ar  1 <1>  -0.1500 
  5 O        3.0710    -2.7240     1.0240 O.3   1 <1>  -0.3630 
  6 C        1.1830    -3.7270     2.1540 C.ar  1 <1>  -0.1500 
  7 C       -1.0430    -3.3060     1.2850 C.ar  1 <1>  -0.0090 
  8 C        4.0190    -3.2300     1.9550 C.3   1 <1>   0.1810 
  9 C       -0.1910    -3.8990     2.2120 C.ar  1 <1>  -0.1500 
 10 S       -2.8390    -3.5290     1.3750 S.o2  1 <1>   1.4470 
 11 C        5.4270    -2.7760     1.5930 C.2   1 <1>   0.5690 
 12 O       -3.1600    -4.6600     2.2110 O.2   1 <1>  -0.6500 
 13 O       -3.4800    -2.2510     1.5840 O.2   1 <1>  -0.6500 
 14 N       -3.2350    -4.0470    -0.1680 N.am  1 <1>  -0.9140 
 15 O        6.3500    -3.1500     2.2770 O.2   1 <1>  -0.5700 
 16 N        5.6020    -1.9650     0.5190 N.am  1 <1>  -0.7300 
 17 C       -4.6120    -3.7520    -0.5250 C.3   1 <1>   0.1960 
 18 C        6.8760    -1.4310     0.0200 C.3   1 <1>   0.2200 
 19 C       -4.9760    -4.4410    -1.8510 C.3   1 <1>  -0.0800 
 20 C        6.7750     0.0870    -0.0490 C.3   1 <1>  -0.1600 
 21 C        7.0370    -1.8370    -1.4390 C.3   1 <1>  -0.1600 
 22 C       -6.4030    -4.0600    -2.2640 C.3   1 <1>  -0.2400 
 23 C       -4.8590    -5.9730    -1.7660 C.3   1 <1>  -0.2400 
 24 C        6.0270     0.3960    -1.3520 C.3   1 <1>  -0.1600 
 25 C        6.1940    -0.8410    -2.2440 C.3   1 <1>  -0.1600 
 26 H       -1.1040    -2.0470    -0.4470 H     1 <1>   0.1500 
 27 H        1.7940    -4.2100     2.8940 H     1 <1>   0.1500 
 28 H        3.9760    -4.3030     1.9380 H     1 <1>   0.0800 
 29 H        3.7690    -2.8630     2.9330 H     1 <1>   0.0800 
 30 H       -0.6130    -4.5080     2.9960 H     1 <1>   0.1500 
 31 H       -3.1750    -5.0610    -0.0980 H     1 <1>   0.4200 
 32 H        4.7760    -1.6900    -0.0190 H     1 <1>   0.3700 
 33 H       -4.7330    -2.6860    -0.6280 H     1 <1>   0.0800 
 34 H       -5.2750    -4.0930     0.2540 H     1 <1>   0.0800 
 35 H        7.6970    -1.7640     0.6350 H     1 <1>   0.0800 
 36 H       -4.3030    -4.0810    -2.6120 H     1 <1>   0.0800 
 37 H        7.7700     0.4910    -0.1130 H     1 <1>   0.0800 
 38 H        6.2910     0.5020     0.8180 H     1 <1>   0.0800 
 39 H        6.7500    -2.8600    -1.6100 H     1 <1>   0.0800 
 40 H        8.0710    -1.7210    -1.7120 H     1 <1>   0.0800 
 41 H       -7.1160    -4.4030    -1.5350 H     1 <1>   0.0800 
 42 H       -6.6480    -4.5020    -3.2150 H     1 <1>   0.0800 
 43 H       -6.4940    -2.9920    -2.3590 H     1 <1>   0.0800 
 44 H       -5.4770    -6.3580    -0.9740 H     1 <1>   0.0800 
 45 H       -3.8410    -6.2710    -1.5890 H     1 <1>   0.0800 
 46 H       -5.1730    -6.4200    -2.6930 H     1 <1>   0.0800 
 47 H        6.4250     1.2790    -1.8230 H     1 <1>   0.0800 
 48 H        4.9820     0.5540    -1.1450 H     1 <1>   0.0800 
 49 H        5.2270    -1.2660    -2.4540 H     1 <1>   0.0800 
 50 H        6.6740    -0.5950    -3.1750 H     1 <1>   0.0800 
@<TRIPOS>BOND
  1   1   2  1   
  2   2   3  ar  
  3   2   4  ar  
  4   3   5  1   
  5   3   6  ar  
  6   4   7  ar  
  7   4  26  1   
  8   5   8  1   
  9   6   9  ar  
 10   6  27  1   
 11   7   9  ar  
 12   7  10  1   
 13   8  11  1   
 14   8  28  1   
 15   8  29  1   
 16   9  30  1   
 17  10  12  2   
 18  10  13  2   
 19  10  14  am  
 20  11  15  2   
 21  11  16  am  
 22  14  17  1   
 23  14  31  1   
 24  16  18  1   
 25  16  32  1   
 26  17  19  1   
 27  17  33  1   
 28  17  34  1   
 29  18  20  1   
 30  18  21  1   
 31  18  35  1   
 32  19  22  1   
 33  19  23  1   
 34  19  36  1   
 35  20  24  1   
 36  20  37  1   
 37  20  38  1   
 38  21  25  1   
 39  21  39  1   
 40  21  40  1   
 41  22  41  1   
 42  22  42  1   
 43  22  43  1   
 44  23  44  1   
 45  23  45  1   
 46  23  46  1   
 47  24  25  1   
 48  24  47  1   
 49  24  48  1   
 50  25  49  1   
 51  25  50  1   
@<TRIPOS>SUBSTRUCTURE
  1 ****   2 GROUP 4 **** **** 0

# MOE 2024.06 (io_trps.svl 2023.06)
