@<TRIPOS>MOLECULE
NONAME
49 50 1 0 0 
SMALL
USER_CHARGES


@<TRIPOS>ATOM
  1 O        0.0650     0.2060     0.8590 O.2   1 <1>  -0.5700 
  2 C        0.6080    -0.8050     0.4580 C.2   1 <1>   0.5440 
  3 N       -0.1500    -1.8680     0.0220 N.am  1 <1>  -0.5470 
  4 C        2.0550    -0.8860     0.3980 C.ar  1 <1>   0.0860 
  5 C       -1.5370    -2.0790     0.0660 C.ar  1 <1>   0.1170 
  6 C        2.7370    -2.0950     0.5640 C.ar  1 <1>  -0.1500 
  7 C        2.8270     0.2550     0.1690 C.ar  1 <1>  -0.1500 
  8 C       -2.1260    -2.8910    -0.8960 C.ar  1 <1>  -0.1500 
  9 C       -2.3510    -1.5250     1.0500 C.ar  1 <1>  -0.1500 
 10 C        4.1160    -2.1590     0.4850 C.ar  1 <1>  -0.1500 
 11 C        4.2060     0.1990     0.0900 C.ar  1 <1>  -0.1500 
 12 C       -3.4870    -3.1350    -0.8830 C.ar  1 <1>  -0.1500 
 13 C       -3.7120    -1.7670     1.0640 C.ar  1 <1>  -0.1500 
 14 C        4.8630    -1.0180     0.2450 C.ar  1 <1>   0.0830 
 15 C       -4.2950    -2.5720     0.0950 C.ar  1 <1>   0.1170 
 16 O        6.2040    -1.1660     0.1790 O.3   1 <1>  -0.3630 
 17 N       -5.6770    -2.8110     0.1030 N.am  1 <1>  -0.4770 
 18 C        7.0630    -0.0700    -0.0370 C.3   1 <1>   0.1200 
 19 C       -6.6090    -1.9780    -0.4700 C.2   1 <1>   0.5690 
 20 C       -6.1360    -4.0520     0.7780 C.3   1 <1>   0.0600 
 21 C        8.5030    -0.5840    -0.0440 C.3   1 <1>  -0.1600 
 22 O       -7.7920    -2.2180    -0.4480 O.2   1 <1>  -0.5700 
 23 C       -6.1560    -0.7120    -1.1630 C.3   1 <1>  -0.1790 
 24 C        9.5000     0.5580    -0.2760 C.3   1 <1>  -0.1600 
 25 C       10.9400     0.0380    -0.2810 C.3   1 <1>  -0.2400 
 26 H        0.3720    -2.5710    -0.4950 H     1 <1>   0.3700 
 27 H        2.1880    -2.9960     0.7690 H     1 <1>   0.1500 
 28 H        2.3260     1.2010     0.0510 H     1 <1>   0.1500 
 29 H       -1.5190    -3.3310    -1.6650 H     1 <1>   0.1500 
 30 H       -1.9190    -0.8990     1.8100 H     1 <1>   0.1500 
 31 H        4.6290    -3.0960     0.6130 H     1 <1>   0.1500 
 32 H        4.7500     1.1070    -0.0910 H     1 <1>   0.1500 
 33 H       -3.9340    -3.7610    -1.6340 H     1 <1>   0.1500 
 34 H       -4.3290    -1.3300     1.8290 H     1 <1>   0.1500 
 35 H        6.9160     0.6390     0.7600 H     1 <1>   0.0800 
 36 H        6.8140     0.3750    -0.9850 H     1 <1>   0.0800 
 37 H       -5.3140    -4.5330     1.2790 H     1 <1>   0.0800 
 38 H       -6.5510    -4.7240     0.0480 H     1 <1>   0.0800 
 39 H       -6.8950    -3.8090     1.5000 H     1 <1>   0.0800 
 40 H        8.6090    -1.3170    -0.8250 H     1 <1>   0.0800 
 41 H        8.7110    -1.0550     0.9020 H     1 <1>   0.0800 
 42 H       -5.4710    -0.9540    -1.9530 H     1 <1>   0.0800 
 43 H       -5.6740    -0.0640    -0.4570 H     1 <1>   0.0800 
 44 H       -7.0040    -0.2030    -1.5810 H     1 <1>   0.0800 
 45 H        9.3950     1.2960     0.5020 H     1 <1>   0.0800 
 46 H        9.2940     1.0340    -1.2200 H     1 <1>   0.0800 
 47 H       11.1770    -0.4240     0.6610 H     1 <1>   0.0800 
 48 H       11.6250     0.8510    -0.4450 H     1 <1>   0.0800 
 49 H       11.0760    -0.6860    -1.0650 H     1 <1>   0.0800 
@<TRIPOS>BOND
  1   1   2  2   
  2   2   3  am  
  3   2   4  1   
  4   3   5  1   
  5   3  26  1   
  6   4   6  ar  
  7   4   7  ar  
  8   5   8  ar  
  9   5   9  ar  
 10   6  10  ar  
 11   6  27  1   
 12   7  11  ar  
 13   7  28  1   
 14   8  12  ar  
 15   8  29  1   
 16   9  13  ar  
 17   9  30  1   
 18  10  14  ar  
 19  10  31  1   
 20  11  14  ar  
 21  11  32  1   
 22  12  15  ar  
 23  12  33  1   
 24  13  15  ar  
 25  13  34  1   
 26  14  16  1   
 27  15  17  1   
 28  16  18  1   
 29  17  19  am  
 30  17  20  1   
 31  18  21  1   
 32  18  35  1   
 33  18  36  1   
 34  19  22  2   
 35  19  23  1   
 36  20  37  1   
 37  20  38  1   
 38  20  39  1   
 39  21  24  1   
 40  21  40  1   
 41  21  41  1   
 42  23  42  1   
 43  23  43  1   
 44  23  44  1   
 45  24  25  1   
 46  24  45  1   
 47  24  46  1   
 48  25  47  1   
 49  25  48  1   
 50  25  49  1   
@<TRIPOS>SUBSTRUCTURE
  1 ****   2 GROUP 4 **** **** 0

# MOE 2024.06 (io_trps.svl 2023.06)
