@<TRIPOS>MOLECULE
NONAME
42 43 1 0 0 
SMALL
USER_CHARGES


@<TRIPOS>ATOM
  1 O        0.1360     0.3140    -0.3210 O.2   1 <1>  -0.5700 
  2 C       -0.0250     1.4620     0.0500 C.2   1 <1>   0.7150 
  3 N       -1.2950     1.9340     0.2890 N.am  1 <1>  -0.5470 
  4 C        1.0920     2.3640     0.2380 C.2   1 <1>   0.0550 
  5 C       -2.5500     1.3080     0.2760 C.ar  1 <1>   0.1170 
  6 O        2.3350     1.9980    -0.0710 O.3   1 <1>  -0.2800 
  7 C        1.1360     3.6420     0.7170 C.2   1 <1>  -0.1500 
  8 C       -3.6760     2.1010     0.1190 C.ar  1 <1>  -0.1500 
  9 C       -2.7280    -0.0610     0.4340 C.ar  1 <1>  -0.1500 
 10 C        3.1540     2.9900     0.1910 C.2   1 <1>  -0.0100 
 11 C        2.4720     4.0450     0.6840 C.2   1 <1>  -0.1500 
 12 C       -4.9600     1.5700     0.1260 C.ar  1 <1>   0.1170 
 13 C       -3.9960    -0.6110     0.4320 C.ar  1 <1>  -0.1500 
 14 N       -6.0960     2.3820    -0.0370 N.am  1 <1>  -0.5470 
 15 C       -5.1160     0.1910     0.2810 C.ar  1 <1>  -0.1430 
 16 C       -6.3090     3.7160     0.1990 C.2   1 <1>   0.5690 
 17 C       -6.4940    -0.4580     0.2930 C.3   1 <1>  -0.0970 
 18 O       -5.4500     4.4430     0.6410 O.2   1 <1>  -0.5700 
 19 C       -7.7070     4.3140    -0.1080 C.3   1 <1>   0.0610 
 20 C       -7.5790     5.3850    -1.2070 C.3   1 <1>  -0.2400 
 21 C       -8.2820     4.9780     1.1580 C.3   1 <1>  -0.2400 
 22 C       -8.7290     3.2610    -0.5910 C.3   1 <1>  -0.2400 
 23 H       -1.3350     2.9350     0.4560 H     1 <1>   0.3700 
 24 H        0.3260     4.2570     1.0650 H     1 <1>   0.1500 
 25 H       -3.5450     3.1560    -0.0180 H     1 <1>   0.1500 
 26 H       -1.8780    -0.7060     0.5630 H     1 <1>   0.1500 
 27 H        4.2050     2.8630    -0.0020 H     1 <1>   0.1500 
 28 H        2.8520     5.0020     0.9930 H     1 <1>   0.1500 
 29 H       -4.0990    -1.6750     0.5530 H     1 <1>   0.1500 
 30 H       -6.9240     1.8760    -0.3380 H     1 <1>   0.3700 
 31 H       -7.1060    -0.0130     1.0580 H     1 <1>   0.0800 
 32 H       -6.4210    -1.5120     0.4960 H     1 <1>   0.0800 
 33 H       -6.9710    -0.3330    -0.6620 H     1 <1>   0.0800 
 34 H       -7.1820     4.9520    -2.1080 H     1 <1>   0.0800 
 35 H       -6.9110     6.1670    -0.8890 H     1 <1>   0.0800 
 36 H       -8.5340     5.8260    -1.4290 H     1 <1>   0.0800 
 37 H       -7.6260     5.7580     1.5020 H     1 <1>   0.0800 
 38 H       -8.3810     4.2540     1.9480 H     1 <1>   0.0800 
 39 H       -9.2480     5.4100     0.9630 H     1 <1>   0.0800 
 40 H       -9.6800     3.7250    -0.7850 H     1 <1>   0.0800 
 41 H       -8.3980     2.7960    -1.5040 H     1 <1>   0.0800 
 42 H       -8.8780     2.5020     0.1570 H     1 <1>   0.0800 
@<TRIPOS>BOND
  1   1   2  2   
  2   2   3  am  
  3   2   4  1   
  4   3   5  1   
  5   3  23  1   
  6   4   6  1   
  7   4   7  2   
  8   5   8  ar  
  9   5   9  ar  
 10   6  10  1   
 11   7  11  1   
 12   7  24  1   
 13   8  12  ar  
 14   8  25  1   
 15   9  13  ar  
 16   9  26  1   
 17  10  11  2   
 18  10  27  1   
 19  11  28  1   
 20  12  14  1   
 21  12  15  ar  
 22  13  15  ar  
 23  13  29  1   
 24  14  16  am  
 25  14  30  1   
 26  15  17  1   
 27  16  18  2   
 28  16  19  1   
 29  17  31  1   
 30  17  32  1   
 31  17  33  1   
 32  19  20  1   
 33  19  21  1   
 34  19  22  1   
 35  20  34  1   
 36  20  35  1   
 37  20  36  1   
 38  21  37  1   
 39  21  38  1   
 40  21  39  1   
 41  22  40  1   
 42  22  41  1   
 43  22  42  1   
@<TRIPOS>SUBSTRUCTURE
  1 ****   8 GROUP 4 **** **** 0

# MOE 2024.06 (io_trps.svl 2023.06)
