@<TRIPOS>MOLECULE
NONAME
41 42 1 0 0 
SMALL
USER_CHARGES


@<TRIPOS>ATOM
  1 BR       1.2030    -0.4590    -2.6250 Br    1 <1>  -0.1110 
  2 C        0.4860    -1.9110    -1.5850 C.ar  1 <1>   0.1110 
  3 C       -0.7900    -2.3590    -1.8650 C.ar  1 <1>  -0.1500 
  4 C        1.2630    -2.4630    -0.5860 C.ar  1 <1>  -0.1500 
  5 C       -1.3110    -3.4030    -1.1140 C.ar  1 <1>  -0.1440 
  6 C        0.7420    -3.5050     0.1610 C.ar  1 <1>  -0.1500 
  7 C       -0.5460    -3.9780    -0.0990 C.ar  1 <1>   0.0830 
  8 C       -2.7100    -3.9160    -1.4000 C.3   1 <1>   0.4870 
  9 O       -1.1130    -4.9920     0.6100 O.3   1 <1>  -0.3620 
 10 N       -3.5430    -3.7290    -0.1860 N.4   1 <1>  -0.9590 
 11 C       -0.3440    -5.7790     1.5010 C.3   1 <1>   0.0400 
 12 C       -4.8340    -4.4870    -0.2680 C.3   1 <1>   0.3430 
 13 C       -3.6680    -2.2780     0.1730 C.3   1 <1>   0.3430 
 14 C       -6.0020    -3.5610    -0.6370 C.3   1 <1>  -0.0800 
 15 C       -4.8650    -2.0480     1.1050 C.3   1 <1>  -0.0800 
 16 C       -6.1880    -2.4520     0.4210 C.3   1 <1>  -0.1600 
 17 C       -7.3020    -4.3570    -0.8150 C.3   1 <1>  -0.2400 
 18 C       -4.9240    -0.5890     1.5760 C.3   1 <1>  -0.2400 
 19 H       -1.3450    -1.8920    -2.6600 H     1 <1>   0.1500 
 20 H        2.2540    -2.0850    -0.4010 H     1 <1>   0.1500 
 21 H        1.3530    -3.9270     0.9370 H     1 <1>   0.1500 
 22 H       -2.6510    -4.9630    -1.6480 H     1 <1>   0.0800 
 23 H       -3.1410    -3.3870    -2.2340 H     1 <1>   0.0800 
 24 H       -2.9680    -4.1710     0.5530 H     1 <1>   0.4500 
 25 H       -0.9650    -6.5730     1.8750 H     1 <1>   0.0800 
 26 H       -0.0110    -5.1640     2.3180 H     1 <1>   0.0800 
 27 H        0.4940    -6.1950     0.9690 H     1 <1>   0.0800 
 28 H       -5.0460    -4.9290     0.6920 H     1 <1>   0.0800 
 29 H       -4.7540    -5.2850    -0.9890 H     1 <1>   0.0800 
 30 H       -3.8160    -1.6940    -0.7210 H     1 <1>   0.0800 
 31 H       -2.7610    -1.9400     0.6480 H     1 <1>   0.0800 
 32 H       -5.7730    -3.1020    -1.5840 H     1 <1>   0.0800 
 33 H       -4.7220    -2.6620     1.9780 H     1 <1>   0.0800 
 34 H       -6.8750    -2.7740     1.1860 H     1 <1>   0.0800 
 35 H       -6.6360    -1.6000    -0.0640 H     1 <1>   0.0800 
 36 H       -7.5760    -4.8590     0.0970 H     1 <1>   0.0800 
 37 H       -7.1930    -5.0930    -1.5920 H     1 <1>   0.0800 
 38 H       -8.1070    -3.6970    -1.0920 H     1 <1>   0.0800 
 39 H       -5.0430     0.0830     0.7430 H     1 <1>   0.0800 
 40 H       -4.0240    -0.3240     2.1030 H     1 <1>   0.0800 
 41 H       -5.7550    -0.4480     2.2460 H     1 <1>   0.0800 
@<TRIPOS>BOND
  1   1   2  1   
  2   2   3  ar  
  3   2   4  ar  
  4   3   5  ar  
  5   3  19  1   
  6   4   6  ar  
  7   4  20  1   
  8   5   7  ar  
  9   5   8  1   
 10   6   7  ar  
 11   6  21  1   
 12   7   9  1   
 13   8  10  1   
 14   8  22  1   
 15   8  23  1   
 16   9  11  1   
 17  10  12  1   
 18  10  13  1   
 19  10  24  1   
 20  11  25  1   
 21  11  26  1   
 22  11  27  1   
 23  12  14  1   
 24  12  28  1   
 25  12  29  1   
 26  13  15  1   
 27  13  30  1   
 28  13  31  1   
 29  14  16  1   
 30  14  17  1   
 31  14  32  1   
 32  15  16  1   
 33  15  18  1   
 34  15  33  1   
 35  16  34  1   
 36  16  35  1   
 37  17  36  1   
 38  17  37  1   
 39  17  38  1   
 40  18  39  1   
 41  18  40  1   
 42  18  41  1   
@<TRIPOS>SUBSTRUCTURE
  1 ****  10 GROUP 4 **** **** 0

# MOE 2024.06 (io_trps.svl 2023.06)
