@<TRIPOS>MOLECULE
NONAME
49 51 1 0 0 
SMALL
USER_CHARGES


@<TRIPOS>ATOM
  1 CL      -0.4300     1.3300     0.1680 Cl    1 <1>  -0.1770 
  2 C        1.1180     2.1010     0.3930 C.ar  1 <1>   0.1770 
  3 C        1.8030     2.5850    -0.7040 C.ar  1 <1>  -0.1500 
  4 C        1.6410     2.2180     1.6660 C.ar  1 <1>  -0.1500 
  5 C        3.0330     3.1940    -0.5170 C.ar  1 <1>  -0.1500 
  6 C        2.8720     2.8290     1.8390 C.ar  1 <1>  -0.1500 
  7 C        3.5890     3.3250     0.7530 C.ar  1 <1>  -0.0090 
  8 S        5.2090     4.1150     0.9740 S.o2  1 <1>   1.4470 
  9 O        5.6720     3.9320     2.3340 O.2   1 <1>  -0.6500 
 10 O        5.1690     5.4440     0.4070 O.2   1 <1>  -0.6500 
 11 N        6.2190     3.1850    -0.0190 N.am  1 <1>  -0.8490 
 12 C        6.4720     1.8420     0.5340 C.3   1 <1>   0.1960 
 13 C        7.5020     3.8650    -0.2570 C.3   1 <1>   0.1960 
 14 C        7.3700     1.0100    -0.4000 C.3   1 <1>   0.1100 
 15 C        8.4180     3.0400    -1.1820 C.3   1 <1>   0.1100 
 16 N        8.6610     1.6820    -0.6410 N.3   1 <1>  -0.8100 
 17 C        9.5210     0.8810    -1.5650 C.3   1 <1>   0.1710 
 18 C       10.9770     1.3530    -1.6450 C.2   1 <1>   0.5690 
 19 O       11.6160     1.1500    -2.6500 O.2   1 <1>  -0.5700 
 20 N       11.4930     1.9970    -0.5700 N.am  1 <1>  -0.7300 
 21 C       12.8330     2.5870    -0.4540 C.3   1 <1>   0.2200 
 22 C       13.4250     2.1910     0.8920 C.3   1 <1>  -0.1600 
 23 C       12.6890     4.0990    -0.3420 C.3   1 <1>  -0.1600 
 24 C       12.8180     3.1580     1.9180 C.3   1 <1>  -0.1600 
 25 C       12.3220     4.3720     1.1210 C.3   1 <1>  -0.1600 
 26 H        1.3770     2.4870    -1.6870 H     1 <1>   0.1500 
 27 H        1.0890     1.8360     2.5070 H     1 <1>   0.1500 
 28 H        3.5750     3.5750    -1.3680 H     1 <1>   0.1500 
 29 H        3.2810     2.9240     2.8320 H     1 <1>   0.1500 
 30 H        5.5380     1.3250     0.6680 H     1 <1>   0.0800 
 31 H        6.9520     1.9190     1.4950 H     1 <1>   0.0800 
 32 H        8.0070     4.0380     0.6790 H     1 <1>   0.0800 
 33 H        7.3240     4.8210    -0.7190 H     1 <1>   0.0800 
 34 H        6.8560     0.8520    -1.3330 H     1 <1>   0.0800 
 35 H        7.5480     0.0500     0.0540 H     1 <1>   0.0800 
 36 H        9.3530     3.5610    -1.2930 H     1 <1>   0.0800 
 37 H        7.9580     2.9720    -2.1530 H     1 <1>   0.0800 
 38 H        9.1020     0.8930    -2.5560 H     1 <1>   0.0800 
 39 H        9.5430    -0.1400    -1.2300 H     1 <1>   0.0800 
 40 H       10.8550     2.1750     0.2090 H     1 <1>   0.3700 
 41 H       13.4520     2.2900    -1.2850 H     1 <1>   0.0800 
 42 H       14.4890     2.3480     0.8530 H     1 <1>   0.0800 
 43 H       13.2400     1.1590     1.1310 H     1 <1>   0.0800 
 44 H       11.9660     4.4920    -1.0350 H     1 <1>   0.0800 
 45 H       13.6450     4.5470    -0.5520 H     1 <1>   0.0800 
 46 H       13.5500     3.4430     2.6540 H     1 <1>   0.0800 
 47 H       11.9880     2.6880     2.4180 H     1 <1>   0.0800 
 48 H       11.2530     4.4550     1.2190 H     1 <1>   0.0800 
 49 H       12.7740     5.2850     1.4690 H     1 <1>   0.0800 
@<TRIPOS>BOND
  1   1   2  1   
  2   2   3  ar  
  3   2   4  ar  
  4   3   5  ar  
  5   3  26  1   
  6   4   6  ar  
  7   4  27  1   
  8   5   7  ar  
  9   5  28  1   
 10   6   7  ar  
 11   6  29  1   
 12   7   8  1   
 13   8   9  2   
 14   8  10  2   
 15   8  11  am  
 16  11  12  1   
 17  11  13  1   
 18  12  14  1   
 19  12  30  1   
 20  12  31  1   
 21  13  15  1   
 22  13  32  1   
 23  13  33  1   
 24  14  16  1   
 25  14  34  1   
 26  14  35  1   
 27  15  16  1   
 28  15  36  1   
 29  15  37  1   
 30  16  17  1   
 31  17  18  1   
 32  17  38  1   
 33  17  39  1   
 34  18  19  2   
 35  18  20  am  
 36  20  21  1   
 37  20  40  1   
 38  21  22  1   
 39  21  23  1   
 40  21  41  1   
 41  22  24  1   
 42  22  42  1   
 43  22  43  1   
 44  23  25  1   
 45  23  44  1   
 46  23  45  1   
 47  24  25  1   
 48  24  46  1   
 49  24  47  1   
 50  25  48  1   
 51  25  49  1   
@<TRIPOS>SUBSTRUCTURE
  1 ****  11 GROUP 4 **** **** 0

# MOE 2024.06 (io_trps.svl 2023.06)
