@<TRIPOS>MOLECULE
NONAME
46 47 1 0 0 
SMALL
USER_CHARGES


@<TRIPOS>ATOM
  1 O       -6.0040     2.3630    -0.3230 O.3   1 <1>  -0.3630 
  2 C       -7.2730     2.0400     0.0380 C.ar  1 <1>   0.0830 
  3 C       -5.2260     3.2420     0.4620 C.3   1 <1>   0.1200 
  4 C       -7.8820     2.4780     1.2120 C.ar  1 <1>  -0.1500 
  5 C       -7.9800     1.2250    -0.8330 C.ar  1 <1>  -0.1500 
  6 C       -3.8650     3.4260    -0.2200 C.3   1 <1>   0.2000 
  7 C       -9.1810     2.0990     1.4960 C.ar  1 <1>  -0.1500 
  8 C       -9.2800     0.8460    -0.5470 C.ar  1 <1>  -0.1500 
  9 O       -3.3140     2.1700    -0.4820 O.3   1 <1>  -0.6800 
 10 C       -2.8740     4.2370     0.6420 C.3   1 <1>   0.3430 
 11 C       -9.8880     1.2850     0.6260 C.ar  1 <1>   0.0830 
 12 N       -1.4650     3.9400     0.2390 N.4   1 <1>  -0.9590 
 13 O      -11.1580     0.9640     0.9870 O.3   1 <1>  -0.3620 
 14 C       -0.4950     4.1240     1.3530 C.3   1 <1>   0.3430 
 15 C       -1.0580     4.6470    -1.0080 C.3   1 <1>   0.3430 
 16 C      -11.9590     0.1380     0.1720 C.3   1 <1>   0.0400 
 17 C        0.8810     3.6120     0.9280 C.3   1 <1>  -0.1600 
 18 C        0.3100     4.1400    -1.4630 C.3   1 <1>  -0.1600 
 19 C        1.3680     4.2900    -0.3610 C.3   1 <1>  -0.0800 
 20 C        2.7060     3.6940    -0.8120 C.3   1 <1>  -0.2400 
 21 H       -5.1080     2.8080     1.4400 H     1 <1>   0.0800 
 22 H       -5.7470     4.1810     0.5360 H     1 <1>   0.0800 
 23 H       -7.3730     3.1080     1.9150 H     1 <1>   0.1500 
 24 H       -7.5080     0.8880    -1.7380 H     1 <1>   0.1500 
 25 H       -4.0140     3.9220    -1.1640 H     1 <1>   0.0800 
 26 H       -9.6610     2.4320     2.4000 H     1 <1>   0.1500 
 27 H       -9.7980     0.2150    -1.2430 H     1 <1>   0.1500 
 28 H       -4.0310     1.5810    -0.8180 H     1 <1>   0.4000 
 29 H       -3.0150     3.9460     1.6700 H     1 <1>   0.0800 
 30 H       -3.0820     5.2910     0.5650 H     1 <1>   0.0800 
 31 H       -1.4960     2.9290    -0.0010 H     1 <1>   0.4500 
 32 H       -0.8240     3.5810     2.2240 H     1 <1>   0.0800 
 33 H       -0.4260     5.1700     1.6070 H     1 <1>   0.0800 
 34 H       -1.0060     5.7090    -0.8250 H     1 <1>   0.0800 
 35 H       -1.7810     4.4670    -1.7870 H     1 <1>   0.0800 
 36 H      -12.9130     0.0200     0.6530 H     1 <1>   0.0800 
 37 H      -11.4810    -0.8190     0.0680 H     1 <1>   0.0800 
 38 H      -12.0890     0.6120    -0.7840 H     1 <1>   0.0800 
 39 H        0.8330     2.5450     0.7920 H     1 <1>   0.0800 
 40 H        1.5830     3.8030     1.7210 H     1 <1>   0.0800 
 41 H        0.6160     4.6990    -2.3310 H     1 <1>   0.0800 
 42 H        0.2220     3.1090    -1.7590 H     1 <1>   0.0800 
 43 H        1.5180     5.3400    -0.1640 H     1 <1>   0.0800 
 44 H        2.6090     2.6430    -1.0220 H     1 <1>   0.0800 
 45 H        3.4510     3.8210    -0.0460 H     1 <1>   0.0800 
 46 H        3.0560     4.1880    -1.7020 H     1 <1>   0.0800 
@<TRIPOS>BOND
  1   1   2  1   
  2   1   3  1   
  3   2   4  ar  
  4   2   5  ar  
  5   3   6  1   
  6   3  21  1   
  7   3  22  1   
  8   4   7  ar  
  9   4  23  1   
 10   5   8  ar  
 11   5  24  1   
 12   6   9  1   
 13   6  10  1   
 14   6  25  1   
 15   7  11  ar  
 16   7  26  1   
 17   8  11  ar  
 18   8  27  1   
 19   9  28  1   
 20  10  12  1   
 21  10  29  1   
 22  10  30  1   
 23  11  13  1   
 24  12  14  1   
 25  12  15  1   
 26  12  31  1   
 27  13  16  1   
 28  14  17  1   
 29  14  32  1   
 30  14  33  1   
 31  15  18  1   
 32  15  34  1   
 33  15  35  1   
 34  16  36  1   
 35  16  37  1   
 36  16  38  1   
 37  17  19  1   
 38  17  39  1   
 39  17  40  1   
 40  18  19  1   
 41  18  41  1   
 42  18  42  1   
 43  19  20  1   
 44  19  43  1   
 45  20  44  1   
 46  20  45  1   
 47  20  46  1   
@<TRIPOS>SUBSTRUCTURE
  1 ****   3 GROUP 4 **** **** 0

# MOE 2024.06 (io_trps.svl 2023.06)
