@<TRIPOS>MOLECULE
NONAME
38 38 1 0 0 
SMALL
USER_CHARGES


@<TRIPOS>ATOM
  1 O       -0.2400     1.6440     1.8200 O.2   1 <1>  -0.5700 
  2 C       -0.1920     1.7800     0.6220 C.2   1 <1>   0.5690 
  3 N       -1.2240     1.4670    -0.2200 N.am  1 <1>  -0.5470 
  4 C        1.0910     2.3450     0.0060 C.3   1 <1>  -0.0190 
  5 C       -2.5030     0.9420     0.0310 C.ar  1 <1>   0.1170 
  6 C        0.8470     3.6800    -0.7200 C.3   1 <1>  -0.2400 
  7 C        1.7690     1.3420    -0.9440 C.3   1 <1>  -0.2400 
  8 C       -3.4930     1.1100    -0.9310 C.ar  1 <1>  -0.1500 
  9 C       -2.8290     0.2510     1.1940 C.ar  1 <1>  -0.1500 
 10 C       -4.7660     0.6050    -0.7380 C.ar  1 <1>  -0.1500 
 11 C       -4.1020    -0.2520     1.3890 C.ar  1 <1>  -0.1500 
 12 C       -5.0830    -0.0860     0.4220 C.ar  1 <1>   0.1170 
 13 N       -6.3750    -0.5910     0.6060 N.am  1 <1>  -0.5470 
 14 C       -6.8060    -1.8760     0.6950 C.2   1 <1>   0.5690 
 15 O       -7.9790    -2.0980     0.8570 O.2   1 <1>  -0.5700 
 16 C       -5.8420    -3.0470     0.5750 C.3   1 <1>  -0.0990 
 17 C       -5.4030    -3.2980    -0.8760 C.3   1 <1>  -0.1600 
 18 C       -4.4490    -4.4930    -0.9710 C.3   1 <1>  -0.2400 
 19 H       -1.0410     1.6910    -1.1950 H     1 <1>   0.3700 
 20 H        1.7720     2.5350     0.8190 H     1 <1>   0.0800 
 21 H        0.2060     3.5490    -1.5730 H     1 <1>   0.0800 
 22 H        1.7810     4.0980    -1.0530 H     1 <1>   0.0800 
 23 H        0.3850     4.3820    -0.0470 H     1 <1>   0.0800 
 24 H        1.1510     1.1390    -1.8000 H     1 <1>   0.0800 
 25 H        1.9510     0.4160    -0.4260 H     1 <1>   0.0800 
 26 H        2.7130     1.7300    -1.2840 H     1 <1>   0.0800 
 27 H       -3.2690     1.6420    -1.8370 H     1 <1>   0.1500 
 28 H       -2.0870     0.1000     1.9570 H     1 <1>   0.1500 
 29 H       -5.5200     0.7420    -1.4930 H     1 <1>   0.1500 
 30 H       -4.3360    -0.7730     2.3000 H     1 <1>   0.1500 
 31 H       -7.1360     0.0870     0.6280 H     1 <1>   0.3700 
 32 H       -6.3350    -3.9250     0.9530 H     1 <1>   0.0800 
 33 H       -4.9840    -2.8670     1.1940 H     1 <1>   0.0800 
 34 H       -4.9110    -2.4220    -1.2630 H     1 <1>   0.0800 
 35 H       -6.2730    -3.4860    -1.4830 H     1 <1>   0.0800 
 36 H       -3.5630    -4.3140    -0.3860 H     1 <1>   0.0800 
 37 H       -4.1570    -4.6490    -1.9940 H     1 <1>   0.0800 
 38 H       -4.9280    -5.3870    -0.6120 H     1 <1>   0.0800 
@<TRIPOS>BOND
  1   1   2  2   
  2   2   3  am  
  3   2   4  1   
  4   3   5  1   
  5   3  19  1   
  6   4   6  1   
  7   4   7  1   
  8   4  20  1   
  9   5   8  ar  
 10   5   9  ar  
 11   6  21  1   
 12   6  22  1   
 13   6  23  1   
 14   7  24  1   
 15   7  25  1   
 16   7  26  1   
 17   8  10  ar  
 18   8  27  1   
 19   9  11  ar  
 20   9  28  1   
 21  10  12  ar  
 22  10  29  1   
 23  11  12  ar  
 24  11  30  1   
 25  12  13  1   
 26  13  14  am  
 27  13  31  1   
 28  14  15  2   
 29  14  16  1   
 30  16  17  1   
 31  16  32  1   
 32  16  33  1   
 33  17  18  1   
 34  17  34  1   
 35  17  35  1   
 36  18  36  1   
 37  18  37  1   
 38  18  38  1   
@<TRIPOS>SUBSTRUCTURE
  1 ****   9 GROUP 4 **** **** 0

# MOE 2024.06 (io_trps.svl 2023.06)
