@<TRIPOS>MOLECULE
NONAME
45 47 1 0 0 
SMALL
USER_CHARGES


@<TRIPOS>ATOM
  1 S        0.1020     0.0040    -1.3200 S.o2  1 <1>   1.4470 
  2 O        0.3450    -1.2450    -0.6320 O.2   1 <1>  -0.6500 
  3 O        0.2060     0.0720    -2.7610 O.2   1 <1>  -0.6500 
  4 N       -1.4670     0.4980    -0.9100 N.am  1 <1>  -0.8490 
  5 C        1.1830     1.2750    -0.5960 C.ar  1 <1>  -0.0090 
  6 C       -1.7380     0.5090     0.5420 C.3   1 <1>   0.1960 
  7 C       -1.8860     1.7600    -1.5540 C.3   1 <1>   0.1960 
  8 C        1.6370     1.1640     0.7140 C.ar  1 <1>  -0.1500 
  9 C        1.5680     2.3970    -1.3190 C.ar  1 <1>  -0.1500 
 10 C       -3.2130     0.8250     0.8570 C.3   1 <1>   0.2090 
 11 C       -3.3640     2.0900    -1.2740 C.3   1 <1>   0.2090 
 12 C        2.4390     2.1270     1.3130 C.ar  1 <1>  -0.0090 
 13 C        2.3670     3.3710    -0.7510 C.ar  1 <1>  -0.1500 
 14 N       -3.6300     2.0970     0.1940 N.pl3 1 <1>  -0.8380 
 15 S        3.0180     1.9220     3.0160 S.o2  1 <1>   1.2040 
 16 C        2.7960     3.2350     0.5560 C.ar  1 <1>  -0.1500 
 17 C       -4.7130     2.8520     0.6740 C.ar  1 <1>   0.1000 
 18 O        3.4250     3.2040     3.5430 O.2   1 <1>  -0.6500 
 19 O        2.0610     1.1120     3.7360 O.2   1 <1>  -0.6500 
 20 C        4.4910     0.9410     2.8010 C.3   1 <1>  -0.1350 
 21 C       -4.7440     4.2510     0.6160 C.ar  1 <1>   0.1900 
 22 C       -5.8260     2.2290     1.2350 C.ar  1 <1>  -0.1500 
 23 F       -3.7270     4.9020     0.0980 F     1 <1>  -0.1900 
 24 C       -5.8030     5.0020     1.0860 C.ar  1 <1>  -0.1500 
 25 C       -6.8980     2.9660     1.7130 C.ar  1 <1>  -0.1500 
 26 C       -6.8920     4.3500     1.6410 C.ar  1 <1>  -0.1500 
 27 H       -1.1260     1.2490     1.0270 H     1 <1>   0.0800 
 28 H       -1.4980    -0.4540     0.9610 H     1 <1>   0.0800 
 29 H       -1.7510     1.6830    -2.6190 H     1 <1>   0.0800 
 30 H       -1.2830     2.5760    -1.1950 H     1 <1>   0.0800 
 31 H        1.3520     0.2970     1.2890 H     1 <1>   0.1500 
 32 H        1.2400     2.5080    -2.3400 H     1 <1>   0.1500 
 33 H       -3.3410     0.9160     1.9220 H     1 <1>   0.0800 
 34 H       -3.8300     0.0160     0.5060 H     1 <1>   0.0800 
 35 H       -3.9890     1.3520    -1.7470 H     1 <1>   0.0800 
 36 H       -3.6030     3.0500    -1.6960 H     1 <1>   0.0800 
 37 H        2.6540     4.2370    -1.3250 H     1 <1>   0.1500 
 38 H        3.4140     4.0030     0.9950 H     1 <1>   0.1500 
 39 H        5.2030     1.4640     2.1930 H     1 <1>   0.0800 
 40 H        4.2540     0.0060     2.3320 H     1 <1>   0.0800 
 41 H        4.9390     0.7410     3.7540 H     1 <1>   0.0800 
 42 H       -5.8590     1.1580     1.2930 H     1 <1>   0.1500 
 43 H       -5.7750     6.0740     1.0200 H     1 <1>   0.1500 
 44 H       -7.7460     2.4590     2.1420 H     1 <1>   0.1500 
 45 H       -7.7280     4.9150     2.0150 H     1 <1>   0.1500 
@<TRIPOS>BOND
  1   1   2  2   
  2   1   3  2   
  3   1   4  am  
  4   1   5  1   
  5   4   6  1   
  6   4   7  1   
  7   5   8  ar  
  8   5   9  ar  
  9   6  10  1   
 10   6  27  1   
 11   6  28  1   
 12   7  11  1   
 13   7  29  1   
 14   7  30  1   
 15   8  12  ar  
 16   8  31  1   
 17   9  13  ar  
 18   9  32  1   
 19  10  14  1   
 20  10  33  1   
 21  10  34  1   
 22  11  14  1   
 23  11  35  1   
 24  11  36  1   
 25  12  15  1   
 26  12  16  ar  
 27  13  16  ar  
 28  13  37  1   
 29  14  17  1   
 30  15  18  2   
 31  15  19  2   
 32  15  20  1   
 33  16  38  1   
 34  17  21  ar  
 35  17  22  ar  
 36  20  39  1   
 37  20  40  1   
 38  20  41  1   
 39  21  23  1   
 40  21  24  ar  
 41  22  25  ar  
 42  22  42  1   
 43  24  26  ar  
 44  24  43  1   
 45  25  26  ar  
 46  25  44  1   
 47  26  45  1   
@<TRIPOS>SUBSTRUCTURE
  1 ****   6 GROUP 4 **** **** 0

# MOE 2024.06 (io_trps.svl 2023.06)
