@<TRIPOS>MOLECULE
NONAME
34 34 1 0 0 
SMALL
USER_CHARGES


@<TRIPOS>ATOM
  1 S        0.4080    -0.2720     0.9780 S.o2  1 <1>   1.4470 
  2 O        0.4740     1.1690     0.9420 O.2   1 <1>  -0.6500 
  3 O        1.0890    -1.0080     2.0200 O.2   1 <1>  -0.6500 
  4 N        1.0850    -0.7350    -0.4840 N.am  1 <1>  -0.9140 
  5 C       -1.3100    -0.8380     0.8320 C.ar  1 <1>  -0.0090 
  6 C        2.5300    -0.7900    -0.4390 C.3   1 <1>   0.1960 
  7 C       -2.2500    -0.1070     0.1230 C.ar  1 <1>  -0.1500 
  8 C       -1.7240    -2.0330     1.4010 C.ar  1 <1>  -0.1500 
  9 C        3.0360    -1.0630    -1.8480 C.3   1 <1>  -0.2400 
 10 C       -3.5790    -0.5090    -0.0460 C.ar  1 <1>   0.0860 
 11 C       -3.0260    -2.4710     1.2690 C.ar  1 <1>  -0.1500 
 12 C       -3.9600    -1.7250     0.5520 C.ar  1 <1>   0.0830 
 13 C       -4.4700     0.3430    -0.8240 C.2   1 <1>   0.5440 
 14 O       -5.2390    -2.1610     0.4140 O.3   1 <1>  -0.3630 
 15 O       -4.0100     1.1720    -1.5880 O.2   1 <1>  -0.5700 
 16 N       -5.8300     0.2620    -0.7190 N.am  1 <1>  -0.7300 
 17 C       -5.6870    -3.4150     0.8840 C.3   1 <1>   0.0400 
 18 C       -6.8260     1.0780    -1.4560 C.3   1 <1>   0.0600 
 19 H        0.8410     0.0280    -1.1120 H     1 <1>   0.4200 
 20 H        2.8450    -1.5810     0.2230 H     1 <1>   0.0800 
 21 H        2.9280     0.1450    -0.0750 H     1 <1>   0.0800 
 22 H       -1.9380     0.8250    -0.3220 H     1 <1>   0.1500 
 23 H       -1.0140    -2.6270     1.9550 H     1 <1>   0.1500 
 24 H        2.6390    -1.9950    -2.2100 H     1 <1>   0.0800 
 25 H        4.1090    -1.1300    -1.8390 H     1 <1>   0.0800 
 26 H        2.7510    -0.2680    -2.5140 H     1 <1>   0.0800 
 27 H       -3.2910    -3.4010     1.7350 H     1 <1>   0.1500 
 28 H       -6.1930    -0.5250    -0.1690 H     1 <1>   0.3700 
 29 H       -6.7190    -3.5290     0.6040 H     1 <1>   0.0800 
 30 H       -5.5960    -3.4420     1.9550 H     1 <1>   0.0800 
 31 H       -5.0990    -4.1910     0.4260 H     1 <1>   0.0800 
 32 H       -6.3370     1.8780    -1.9870 H     1 <1>   0.0800 
 33 H       -7.5310     1.5030    -0.7640 H     1 <1>   0.0800 
 34 H       -7.3480     0.4600    -2.1640 H     1 <1>   0.0800 
@<TRIPOS>BOND
  1   1   2  2   
  2   1   3  2   
  3   1   4  am  
  4   1   5  1   
  5   4   6  1   
  6   4  19  1   
  7   5   7  ar  
  8   5   8  ar  
  9   6   9  1   
 10   6  20  1   
 11   6  21  1   
 12   7  10  ar  
 13   7  22  1   
 14   8  11  ar  
 15   8  23  1   
 16   9  24  1   
 17   9  25  1   
 18   9  26  1   
 19  10  12  ar  
 20  10  13  1   
 21  11  12  ar  
 22  11  27  1   
 23  12  14  1   
 24  13  15  2   
 25  13  16  am  
 26  14  17  1   
 27  16  18  1   
 28  16  28  1   
 29  17  29  1   
 30  17  30  1   
 31  17  31  1   
 32  18  32  1   
 33  18  33  1   
 34  18  34  1   
@<TRIPOS>SUBSTRUCTURE
  1 ****   7 GROUP 4 **** **** 0

# MOE 2024.06 (io_trps.svl 2023.06)
