@<TRIPOS>MOLECULE
NONAME
26 26 1 0 0 
SMALL
USER_CHARGES


@<TRIPOS>ATOM
  1 O       -0.6140     0.4720     0.4570 O.2   1 <1>  -0.5700 
  2 C       -0.3860     1.6370     0.3560 C.2   1 <1>   0.4480 
  3 C        0.9970     2.2370     0.2980 C.3   1 <1>  -0.0990 
  4 C       -1.4400     2.7120     0.2680 C.3   1 <1>  -0.0990 
  5 C        0.7490     3.6970    -0.1090 C.3   1 <1>  -0.0190 
  6 C       -0.6490     4.0190     0.4350 C.3   1 <1>  -0.0190 
  7 C        1.7930     4.6880     0.3820 C.2   1 <1>   0.6590 
  8 C       -1.2600     5.2320    -0.2480 C.2   1 <1>   0.6590 
  9 O        2.2580     4.6220     1.4900 O.2   1 <1>  -0.5700 
 10 O        2.1320     5.6410    -0.4750 O.3   1 <1>  -0.4300 
 11 O       -1.7520     5.1620    -1.3440 O.2   1 <1>  -0.5700 
 12 O       -1.1890     6.3710     0.4270 O.3   1 <1>  -0.4300 
 13 C        3.0580     6.6510    -0.1320 C.3   1 <1>   0.0400 
 14 C       -1.6790     7.5830    -0.1080 C.3   1 <1>   0.0400 
 15 H        1.4400     2.1670     1.2750 H     1 <1>   0.0800 
 16 H        1.6140     1.7200    -0.4150 H     1 <1>   0.0800 
 17 H       -1.9080     2.6520    -0.6990 H     1 <1>   0.0800 
 18 H       -2.1820     2.5910     1.0360 H     1 <1>   0.0800 
 19 H        0.7180     3.7410    -1.1850 H     1 <1>   0.0800 
 20 H       -0.5690     4.2260     1.4890 H     1 <1>   0.0800 
 21 H        3.1790     7.3060    -0.9770 H     1 <1>   0.0800 
 22 H        3.9990     6.1910     0.1180 H     1 <1>   0.0800 
 23 H        2.6770     7.2000     0.7120 H     1 <1>   0.0800 
 24 H       -1.5180     8.3650     0.6120 H     1 <1>   0.0800 
 25 H       -2.7310     7.4750    -0.3090 H     1 <1>   0.0800 
 26 H       -1.1480     7.8010    -1.0190 H     1 <1>   0.0800 
@<TRIPOS>BOND
  1   1   2  2   
  2   2   3  1   
  3   2   4  1   
  4   3   5  1   
  5   3  15  1   
  6   3  16  1   
  7   4   6  1   
  8   4  17  1   
  9   4  18  1   
 10   5   6  1   
 11   5   7  1   
 12   5  19  1   
 13   6   8  1   
 14   6  20  1   
 15   7   9  2   
 16   7  10  1   
 17   8  11  2   
 18   8  12  1   
 19  10  13  1   
 20  12  14  1   
 21  13  21  1   
 22  13  22  1   
 23  13  23  1   
 24  14  24  1   
 25  14  25  1   
 26  14  26  1   
@<TRIPOS>SUBSTRUCTURE
  1 ****   6 GROUP 4 **** **** 0

# MOE 2024.06 (io_trps.svl 2023.06)
