@<TRIPOS>MOLECULE
NONAME
45 48 1 0 0 
SMALL
USER_CHARGES


@<TRIPOS>ATOM
  1 S       -2.3410    -2.4090    -1.0300 S.3   1 <1>  -0.0800 
  2 C       -1.5880    -1.6380     0.3620 C.2   1 <1>  -0.1400 
  3 C       -2.8810    -0.8600    -1.6520 C.2   1 <1>  -0.1100 
  4 C       -1.7630    -0.3040     0.3110 C.2   1 <1>  -0.1500 
  5 C       -0.8930    -2.5350     1.3680 C.3   1 <1>   0.3200 
  6 C       -2.4990     0.1390    -0.8350 C.2   1 <1>  -0.1500 
  7 N       -1.9050    -3.4310     1.9420 N.am  1 <1>  -0.7300 
  8 C       -1.8400    -4.7830     1.9260 C.2   1 <1>   0.5690 
  9 O       -0.7990    -5.3680     1.7450 O.2   1 <1>  -0.5700 
 10 C       -3.1290    -5.5860     2.1000 C.3   1 <1>   0.2010 
 11 N       -4.1300    -5.3280     1.0020 N.am  1 <1>  -0.4770 
 12 C       -4.9160    -4.1950     1.1000 C.2   1 <1>   0.5690 
 13 C       -4.1920    -6.2660    -0.0520 C.ar  1 <1>   0.1170 
 14 O       -4.7150    -3.3680     1.9660 O.2   1 <1>  -0.5700 
 15 C       -6.0590    -3.9800     0.0890 C.3   1 <1>   0.2810 
 16 C       -5.4020    -6.8180    -0.5190 C.ar  1 <1>   0.0860 
 17 C       -2.9980    -6.6740    -0.6490 C.ar  1 <1>  -0.1500 
 18 N       -7.0390    -5.0960     0.1230 N.am  1 <1>  -0.6600 
 19 C       -6.9220    -2.7270     0.3140 C.3   1 <1>  -0.1600 
 20 C       -6.7090    -6.4160    -0.0420 C.2   1 <1>   0.5440 
 21 C       -5.3430    -7.7960    -1.5150 C.ar  1 <1>  -0.1500 
 22 C       -2.9700    -7.6290    -1.6430 C.ar  1 <1>  -0.1500 
 23 C       -8.4250    -4.6060     0.2560 C.3   1 <1>   0.1400 
 24 C       -8.3320    -3.1310    -0.1140 C.3   1 <1>  -0.1600 
 25 O       -7.5700    -7.2520     0.1610 O.2   1 <1>  -0.5700 
 26 C       -4.1500    -8.2020    -2.0740 C.ar  1 <1>  -0.1500 
 27 H       -3.4320    -0.8610    -2.5750 H     1 <1>   0.1500 
 28 H       -1.4060     0.4040     1.0390 H     1 <1>   0.1500 
 29 H       -0.4530    -1.9440     2.1520 H     1 <1>   0.0800 
 30 H       -0.1180    -3.1030     0.8830 H     1 <1>   0.0800 
 31 H       -2.7020     1.1850    -0.9890 H     1 <1>   0.1500 
 32 H       -2.8380    -3.0030     2.0360 H     1 <1>   0.3700 
 33 H       -3.5660    -5.3350     3.0500 H     1 <1>   0.0800 
 34 H       -2.8850    -6.6320     2.1240 H     1 <1>   0.0800 
 35 H       -5.6360    -3.9340    -0.8990 H     1 <1>   0.0800 
 36 H       -2.0630    -6.2410    -0.3410 H     1 <1>   0.1500 
 37 H       -6.9410    -2.4720     1.3590 H     1 <1>   0.0800 
 38 H       -6.5470    -1.8840    -0.2380 H     1 <1>   0.0800 
 39 H       -6.2630    -8.2410    -1.8570 H     1 <1>   0.1500 
 40 H       -2.0320    -7.9290    -2.0810 H     1 <1>   0.1500 
 41 H       -9.0920    -5.1450    -0.3960 H     1 <1>   0.0800 
 42 H       -8.7420    -4.7260     1.2780 H     1 <1>   0.0800 
 43 H       -8.4390    -3.0290    -1.1800 H     1 <1>   0.0800 
 44 H       -9.0930    -2.5490     0.3750 H     1 <1>   0.0800 
 45 H       -4.1370    -8.9570    -2.8430 H     1 <1>   0.1500 
@<TRIPOS>BOND
  1   1   2  1   
  2   1   3  1   
  3   2   4  2   
  4   2   5  1   
  5   3   6  2   
  6   3  27  1   
  7   4   6  1   
  8   4  28  1   
  9   5   7  1   
 10   5  29  1   
 11   5  30  1   
 12   6  31  1   
 13   7   8  am  
 14   7  32  1   
 15   8   9  2   
 16   8  10  1   
 17  10  11  1   
 18  10  33  1   
 19  10  34  1   
 20  11  12  am  
 21  11  13  1   
 22  12  14  2   
 23  12  15  1   
 24  13  16  ar  
 25  13  17  ar  
 26  15  18  1   
 27  15  19  1   
 28  15  35  1   
 29  16  20  1   
 30  16  21  ar  
 31  17  22  ar  
 32  17  36  1   
 33  18  20  am  
 34  18  23  1   
 35  19  24  1   
 36  19  37  1   
 37  19  38  1   
 38  20  25  2   
 39  21  26  ar  
 40  21  39  1   
 41  22  26  ar  
 42  22  40  1   
 43  23  24  1   
 44  23  41  1   
 45  23  42  1   
 46  24  43  1   
 47  24  44  1   
 48  26  45  1   
@<TRIPOS>SUBSTRUCTURE
  1 ****  11 GROUP 4 **** **** 0

# MOE 2024.06 (io_trps.svl 2023.06)
