@<TRIPOS>MOLECULE
NONAME
43 43 1 0 0 
SMALL
USER_CHARGES


@<TRIPOS>ATOM
  1 CL       0.5090     0.0530    -0.8540 Cl    1 <1>  -0.1770 
  2 C        0.3030    -1.6500    -0.4970 C.ar  1 <1>   0.1770 
  3 C        1.4080    -2.4490    -0.2240 C.ar  1 <1>   0.0830 
  4 C       -0.9780    -2.1680    -0.4960 C.ar  1 <1>  -0.1500 
  5 O        2.6390    -1.8690    -0.2440 O.3   1 <1>  -0.3630 
  6 C        1.2000    -3.7980     0.0550 C.ar  1 <1>  -0.1500 
  7 C       -1.1690    -3.5100    -0.2170 C.ar  1 <1>  -0.1500 
  8 C        3.8100    -2.6010     0.0150 C.3   1 <1>   0.1200 
  9 C       -0.0820    -4.3270     0.0600 C.ar  1 <1>  -0.1440 
 10 C        4.9840    -1.6270    -0.1000 C.3   1 <1>  -0.1600 
 11 C       -0.2970    -5.7990     0.3640 C.3   1 <1>  -0.0970 
 12 C        6.3330    -2.3120     0.1640 C.3   1 <1>  -0.1600 
 13 C        7.4730    -1.3030     0.0400 C.3   1 <1>   0.3430 
 14 N        8.7610    -1.9890     0.3030 N.4   1 <1>  -0.9060 
 15 C        9.9400    -1.1140     0.1740 C.3   1 <1>   0.4230 
 16 C       11.1760    -2.0160     0.0620 C.3   1 <1>  -0.1600 
 17 C       10.0010    -0.1920     1.3920 C.3   1 <1>  -0.2400 
 18 C       12.4660    -1.2440    -0.2560 C.3   1 <1>  -0.2400 
 19 H       -1.8120    -1.5260    -0.7120 H     1 <1>   0.1500 
 20 H        2.0240    -4.4510     0.2700 H     1 <1>   0.1500 
 21 H       -2.1660    -3.9150    -0.2180 H     1 <1>   0.1500 
 22 H        3.8860    -3.3890    -0.7150 H     1 <1>   0.0800 
 23 H        3.7410    -3.0110     1.0080 H     1 <1>   0.0800 
 24 H        4.8350    -0.8310     0.6110 H     1 <1>   0.0800 
 25 H        4.9780    -1.2040    -1.0910 H     1 <1>   0.0800 
 26 H        0.4210    -6.1440     1.0860 H     1 <1>   0.0800 
 27 H       -0.1900    -6.3760    -0.5360 H     1 <1>   0.0800 
 28 H       -1.2820    -5.9630     0.7650 H     1 <1>   0.0800 
 29 H        6.4660    -3.1050    -0.5510 H     1 <1>   0.0800 
 30 H        6.3220    -2.7310     1.1560 H     1 <1>   0.0800 
 31 H        7.3230    -0.5050     0.7490 H     1 <1>   0.0800 
 32 H        7.4740    -0.8800    -0.9530 H     1 <1>   0.0800 
 33 H        8.8660    -2.7700    -0.3540 H     1 <1>   0.4500 
 34 H        8.7590    -2.3900     1.2470 H     1 <1>   0.4500 
 35 H        9.8570    -0.5240    -0.7260 H     1 <1>   0.0800 
 36 H       11.0260    -2.7260    -0.7330 H     1 <1>   0.0800 
 37 H       11.3210    -2.5630     0.9780 H     1 <1>   0.0800 
 38 H       10.1200    -0.7540     2.3010 H     1 <1>   0.0800 
 39 H        9.1230     0.4230     1.4640 H     1 <1>   0.0800 
 40 H       10.8400     0.4750     1.3040 H     1 <1>   0.0800 
 41 H       12.3510    -0.6530    -1.1490 H     1 <1>   0.0800 
 42 H       13.2750    -1.9360    -0.4160 H     1 <1>   0.0800 
 43 H       12.7470    -0.5950     0.5550 H     1 <1>   0.0800 
@<TRIPOS>BOND
  1   1   2  1   
  2   2   3  ar  
  3   2   4  ar  
  4   3   5  1   
  5   3   6  ar  
  6   4   7  ar  
  7   4  19  1   
  8   5   8  1   
  9   6   9  ar  
 10   6  20  1   
 11   7   9  ar  
 12   7  21  1   
 13   8  10  1   
 14   8  22  1   
 15   8  23  1   
 16   9  11  1   
 17  10  12  1   
 18  10  24  1   
 19  10  25  1   
 20  11  26  1   
 21  11  27  1   
 22  11  28  1   
 23  12  13  1   
 24  12  29  1   
 25  12  30  1   
 26  13  14  1   
 27  13  31  1   
 28  13  32  1   
 29  14  15  1   
 30  14  33  1   
 31  14  34  1   
 32  15  16  1   
 33  15  17  1   
 34  15  35  1   
 35  16  18  1   
 36  16  36  1   
 37  16  37  1   
 38  17  38  1   
 39  17  39  1   
 40  17  40  1   
 41  18  41  1   
 42  18  42  1   
 43  18  43  1   
@<TRIPOS>SUBSTRUCTURE
  1 ****   8 GROUP 4 **** **** 0

# MOE 2024.06 (io_trps.svl 2023.06)
