@<TRIPOS>MOLECULE
NONAME
42 41 1 0 0 
SMALL
USER_CHARGES


@<TRIPOS>ATOM
  1 N        0.1640    -0.1350    -0.1420 N.4   1 <1>  -0.9590 
  2 C        1.4580     0.6430    -0.2190 C.3   1 <1>   0.3430 
  3 C        0.2440    -1.5070    -0.7330 C.3   1 <1>   0.3430 
  4 C       -0.9310     0.6410    -0.7980 C.3   1 <1>   0.3430 
  5 C        2.6350     0.0490     0.6080 C.3   1 <1>   0.3430 
  6 C        0.4030    -2.5220     0.3900 C.3   1 <1>  -0.2400 
  7 C       -2.2780     0.1670    -0.2640 C.3   1 <1>  -0.2400 
  8 N        3.9020     0.8670     0.6050 N.4   1 <1>  -0.9590 
  9 C        4.5920     0.9380    -0.7090 C.3   1 <1>   0.4810 
 10 C        3.7850     2.2150     1.2530 C.3   1 <1>   0.2630 
 11 C        6.0690     0.9960    -0.3860 C.2   1 <1>  -0.2760 
 12 C        6.7100    -0.0680     0.1210 C.2   1 <1>  -0.2880 
 13 C        6.6970     2.3490    -0.7200 C.3   1 <1>  -0.1020 
 14 C        8.1790    -0.2020     0.5040 C.3   1 <1>  -0.1020 
 15 H       -0.1360    -0.2450     0.8400 H     1 <1>   0.4500 
 16 H        1.7590     0.7110    -1.2520 H     1 <1>   0.0800 
 17 H        1.2730     1.6430     0.1380 H     1 <1>   0.0800 
 18 H       -0.6640    -1.7330    -1.2710 H     1 <1>   0.0800 
 19 H        1.0640    -1.5780    -1.4300 H     1 <1>   0.0800 
 20 H       -0.8260     1.6910    -0.5750 H     1 <1>   0.0800 
 21 H       -0.8920     0.5190    -1.8700 H     1 <1>   0.0800 
 22 H        2.8620    -0.9330     0.2250 H     1 <1>   0.0800 
 23 H        2.3080    -0.0660     1.6290 H     1 <1>   0.0800 
 24 H       -0.4370    -2.4830     1.0610 H     1 <1>   0.0800 
 25 H        1.3130    -2.3830     0.9410 H     1 <1>   0.0800 
 26 H        0.4280    -3.5110    -0.0360 H     1 <1>   0.0800 
 27 H       -2.3390     0.2990     0.8020 H     1 <1>   0.0800 
 28 H       -2.4690    -0.8610    -0.5130 H     1 <1>   0.0800 
 29 H       -3.0590     0.7570    -0.7110 H     1 <1>   0.0800 
 30 H        4.6080     0.3580     1.1690 H     1 <1>   0.4500 
 31 H        4.4020     0.0450    -1.2830 H     1 <1>   0.0800 
 32 H        4.2810     1.8000    -1.2780 H     1 <1>   0.0800 
 33 H        3.1670     2.8730     0.6650 H     1 <1>   0.0800 
 34 H        4.7610     2.6620     1.3530 H     1 <1>   0.0800 
 35 H        3.3590     2.1230     2.2400 H     1 <1>   0.0800 
 36 H        6.2070    -1.0040     0.3070 H     1 <1>   0.1500 
 37 H        7.7490     2.3760    -0.5070 H     1 <1>   0.0800 
 38 H        6.5820     2.5620    -1.7690 H     1 <1>   0.0800 
 39 H        6.2360     3.1410    -0.1590 H     1 <1>   0.0800 
 40 H        8.2630    -0.4800     1.5400 H     1 <1>   0.0800 
 41 H        8.7370     0.7020     0.3580 H     1 <1>   0.0800 
 42 H        8.6380    -0.9740    -0.0890 H     1 <1>   0.0800 
@<TRIPOS>BOND
  1   1   2  1   
  2   1   3  1   
  3   1   4  1   
  4   1  15  1   
  5   2   5  1   
  6   2  16  1   
  7   2  17  1   
  8   3   6  1   
  9   3  18  1   
 10   3  19  1   
 11   4   7  1   
 12   4  20  1   
 13   4  21  1   
 14   5   8  1   
 15   5  22  1   
 16   5  23  1   
 17   6  24  1   
 18   6  25  1   
 19   6  26  1   
 20   7  27  1   
 21   7  28  1   
 22   7  29  1   
 23   8   9  1   
 24   8  10  1   
 25   8  30  1   
 26   9  11  1   
 27   9  31  1   
 28   9  32  1   
 29  10  33  1   
 30  10  34  1   
 31  10  35  1   
 32  11  12  2   
 33  11  13  1   
 34  12  14  1   
 35  12  36  1   
 36  13  37  1   
 37  13  38  1   
 38  13  39  1   
 39  14  40  1   
 40  14  41  1   
 41  14  42  1   
@<TRIPOS>SUBSTRUCTURE
  1 ****   5 GROUP 4 **** **** 0

# MOE 2024.06 (io_trps.svl 2023.06)
