@<TRIPOS>MOLECULE
NONAME
40 41 1 0 0 
SMALL
USER_CHARGES


@<TRIPOS>ATOM
  1 N       -1.0960    -4.6710     0.3730 N.4   1 <1>  -0.9590 
  2 C       -2.5980    -4.6690     0.4080 C.3   1 <1>   0.4230 
  3 C       -0.4600    -6.0080     0.6230 C.3   1 <1>   0.4860 
  4 C       -0.4640    -3.6730     1.2910 C.3   1 <1>   0.3430 
  5 C       -3.1770    -5.7070    -0.5710 C.3   1 <1>  -0.1600 
  6 C       -3.1420    -3.2740     0.0460 C.3   1 <1>  -0.1600 
  7 C        0.9700    -5.9490     0.1300 C.ar  1 <1>  -0.1430 
  8 C        0.2250    -2.6050     0.4510 C.3   1 <1>  -0.2400 
  9 C       -4.7060    -5.6510    -0.6430 C.3   1 <1>   0.3430 
 10 C       -4.6710    -3.2450    -0.0220 C.3   1 <1>   0.3430 
 11 C        1.2380    -5.9440    -1.2330 C.ar  1 <1>  -0.1500 
 12 C        2.0230    -5.8910     1.0330 C.ar  1 <1>  -0.1500 
 13 N       -5.1520    -4.2750    -0.9770 N.4   1 <1>  -0.9060 
 14 C        2.5430    -5.8630    -1.6850 C.ar  1 <1>  -0.1500 
 15 C        3.3270    -5.8100     0.5770 C.ar  1 <1>  -0.1500 
 16 C        3.5870    -5.7930    -0.7810 C.ar  1 <1>  -0.1500 
 17 H       -0.7690    -4.4110    -0.5670 H     1 <1>   0.4500 
 18 H       -2.9240    -4.9170     1.4070 H     1 <1>   0.0800 
 19 H       -0.9650    -6.7870     0.0800 H     1 <1>   0.0800 
 20 H       -0.4840    -6.2500     1.6730 H     1 <1>   0.0800 
 21 H        0.2740    -4.1480     1.9190 H     1 <1>   0.0800 
 22 H       -1.2000    -3.2200     1.9350 H     1 <1>   0.0800 
 23 H       -2.9240    -6.7020    -0.2540 H     1 <1>   0.0800 
 24 H       -2.7760    -5.5560    -1.5590 H     1 <1>   0.0800 
 25 H       -2.7480    -2.9540    -0.9020 H     1 <1>   0.0800 
 26 H       -2.8490    -2.5540     0.7880 H     1 <1>   0.0800 
 27 H        1.0070    -3.0370    -0.1500 H     1 <1>   0.0800 
 28 H        0.6830    -1.8850     1.1060 H     1 <1>   0.0800 
 29 H       -0.4700    -2.0810    -0.1790 H     1 <1>   0.0800 
 30 H       -5.1250    -5.9470     0.3080 H     1 <1>   0.0800 
 31 H       -5.0610    -6.3450    -1.3900 H     1 <1>   0.0800 
 32 H       -5.0020    -2.2670    -0.3360 H     1 <1>   0.0800 
 33 H       -5.0830    -3.4360     0.9580 H     1 <1>   0.0800 
 34 H        0.4490    -6.0090    -1.9620 H     1 <1>   0.1500 
 35 H        1.8510    -5.9100     2.0960 H     1 <1>   0.1500 
 36 H       -6.1860    -4.2530    -0.9990 H     1 <1>   0.4500 
 37 H       -4.8640    -4.0310    -1.9360 H     1 <1>   0.4500 
 38 H        2.7540    -5.8590    -2.7420 H     1 <1>   0.1500 
 39 H        4.1450    -5.7640     1.2770 H     1 <1>   0.1500 
 40 H        4.6030    -5.7310    -1.1340 H     1 <1>   0.1500 
@<TRIPOS>BOND
  1   1   2  1   
  2   1   3  1   
  3   1   4  1   
  4   1  17  1   
  5   2   5  1   
  6   2   6  1   
  7   2  18  1   
  8   3   7  1   
  9   3  19  1   
 10   3  20  1   
 11   4   8  1   
 12   4  21  1   
 13   4  22  1   
 14   5   9  1   
 15   5  23  1   
 16   5  24  1   
 17   6  10  1   
 18   6  25  1   
 19   6  26  1   
 20   7  11  ar  
 21   7  12  ar  
 22   8  27  1   
 23   8  28  1   
 24   8  29  1   
 25   9  13  1   
 26   9  30  1   
 27   9  31  1   
 28  10  13  1   
 29  10  32  1   
 30  10  33  1   
 31  11  14  ar  
 32  11  34  1   
 33  12  15  ar  
 34  12  35  1   
 35  13  36  1   
 36  13  37  1   
 37  14  16  ar  
 38  14  38  1   
 39  15  16  ar  
 40  15  39  1   
 41  16  40  1   
@<TRIPOS>SUBSTRUCTURE
  1 ****   1 GROUP 4 **** **** 0

# MOE 2024.06 (io_trps.svl 2023.06)
