@<TRIPOS>MOLECULE
NONAME
45 48 1 0 0 
SMALL
USER_CHARGES


@<TRIPOS>ATOM
  1 O        0.3410    -0.7170     0.0980 O.2   1 <1>  -0.5750 
  2 C        0.9380    -1.7600    -0.0750 C.2   1 <1>   0.6860 
  3 N        0.2640    -2.8830    -0.5470 N.am  1 <1>  -0.4260 
  4 N        2.3010    -1.8230     0.1940 N.am  1 <1>  -0.4420 
  5 C        0.9320    -4.0760    -0.7850 C.2   1 <1>   0.6990 
  6 C       -1.2080    -2.8070    -0.7970 C.3   1 <1>   0.1320 
  7 C        2.9620    -3.0080    -0.0630 C.2   1 <1>   0.4200 
  8 C        3.0280    -0.6300     0.7230 C.3   1 <1>   0.0510 
  9 O        0.3420    -5.0610    -1.1960 O.2   1 <1>  -0.5750 
 10 C        2.3380    -4.1150    -0.5330 C.2   1 <1>   0.2700 
 11 C       -1.9790    -3.2650     0.4440 C.3   1 <1>  -0.1680 
 12 N        4.2950    -3.2830     0.0960 N.pl3 1 <1>  -0.7040 
 13 N        3.3380    -5.0840    -0.6530 N.pl3 1 <1>  -0.7680 
 14 C       -3.4840    -3.1760     0.2000 C.3   1 <1>   0.1110 
 15 C        4.4690    -4.5460    -0.2700 C.cat 1 <1>   1.0680 
 16 C        3.5010    -6.4950    -1.0480 C.3   1 <1>   0.3470 
 17 O       -4.1340    -3.6000     1.3410 O.3   1 <1>  -0.6840 
 18 N        5.5070    -5.3800    -0.3260 N.pl3 1 <1>  -0.5800 
 19 C        5.0170    -6.7090    -0.8100 C.3   1 <1>   0.1590 
 20 C        6.8440    -5.1070    -0.0300 C.ar  1 <1>   0.3040 
 21 C        7.5270    -4.1080    -0.7140 C.ar  1 <1>  -0.1580 
 22 C        7.5040    -5.8190     0.9620 C.ar  1 <1>  -0.1580 
 23 C        8.8430    -3.8180    -0.4030 C.ar  1 <1>  -0.1580 
 24 C        8.8200    -5.5310     1.2750 C.ar  1 <1>  -0.1580 
 25 C        9.4880    -4.5280     0.5940 C.ar  1 <1>  -0.1580 
 26 H       -1.4670    -3.4290    -1.6370 H     1 <1>   0.0710 
 27 H       -1.4890    -1.7980    -1.0470 H     1 <1>   0.0710 
 28 H        2.3530     0.0110     1.2660 H     1 <1>   0.0710 
 29 H        3.4490    -0.0710    -0.0940 H     1 <1>   0.0710 
 30 H        3.8110    -0.9320     1.3950 H     1 <1>   0.0710 
 31 H       -1.7250    -2.6290     1.2750 H     1 <1>   0.0710 
 32 H       -1.7170    -4.2830     0.6720 H     1 <1>   0.0710 
 33 H        5.0290    -2.6710     0.4450 H     1 <1>   0.4440 
 34 H       -3.7910    -3.8060    -0.6180 H     1 <1>   0.0710 
 35 H       -3.7850    -2.1600     0.0060 H     1 <1>   0.0710 
 36 H        3.2380    -6.6380    -2.0830 H     1 <1>   0.0710 
 37 H        2.9060    -7.1410    -0.4240 H     1 <1>   0.0710 
 38 H       -3.9190    -4.5320     1.5350 H     1 <1>   0.3930 
 39 H        5.5140    -6.9860    -1.7240 H     1 <1>   0.0710 
 40 H        5.1830    -7.4700    -0.0660 H     1 <1>   0.0710 
 41 H        7.0410    -3.5580    -1.5000 H     1 <1>   0.1420 
 42 H        6.9940    -6.5980     1.5000 H     1 <1>   0.1420 
 43 H        9.3740    -3.0450    -0.9350 H     1 <1>   0.1420 
 44 H        9.3300    -6.0830     2.0480 H     1 <1>   0.1420 
 45 H       10.5140    -4.3040     0.8370 H     1 <1>   0.1420 
@<TRIPOS>BOND
  1   1   2  2   
  2   2   3  am  
  3   2   4  am  
  4   3   5  am  
  5   3   6  1   
  6   4   7  1   
  7   4   8  1   
  8   5   9  2   
  9   5  10  1   
 10   6  11  1   
 11   6  26  1   
 12   6  27  1   
 13   7  10  2   
 14   7  12  1   
 15   8  28  1   
 16   8  29  1   
 17   8  30  1   
 18  10  13  1   
 19  11  14  1   
 20  11  31  1   
 21  11  32  1   
 22  12  15  ar  
 23  12  33  1   
 24  13  15  ar  
 25  13  16  1   
 26  14  17  1   
 27  14  34  1   
 28  14  35  1   
 29  15  18  ar  
 30  16  19  1   
 31  16  36  1   
 32  16  37  1   
 33  17  38  1   
 34  18  19  1   
 35  18  20  1   
 36  19  39  1   
 37  19  40  1   
 38  20  21  ar  
 39  20  22  ar  
 40  21  23  ar  
 41  21  41  1   
 42  22  24  ar  
 43  22  42  1   
 44  23  25  ar  
 45  23  43  1   
 46  24  25  ar  
 47  24  44  1   
 48  25  45  1   
@<TRIPOS>SUBSTRUCTURE
  1 ****   7 GROUP 4 **** **** 0

# MOE 2024.06 (io_trps.svl 2023.06)
