@<TRIPOS>MOLECULE
NONAME
24 25 1 0 0 
SMALL
USER_CHARGES


@<TRIPOS>ATOM
  1 CL       0.5610     0.6170    -0.8070 Cl    1 <1>  -0.1770 
  2 C        1.7880    -0.5780    -0.4810 C.ar  1 <1>   0.1770 
  3 C        1.6310    -1.4400     0.5860 C.ar  1 <1>  -0.1500 
  4 C        2.9030    -0.6480    -1.2940 C.ar  1 <1>  -0.1500 
  5 C        2.6100    -2.3870     0.8410 C.ar  1 <1>  -0.1500 
  6 C        3.8740    -1.5990    -1.0280 C.ar  1 <1>  -0.1500 
  7 C        3.7470    -2.4830     0.0410 C.ar  1 <1>  -0.0090 
  8 S        5.0340    -3.7180     0.3750 S.o2  1 <1>   1.4470 
  9 O        4.7640    -4.3960     1.6230 O.2   1 <1>  -0.6500 
 10 O        5.3010    -4.4770    -0.8260 O.2   1 <1>  -0.6500 
 11 N        6.3780    -2.7710     0.7140 N.am  1 <1>  -0.7890 
 12 C        7.6320    -3.4270     0.4420 C.3   1 <1>   0.1310 
 13 C        8.8590    -2.5810     0.4140 C.3   1 <1>  -0.2000 
 14 C        8.3030    -3.1490    -0.8590 C.3   1 <1>  -0.2000 
 15 H        0.7540    -1.3690     1.2050 H     1 <1>   0.1500 
 16 H        3.0050     0.0330    -2.1210 H     1 <1>   0.1500 
 17 H        2.4870    -3.0620     1.6730 H     1 <1>   0.1500 
 18 H        4.7460    -1.6600    -1.6590 H     1 <1>   0.1500 
 19 H        6.3270    -2.6480     1.7230 H     1 <1>   0.4200 
 20 H        7.7010    -4.4230     0.8550 H     1 <1>   0.1000 
 21 H        9.7830    -2.9870     0.7850 H     1 <1>   0.1000 
 22 H        8.7680    -1.5230     0.5860 H     1 <1>   0.1000 
 23 H        7.8070    -2.4980    -1.5570 H     1 <1>   0.1000 
 24 H        8.8320    -3.9510    -1.3430 H     1 <1>   0.1000 
@<TRIPOS>BOND
  1   1   2  1   
  2   2   3  ar  
  3   2   4  ar  
  4   3   5  ar  
  5   3  15  1   
  6   4   6  ar  
  7   4  16  1   
  8   5   7  ar  
  9   5  17  1   
 10   6   7  ar  
 11   6  18  1   
 12   7   8  1   
 13   8   9  2   
 14   8  10  2   
 15   8  11  am  
 16  11  12  1   
 17  11  19  1   
 18  12  13  1   
 19  12  14  1   
 20  12  20  1   
 21  13  14  1   
 22  13  21  1   
 23  13  22  1   
 24  14  23  1   
 25  14  24  1   
@<TRIPOS>SUBSTRUCTURE
  1 ****   7 GROUP 4 **** **** 0

# MOE 2024.06 (io_trps.svl 2023.06)
