@<TRIPOS>MOLECULE
NONAME
49 49 1 0 0 
SMALL
USER_CHARGES


@<TRIPOS>ATOM
  1 O       -0.2940    -1.6240    -0.0210 O.3   1 <1>  -0.3630 
  2 C        1.0410    -1.6170     0.2340 C.ar  1 <1>   0.0830 
  3 C       -1.0400    -0.4270    -0.1160 C.3   1 <1>   0.1200 
  4 C        1.6500    -2.8310     0.5410 C.ar  1 <1>  -0.1440 
  5 C        1.8040    -0.4540     0.2050 C.ar  1 <1>  -0.1500 
  6 C       -2.5140    -0.7970    -0.2860 C.3   1 <1>  -0.1600 
  7 C        3.0130    -2.8670     0.8120 C.ar  1 <1>  -0.1500 
  8 C        0.8180    -4.1060     0.6290 C.3   1 <1>   0.4870 
  9 C        3.1560    -0.4990     0.4890 C.ar  1 <1>  -0.1500 
 10 C       -3.3880     0.4590    -0.3910 C.3   1 <1>  -0.1600 
 11 C        3.7730    -1.7040     0.7930 C.ar  1 <1>  -0.1430 
 12 N        0.0620    -4.3150    -0.6360 N.4   1 <1>  -0.9590 
 13 C       -4.8640     0.0880    -0.5610 C.3   1 <1>  -0.2400 
 14 C        5.2570    -1.7360     1.1360 C.3   1 <1>   0.4860 
 15 C       -1.0130    -5.3390    -0.4790 C.3   1 <1>   0.2630 
 16 C        0.9460    -4.6070    -1.8020 C.3   1 <1>   0.2630 
 17 N        6.0640    -1.3010    -0.0420 N.4   1 <1>  -0.9590 
 18 C        5.9440    -2.2540    -1.1880 C.3   1 <1>   0.2630 
 19 C        7.4970    -1.0960     0.3320 C.3   1 <1>   0.2630 
 20 H       -0.6900     0.1320    -0.9670 H     1 <1>   0.0800 
 21 H       -0.8940     0.1410     0.7870 H     1 <1>   0.0800 
 22 H        1.3630     0.4980    -0.0290 H     1 <1>   0.1500 
 23 H       -2.8330    -1.3780     0.5620 H     1 <1>   0.0800 
 24 H       -2.6330    -1.3840    -1.1800 H     1 <1>   0.0800 
 25 H        3.4810    -3.8050     1.0600 H     1 <1>   0.1500 
 26 H        0.1250    -4.0010     1.4480 H     1 <1>   0.0800 
 27 H        1.4510    -4.9540     0.8280 H     1 <1>   0.0800 
 28 H        3.7120     0.4240     0.4800 H     1 <1>   0.1500 
 29 H       -3.0760     1.0530    -1.2340 H     1 <1>   0.0800 
 30 H       -3.2770     1.0570     0.4980 H     1 <1>   0.0800 
 31 H       -0.3830    -3.3890    -0.7960 H     1 <1>   0.4500 
 32 H       -5.0090    -0.4890    -1.4580 H     1 <1>   0.0800 
 33 H       -5.4610     0.9810    -0.6320 H     1 <1>   0.0800 
 34 H       -5.2100    -0.4860     0.2810 H     1 <1>   0.0800 
 35 H        5.5460    -2.7300     1.4350 H     1 <1>   0.0800 
 36 H        5.4350    -1.0710     1.9670 H     1 <1>   0.0800 
 37 H       -0.5850    -6.3060    -0.2710 H     1 <1>   0.0800 
 38 H       -1.5970    -5.4070    -1.3820 H     1 <1>   0.0800 
 39 H       -1.6700    -5.0690     0.3320 H     1 <1>   0.0800 
 40 H        1.4650    -5.5400    -1.6570 H     1 <1>   0.0800 
 41 H        1.6720    -3.8190    -1.9240 H     1 <1>   0.0800 
 42 H        0.3610    -4.6730    -2.7050 H     1 <1>   0.0800 
 43 H        5.6730    -0.3970    -0.3450 H     1 <1>   0.4500 
 44 H        6.3260    -3.2230    -0.9140 H     1 <1>   0.0800 
 45 H        6.5030    -1.8900    -2.0360 H     1 <1>   0.0800 
 46 H        4.9110    -2.3570    -1.4810 H     1 <1>   0.0800 
 47 H        7.9380    -2.0240     0.6620 H     1 <1>   0.0800 
 48 H        7.5790    -0.3730     1.1280 H     1 <1>   0.0800 
 49 H        8.0560    -0.7330    -0.5160 H     1 <1>   0.0800 
@<TRIPOS>BOND
  1   1   2  1   
  2   1   3  1   
  3   2   4  ar  
  4   2   5  ar  
  5   3   6  1   
  6   3  20  1   
  7   3  21  1   
  8   4   7  ar  
  9   4   8  1   
 10   5   9  ar  
 11   5  22  1   
 12   6  10  1   
 13   6  23  1   
 14   6  24  1   
 15   7  11  ar  
 16   7  25  1   
 17   8  12  1   
 18   8  26  1   
 19   8  27  1   
 20   9  11  ar  
 21   9  28  1   
 22  10  13  1   
 23  10  29  1   
 24  10  30  1   
 25  11  14  1   
 26  12  15  1   
 27  12  16  1   
 28  12  31  1   
 29  13  32  1   
 30  13  33  1   
 31  13  34  1   
 32  14  17  1   
 33  14  35  1   
 34  14  36  1   
 35  15  37  1   
 36  15  38  1   
 37  15  39  1   
 38  16  40  1   
 39  16  41  1   
 40  16  42  1   
 41  17  18  1   
 42  17  19  1   
 43  17  43  1   
 44  18  44  1   
 45  18  45  1   
 46  18  46  1   
 47  19  47  1   
 48  19  48  1   
 49  19  49  1   
@<TRIPOS>SUBSTRUCTURE
  1 ****   2 GROUP 4 **** **** 0

# MOE 2024.06 (io_trps.svl 2023.06)
