@<TRIPOS>MOLECULE
NONAME
43 45 1 0 0 
SMALL
USER_CHARGES


@<TRIPOS>ATOM
  1 O       -0.5250     0.3140    -0.3270 O.2   1 <1>  -0.5700 
  2 C       -1.0360     1.4150    -0.2200 C.2   1 <1>   0.5440 
  3 N       -0.2160     2.5230    -0.1630 N.am  1 <1>  -0.6600 
  4 C       -2.4800     1.5170    -0.1430 C.ar  1 <1>   0.0860 
  5 C       -0.6810     3.8420     0.3670 C.3   1 <1>   0.1400 
  6 C        1.2420     2.3840    -0.4600 C.3   1 <1>   0.1400 
  7 C       -3.2090     0.7100     0.7300 C.ar  1 <1>  -0.1500 
  8 C       -3.2040     2.4080    -0.9360 C.ar  1 <1>  -0.1500 
  9 C        0.4400     4.5310     1.1520 C.3   1 <1>  -0.1600 
 10 C        1.8530     3.7400    -0.8310 C.3   1 <1>  -0.1600 
 11 C       -4.5850     0.8010     0.8220 C.ar  1 <1>  -0.1500 
 12 C       -4.5800     2.5030    -0.8470 C.ar  1 <1>  -0.1500 
 13 C        1.6900     4.7810     0.2900 C.3   1 <1>  -0.1600 
 14 C       -5.2960     1.7040     0.0400 C.ar  1 <1>   0.1170 
 15 N       -6.6880     1.7530     0.1590 N.am  1 <1>  -0.5470 
 16 C       -7.5920     2.7480    -0.1140 C.2   1 <1>   0.7150 
 17 O       -7.2060     3.8570    -0.4250 O.2   1 <1>  -0.5700 
 18 C       -8.9890     2.4400     0.0020 C.2   1 <1>  -0.2370 
 19 N       -9.9980     3.3560    -0.0030 N.pl3 1 <1>   0.3140 
 20 C       -9.6090     1.2320     0.1350 C.2   1 <1>  -0.1500 
 21 N      -11.2030     2.7800     0.1280 N.2   1 <1>  -0.7070 
 22 C       -9.9010     4.8210    -0.1200 C.3   1 <1>   0.0160 
 23 C      -10.9610     1.5090     0.2070 C.2   1 <1>   0.1390 
 24 H       -1.5290     3.7000     1.0150 H     1 <1>   0.0800 
 25 H       -0.9800     4.4660    -0.4570 H     1 <1>   0.0800 
 26 H        1.3770     1.6910    -1.2730 H     1 <1>   0.0800 
 27 H        1.7370     1.9820     0.4080 H     1 <1>   0.0800 
 28 H       -2.6740     0.0010     1.3390 H     1 <1>   0.1500 
 29 H       -2.6730     3.0290    -1.6360 H     1 <1>   0.1500 
 30 H        0.6980     3.9030     1.9870 H     1 <1>   0.0800 
 31 H        0.0830     5.4650     1.5500 H     1 <1>   0.0800 
 32 H        1.3660     4.0910    -1.7240 H     1 <1>   0.0800 
 33 H        2.8960     3.6140    -1.0610 H     1 <1>   0.0800 
 34 H       -5.1090     0.1640     1.5100 H     1 <1>   0.1500 
 35 H       -5.0990     3.2000    -1.4790 H     1 <1>   0.1500 
 36 H        2.5570     4.7630     0.9290 H     1 <1>   0.0800 
 37 H        1.6350     5.7600    -0.1550 H     1 <1>   0.0800 
 38 H       -7.1190     0.9310     0.5710 H     1 <1>   0.3700 
 39 H       -9.1800     0.2470     0.1720 H     1 <1>   0.1500 
 40 H       -9.4850     5.0720    -1.0770 H     1 <1>   0.0800 
 41 H       -9.2690     5.1990     0.6620 H     1 <1>   0.0800 
 42 H      -10.8810     5.2510    -0.0300 H     1 <1>   0.0800 
 43 H      -11.7370     0.7700     0.3150 H     1 <1>   0.1500 
@<TRIPOS>BOND
  1   1   2  2   
  2   2   3  am  
  3   2   4  1   
  4   3   5  1   
  5   3   6  1   
  6   4   7  ar  
  7   4   8  ar  
  8   5   9  1   
  9   5  24  1   
 10   5  25  1   
 11   6  10  1   
 12   6  26  1   
 13   6  27  1   
 14   7  11  ar  
 15   7  28  1   
 16   8  12  ar  
 17   8  29  1   
 18   9  13  1   
 19   9  30  1   
 20   9  31  1   
 21  10  13  1   
 22  10  32  1   
 23  10  33  1   
 24  11  14  ar  
 25  11  34  1   
 26  12  14  ar  
 27  12  35  1   
 28  13  36  1   
 29  13  37  1   
 30  14  15  1   
 31  15  16  am  
 32  15  38  1   
 33  16  17  2   
 34  16  18  1   
 35  18  19  1   
 36  18  20  2   
 37  19  21  1   
 38  19  22  1   
 39  20  23  1   
 40  20  39  1   
 41  21  23  2   
 42  22  40  1   
 43  22  41  1   
 44  22  42  1   
 45  23  43  1   
@<TRIPOS>SUBSTRUCTURE
  1 ****  12 GROUP 4 **** **** 0

# MOE 2024.06 (io_trps.svl 2023.06)
