@<TRIPOS>MOLECULE
NONAME
48 51 1 0 0 
SMALL
USER_CHARGES


@<TRIPOS>ATOM
  1 S       -0.8710     2.5920    -1.0910 S.3   1 <1>  -0.2860 
  2 C       -1.6840     1.5360     0.1170 C.2   1 <1>   0.2420 
  3 C        0.7090     3.1270    -0.2660 C.3   1 <1>   0.1310 
  4 N       -1.2080     1.2750     1.2830 N.2   1 <1>  -0.3380 
  5 N       -2.8500     0.9370    -0.1280 N.pl3 1 <1>   0.0480 
  6 C        1.9180     2.5560    -0.9930 C.2   1 <1>   0.5690 
  7 N       -2.0900     0.4580     1.8630 N.2   1 <1>  -0.3380 
  8 C       -3.0550     0.2720     1.0220 C.2   1 <1>   0.0060 
  9 C       -3.6880     1.0150    -1.3450 C.3   1 <1>   0.0160 
 10 O        2.5380     3.3000    -1.7180 O.2   1 <1>  -0.5700 
 11 N        2.3080     1.2550    -0.8070 N.am  1 <1>  -0.6600 
 12 C       -4.2670    -0.5980     1.3270 C.3   1 <1>   0.1630 
 13 C        3.5400     0.7050    -1.4070 C.3   1 <1>   0.1400 
 14 C        1.6440     0.2530     0.0580 C.3   1 <1>   0.1400 
 15 C       -5.5760     0.1280     1.0100 C.ar  1 <1>  -0.1440 
 16 C        3.8450    -0.5370    -0.5790 C.3   1 <1>  -0.1600 
 17 C        2.4800    -1.0150    -0.0910 C.3   1 <1>  -0.1600 
 18 C       -6.4900    -0.3120     0.0110 C.ar  1 <1>   0.0000 
 19 C       -5.8340     1.2630     1.7350 C.ar  1 <1>  -0.1500 
 20 C       -7.6510     0.4680    -0.2180 C.ar  1 <1>   0.0000 
 21 C       -6.3310    -1.4730    -0.7860 C.ar  1 <1>  -0.1500 
 22 C       -6.9860     2.0180     1.5090 C.ar  1 <1>  -0.1500 
 23 C       -7.8720     1.6260     0.5510 C.ar  1 <1>  -0.1500 
 24 C       -8.5700     0.0760    -1.2120 C.ar  1 <1>  -0.1500 
 25 C       -7.2390    -1.8310    -1.7440 C.ar  1 <1>  -0.1500 
 26 C       -8.3740    -1.0470    -1.9630 C.ar  1 <1>  -0.1500 
 27 H        0.6920     2.8160     0.7590 H     1 <1>   0.0800 
 28 H        0.7300     4.1990    -0.3120 H     1 <1>   0.0800 
 29 H       -4.5220     1.6680    -1.1600 H     1 <1>   0.0800 
 30 H       -4.0500     0.0360    -1.5960 H     1 <1>   0.0800 
 31 H       -3.1130     1.3960    -2.1690 H     1 <1>   0.0800 
 32 H       -4.2600    -0.8340     2.3770 H     1 <1>   0.0800 
 33 H       -4.1570    -1.5260     0.8090 H     1 <1>   0.0800 
 34 H        4.3440     1.4210    -1.3670 H     1 <1>   0.0800 
 35 H        3.3420     0.4410    -2.4320 H     1 <1>   0.0800 
 36 H        0.6330     0.0780    -0.2640 H     1 <1>   0.0800 
 37 H        1.6510     0.5940     1.0800 H     1 <1>   0.0800 
 38 H        4.4560    -0.2540     0.2600 H     1 <1>   0.0800 
 39 H        4.3620    -1.2840    -1.1550 H     1 <1>   0.0800 
 40 H        2.0260    -1.6450    -0.8360 H     1 <1>   0.0800 
 41 H        2.5430    -1.5600     0.8340 H     1 <1>   0.0800 
 42 H       -5.1470     1.6030     2.4930 H     1 <1>   0.1500 
 43 H       -5.4810    -2.1110    -0.6520 H     1 <1>   0.1500 
 44 H       -7.1570     2.9030     2.0980 H     1 <1>   0.1500 
 45 H       -8.7620     2.2020     0.3690 H     1 <1>   0.1500 
 46 H       -9.4430     0.6840    -1.3710 H     1 <1>   0.1500 
 47 H       -7.0980    -2.7170    -2.3380 H     1 <1>   0.1500 
 48 H       -9.0800    -1.3410    -2.7200 H     1 <1>   0.1500 
@<TRIPOS>BOND
  1   1   2  1   
  2   1   3  1   
  3   2   4  2   
  4   2   5  1   
  5   3   6  1   
  6   3  27  1   
  7   3  28  1   
  8   4   7  1   
  9   5   8  1   
 10   5   9  1   
 11   6  10  2   
 12   6  11  am  
 13   7   8  2   
 14   8  12  1   
 15   9  29  1   
 16   9  30  1   
 17   9  31  1   
 18  11  13  1   
 19  11  14  1   
 20  12  15  1   
 21  12  32  1   
 22  12  33  1   
 23  13  16  1   
 24  13  34  1   
 25  13  35  1   
 26  14  17  1   
 27  14  36  1   
 28  14  37  1   
 29  15  18  ar  
 30  15  19  ar  
 31  16  17  1   
 32  16  38  1   
 33  16  39  1   
 34  17  40  1   
 35  17  41  1   
 36  18  20  ar  
 37  18  21  ar  
 38  19  22  ar  
 39  19  42  1   
 40  20  23  ar  
 41  20  24  ar  
 42  21  25  ar  
 43  21  43  1   
 44  22  23  ar  
 45  22  44  1   
 46  23  45  1   
 47  24  26  ar  
 48  24  46  1   
 49  25  26  ar  
 50  25  47  1   
 51  26  48  1   
@<TRIPOS>SUBSTRUCTURE
  1 ****   5 GROUP 4 **** **** 0

# MOE 2024.06 (io_trps.svl 2023.06)
