@<TRIPOS>MOLECULE
NONAME
39 40 1 0 0 
SMALL
USER_CHARGES


@<TRIPOS>ATOM
  1 CL       0.2270     0.4120     0.1510 Cl    1 <1>  -0.1770 
  2 C        1.8780     1.0050     0.1360 C.ar  1 <1>   0.1770 
  3 C        2.1110     2.3500    -0.1190 C.ar  1 <1>  -0.1440 
  4 C        2.9190     0.1170     0.3810 C.ar  1 <1>  -0.1440 
  5 C        3.4190     2.8050    -0.1280 C.ar  1 <1>  -0.1500 
  6 C        0.9640     3.3130    -0.3840 C.3   1 <1>  -0.0960 
  7 C        4.2210     0.5930     0.3670 C.ar  1 <1>  -0.1500 
  8 C        2.6410    -1.3540     0.6600 C.3   1 <1>  -0.0960 
  9 C        4.4740     1.9390     0.1120 C.ar  1 <1>   0.0830 
 10 O        5.7180     2.4800     0.0800 O.3   1 <1>  -0.3630 
 11 C        6.8680     1.6920     0.2580 C.3   1 <1>   0.1200 
 12 C        8.0760     2.6260     0.1410 C.3   1 <1>   0.3430 
 13 N        9.3860     1.9180     0.3290 N.4   1 <1>  -0.9590 
 14 C       10.5060     2.9200     0.4420 C.3   1 <1>   0.3430 
 15 C        9.6810     0.9450    -0.7850 C.3   1 <1>   0.3430 
 16 C       11.8820     2.2290     0.5200 C.3   1 <1>   0.1200 
 17 C       11.0930     0.3410    -0.6530 C.3   1 <1>   0.1200 
 18 O       12.0460     1.3590    -0.5610 O.3   1 <1>  -0.5600 
 19 H        3.6310     3.8410    -0.3220 H     1 <1>   0.1500 
 20 H        0.4100     2.9950    -1.2500 H     1 <1>   0.0800 
 21 H        1.3270     4.3100    -0.5600 H     1 <1>   0.0800 
 22 H        0.3010     3.3370     0.4620 H     1 <1>   0.0800 
 23 H        5.0190    -0.0970     0.5580 H     1 <1>   0.1500 
 24 H        2.0200    -1.4500     1.5320 H     1 <1>   0.0800 
 25 H        3.5520    -1.8990     0.8290 H     1 <1>   0.0800 
 26 H        2.1310    -1.7960    -0.1770 H     1 <1>   0.0800 
 27 H        6.8740     0.9420    -0.5120 H     1 <1>   0.0800 
 28 H        6.8180     1.2460     1.2360 H     1 <1>   0.0800 
 29 H        7.9750     3.3940     0.8910 H     1 <1>   0.0800 
 30 H        8.0570     3.0980    -0.8280 H     1 <1>   0.0800 
 31 H        9.3610     1.3940     1.2140 H     1 <1>   0.4500 
 32 H       10.3670     3.5340     1.3170 H     1 <1>   0.0800 
 33 H       10.5040     3.5680    -0.4200 H     1 <1>   0.0800 
 34 H        9.6190     1.4490    -1.7350 H     1 <1>   0.0800 
 35 H        8.9570     0.1480    -0.7850 H     1 <1>   0.0800 
 36 H       11.9900     1.6730     1.4350 H     1 <1>   0.0800 
 37 H       12.6680     2.9630     0.4710 H     1 <1>   0.0800 
 38 H       11.3280    -0.2480    -1.5230 H     1 <1>   0.0800 
 39 H       11.1720    -0.2880     0.2170 H     1 <1>   0.0800 
@<TRIPOS>BOND
  1   1   2  1   
  2   2   3  ar  
  3   2   4  ar  
  4   3   5  ar  
  5   3   6  1   
  6   4   7  ar  
  7   4   8  1   
  8   5   9  ar  
  9   5  19  1   
 10   6  20  1   
 11   6  21  1   
 12   6  22  1   
 13   7   9  ar  
 14   7  23  1   
 15   8  24  1   
 16   8  25  1   
 17   8  26  1   
 18   9  10  1   
 19  10  11  1   
 20  11  12  1   
 21  11  27  1   
 22  11  28  1   
 23  12  13  1   
 24  12  29  1   
 25  12  30  1   
 26  13  14  1   
 27  13  15  1   
 28  13  31  1   
 29  14  16  1   
 30  14  32  1   
 31  14  33  1   
 32  15  17  1   
 33  15  34  1   
 34  15  35  1   
 35  16  18  1   
 36  16  36  1   
 37  16  37  1   
 38  17  18  1   
 39  17  38  1   
 40  17  39  1   
@<TRIPOS>SUBSTRUCTURE
  1 ****  11 GROUP 4 **** **** 0

# MOE 2024.06 (io_trps.svl 2023.06)
