@<TRIPOS>MOLECULE
NONAME
38 39 1 0 0 
SMALL
USER_CHARGES


@<TRIPOS>ATOM
  1 S       -0.7140     0.4330    -1.0980 S.o2  1 <1>   1.3330 
  2 O        0.2650     1.4240    -1.4800 O.2   1 <1>  -0.6500 
  3 O       -1.8570     0.1730    -1.9420 O.2   1 <1>  -0.6500 
  4 N       -1.2930     0.8390     0.4400 N.am  1 <1>  -0.8490 
  5 C        0.1500    -1.0930    -0.7940 C.3   1 <1>  -0.1350 
  6 C       -1.3570     2.3090     0.6130 C.3   1 <1>   0.1960 
  7 C       -2.5530     0.1480     0.8060 C.3   1 <1>   0.1960 
  8 C       -2.3280     2.7580     1.7180 C.3   1 <1>   0.1400 
  9 C       -3.8080     1.0220     0.6230 C.3   1 <1>   0.1400 
 10 N       -3.7210     2.2690     1.4520 N.am  1 <1>  -0.6600 
 11 C       -4.8030     2.9900     1.8960 C.2   1 <1>   0.5690 
 12 O       -4.6590     3.9790     2.5750 O.2   1 <1>  -0.5700 
 13 C       -6.2350     2.5600     1.5970 C.3   1 <1>   0.1310 
 14 S       -6.5860     2.5820    -0.2280 S.3   1 <1>  -0.3310 
 15 C       -8.2400     1.9020    -0.4370 C.ar  1 <1>   0.1010 
 16 C       -9.0840     1.6650     0.6380 C.ar  1 <1>  -0.1500 
 17 C       -8.6420     1.6210    -1.7300 C.ar  1 <1>  -0.1500 
 18 C      -10.3420     1.1350     0.4070 C.ar  1 <1>  -0.1500 
 19 C       -9.9010     1.0900    -1.9550 C.ar  1 <1>  -0.1500 
 20 C      -10.7490     0.8470    -0.8860 C.ar  1 <1>  -0.1500 
 21 H        0.9290    -0.9350    -0.0740 H     1 <1>   0.0800 
 22 H        0.5890    -1.4520    -1.7040 H     1 <1>   0.0800 
 23 H       -0.5240    -1.8370    -0.4190 H     1 <1>   0.0800 
 24 H       -1.6790     2.7700    -0.3070 H     1 <1>   0.0800 
 25 H       -0.3690     2.6790     0.8290 H     1 <1>   0.0800 
 26 H       -2.4950    -0.1320     1.8440 H     1 <1>   0.0800 
 27 H       -2.6650    -0.7610     0.2410 H     1 <1>   0.0800 
 28 H       -2.3250     3.8340     1.7680 H     1 <1>   0.0800 
 29 H       -1.9920     2.3810     2.6670 H     1 <1>   0.0800 
 30 H       -4.6740     0.4510     0.9060 H     1 <1>   0.0800 
 31 H       -3.9060     1.2870    -0.4160 H     1 <1>   0.0800 
 32 H       -6.9240     3.2440     2.0560 H     1 <1>   0.0800 
 33 H       -6.4120     1.5630     1.9510 H     1 <1>   0.0800 
 34 H       -8.7890     1.8900     1.6440 H     1 <1>   0.1500 
 35 H       -7.9750     1.8160    -2.5510 H     1 <1>   0.1500 
 36 H      -11.0080     0.9460     1.2310 H     1 <1>   0.1500 
 37 H      -10.2190     0.8680    -2.9590 H     1 <1>   0.1500 
 38 H      -11.7270     0.4340    -1.0620 H     1 <1>   0.1500 
@<TRIPOS>BOND
  1   1   2  2   
  2   1   3  2   
  3   1   4  am  
  4   1   5  1   
  5   4   6  1   
  6   4   7  1   
  7   5  21  1   
  8   5  22  1   
  9   5  23  1   
 10   6   8  1   
 11   6  24  1   
 12   6  25  1   
 13   7   9  1   
 14   7  26  1   
 15   7  27  1   
 16   8  10  1   
 17   8  28  1   
 18   8  29  1   
 19   9  10  1   
 20   9  30  1   
 21   9  31  1   
 22  10  11  am  
 23  11  12  2   
 24  11  13  1   
 25  13  14  1   
 26  13  32  1   
 27  13  33  1   
 28  14  15  1   
 29  15  16  ar  
 30  15  17  ar  
 31  16  18  ar  
 32  16  34  1   
 33  17  19  ar  
 34  17  35  1   
 35  18  20  ar  
 36  18  36  1   
 37  19  20  ar  
 38  19  37  1   
 39  20  38  1   
@<TRIPOS>SUBSTRUCTURE
  1 ****   9 GROUP 4 **** **** 0

# MOE 2024.06 (io_trps.svl 2023.06)
