@<TRIPOS>MOLECULE
NONAME
26 27 1 0 0 
SMALL
USER_CHARGES


@<TRIPOS>ATOM
  1 CL       0.7740     0.4180     2.5420 Cl    1 <1>  -0.1770 
  2 C        1.5920     1.0910     1.1510 C.ar  1 <1>   0.1770 
  3 C        1.1210     2.2520     0.5540 C.ar  1 <1>  -0.1440 
  4 C        2.7050     0.4290     0.6650 C.ar  1 <1>  -0.1500 
  5 C        1.7880     2.7410    -0.5600 C.ar  1 <1>  -0.1500 
  6 C       -0.0970     2.9820     1.0890 C.3   1 <1>   0.2840 
  7 C        3.3650     0.9310    -0.4430 C.ar  1 <1>  -0.1500 
  8 C        2.9040     2.0850    -1.0540 C.ar  1 <1>  -0.1500 
  9 N       -1.3050     2.3510     0.5320 N.am  1 <1>  -0.7300 
 10 C       -2.2730     2.9960    -0.1570 C.2   1 <1>   0.6300 
 11 O       -2.2420     4.1860    -0.3510 O.2   1 <1>  -0.5700 
 12 C       -3.4290     2.1770    -0.7090 C.3   1 <1>  -0.1000 
 13 C       -4.8210     2.3730    -0.1820 C.3   1 <1>  -0.2000 
 14 C       -4.0940     1.0960     0.0970 C.3   1 <1>  -0.2000 
 15 H        3.0470    -0.4670     1.1500 H     1 <1>   0.1500 
 16 H        1.4370     3.6350    -1.0490 H     1 <1>   0.1500 
 17 H       -0.0580     4.0210     0.8060 H     1 <1>   0.0800 
 18 H       -0.1290     2.9340     2.1640 H     1 <1>   0.0800 
 19 H        4.2330     0.4250    -0.8300 H     1 <1>   0.1500 
 20 H        3.4140     2.4740    -1.9190 H     1 <1>   0.1500 
 21 H       -1.3590     1.3380     0.6450 H     1 <1>   0.3700 
 22 H       -3.3280     2.0270    -1.7680 H     1 <1>   0.1000 
 23 H       -5.6370     2.3710    -0.8840 H     1 <1>   0.1000 
 24 H       -4.9650     3.0820     0.6160 H     1 <1>   0.1000 
 25 H       -3.7750     0.9110     1.1090 H     1 <1>   0.1000 
 26 H       -4.4140     0.1990    -0.4050 H     1 <1>   0.1000 
@<TRIPOS>BOND
  1   1   2  1   
  2   2   3  ar  
  3   2   4  ar  
  4   3   5  ar  
  5   3   6  1   
  6   4   7  ar  
  7   4  15  1   
  8   5   8  ar  
  9   5  16  1   
 10   6   9  1   
 11   6  17  1   
 12   6  18  1   
 13   7   8  ar  
 14   7  19  1   
 15   8  20  1   
 16   9  10  am  
 17   9  21  1   
 18  10  11  2   
 19  10  12  1   
 20  12  13  1   
 21  12  14  1   
 22  12  22  1   
 23  13  14  1   
 24  13  23  1   
 25  13  24  1   
 26  14  25  1   
 27  14  26  1   
@<TRIPOS>SUBSTRUCTURE
  1 ****   9 GROUP 4 **** **** 0

# MOE 2024.06 (io_trps.svl 2023.06)
