@<TRIPOS>MOLECULE
NONAME
35 36 1 0 0 
SMALL
USER_CHARGES


@<TRIPOS>ATOM
  1 S       -0.0320    -0.2660    -0.8330 S.o2  1 <1>   1.3330 
  2 O        0.4490     0.7900    -1.6920 O.2   1 <1>  -0.6500 
  3 O       -0.0730    -1.6290    -1.3090 O.2   1 <1>  -0.6500 
  4 N       -1.5820     0.1520    -0.2970 N.am  1 <1>  -0.8490 
  5 C        0.9180    -0.2090     0.6710 C.3   1 <1>  -0.1350 
  6 C       -2.3690     0.8070    -1.3670 C.3   1 <1>   0.1960 
  7 C       -2.3390    -1.0110     0.2210 C.3   1 <1>   0.1960 
  8 C       -3.7610     1.2590    -0.8840 C.3   1 <1>   0.2090 
  9 C       -3.7250    -0.6150     0.7690 C.3   1 <1>   0.2090 
 10 N       -4.5020     0.1270    -0.2610 N.pl3 1 <1>  -0.8380 
 11 C       -5.8930     0.1440    -0.1850 C.ar  1 <1>   0.1000 
 12 C       -6.6210     1.0630     0.5810 C.ar  1 <1>  -0.1440 
 13 C       -6.5840    -0.8150    -0.9150 C.ar  1 <1>  -0.1500 
 14 C       -8.0050     1.0000     0.5910 C.ar  1 <1>  -0.1500 
 15 C       -5.9430     2.1410     1.4150 C.3   1 <1>  -0.0970 
 16 C       -7.9640    -0.8730    -0.8980 C.ar  1 <1>  -0.1500 
 17 C       -8.6780     0.0380    -0.1430 C.ar  1 <1>  -0.1500 
 18 H        0.8610     0.7710     1.1030 H     1 <1>   0.0800 
 19 H        1.9450    -0.4340     0.4620 H     1 <1>   0.0800 
 20 H        0.5450    -0.9230     1.3770 H     1 <1>   0.0800 
 21 H       -2.4890     0.1290    -2.1960 H     1 <1>   0.0800 
 22 H       -1.8430     1.6750    -1.7250 H     1 <1>   0.0800 
 23 H       -1.7810    -1.4860     1.0070 H     1 <1>   0.0800 
 24 H       -2.4820    -1.7340    -0.5650 H     1 <1>   0.0800 
 25 H       -4.3280     1.6420    -1.7140 H     1 <1>   0.0800 
 26 H       -3.6370     2.0490    -0.1650 H     1 <1>   0.0800 
 27 H       -3.5990     0.0010     1.6400 H     1 <1>   0.0800 
 28 H       -4.2670    -1.4990     1.0560 H     1 <1>   0.0800 
 29 H       -6.0210    -1.5160    -1.5010 H     1 <1>   0.1500 
 30 H       -8.5750     1.7020     1.1740 H     1 <1>   0.1500 
 31 H       -5.0830     1.7430     1.9190 H     1 <1>   0.0800 
 32 H       -6.6150     2.5280     2.1600 H     1 <1>   0.0800 
 33 H       -5.6350     2.9500     0.7790 H     1 <1>   0.0800 
 34 H       -8.4810    -1.6230    -1.4710 H     1 <1>   0.1500 
 35 H       -9.7530     0.0000    -0.1250 H     1 <1>   0.1500 
@<TRIPOS>BOND
  1   1   2  2   
  2   1   3  2   
  3   1   4  am  
  4   1   5  1   
  5   4   6  1   
  6   4   7  1   
  7   5  18  1   
  8   5  19  1   
  9   5  20  1   
 10   6   8  1   
 11   6  21  1   
 12   6  22  1   
 13   7   9  1   
 14   7  23  1   
 15   7  24  1   
 16   8  10  1   
 17   8  25  1   
 18   8  26  1   
 19   9  10  1   
 20   9  27  1   
 21   9  28  1   
 22  10  11  1   
 23  11  12  ar  
 24  11  13  ar  
 25  12  14  ar  
 26  12  15  1   
 27  13  16  ar  
 28  13  29  1   
 29  14  17  ar  
 30  14  30  1   
 31  15  31  1   
 32  15  32  1   
 33  15  33  1   
 34  16  17  ar  
 35  16  34  1   
 36  17  35  1   
@<TRIPOS>SUBSTRUCTURE
  1 ****  10 GROUP 4 **** **** 0

# MOE 2024.06 (io_trps.svl 2023.06)
