@<TRIPOS>MOLECULE
NONAME
57 59 1 0 0 
SMALL
USER_CHARGES


@<TRIPOS>ATOM
  1 O       -0.2750    -0.5580    -1.8510 O.3   1 <1>  -0.3630 
  2 C       -0.5310    -1.3000    -0.7390 C.ar  1 <1>   0.0830 
  3 C       -1.2750     0.2340    -2.4550 C.3   1 <1>   0.0400 
  4 C        0.4090    -2.2600    -0.3690 C.ar  1 <1>  -0.1440 
  5 C       -1.6790    -1.1240     0.0300 C.ar  1 <1>  -0.1500 
  6 C        0.1960    -3.0250     0.7670 C.ar  1 <1>  -0.1500 
  7 C        1.6720    -2.4940    -1.1890 C.3   1 <1>   0.2540 
  8 C       -1.8880    -1.9000     1.1650 C.ar  1 <1>   0.0830 
  9 C       -0.9450    -2.8460     1.5270 C.ar  1 <1>  -0.1500 
 10 N        2.8630    -1.9410    -0.5080 N.3   1 <1>  -0.8100 
 11 O       -2.9780    -1.7930     1.9670 O.3   1 <1>  -0.3630 
 12 C        2.7310    -0.4850    -0.2910 C.3   1 <1>   0.1100 
 13 C        4.0900    -2.2580    -1.2540 C.3   1 <1>   0.1100 
 14 C       -4.0180    -0.8860     1.6830 C.3   1 <1>   0.0400 
 15 C        3.9680     0.0960     0.4180 C.3   1 <1>   0.3430 
 16 C        5.3390    -1.6970    -0.5440 C.3   1 <1>   0.3430 
 17 N        5.2510    -0.2070    -0.3190 N.4   1 <1>  -0.9590 
 18 C        6.4590     0.3520     0.3650 C.3   1 <1>   0.4230 
 19 C        6.3160     1.8770     0.5350 C.3   1 <1>  -0.1600 
 20 C        7.7280     0.0290    -0.4460 C.3   1 <1>  -0.1600 
 21 C        7.5770     2.5150     1.1390 C.3   1 <1>  -0.1600 
 22 C        8.9840     0.6720     0.1610 C.3   1 <1>  -0.1600 
 23 C        8.8250     2.1900     0.3090 C.3   1 <1>  -0.0800 
 24 C       10.0720     2.7980     0.9590 C.3   1 <1>  -0.2400 
 25 H       -2.1330    -0.3820    -2.6600 H     1 <1>   0.0800 
 26 H       -0.8810     0.6280    -3.3750 H     1 <1>   0.0800 
 27 H       -1.5300     1.0430    -1.7930 H     1 <1>   0.0800 
 28 H       -2.4030    -0.3870    -0.2460 H     1 <1>   0.1500 
 29 H        0.9220    -3.7620     1.0620 H     1 <1>   0.1500 
 30 H        1.5750    -2.0640    -2.1710 H     1 <1>   0.0800 
 31 H        1.7990    -3.5560    -1.3150 H     1 <1>   0.0800 
 32 H       -1.1120    -3.4410     2.4070 H     1 <1>   0.1500 
 33 H        1.8730    -0.2890     0.3300 H     1 <1>   0.0800 
 34 H        2.5750     0.0180    -1.2310 H     1 <1>   0.0800 
 35 H        4.0310    -1.8590    -2.2530 H     1 <1>   0.0800 
 36 H        4.1890    -3.3280    -1.3300 H     1 <1>   0.0800 
 37 H       -4.7690    -0.9910     2.4450 H     1 <1>   0.0800 
 38 H       -4.4380    -1.1250     0.7220 H     1 <1>   0.0800 
 39 H       -3.6230     0.1140     1.6960 H     1 <1>   0.0800 
 40 H        4.0130    -0.3210     1.4110 H     1 <1>   0.0800 
 41 H        3.8330     1.1600     0.5100 H     1 <1>   0.0800 
 42 H        6.2010    -1.9310    -1.1450 H     1 <1>   0.0800 
 43 H        5.4450    -2.2010     0.4020 H     1 <1>   0.0800 
 44 H        5.1830     0.2400    -1.2390 H     1 <1>   0.4500 
 45 H        6.5550    -0.0930     1.3430 H     1 <1>   0.0800 
 46 H        5.5010     2.1120     1.1950 H     1 <1>   0.0800 
 47 H        6.1280     2.3330    -0.4210 H     1 <1>   0.0800 
 48 H        7.6160     0.3870    -1.4540 H     1 <1>   0.0800 
 49 H        7.9020    -1.0310    -0.4730 H     1 <1>   0.0800 
 50 H        7.7120     2.1580     2.1470 H     1 <1>   0.0800 
 51 H        7.4480     3.5830     1.1870 H     1 <1>   0.0800 
 52 H        9.8330     0.4620    -0.4690 H     1 <1>   0.0800 
 53 H        9.1810     0.2360     1.1260 H     1 <1>   0.0800 
 54 H        8.7140     2.6260    -0.6720 H     1 <1>   0.0800 
 55 H       10.2280     2.3940     1.9450 H     1 <1>   0.0800 
 56 H        9.9690     3.8660     1.0400 H     1 <1>   0.0800 
 57 H       10.9430     2.5900     0.3640 H     1 <1>   0.0800 
@<TRIPOS>BOND
  1   1   2  1   
  2   1   3  1   
  3   2   4  ar  
  4   2   5  ar  
  5   3  25  1   
  6   3  26  1   
  7   3  27  1   
  8   4   6  ar  
  9   4   7  1   
 10   5   8  ar  
 11   5  28  1   
 12   6   9  ar  
 13   6  29  1   
 14   7  10  1   
 15   7  30  1   
 16   7  31  1   
 17   8   9  ar  
 18   8  11  1   
 19   9  32  1   
 20  10  12  1   
 21  10  13  1   
 22  11  14  1   
 23  12  15  1   
 24  12  33  1   
 25  12  34  1   
 26  13  16  1   
 27  13  35  1   
 28  13  36  1   
 29  14  37  1   
 30  14  38  1   
 31  14  39  1   
 32  15  17  1   
 33  15  40  1   
 34  15  41  1   
 35  16  17  1   
 36  16  42  1   
 37  16  43  1   
 38  17  18  1   
 39  17  44  1   
 40  18  19  1   
 41  18  20  1   
 42  18  45  1   
 43  19  21  1   
 44  19  46  1   
 45  19  47  1   
 46  20  22  1   
 47  20  48  1   
 48  20  49  1   
 49  21  23  1   
 50  21  50  1   
 51  21  51  1   
 52  22  23  1   
 53  22  52  1   
 54  22  53  1   
 55  23  24  1   
 56  23  54  1   
 57  24  55  1   
 58  24  56  1   
 59  24  57  1   
@<TRIPOS>SUBSTRUCTURE
  1 ****  12 GROUP 4 **** **** 0

# MOE 2024.06 (io_trps.svl 2023.06)
