@<TRIPOS>MOLECULE
NONAME
39 40 1 0 0 
SMALL
USER_CHARGES


@<TRIPOS>ATOM
  1 F       -0.7720     0.3110     1.5690 F     1 <1>  -0.1900 
  2 C       -0.3230     1.3720     0.9520 C.ar  1 <1>   0.1900 
  3 C       -0.4940     1.4710    -0.4150 C.ar  1 <1>  -0.1500 
  4 C        0.3050     2.3560     1.6930 C.ar  1 <1>  -0.1500 
  5 C       -0.0120     2.5980    -1.0600 C.ar  1 <1>  -0.1500 
  6 C        0.7840     3.4800     1.0390 C.ar  1 <1>  -0.1500 
  7 C        0.6300     3.6010    -0.3430 C.ar  1 <1>   0.0830 
  8 O        1.0770     4.6620    -1.0640 O.3   1 <1>  -0.3630 
  9 C        2.0100     5.5930    -0.5640 C.3   1 <1>   0.1200 
 10 C        3.4010     4.9450    -0.5470 C.3   1 <1>  -0.1600 
 11 C        4.4920     5.9420    -0.1280 C.3   1 <1>  -0.1600 
 12 C        5.8650     5.2640    -0.1440 C.3   1 <1>   0.3430 
 13 N        6.9210     6.2010     0.3310 N.4   1 <1>  -0.9590 
 14 C        7.2000     7.3050    -0.6570 C.3   1 <1>   0.3430 
 15 C        8.1920     5.4530     0.6350 C.3   1 <1>   0.3430 
 16 C        8.3890     8.1790    -0.2130 C.3   1 <1>   0.1200 
 17 C        9.3360     6.4100     1.0240 C.3   1 <1>   0.1200 
 18 O        9.5100     7.3810     0.0340 O.3   1 <1>  -0.5600 
 19 H       -0.9920     0.6870    -0.9570 H     1 <1>   0.1500 
 20 H        0.4110     2.2390     2.7560 H     1 <1>   0.1500 
 21 H       -0.1300     2.7070    -2.1230 H     1 <1>   0.1500 
 22 H        1.2610     4.2440     1.6200 H     1 <1>   0.1500 
 23 H        1.6930     5.9330     0.4050 H     1 <1>   0.0800 
 24 H        2.0000     6.4320    -1.2380 H     1 <1>   0.0800 
 25 H        3.6120     4.5750    -1.5360 H     1 <1>   0.0800 
 26 H        3.3950     4.1110     0.1330 H     1 <1>   0.0800 
 27 H        4.2750     6.3010     0.8630 H     1 <1>   0.0800 
 28 H        4.4780     6.7710    -0.8140 H     1 <1>   0.0800 
 29 H        6.0940     4.9230    -1.1420 H     1 <1>   0.0800 
 30 H        5.8300     4.4020     0.5030 H     1 <1>   0.0800 
 31 H        6.6020     6.6350     1.2060 H     1 <1>   0.4500 
 32 H        6.3290     7.9290    -0.7730 H     1 <1>   0.0800 
 33 H        7.4330     6.8820    -1.6210 H     1 <1>   0.0800 
 34 H        8.5020     4.8930    -0.2320 H     1 <1>   0.0800 
 35 H        8.0260     4.7540     1.4390 H     1 <1>   0.0800 
 36 H        8.1550     8.7360     0.6780 H     1 <1>   0.0800 
 37 H        8.6490     8.8740    -0.9930 H     1 <1>   0.0800 
 38 H       10.2610     5.8660     1.1120 H     1 <1>   0.0800 
 39 H        9.1360     6.9000     1.9610 H     1 <1>   0.0800 
@<TRIPOS>BOND
  1   1   2  1   
  2   2   3  ar  
  3   2   4  ar  
  4   3   5  ar  
  5   3  19  1   
  6   4   6  ar  
  7   4  20  1   
  8   5   7  ar  
  9   5  21  1   
 10   6   7  ar  
 11   6  22  1   
 12   7   8  1   
 13   8   9  1   
 14   9  10  1   
 15   9  23  1   
 16   9  24  1   
 17  10  11  1   
 18  10  25  1   
 19  10  26  1   
 20  11  12  1   
 21  11  27  1   
 22  11  28  1   
 23  12  13  1   
 24  12  29  1   
 25  12  30  1   
 26  13  14  1   
 27  13  15  1   
 28  13  31  1   
 29  14  16  1   
 30  14  32  1   
 31  14  33  1   
 32  15  17  1   
 33  15  34  1   
 34  15  35  1   
 35  16  18  1   
 36  16  36  1   
 37  16  37  1   
 38  17  18  1   
 39  17  38  1   
 40  17  39  1   
@<TRIPOS>SUBSTRUCTURE
  1 ****  10 GROUP 4 **** **** 0

# MOE 2024.06 (io_trps.svl 2023.06)
