@<TRIPOS>MOLECULE
NONAME
27 26 1 0 0 
SMALL
USER_CHARGES


@<TRIPOS>ATOM
  1 O       -0.5040     0.1110     1.2530 O.co2 1 <1>  -0.9000 
  2 C       -0.5200     1.1340     0.5630 C.2   1 <1>   0.9060 
  3 O        0.4200     1.4750    -0.1600 O.co2 1 <1>  -0.9000 
  4 C       -1.7530     2.0060     0.6120 C.3   1 <1>  -0.2660 
  5 C       -2.9310     1.3860    -0.1650 C.3   1 <1>  -0.1600 
  6 C       -4.2820     2.0820     0.1020 C.3   1 <1>  -0.0190 
  7 C       -5.4240     1.2130    -0.4370 C.2   1 <1>   0.4480 
  8 C       -4.3030     3.5220    -0.4610 C.3   1 <1>  -0.1600 
  9 O       -5.9050     1.3580    -1.5210 O.2   1 <1>  -0.5700 
 10 C       -5.9420     0.1300     0.4850 C.3   1 <1>  -0.1790 
 11 C       -5.5810     4.2890    -0.0840 C.3   1 <1>  -0.1600 
 12 C       -5.5300     5.7270    -0.6070 C.3   1 <1>  -0.2400 
 13 H       -1.4900     2.9650     0.2080 H     1 <1>   0.0800 
 14 H       -2.0090     2.1270     1.6470 H     1 <1>   0.0800 
 15 H       -3.0030     0.3530     0.1320 H     1 <1>   0.0800 
 16 H       -2.7090     1.3970    -1.2180 H     1 <1>   0.0800 
 17 H       -4.4060     2.1500     1.1680 H     1 <1>   0.0800 
 18 H       -4.2100     3.4820    -1.5340 H     1 <1>   0.0800 
 19 H       -3.4580     4.0670    -0.0810 H     1 <1>   0.0800 
 20 H       -6.3420     0.5710     1.3780 H     1 <1>   0.0800 
 21 H       -5.1460    -0.5430     0.7450 H     1 <1>   0.0800 
 22 H       -6.7180    -0.4250    -0.0090 H     1 <1>   0.0800 
 23 H       -5.6910     4.3060     0.9860 H     1 <1>   0.0800 
 24 H       -6.4420     3.7970    -0.5030 H     1 <1>   0.0800 
 25 H       -4.6900     6.2510    -0.1870 H     1 <1>   0.0800 
 26 H       -6.4320     6.2480    -0.3380 H     1 <1>   0.0800 
 27 H       -5.4400     5.7300    -1.6800 H     1 <1>   0.0800 
@<TRIPOS>BOND
  1   1   2  ar  
  2   2   3  ar  
  3   2   4  1   
  4   4   5  1   
  5   4  13  1   
  6   4  14  1   
  7   5   6  1   
  8   5  15  1   
  9   5  16  1   
 10   6   7  1   
 11   6   8  1   
 12   6  17  1   
 13   7   9  2   
 14   7  10  1   
 15   8  11  1   
 16   8  18  1   
 17   8  19  1   
 18  10  20  1   
 19  10  21  1   
 20  10  22  1   
 21  11  12  1   
 22  11  23  1   
 23  11  24  1   
 24  12  25  1   
 25  12  26  1   
 26  12  27  1   
@<TRIPOS>SUBSTRUCTURE
  1 ****   6 GROUP 4 **** **** 0

# MOE 2024.06 (io_trps.svl 2023.06)
