@<TRIPOS>MOLECULE
NONAME
47 48 1 0 0 
SMALL
USER_CHARGES


@<TRIPOS>ATOM
  1 O       -2.0810    -1.6570    -2.0420 O.3   1 <1>  -0.8500 
  2 C       -2.4900    -0.9940    -1.0920 C.2   1 <1>  -0.2880 
  3 C       -2.4340    -1.3940     0.2460 C.2   1 <1>  -0.1240 
  4 C       -3.0540     0.3660    -1.4640 C.3   1 <1>  -0.0220 
  5 C       -2.8660    -0.5730     1.2910 C.2   1 <1>   0.4950 
  6 C       -1.8390    -2.7750     0.5460 C.3   1 <1>   0.0580 
  7 C       -4.0640     0.9050    -0.4290 C.3   1 <1>   0.0000 
  8 O       -2.7700    -0.8350     2.4970 O.2   1 <1>  -0.5700 
  9 C       -3.4620     0.7920     0.9880 C.3   1 <1>  -0.0990 
 10 C       -2.7690    -3.7150     1.3530 C.3   1 <1>   0.0420 
 11 C       -0.4620    -2.6180     1.2150 C.3   1 <1>  -0.2400 
 12 C       -4.3840     2.3780    -0.7330 C.3   1 <1>  -0.2400 
 13 C       -5.3750     0.1030    -0.5160 C.3   1 <1>  -0.2400 
 14 C       -2.2550    -5.1380     1.2970 C.2   1 <1>   0.4480 
 15 C       -4.2350    -3.7490     0.9340 C.2   1 <1>   0.4480 
 16 O       -1.7980    -5.6870     2.2560 O.2   1 <1>  -0.5700 
 17 C       -2.3820    -5.8750    -0.0280 C.3   1 <1>  -0.0990 
 18 O       -5.0190    -2.9190     1.2890 O.2   1 <1>  -0.5700 
 19 C       -4.7630    -4.9750     0.1950 C.3   1 <1>  -0.0990 
 20 C       -3.7470    -5.6670    -0.7370 C.3   1 <1>   0.0000 
 21 C       -3.5830    -4.8260    -2.0140 C.3   1 <1>  -0.2400 
 22 C       -4.3150    -7.0320    -1.1640 C.3   1 <1>  -0.2400 
 23 H       -3.5250     0.2890    -2.4280 H     1 <1>   0.0800 
 24 H       -2.2240     1.0400    -1.5640 H     1 <1>   0.0800 
 25 H       -1.6430    -3.2520    -0.3930 H     1 <1>   0.0800 
 26 H       -2.6730     1.5090     1.1040 H     1 <1>   0.0800 
 27 H       -4.2180     1.0080     1.7200 H     1 <1>   0.0800 
 28 H       -2.7530    -3.3990     2.3790 H     1 <1>   0.0800 
 29 H       -0.5580    -2.1830     2.1930 H     1 <1>   0.0800 
 30 H        0.1490    -1.9710     0.6100 H     1 <1>   0.0800 
 31 H        0.0330    -3.5670     1.3040 H     1 <1>   0.0800 
 32 H       -3.4900     2.9740    -0.6850 H     1 <1>   0.0800 
 33 H       -5.0930     2.7640    -0.0230 H     1 <1>   0.0800 
 34 H       -4.8000     2.4720    -1.7200 H     1 <1>   0.0800 
 35 H       -5.1840    -0.9450    -0.3700 H     1 <1>   0.0800 
 36 H       -5.8220     0.2180    -1.4860 H     1 <1>   0.0800 
 37 H       -6.0770     0.4270     0.2310 H     1 <1>   0.0800 
 38 H       -2.2250    -6.9190     0.1760 H     1 <1>   0.0800 
 39 H       -1.5750    -5.5670    -0.6690 H     1 <1>   0.0800 
 40 H       -5.6340    -4.6840    -0.3640 H     1 <1>   0.0800 
 41 H       -5.0880    -5.6710     0.9460 H     1 <1>   0.0800 
 42 H       -3.2900    -3.8180    -1.7850 H     1 <1>   0.0800 
 43 H       -4.5080    -4.7670    -2.5580 H     1 <1>   0.0800 
 44 H       -2.8380    -5.2460    -2.6650 H     1 <1>   0.0800 
 45 H       -4.4610    -7.6700    -0.3100 H     1 <1>   0.0800 
 46 H       -3.6400    -7.5230    -1.8440 H     1 <1>   0.0800 
 47 H       -5.2620    -6.9100    -1.6590 H     1 <1>   0.0800 
@<TRIPOS>BOND
  1   1   2  1   
  2   2   3  2   
  3   2   4  1   
  4   3   5  1   
  5   3   6  1   
  6   4   7  1   
  7   4  23  1   
  8   4  24  1   
  9   5   8  2   
 10   5   9  1   
 11   6  10  1   
 12   6  11  1   
 13   6  25  1   
 14   7   9  1   
 15   7  12  1   
 16   7  13  1   
 17   9  26  1   
 18   9  27  1   
 19  10  14  1   
 20  10  15  1   
 21  10  28  1   
 22  11  29  1   
 23  11  30  1   
 24  11  31  1   
 25  12  32  1   
 26  12  33  1   
 27  12  34  1   
 28  13  35  1   
 29  13  36  1   
 30  13  37  1   
 31  14  16  2   
 32  14  17  1   
 33  15  18  2   
 34  15  19  1   
 35  17  20  1   
 36  17  38  1   
 37  17  39  1   
 38  19  20  1   
 39  19  40  1   
 40  19  41  1   
 41  20  21  1   
 42  20  22  1   
 43  21  42  1   
 44  21  43  1   
 45  21  44  1   
 46  22  45  1   
 47  22  46  1   
 48  22  47  1   
@<TRIPOS>SUBSTRUCTURE
  1 ****   3 GROUP 4 **** **** 0

# MOE 2024.06 (io_trps.svl 2023.06)
