@<TRIPOS>MOLECULE
NONAME
40 41 1 0 0 
SMALL
USER_CHARGES


@<TRIPOS>ATOM
  1 O       -0.7340     1.4490    -1.0690 O.3   1 <1>  -0.3630 
  2 C        0.5840     1.5340    -0.7620 C.ar  1 <1>   0.0830 
  3 C       -1.5860     0.9530    -0.0590 C.3   1 <1>   0.1200 
  4 C        1.0810     2.4540     0.1660 C.ar  1 <1>   0.0830 
  5 C        1.4470     0.6780    -1.4240 C.ar  1 <1>  -0.1500 
  6 C       -2.9830     0.7990    -0.6470 C.3   1 <1>   0.1200 
  7 O        0.2060     3.3090     0.7720 O.3   1 <1>  -0.3630 
  8 C        2.4490     2.4730     0.4290 C.ar  1 <1>  -0.1500 
  9 C        2.8040     0.7100    -1.1560 C.ar  1 <1>  -0.1500 
 10 O       -3.8260     0.2400     0.3380 O.3   1 <1>  -0.3630 
 11 C        0.6540     4.3710     1.5840 C.3   1 <1>   0.0400 
 12 C        3.3090     1.6040    -0.2260 C.ar  1 <1>  -0.1430 
 13 C       -5.1330    -0.0370     0.0830 C.ar  1 <1>   0.0830 
 14 C        4.7980     1.6380     0.0690 C.3   1 <1>  -0.0970 
 15 C       -5.8770    -0.6290     1.1010 C.ar  1 <1>  -0.1430 
 16 C       -5.7420     0.2460    -1.1380 C.ar  1 <1>  -0.1500 
 17 C       -7.2130    -0.9320     0.8870 C.ar  1 <1>  -0.1500 
 18 C       -5.2360    -0.9470     2.4440 C.3   1 <1>  -0.0970 
 19 C       -7.0750    -0.0600    -1.3400 C.ar  1 <1>  -0.1500 
 20 C       -7.8110    -0.6500    -0.3280 C.ar  1 <1>  -0.1500 
 21 H       -1.6010     1.6500     0.7590 H     1 <1>   0.0800 
 22 H       -1.2040     0.0010     0.2660 H     1 <1>   0.0800 
 23 H        1.0520    -0.0120    -2.1460 H     1 <1>   0.1500 
 24 H       -2.9600     0.1310    -1.4890 H     1 <1>   0.0800 
 25 H       -3.3770     1.7600    -0.9260 H     1 <1>   0.0800 
 26 H        2.8640     3.1590     1.1400 H     1 <1>   0.1500 
 27 H        3.4630     0.0380    -1.6770 H     1 <1>   0.1500 
 28 H       -0.2040     4.9430     1.8880 H     1 <1>   0.0800 
 29 H        1.3220     4.9900     1.0110 H     1 <1>   0.0800 
 30 H        1.1480     3.9650     2.4490 H     1 <1>   0.0800 
 31 H        4.9710     1.8770     1.1030 H     1 <1>   0.0800 
 32 H        5.2730     2.3820    -0.5450 H     1 <1>   0.0800 
 33 H        5.2460     0.6820    -0.1360 H     1 <1>   0.0800 
 34 H       -5.1980     0.7040    -1.9420 H     1 <1>   0.1500 
 35 H       -7.7960    -1.3900     1.6660 H     1 <1>   0.1500 
 36 H       -4.8610    -0.0430     2.8900 H     1 <1>   0.0800 
 37 H       -4.4150    -1.6270     2.3020 H     1 <1>   0.0800 
 38 H       -5.9430    -1.3960     3.1170 H     1 <1>   0.0800 
 39 H       -7.5420     0.1600    -2.2850 H     1 <1>   0.1500 
 40 H       -8.8480    -0.8890    -0.4850 H     1 <1>   0.1500 
@<TRIPOS>BOND
  1   1   2  1   
  2   1   3  1   
  3   2   4  ar  
  4   2   5  ar  
  5   3   6  1   
  6   3  21  1   
  7   3  22  1   
  8   4   7  1   
  9   4   8  ar  
 10   5   9  ar  
 11   5  23  1   
 12   6  10  1   
 13   6  24  1   
 14   6  25  1   
 15   7  11  1   
 16   8  12  ar  
 17   8  26  1   
 18   9  12  ar  
 19   9  27  1   
 20  10  13  1   
 21  11  28  1   
 22  11  29  1   
 23  11  30  1   
 24  12  14  1   
 25  13  15  ar  
 26  13  16  ar  
 27  14  31  1   
 28  14  32  1   
 29  14  33  1   
 30  15  17  ar  
 31  15  18  1   
 32  16  19  ar  
 33  16  34  1   
 34  17  20  ar  
 35  17  35  1   
 36  18  36  1   
 37  18  37  1   
 38  18  38  1   
 39  19  20  ar  
 40  19  39  1   
 41  20  40  1   
@<TRIPOS>SUBSTRUCTURE
  1 ****   3 GROUP 4 **** **** 0

# MOE 2024.06 (io_trps.svl 2023.06)
