@<TRIPOS>MOLECULE
NONAME
47 49 1 0 0 
SMALL
USER_CHARGES


@<TRIPOS>ATOM
  1 F       -0.6160     0.1380     1.0050 F     1 <1>  -0.1900 
  2 C       -1.7060    -0.5120     0.7010 C.ar  1 <1>   0.1900 
  3 C       -2.2590    -1.3620     1.6390 C.ar  1 <1>  -0.1500 
  4 C       -2.2680    -0.3270    -0.5470 C.ar  1 <1>  -0.1500 
  5 C       -3.4180    -2.0470     1.3140 C.ar  1 <1>  -0.1500 
  6 C       -3.4270    -1.0150    -0.8640 C.ar  1 <1>  -0.1500 
  7 C       -4.0090    -1.8720     0.0660 C.ar  1 <1>  -0.1430 
  8 C       -5.2870    -2.6150    -0.2780 C.3   1 <1>   0.4870 
  9 N       -6.4230    -1.6590    -0.2330 N.4   1 <1>  -0.9590 
 10 C       -6.6240    -1.0830     1.1500 C.3   1 <1>   0.3430 
 11 C       -7.7010    -2.2770    -0.7430 C.3   1 <1>   0.3430 
 12 C       -7.8020    -0.0920     1.2090 C.3   1 <1>   0.2090 
 13 C       -8.8870    -1.2930    -0.7000 C.3   1 <1>   0.2090 
 14 N       -9.0490    -0.7060     0.6620 N.pl3 1 <1>  -0.8380 
 15 C      -10.1950     0.0880     0.8140 C.ar  1 <1>   0.1000 
 16 C      -10.3940     1.3150     0.1530 C.ar  1 <1>   0.0830 
 17 C      -11.1830    -0.3770     1.6700 C.ar  1 <1>  -0.1500 
 18 O       -9.4100     1.7640    -0.6890 O.3   1 <1>  -0.3630 
 19 C      -11.5680     2.0290     0.3700 C.ar  1 <1>  -0.1500 
 20 C      -12.3460     0.3390     1.8800 C.ar  1 <1>  -0.1500 
 21 C       -9.5300     2.9970    -1.3620 C.3   1 <1>   0.1200 
 22 C      -12.5390     1.5430     1.2290 C.ar  1 <1>  -0.1500 
 23 C       -8.2690     3.2050    -2.1950 C.3   1 <1>  -0.2400 
 24 H       -1.7840    -1.4820     2.5970 H     1 <1>   0.1500 
 25 H       -1.7990     0.3410    -1.2500 H     1 <1>   0.1500 
 26 H       -3.8450    -2.7150     2.0430 H     1 <1>   0.1500 
 27 H       -3.8580    -0.8760    -1.8410 H     1 <1>   0.1500 
 28 H       -5.4470    -3.4180     0.4230 H     1 <1>   0.0800 
 29 H       -5.1960    -3.0380    -1.2660 H     1 <1>   0.0800 
 30 H       -6.1870    -0.8670    -0.8430 H     1 <1>   0.4500 
 31 H       -5.7280    -0.5770     1.4720 H     1 <1>   0.0800 
 32 H       -6.8230    -1.8790     1.8480 H     1 <1>   0.0800 
 33 H       -7.9570    -3.1300    -0.1360 H     1 <1>   0.0800 
 34 H       -7.5680    -2.6170    -1.7560 H     1 <1>   0.0800 
 35 H       -7.5530     0.7960     0.6550 H     1 <1>   0.0800 
 36 H       -7.9740     0.1990     2.2320 H     1 <1>   0.0800 
 37 H       -9.7930    -1.8120    -0.9660 H     1 <1>   0.0800 
 38 H       -8.7340    -0.5120    -1.4230 H     1 <1>   0.0800 
 39 H      -11.0330    -1.3130     2.1760 H     1 <1>   0.1500 
 40 H      -11.7570     2.9670    -0.1160 H     1 <1>   0.1500 
 41 H      -13.1000    -0.0400     2.5480 H     1 <1>   0.1500 
 42 H       -9.6350     3.7780    -0.6290 H     1 <1>   0.0800 
 43 H      -10.4010     2.9580    -1.9940 H     1 <1>   0.0800 
 44 H      -13.4450     2.1020     1.3910 H     1 <1>   0.1500 
 45 H       -7.4040     3.2320    -1.5570 H     1 <1>   0.0800 
 46 H       -8.3350     4.1400    -2.7210 H     1 <1>   0.0800 
 47 H       -8.1660     2.4150    -2.9160 H     1 <1>   0.0800 
@<TRIPOS>BOND
  1   1   2  1   
  2   2   3  ar  
  3   2   4  ar  
  4   3   5  ar  
  5   3  24  1   
  6   4   6  ar  
  7   4  25  1   
  8   5   7  ar  
  9   5  26  1   
 10   6   7  ar  
 11   6  27  1   
 12   7   8  1   
 13   8   9  1   
 14   8  28  1   
 15   8  29  1   
 16   9  10  1   
 17   9  11  1   
 18   9  30  1   
 19  10  12  1   
 20  10  31  1   
 21  10  32  1   
 22  11  13  1   
 23  11  33  1   
 24  11  34  1   
 25  12  14  1   
 26  12  35  1   
 27  12  36  1   
 28  13  14  1   
 29  13  37  1   
 30  13  38  1   
 31  14  15  1   
 32  15  16  ar  
 33  15  17  ar  
 34  16  18  1   
 35  16  19  ar  
 36  17  20  ar  
 37  17  39  1   
 38  18  21  1   
 39  19  22  ar  
 40  19  40  1   
 41  20  22  ar  
 42  20  41  1   
 43  21  23  1   
 44  21  42  1   
 45  21  43  1   
 46  22  44  1   
 47  23  45  1   
 48  23  46  1   
 49  23  47  1   
@<TRIPOS>SUBSTRUCTURE
  1 ****  12 GROUP 4 **** **** 0

# MOE 2024.06 (io_trps.svl 2023.06)
