@<TRIPOS>MOLECULE
NONAME
48 49 1 0 0 
SMALL
USER_CHARGES


@<TRIPOS>ATOM
  1 O       -1.8010    -1.0880     1.7820 O.2   1 <1>  -0.5700 
  2 C       -2.0590    -1.0990     0.6050 C.2   1 <1>   0.6590 
  3 O       -1.6540    -2.0810    -0.1910 O.3   1 <1>  -0.4300 
  4 C       -2.8700     0.0010    -0.0770 C.3   1 <1>  -0.0190 
  5 C       -0.9040    -3.1650     0.3050 C.3   1 <1>   0.1200 
  6 C       -3.0160     1.2690     0.7920 C.3   1 <1>  -0.1600 
  7 C       -4.2600    -0.5180    -0.4950 C.3   1 <1>  -0.1600 
  8 C       -0.6190    -4.1120    -0.8560 C.3   1 <1>  -0.2400 
  9 C       -3.8700     2.3360     0.1050 C.3   1 <1>   0.1400 
 10 C       -5.0900     0.5760    -1.1710 C.3   1 <1>   0.1400 
 11 N       -5.1890     1.7480    -0.2590 N.am  1 <1>  -0.6600 
 12 C       -6.3570     2.2540     0.2600 C.2   1 <1>   0.5690 
 13 O       -6.3650     3.2490     0.9470 O.2   1 <1>  -0.5700 
 14 C       -7.6820     1.5600    -0.0210 C.3   1 <1>  -0.0990 
 15 C       -8.8740     2.1470     0.7480 C.3   1 <1>  -0.0170 
 16 C      -10.1400     1.3680     0.4270 C.ar  1 <1>  -0.1440 
 17 C      -10.5040     0.2730     1.1950 C.ar  1 <1>  -0.1500 
 18 C      -10.9400     1.7430    -0.6420 C.ar  1 <1>  -0.1500 
 19 C      -11.6520    -0.4420     0.9020 C.ar  1 <1>  -0.1500 
 20 C      -12.0880     1.0300    -0.9380 C.ar  1 <1>  -0.1500 
 21 C      -12.4540    -0.0640    -0.1720 C.ar  1 <1>   0.0820 
 22 O      -13.5940    -0.7080    -0.5280 O.3   1 <1>  -0.3620 
 23 C      -14.0710    -1.8140     0.2040 C.3   1 <1>   0.0400 
 24 H       -2.3320     0.2740    -0.9670 H     1 <1>   0.0800 
 25 H       -1.4790    -3.6550     1.0730 H     1 <1>   0.0800 
 26 H        0.0100    -2.7820     0.7270 H     1 <1>   0.0800 
 27 H       -2.0430     1.6760     1.0060 H     1 <1>   0.0800 
 28 H       -3.4740     1.0170     1.7330 H     1 <1>   0.0800 
 29 H       -4.7900    -0.8760     0.3710 H     1 <1>   0.0800 
 30 H       -4.1480    -1.3440    -1.1750 H     1 <1>   0.0800 
 31 H       -1.5410    -4.4770    -1.2730 H     1 <1>   0.0800 
 32 H       -0.0470    -4.9520    -0.5050 H     1 <1>   0.0800 
 33 H       -0.0530    -3.6070    -1.6180 H     1 <1>   0.0800 
 34 H       -3.3820     2.6870    -0.7880 H     1 <1>   0.0800 
 35 H       -3.9940     3.1770     0.7670 H     1 <1>   0.0800 
 36 H       -6.0590     0.1880    -1.4260 H     1 <1>   0.0800 
 37 H       -4.6110     0.8850    -2.0840 H     1 <1>   0.0800 
 38 H       -7.5860     0.5240     0.2450 H     1 <1>   0.0800 
 39 H       -7.8840     1.6250    -1.0740 H     1 <1>   0.0800 
 40 H       -9.0050     3.1820     0.4820 H     1 <1>   0.0800 
 41 H       -8.6790     2.1060     1.8060 H     1 <1>   0.0800 
 42 H       -9.8910    -0.0270     2.0270 H     1 <1>   0.1500 
 43 H      -10.6720     2.5910    -1.2470 H     1 <1>   0.1500 
 44 H      -11.9050    -1.2840     1.5170 H     1 <1>   0.1500 
 45 H      -12.7090     1.3190    -1.7650 H     1 <1>   0.1500 
 46 H      -14.9850    -2.1470    -0.2530 H     1 <1>   0.0800 
 47 H      -14.2600    -1.5060     1.2170 H     1 <1>   0.0800 
 48 H      -13.3370    -2.5990     0.1680 H     1 <1>   0.0800 
@<TRIPOS>BOND
  1   1   2  2   
  2   2   3  1   
  3   2   4  1   
  4   3   5  1   
  5   4   6  1   
  6   4   7  1   
  7   4  24  1   
  8   5   8  1   
  9   5  25  1   
 10   5  26  1   
 11   6   9  1   
 12   6  27  1   
 13   6  28  1   
 14   7  10  1   
 15   7  29  1   
 16   7  30  1   
 17   8  31  1   
 18   8  32  1   
 19   8  33  1   
 20   9  11  1   
 21   9  34  1   
 22   9  35  1   
 23  10  11  1   
 24  10  36  1   
 25  10  37  1   
 26  11  12  am  
 27  12  13  2   
 28  12  14  1   
 29  14  15  1   
 30  14  38  1   
 31  14  39  1   
 32  15  16  1   
 33  15  40  1   
 34  15  41  1   
 35  16  17  ar  
 36  16  18  ar  
 37  17  19  ar  
 38  17  42  1   
 39  18  20  ar  
 40  18  43  1   
 41  19  21  ar  
 42  19  44  1   
 43  20  21  ar  
 44  20  45  1   
 45  21  22  1   
 46  22  23  1   
 47  23  46  1   
 48  23  47  1   
 49  23  48  1   
@<TRIPOS>SUBSTRUCTURE
  1 ****  14 GROUP 4 **** **** 0

# MOE 2024.06 (io_trps.svl 2023.06)
