@<TRIPOS>MOLECULE
NONAME
41 42 1 0 0 
SMALL
USER_CHARGES


@<TRIPOS>ATOM
  1 CL      -0.2640    -0.7980     2.0720 Cl    1 <1>  -0.1770 
  2 C       -1.5330    -1.4140     1.0290 C.ar  1 <1>   0.1770 
  3 C       -1.3070    -2.5110     0.1860 C.ar  1 <1>   0.1000 
  4 C       -2.7580    -0.7740     1.0760 C.ar  1 <1>  -0.1500 
  5 N       -0.0990    -3.2090     0.0820 N.pl3 1 <1>  -0.8380 
  6 C       -2.3660    -2.9350    -0.6070 C.ar  1 <1>  -0.1500 
  7 C       -3.7950    -1.2180     0.2740 C.ar  1 <1>  -0.1500 
  8 C        1.0550    -2.4870    -0.5300 C.3   1 <1>   0.2090 
  9 C        0.3170    -4.0300     1.2590 C.3   1 <1>   0.2090 
 10 C       -3.5960    -2.3000    -0.5680 C.ar  1 <1>  -0.1500 
 11 C        2.2060    -3.4600    -0.8470 C.3   1 <1>   0.1960 
 12 C        1.4990    -4.9550     0.9090 C.3   1 <1>   0.1960 
 13 N        2.6490    -4.2150     0.3460 N.am  1 <1>  -0.8490 
 14 S        3.9610    -5.2350     0.0270 S.o2  1 <1>   1.3330 
 15 O        3.8770    -5.6440    -1.3580 O.2   1 <1>  -0.6500 
 16 O        4.0120    -6.2350     1.0700 O.2   1 <1>  -0.6500 
 17 C        5.3650    -4.1360     0.2390 C.3   1 <1>  -0.0550 
 18 C        6.7240    -4.8170     0.0090 C.3   1 <1>  -0.1600 
 19 C        7.8810    -3.8290     0.2020 C.3   1 <1>  -0.1600 
 20 C        9.2300    -4.5150    -0.0280 C.3   1 <1>  -0.2400 
 21 H       -2.8960     0.0640     1.7340 H     1 <1>   0.1500 
 22 H       -2.2120    -3.7750    -1.2600 H     1 <1>   0.1500 
 23 H       -4.7520    -0.7260     0.3040 H     1 <1>   0.1500 
 24 H        1.4120    -1.7290     0.1440 H     1 <1>   0.0800 
 25 H        0.7310    -2.0060    -1.4360 H     1 <1>   0.0800 
 26 H       -0.5170    -4.6260     1.5890 H     1 <1>   0.0800 
 27 H        0.6080    -3.3860     2.0690 H     1 <1>   0.0800 
 28 H       -4.3990    -2.6490    -1.1930 H     1 <1>   0.1500 
 29 H        3.0330    -2.9000    -1.2470 H     1 <1>   0.0800 
 30 H        1.8710    -4.1440    -1.6100 H     1 <1>   0.0800 
 31 H        1.1660    -5.6990     0.2050 H     1 <1>   0.0800 
 32 H        1.8020    -5.4640     1.8080 H     1 <1>   0.0800 
 33 H        5.3410    -3.7380     1.2350 H     1 <1>   0.0800 
 34 H        5.2710    -3.3150    -0.4440 H     1 <1>   0.0800 
 35 H        6.7530    -5.2190    -0.9900 H     1 <1>   0.0800 
 36 H        6.8290    -5.6370     0.6990 H     1 <1>   0.0800 
 37 H        7.8550    -3.4300     1.2020 H     1 <1>   0.0800 
 38 H        7.7800    -3.0090    -0.4890 H     1 <1>   0.0800 
 39 H        9.3640    -5.3260     0.6670 H     1 <1>   0.0800 
 40 H       10.0310    -3.8100     0.1110 H     1 <1>   0.0800 
 41 H        9.2890    -4.9050    -1.0300 H     1 <1>   0.0800 
@<TRIPOS>BOND
  1   1   2  1   
  2   2   3  ar  
  3   2   4  ar  
  4   3   5  1   
  5   3   6  ar  
  6   4   7  ar  
  7   4  21  1   
  8   5   8  1   
  9   5   9  1   
 10   6  10  ar  
 11   6  22  1   
 12   7  10  ar  
 13   7  23  1   
 14   8  11  1   
 15   8  24  1   
 16   8  25  1   
 17   9  12  1   
 18   9  26  1   
 19   9  27  1   
 20  10  28  1   
 21  11  13  1   
 22  11  29  1   
 23  11  30  1   
 24  12  13  1   
 25  12  31  1   
 26  12  32  1   
 27  13  14  am  
 28  14  15  2   
 29  14  16  2   
 30  14  17  1   
 31  17  18  1   
 32  17  33  1   
 33  17  34  1   
 34  18  19  1   
 35  18  35  1   
 36  18  36  1   
 37  19  20  1   
 38  19  37  1   
 39  19  38  1   
 40  20  39  1   
 41  20  40  1   
 42  20  41  1   
@<TRIPOS>SUBSTRUCTURE
  1 ****  11 GROUP 4 **** **** 0

# MOE 2024.06 (io_trps.svl 2023.06)
