@<TRIPOS>MOLECULE
NONAME
38 40 1 0 0 
SMALL
USER_CHARGES


@<TRIPOS>ATOM
  1 O       -3.3460     0.1660     2.0540 O.3   1 <1>  -0.3630 
  2 C       -3.3530     0.6850     0.8000 C.ar  1 <1>   0.0830 
  3 C       -4.3650    -0.7110     2.4830 C.3   1 <1>   0.0400 
  4 C       -4.2970     0.3510    -0.1670 C.ar  1 <1>  -0.1500 
  5 C       -2.3600     1.6000     0.4910 C.ar  1 <1>  -0.1500 
  6 C       -4.2540     0.9330    -1.4240 C.ar  1 <1>  -0.1430 
  7 C       -2.3100     2.1820    -0.7630 C.ar  1 <1>  -0.1500 
  8 C       -3.2560     1.8520    -1.7180 C.ar  1 <1>  -0.1500 
  9 C       -5.3060     0.5630    -2.4570 C.3   1 <1>   0.3530 
 10 N       -6.5770     1.2060    -2.0690 N.pl3 1 <1>  -0.8690 
 11 C       -7.4710     0.4380    -1.3350 C.ar  1 <1>   0.1000 
 12 C       -7.7560     0.7800    -0.0170 C.ar  1 <1>  -0.1500 
 13 C       -8.0820    -0.6830    -1.8920 C.ar  1 <1>  -0.1500 
 14 C       -8.6200    -0.0040     0.7210 C.ar  1 <1>  -0.1430 
 15 C       -8.9490    -1.4650    -1.1470 C.ar  1 <1>  -0.1500 
 16 C       -9.2080    -1.1130     0.1660 C.ar  1 <1>  -0.1430 
 17 C       -9.0540     0.1870     2.1520 C.3   1 <1>  -0.0170 
 18 C      -10.1090    -1.8100     1.1540 C.3   1 <1>  -0.0170 
 19 C      -10.2280    -0.7950     2.3050 C.3   1 <1>  -0.1600 
 20 H       -4.1800    -0.9600     3.5120 H     1 <1>   0.0800 
 21 H       -4.3360    -1.6010     1.8800 H     1 <1>   0.0800 
 22 H       -5.3160    -0.2150     2.3900 H     1 <1>   0.0800 
 23 H       -5.0770    -0.3560     0.0440 H     1 <1>   0.1500 
 24 H       -1.6310     1.8520     1.2400 H     1 <1>   0.1500 
 25 H       -1.5360     2.8930    -0.9940 H     1 <1>   0.1500 
 26 H       -3.2120     2.3150    -2.6890 H     1 <1>   0.1500 
 27 H       -5.4210    -0.5070    -2.4950 H     1 <1>   0.0800 
 28 H       -5.0170     0.9090    -3.4340 H     1 <1>   0.0800 
 29 H       -6.3510     2.0880    -1.5980 H     1 <1>   0.4000 
 30 H       -7.2980     1.6460     0.4220 H     1 <1>   0.1500 
 31 H       -7.8760    -0.9330    -2.9150 H     1 <1>   0.1500 
 32 H       -9.4160    -2.3300    -1.5820 H     1 <1>   0.1500 
 33 H       -9.3600     1.2020     2.3400 H     1 <1>   0.0800 
 34 H       -8.2460    -0.0800     2.8100 H     1 <1>   0.0800 
 35 H       -9.6380    -2.7160     1.4910 H     1 <1>   0.0800 
 36 H      -11.0690    -2.0330     0.7230 H     1 <1>   0.0800 
 37 H      -11.1490    -0.2510     2.1900 H     1 <1>   0.0800 
 38 H      -10.2250    -1.2780     3.2660 H     1 <1>   0.0800 
@<TRIPOS>BOND
  1   1   2  1   
  2   1   3  1   
  3   2   4  ar  
  4   2   5  ar  
  5   3  20  1   
  6   3  21  1   
  7   3  22  1   
  8   4   6  ar  
  9   4  23  1   
 10   5   7  ar  
 11   5  24  1   
 12   6   8  ar  
 13   6   9  1   
 14   7   8  ar  
 15   7  25  1   
 16   8  26  1   
 17   9  10  1   
 18   9  27  1   
 19   9  28  1   
 20  10  11  1   
 21  10  29  1   
 22  11  12  ar  
 23  11  13  ar  
 24  12  14  ar  
 25  12  30  1   
 26  13  15  ar  
 27  13  31  1   
 28  14  16  ar  
 29  14  17  1   
 30  15  16  ar  
 31  15  32  1   
 32  16  18  1   
 33  17  19  1   
 34  17  33  1   
 35  17  34  1   
 36  18  19  1   
 37  18  35  1   
 38  18  36  1   
 39  19  37  1   
 40  19  38  1   
@<TRIPOS>SUBSTRUCTURE
  1 ****  12 GROUP 4 **** **** 0

# MOE 2024.06 (io_trps.svl 2023.06)
