@<TRIPOS>MOLECULE
NONAME
45 46 1 0 0 
SMALL
USER_CHARGES


@<TRIPOS>ATOM
  1 O       -1.5300     0.2480    -0.6560 O.3   1 <1>  -0.5600 
  2 C       -1.4070    -1.1480    -0.7070 C.3   1 <1>   0.1200 
  3 C       -2.0090     0.7380     0.5670 C.3   1 <1>   0.1200 
  4 C       -2.7480    -1.8460    -0.3760 C.3   1 <1>   0.3430 
  5 C       -3.4090     0.1640     0.8870 C.3   1 <1>   0.3430 
  6 N       -3.8440    -0.8450    -0.1410 N.4   1 <1>  -0.9590 
  7 C       -5.1510    -1.4930     0.1470 C.3   1 <1>   0.3430 
  8 C       -6.2950    -0.4840     0.0160 C.3   1 <1>  -0.1600 
  9 C       -7.6470    -1.1830     0.2140 C.3   1 <1>  -0.1600 
 10 C       -8.8200    -0.2100     0.0780 C.3   1 <1>   0.1200 
 11 O      -10.0010    -0.9430     0.2870 O.3   1 <1>  -0.3630 
 12 C      -11.2200    -0.3490     0.2320 C.ar  1 <1>   0.0820 
 13 C      -11.4180     1.0020    -0.0350 C.ar  1 <1>  -0.1500 
 14 C      -12.3170    -1.1610     0.4590 C.ar  1 <1>  -0.1500 
 15 C      -12.6980     1.5350    -0.0740 C.ar  1 <1>  -0.1440 
 16 C      -13.5940    -0.6360     0.4220 C.ar  1 <1>  -0.1500 
 17 C      -13.7950     0.7100     0.1560 C.ar  1 <1>  -0.1440 
 18 C      -12.8740     3.0190    -0.3690 C.3   1 <1>  -0.0970 
 19 C      -15.2180     1.2500     0.1240 C.3   1 <1>  -0.0970 
 20 H       -0.6380    -1.4520    -0.0180 H     1 <1>   0.0800 
 21 H       -1.0880    -1.4110    -1.7010 H     1 <1>   0.0800 
 22 H       -2.0540     1.8110     0.4970 H     1 <1>   0.0800 
 23 H       -1.3040     0.4810     1.3400 H     1 <1>   0.0800 
 24 H       -2.6150    -2.4570     0.5010 H     1 <1>   0.0800 
 25 H       -3.0110    -2.5010    -1.1900 H     1 <1>   0.0800 
 26 H       -4.1150     0.9770     0.9260 H     1 <1>   0.0800 
 27 H       -3.3850    -0.2900     1.8640 H     1 <1>   0.0800 
 28 H       -3.9090    -0.3170    -1.0250 H     1 <1>   0.4500 
 29 H       -5.1460    -1.9150     1.1400 H     1 <1>   0.0800 
 30 H       -5.3180    -2.2940    -0.5560 H     1 <1>   0.0800 
 31 H       -6.2730    -0.0380    -0.9630 H     1 <1>   0.0800 
 32 H       -6.1960     0.2900     0.7570 H     1 <1>   0.0800 
 33 H       -7.6870    -1.6290     1.1940 H     1 <1>   0.0800 
 34 H       -7.7660    -1.9610    -0.5220 H     1 <1>   0.0800 
 35 H       -8.8580     0.2180    -0.9090 H     1 <1>   0.0800 
 36 H       -8.7690     0.5660     0.8230 H     1 <1>   0.0800 
 37 H      -10.5850     1.6510    -0.2150 H     1 <1>   0.1500 
 38 H      -12.1630    -2.2050     0.6650 H     1 <1>   0.1500 
 39 H      -14.4320    -1.2860     0.6010 H     1 <1>   0.1500 
 40 H      -11.9250     3.5000    -0.5200 H     1 <1>   0.0800 
 41 H      -13.3690     3.5010     0.4550 H     1 <1>   0.0800 
 42 H      -13.4630     3.1490    -1.2580 H     1 <1>   0.0800 
 43 H      -15.3390     2.0150     0.8690 H     1 <1>   0.0800 
 44 H      -15.9310     0.4710     0.3240 H     1 <1>   0.0800 
 45 H      -15.4340     1.6630    -0.8440 H     1 <1>   0.0800 
@<TRIPOS>BOND
  1   1   2  1   
  2   1   3  1   
  3   2   4  1   
  4   2  20  1   
  5   2  21  1   
  6   3   5  1   
  7   3  22  1   
  8   3  23  1   
  9   4   6  1   
 10   4  24  1   
 11   4  25  1   
 12   5   6  1   
 13   5  26  1   
 14   5  27  1   
 15   6   7  1   
 16   6  28  1   
 17   7   8  1   
 18   7  29  1   
 19   7  30  1   
 20   8   9  1   
 21   8  31  1   
 22   8  32  1   
 23   9  10  1   
 24   9  33  1   
 25   9  34  1   
 26  10  11  1   
 27  10  35  1   
 28  10  36  1   
 29  11  12  1   
 30  12  13  ar  
 31  12  14  ar  
 32  13  15  ar  
 33  13  37  1   
 34  14  16  ar  
 35  14  38  1   
 36  15  17  ar  
 37  15  18  1   
 38  16  17  ar  
 39  16  39  1   
 40  17  19  1   
 41  18  40  1   
 42  18  41  1   
 43  18  42  1   
 44  19  43  1   
 45  19  44  1   
 46  19  45  1   
@<TRIPOS>SUBSTRUCTURE
  1 ****  10 GROUP 4 **** **** 0

# MOE 2024.06 (io_trps.svl 2023.06)
