@<TRIPOS>MOLECULE
NONAME
52 54 1 0 0 
SMALL
USER_CHARGES


@<TRIPOS>ATOM
  1 O        0.8290    -0.1880     0.3520 O.3   1 <1>  -0.5600 
  2 C        1.6440    -1.3260     0.4000 C.3   1 <1>   0.1200 
  3 C        1.4660     0.9720     0.8130 C.3   1 <1>   0.1200 
  4 C        2.8960    -1.1510    -0.4780 C.3   1 <1>   0.2090 
  5 C        2.7050     1.3010    -0.0380 C.3   1 <1>   0.2090 
  6 N        3.6180     0.1180    -0.1420 N.pl3 1 <1>  -0.8380 
  7 C        4.9890     0.2360    -0.1860 C.ar  1 <1>   0.7200 
  8 N        5.6770    -0.8460    -0.4510 N.ar  1 <1>  -0.6200 
  9 N        5.5040     1.4150     0.0420 N.ar  1 <1>  -0.6200 
 10 C        6.9650    -0.6630    -0.4820 C.ar  1 <1>   0.7030 
 11 C        6.8070     1.4780    -0.0240 C.ar  1 <1>   0.7200 
 12 O        7.6820    -1.7660    -0.7500 O.3   1 <1>  -0.1650 
 13 N        7.5940     0.4610    -0.2740 N.ar  1 <1>  -0.6200 
 14 N        7.4040     2.7030     0.1870 N.pl3 1 <1>  -0.8380 
 15 C        9.0000    -1.8680    -0.4820 C.ar  1 <1>   0.3930 
 16 C        8.8270     2.9620    -0.1700 C.3   1 <1>   0.2090 
 17 C        6.7010     3.8000     0.9060 C.3   1 <1>   0.2090 
 18 N        9.7640    -2.3130    -1.4780 N.ar  1 <1>  -0.3100 
 19 C        9.4990    -1.5570     0.7710 C.ar  1 <1>  -0.1500 
 20 C        8.9550     3.1420    -1.6810 C.3   1 <1>  -0.2400 
 21 C        6.1530     4.8060    -0.1000 C.3   1 <1>  -0.2400 
 22 N       11.0590    -2.4480    -1.2930 N.ar  1 <1>  -0.3100 
 23 C       10.8530    -1.7000     0.9640 C.ar  1 <1>  -0.1500 
 24 C       11.6020    -2.1510    -0.1120 C.ar  1 <1>   0.3930 
 25 O       12.9420    -2.3250    -0.0430 O.3   1 <1>  -0.3620 
 26 C       13.6840    -2.0530     1.1220 C.3   1 <1>   0.1200 
 27 C       15.1490    -2.3580     0.8290 C.3   1 <1>  -0.2400 
 28 H        1.0630    -2.1600     0.0520 H     1 <1>   0.0800 
 29 H        1.9280    -1.5030     1.4220 H     1 <1>   0.0800 
 30 H        1.7470     0.8250     1.8410 H     1 <1>   0.0800 
 31 H        0.7570     1.7780     0.7600 H     1 <1>   0.0800 
 32 H        2.6010    -1.1250    -1.5130 H     1 <1>   0.0800 
 33 H        3.5310    -2.0070    -0.3360 H     1 <1>   0.0800 
 34 H        3.2080     2.1420     0.4060 H     1 <1>   0.0800 
 35 H        2.3900     1.5890    -1.0250 H     1 <1>   0.0800 
 36 H        9.4440     2.1410     0.1530 H     1 <1>   0.0800 
 37 H        9.1770     3.8500     0.3270 H     1 <1>   0.0800 
 38 H        7.3800     4.2860     1.5850 H     1 <1>   0.0800 
 39 H        5.8910     3.4000     1.4940 H     1 <1>   0.0800 
 40 H        8.8520    -1.2150     1.5580 H     1 <1>   0.1500 
 41 H        8.6580     2.2420    -2.1880 H     1 <1>   0.0800 
 42 H        9.9770     3.3520    -1.9350 H     1 <1>   0.0800 
 43 H        8.3410     3.9560    -2.0180 H     1 <1>   0.0800 
 44 H        6.9550     5.2880    -0.6250 H     1 <1>   0.0800 
 45 H        5.5820     5.5570     0.4150 H     1 <1>   0.0800 
 46 H        5.5100     4.3070    -0.8030 H     1 <1>   0.0800 
 47 H       11.2860    -1.4650     1.9160 H     1 <1>   0.1500 
 48 H       13.3180    -2.6820     1.9160 H     1 <1>   0.0800 
 49 H       13.5560    -1.0140     1.3760 H     1 <1>   0.0800 
 50 H       15.2650    -3.3920     0.5600 H     1 <1>   0.0800 
 51 H       15.7450    -2.1610     1.7010 H     1 <1>   0.0800 
 52 H       15.5020    -1.7370     0.0240 H     1 <1>   0.0800 
@<TRIPOS>BOND
  1   1   2  1   
  2   1   3  1   
  3   2   4  1   
  4   2  28  1   
  5   2  29  1   
  6   3   5  1   
  7   3  30  1   
  8   3  31  1   
  9   4   6  1   
 10   4  32  1   
 11   4  33  1   
 12   5   6  1   
 13   5  34  1   
 14   5  35  1   
 15   6   7  1   
 16   7   8  ar  
 17   7   9  ar  
 18   8  10  ar  
 19   9  11  ar  
 20  10  12  1   
 21  10  13  ar  
 22  11  13  ar  
 23  11  14  1   
 24  12  15  1   
 25  14  16  1   
 26  14  17  1   
 27  15  18  ar  
 28  15  19  ar  
 29  16  20  1   
 30  16  36  1   
 31  16  37  1   
 32  17  21  1   
 33  17  38  1   
 34  17  39  1   
 35  18  22  ar  
 36  19  23  ar  
 37  19  40  1   
 38  20  41  1   
 39  20  42  1   
 40  20  43  1   
 41  21  44  1   
 42  21  45  1   
 43  21  46  1   
 44  22  24  ar  
 45  23  24  ar  
 46  23  47  1   
 47  24  25  1   
 48  25  26  1   
 49  26  27  1   
 50  26  48  1   
 51  26  49  1   
 52  27  50  1   
 53  27  51  1   
 54  27  52  1   
@<TRIPOS>SUBSTRUCTURE
  1 ****  13 GROUP 4 **** **** 0

# MOE 2024.06 (io_trps.svl 2023.06)
