@<TRIPOS>MOLECULE
NONAME
46 46 1 0 0 
SMALL
USER_CHARGES


@<TRIPOS>ATOM
  1 O        0.6420    -1.1210     0.3930 O.3   1 <1>  -0.3630 
  2 C       -0.6330    -1.3440    -0.0240 C.ar  1 <1>   0.0830 
  3 C        1.6650    -0.7730    -0.5060 C.3   1 <1>   0.1200 
  4 C       -1.5780    -1.6820     0.9400 C.ar  1 <1>  -0.1440 
  5 C       -1.0200    -1.2500    -1.3590 C.ar  1 <1>  -0.1500 
  6 C        2.9500    -0.6000     0.3060 C.3   1 <1>  -0.1600 
  7 C       -2.8900    -1.9190     0.5610 C.ar  1 <1>  -0.1500 
  8 C       -1.1850    -1.7950     2.4060 C.3   1 <1>  -0.0970 
  9 C       -2.3330    -1.4890    -1.7230 C.ar  1 <1>  -0.1500 
 10 C        4.1420    -0.2170    -0.5830 C.3   1 <1>  -0.1600 
 11 C       -3.2750    -1.8230    -0.7660 C.ar  1 <1>  -0.1430 
 12 C        5.4050    -0.0530     0.2610 C.3   1 <1>   0.3430 
 13 C       -4.7160    -2.0870    -1.1630 C.3   1 <1>  -0.0970 
 14 N        6.5390     0.3170    -0.6250 N.4   1 <1>  -0.9060 
 15 C        7.8400     0.5170     0.0170 C.3   1 <1>   0.5030 
 16 C        8.2880    -0.7780     0.6950 C.3   1 <1>  -0.2400 
 17 C        7.7500     1.6630     1.0250 C.3   1 <1>  -0.2400 
 18 C        8.8150     0.8820    -1.0970 C.3   1 <1>  -0.2400 
 19 H        1.3860     0.1450    -0.9940 H     1 <1>   0.0800 
 20 H        1.7640    -1.5680    -1.2260 H     1 <1>   0.0800 
 21 H       -0.3210    -0.9930    -2.1300 H     1 <1>   0.1500 
 22 H        3.1570    -1.5260     0.8150 H     1 <1>   0.0800 
 23 H        2.7840     0.1670     1.0440 H     1 <1>   0.0800 
 24 H       -3.6210    -2.1820     1.3050 H     1 <1>   0.1500 
 25 H       -0.7970    -0.8530     2.7510 H     1 <1>   0.0800 
 26 H       -0.4250    -2.5460     2.5210 H     1 <1>   0.0800 
 27 H       -2.0280    -2.0620     3.0160 H     1 <1>   0.0800 
 28 H       -2.6200    -1.4140    -2.7570 H     1 <1>   0.1500 
 29 H        3.9180     0.7070    -1.0870 H     1 <1>   0.0800 
 30 H        4.2920    -0.9910    -1.3170 H     1 <1>   0.0800 
 31 H        5.6180    -0.9780     0.7720 H     1 <1>   0.0800 
 32 H        5.2440     0.7160     1.0010 H     1 <1>   0.0800 
 33 H       -4.8610    -3.1400    -1.3220 H     1 <1>   0.0800 
 34 H       -4.9600    -1.5620    -2.0690 H     1 <1>   0.0800 
 35 H       -5.3840    -1.7560    -0.3890 H     1 <1>   0.0800 
 36 H        6.3080     1.1820    -1.1220 H     1 <1>   0.4500 
 37 H        6.6590    -0.4090    -1.3370 H     1 <1>   0.4500 
 38 H        8.3040    -1.5960    -0.0030 H     1 <1>   0.0800 
 39 H        7.6550    -1.0310     1.5270 H     1 <1>   0.0800 
 40 H        9.2850    -0.6580     1.0810 H     1 <1>   0.0800 
 41 H        7.1170     1.4120     1.8560 H     1 <1>   0.0800 
 42 H        7.3880     2.5620     0.5590 H     1 <1>   0.0800 
 43 H        8.7280     1.8710     1.4230 H     1 <1>   0.0800 
 44 H        8.8930     0.0910    -1.8220 H     1 <1>   0.0800 
 45 H        9.7970     1.0430    -0.6860 H     1 <1>   0.0800 
 46 H        8.5190     1.7900    -1.5920 H     1 <1>   0.0800 
@<TRIPOS>BOND
  1   1   2  1   
  2   1   3  1   
  3   2   4  ar  
  4   2   5  ar  
  5   3   6  1   
  6   3  19  1   
  7   3  20  1   
  8   4   7  ar  
  9   4   8  1   
 10   5   9  ar  
 11   5  21  1   
 12   6  10  1   
 13   6  22  1   
 14   6  23  1   
 15   7  11  ar  
 16   7  24  1   
 17   8  25  1   
 18   8  26  1   
 19   8  27  1   
 20   9  11  ar  
 21   9  28  1   
 22  10  12  1   
 23  10  29  1   
 24  10  30  1   
 25  11  13  1   
 26  12  14  1   
 27  12  31  1   
 28  12  32  1   
 29  13  33  1   
 30  13  34  1   
 31  13  35  1   
 32  14  15  1   
 33  14  36  1   
 34  14  37  1   
 35  15  16  1   
 36  15  17  1   
 37  15  18  1   
 38  16  38  1   
 39  16  39  1   
 40  16  40  1   
 41  17  41  1   
 42  17  42  1   
 43  17  43  1   
 44  18  44  1   
 45  18  45  1   
 46  18  46  1   
@<TRIPOS>SUBSTRUCTURE
  1 ****   3 GROUP 4 **** **** 0

# MOE 2024.06 (io_trps.svl 2023.06)
