@<TRIPOS>MOLECULE
Structure2270
30 31 1 0 0 
SMALL
USER_CHARGES


@<TRIPOS>ATOM
  1 O        0.2160     0.3130    -0.0310 O.3   1 <1>  -0.3630 
  2 C        1.3820     0.9100     0.3260 C.ar  1 <1>   0.0830 
  3 C       -1.0540     0.8330     0.2900 C.3   1 <1>   0.2000 
  4 C        2.5420     0.3300    -0.1600 C.ar  1 <1>  -0.1500 
  5 C        1.4690     2.0400     1.1350 C.ar  1 <1>  -0.1500 
  6 C       -2.0560    -0.3230     0.1320 C.3   1 <1>   0.3430 
  7 C       -1.3810     1.9870    -0.6730 C.3   1 <1>  -0.1600 
  8 C        3.7930     0.8520     0.1400 C.ar  1 <1>   0.0730 
  9 C        2.7090     2.5710     1.4410 C.ar  1 <1>  -0.1500 
 10 N       -3.4820     0.1420     0.2220 N.4   1 <1>  -0.9060 
 11 C       -2.8590     2.3990    -0.5640 C.3   1 <1>  -0.1600 
 12 C        4.9870     0.2410    -0.3700 C.1   1 <1>   0.4840 
 13 C        3.8590     1.9820     0.9480 C.ar  1 <1>  -0.1500 
 14 C       -3.8040     1.2110    -0.7650 C.3   1 <1>   0.3430 
 15 N        5.9360    -0.2450    -0.7750 N.1   1 <1>  -0.5570 
 16 H       -1.0480     1.1550     1.3160 H     1 <1>   0.0800 
 17 H        2.4660    -0.5440    -0.7830 H     1 <1>   0.1500 
 18 H        0.6000     2.5230     1.5360 H     1 <1>   0.1500 
 19 H       -1.8620    -1.0610     0.8930 H     1 <1>   0.0800 
 20 H       -1.8940    -0.7780    -0.8320 H     1 <1>   0.0800 
 21 H       -1.1770     1.6740    -1.6830 H     1 <1>   0.0800 
 22 H       -0.7580     2.8380    -0.4580 H     1 <1>   0.0800 
 23 H        2.7820     3.4460     2.0660 H     1 <1>   0.1500 
 24 H       -3.6710     0.4940     1.1700 H     1 <1>   0.4500 
 25 H       -4.1120    -0.6590     0.0760 H     1 <1>   0.4500 
 26 H       -3.0730     3.1430    -1.3140 H     1 <1>   0.0800 
 27 H       -3.0480     2.8530     0.3940 H     1 <1>   0.0800 
 28 H        4.8190     2.4050     1.1940 H     1 <1>   0.1500 
 29 H       -4.8270     1.5350    -0.6430 H     1 <1>   0.0800 
 30 H       -3.6890     0.8290    -1.7670 H     1 <1>   0.0800 
@<TRIPOS>BOND
  1   1   2  1   
  2   1   3  1   
  3   2   4  ar  
  4   2   5  ar  
  5   3   6  1   
  6   3   7  1   
  7   3  16  1   
  8   4   8  ar  
  9   4  17  1   
 10   5   9  ar  
 11   5  18  1   
 12   6  10  1   
 13   6  19  1   
 14   6  20  1   
 15   7  11  1   
 16   7  21  1   
 17   7  22  1   
 18   8  12  1   
 19   8  13  ar  
 20   9  13  ar  
 21   9  23  1   
 22  10  14  1   
 23  10  24  1   
 24  10  25  1   
 25  11  14  1   
 26  11  26  1   
 27  11  27  1   
 28  12  15  3   
 29  13  28  1   
 30  14  29  1   
 31  14  30  1   
@<TRIPOS>SUBSTRUCTURE
  1 ****   2 GROUP 4 **** **** 0

# MOE 2024.06 (io_trps.svl 2023.06)
