@<TRIPOS>MOLECULE
NONAME
53 54 1 0 0 
SMALL
USER_CHARGES


@<TRIPOS>ATOM
  1 S        0.3780     0.4900     0.5690 S.o2  1 <1>   1.4470 
  2 O       -0.1060     1.3200     1.6490 O.2   1 <1>  -0.6500 
  3 O        1.1970     1.0750    -0.4730 O.2   1 <1>  -0.6500 
  4 N        1.3830    -0.6660     1.2930 N.am  1 <1>  -0.8490 
  5 C       -0.9650    -0.4810    -0.1690 C.ar  1 <1>  -0.0090 
  6 C        2.5180     0.0100     1.9720 C.3   1 <1>   0.2570 
  7 C        0.6880    -1.5290     2.2590 C.3   1 <1>   0.1160 
  8 C       -2.2530    -0.4380     0.3510 C.ar  1 <1>  -0.1500 
  9 C       -0.7320    -1.3120    -1.2570 C.ar  1 <1>  -0.1500 
 10 C        3.7800    -0.8570     2.0910 C.2   1 <1>   0.5690 
 11 C       -3.2810    -1.1970    -0.1850 C.ar  1 <1>  -0.1440 
 12 C       -1.7440    -2.0780    -1.8070 C.ar  1 <1>  -0.1500 
 13 O        4.1500    -1.1560     3.2020 O.2   1 <1>  -0.5700 
 14 N        4.4850    -1.2690     0.9790 N.am  1 <1>  -0.6600 
 15 C       -3.0280    -2.0270    -1.2720 C.ar  1 <1>   0.0830 
 16 C       -4.6770    -1.1150     0.4170 C.3   1 <1>  -0.0970 
 17 C        4.0960    -0.9560    -0.4320 C.3   1 <1>   0.1400 
 18 C        5.6920    -2.1420     1.1120 C.3   1 <1>   0.1400 
 19 O       -4.0620    -2.7560    -1.7650 O.3   1 <1>  -0.3630 
 20 C        5.2970    -0.4270    -1.2390 C.3   1 <1>   0.3430 
 21 C        6.8700    -1.5860     0.2930 C.3   1 <1>   0.3430 
 22 C       -3.9150    -3.5930    -2.8910 C.3   1 <1>   0.0400 
 23 N        6.4950    -1.3360    -1.1480 N.4   1 <1>  -0.9590 
 24 C        7.6280    -0.7830    -1.9360 C.3   1 <1>   0.3430 
 25 C        8.6730    -1.8680    -2.1650 C.3   1 <1>  -0.2400 
 26 H        2.2180     0.3340     2.9540 H     1 <1>   0.0800 
 27 H        2.8010     0.8960     1.4310 H     1 <1>   0.0800 
 28 H       -0.0820    -2.1000     1.7670 H     1 <1>   0.0800 
 29 H        0.2370    -0.9400     3.0410 H     1 <1>   0.0800 
 30 H        1.3820    -2.2230     2.7050 H     1 <1>   0.0800 
 31 H       -2.4530     0.2050     1.1930 H     1 <1>   0.1500 
 32 H        0.2570    -1.3600    -1.6780 H     1 <1>   0.1500 
 33 H       -1.5160    -2.7050    -2.6470 H     1 <1>   0.1500 
 34 H       -4.7070    -0.4340     1.2480 H     1 <1>   0.0800 
 35 H       -4.9830    -2.0880     0.7590 H     1 <1>   0.0800 
 36 H       -5.3740    -0.7790    -0.3280 H     1 <1>   0.0800 
 37 H        3.3220    -0.2140    -0.4650 H     1 <1>   0.0800 
 38 H        3.7060    -1.8450    -0.8970 H     1 <1>   0.0800 
 39 H        5.4490    -3.1350     0.7760 H     1 <1>   0.0800 
 40 H        5.9940    -2.2170     2.1440 H     1 <1>   0.0800 
 41 H        5.5540     0.5490    -0.8600 H     1 <1>   0.0800 
 42 H        5.0010    -0.3110    -2.2690 H     1 <1>   0.0800 
 43 H        7.6880    -2.2850     0.3460 H     1 <1>   0.0800 
 44 H        7.1950    -0.6650     0.7490 H     1 <1>   0.0800 
 45 H       -4.8680    -4.0450    -3.0960 H     1 <1>   0.0800 
 46 H       -3.1900    -4.3550    -2.6680 H     1 <1>   0.0800 
 47 H       -3.6060    -2.9970    -3.7310 H     1 <1>   0.0800 
 48 H        6.2330    -2.2390    -1.5630 H     1 <1>   0.4500 
 49 H        8.0680     0.0560    -1.4210 H     1 <1>   0.0800 
 50 H        7.2690    -0.4390    -2.8940 H     1 <1>   0.0800 
 51 H        9.1300    -2.1780    -1.2430 H     1 <1>   0.0800 
 52 H        9.4500    -1.4770    -2.7970 H     1 <1>   0.0800 
 53 H        8.2410    -2.7190    -2.6620 H     1 <1>   0.0800 
@<TRIPOS>BOND
  1   1   2  2   
  2   1   3  2   
  3   1   4  am  
  4   1   5  1   
  5   4   6  1   
  6   4   7  1   
  7   5   8  ar  
  8   5   9  ar  
  9   6  10  1   
 10   6  26  1   
 11   6  27  1   
 12   7  28  1   
 13   7  29  1   
 14   7  30  1   
 15   8  11  ar  
 16   8  31  1   
 17   9  12  ar  
 18   9  32  1   
 19  10  13  2   
 20  10  14  am  
 21  11  15  ar  
 22  11  16  1   
 23  12  15  ar  
 24  12  33  1   
 25  14  17  1   
 26  14  18  1   
 27  15  19  1   
 28  16  34  1   
 29  16  35  1   
 30  16  36  1   
 31  17  20  1   
 32  17  37  1   
 33  17  38  1   
 34  18  21  1   
 35  18  39  1   
 36  18  40  1   
 37  19  22  1   
 38  20  23  1   
 39  20  41  1   
 40  20  42  1   
 41  21  23  1   
 42  21  43  1   
 43  21  44  1   
 44  22  45  1   
 45  22  46  1   
 46  22  47  1   
 47  23  24  1   
 48  23  48  1   
 49  24  25  1   
 50  24  49  1   
 51  24  50  1   
 52  25  51  1   
 53  25  52  1   
 54  25  53  1   
@<TRIPOS>SUBSTRUCTURE
  1 ****   4 GROUP 4 **** **** 0

# MOE 2024.06 (io_trps.svl 2023.06)
