@<TRIPOS>MOLECULE
NONAME
51 54 1 0 0 
SMALL
USER_CHARGES


@<TRIPOS>ATOM
  1 O       -2.3080     0.6160     1.8270 O.2   1 <1>  -0.5700 
  2 C       -2.9330    -0.2200     1.2060 C.2   1 <1>   0.7060 
  3 O       -4.2510    -0.0510     1.0470 O.3   1 <1>  -0.2330 
  4 C       -2.3520    -1.3880     0.6240 C.2   1 <1>  -0.1240 
  5 C       -5.0510    -0.9200     0.3680 C.ar  1 <1>   0.0820 
  6 C       -3.0870    -2.2770    -0.0530 C.2   1 <1>  -0.1670 
  7 C       -0.8940    -1.7680     0.6790 C.3   1 <1>  -0.0220 
  8 C       -4.4920    -2.0720    -0.2110 C.ar  1 <1>   0.0280 
  9 C       -6.4140    -0.6520     0.2570 C.ar  1 <1>  -0.1440 
 10 C       -2.2570    -3.4230    -0.5790 C.3   1 <1>  -0.0220 
 11 C       -0.8560    -3.1560     0.0090 C.3   1 <1>  -0.1600 
 12 C       -5.3300    -2.9440    -0.9020 C.ar  1 <1>  -0.1500 
 13 C       -7.2290    -1.5390    -0.4370 C.ar  1 <1>   0.0820 
 14 C       -7.0330     0.5990     0.8840 C.3   1 <1>  -0.0960 
 15 C       -6.6790    -2.6840    -1.0160 C.ar  1 <1>  -0.1500 
 16 O       -8.5490    -1.2460    -0.5240 O.3   1 <1>  -0.3620 
 17 C       -9.4780    -2.0860    -1.2000 C.3   1 <1>   0.1810 
 18 C      -10.8840    -1.5040    -1.1400 C.2   1 <1>   0.5690 
 19 O      -11.7420    -2.0090    -1.8220 O.2   1 <1>  -0.5700 
 20 N      -11.0970    -0.4290    -0.3240 N.am  1 <1>  -0.5470 
 21 C      -12.2330     0.3810    -0.1820 C.ar  1 <1>   0.1170 
 22 C      -13.4410    -0.1200     0.3150 C.ar  1 <1>  -0.1430 
 23 C      -12.1420     1.7330    -0.5220 C.ar  1 <1>  -0.1430 
 24 C      -14.5310     0.7220     0.4520 C.ar  1 <1>  -0.1500 
 25 C      -13.6030    -1.5790     0.7260 C.3   1 <1>  -0.0970 
 26 C      -13.2420     2.5610    -0.3730 C.ar  1 <1>  -0.1500 
 27 C      -10.8460     2.3230    -1.0690 C.3   1 <1>  -0.0970 
 28 C      -14.4350     2.0580     0.1100 C.ar  1 <1>  -0.1500 
 29 H       -0.5470    -1.8120     1.6970 H     1 <1>   0.0800 
 30 H       -0.3080    -1.0520     0.1280 H     1 <1>   0.0800 
 31 H       -2.2330    -3.4000    -1.6550 H     1 <1>   0.0800 
 32 H       -2.6420    -4.3690    -0.2400 H     1 <1>   0.0800 
 33 H       -0.6310    -3.9030     0.7500 H     1 <1>   0.0800 
 34 H       -0.1030    -3.1920    -0.7590 H     1 <1>   0.0800 
 35 H       -4.9170    -3.8280    -1.3520 H     1 <1>   0.1500 
 36 H       -7.7910     0.3130     1.5900 H     1 <1>   0.0800 
 37 H       -7.4840     1.2020     0.1170 H     1 <1>   0.0800 
 38 H       -6.3100     1.2030     1.4000 H     1 <1>   0.0800 
 39 H       -7.2860    -3.3840    -1.5570 H     1 <1>   0.1500 
 40 H       -9.4730    -3.0510    -0.7290 H     1 <1>   0.0800 
 41 H       -9.1750    -2.1730    -2.2270 H     1 <1>   0.0800 
 42 H      -10.2460    -0.0640     0.1040 H     1 <1>   0.3700 
 43 H      -15.4650     0.3430     0.8260 H     1 <1>   0.1500 
 44 H      -13.7620    -2.1850    -0.1480 H     1 <1>   0.0800 
 45 H      -14.4430    -1.7020     1.3840 H     1 <1>   0.0800 
 46 H      -12.7250    -1.9280     1.2370 H     1 <1>   0.0800 
 47 H      -13.1810     3.6020    -0.6350 H     1 <1>   0.1500 
 48 H      -10.0720     2.2680    -0.3250 H     1 <1>   0.0800 
 49 H      -10.9780     3.3530    -1.3460 H     1 <1>   0.0800 
 50 H      -10.5360     1.7780    -1.9420 H     1 <1>   0.0800 
 51 H      -15.2880     2.7050     0.2200 H     1 <1>   0.1500 
@<TRIPOS>BOND
  1   1   2  2   
  2   2   3  1   
  3   2   4  1   
  4   3   5  1   
  5   4   6  2   
  6   4   7  1   
  7   5   8  ar  
  8   5   9  ar  
  9   6   8  1   
 10   6  10  1   
 11   7  11  1   
 12   7  29  1   
 13   7  30  1   
 14   8  12  ar  
 15   9  13  ar  
 16   9  14  1   
 17  10  11  1   
 18  10  31  1   
 19  10  32  1   
 20  11  33  1   
 21  11  34  1   
 22  12  15  ar  
 23  12  35  1   
 24  13  15  ar  
 25  13  16  1   
 26  14  36  1   
 27  14  37  1   
 28  14  38  1   
 29  15  39  1   
 30  16  17  1   
 31  17  18  1   
 32  17  40  1   
 33  17  41  1   
 34  18  19  2   
 35  18  20  am  
 36  20  21  1   
 37  20  42  1   
 38  21  22  ar  
 39  21  23  ar  
 40  22  24  ar  
 41  22  25  1   
 42  23  26  ar  
 43  23  27  1   
 44  24  28  ar  
 45  24  43  1   
 46  25  44  1   
 47  25  45  1   
 48  25  46  1   
 49  26  28  ar  
 50  26  47  1   
 51  27  48  1   
 52  27  49  1   
 53  27  50  1   
 54  28  51  1   
@<TRIPOS>SUBSTRUCTURE
  1 ****  13 GROUP 4 **** **** 0

# MOE 2024.06 (io_trps.svl 2023.06)
