@<TRIPOS>MOLECULE
NONAME
44 44 1 0 0 
SMALL
USER_CHARGES


@<TRIPOS>ATOM
  1 O        0.9410     0.2630    -1.2480 O.2   1 <1>  -0.5700 
  2 C        1.2290     1.0730    -0.3870 C.2   1 <1>   0.5440 
  3 N        2.4320     0.9500     0.2510 N.am  1 <1>  -0.7300 
  4 C        0.2760     2.0960    -0.0180 C.ar  1 <1>   0.0860 
  5 C        3.3520    -0.2080     0.1310 C.3   1 <1>   0.1400 
  6 C        0.5670     3.4710    -0.0260 C.ar  1 <1>   0.1170 
  7 C       -1.0110     1.7030     0.3520 C.ar  1 <1>  -0.1500 
  8 C        4.7790     0.2460    -0.2080 C.3   1 <1>  -0.0800 
  9 N        1.8050     3.9860    -0.4180 N.am  1 <1>  -0.5470 
 10 C       -0.4130     4.3840     0.3480 C.ar  1 <1>  -0.1500 
 11 C       -1.9780     2.6190     0.7180 C.ar  1 <1>  -0.1500 
 12 C        5.6390    -0.9630    -0.5970 C.3   1 <1>  -0.2400 
 13 C        5.4420     0.9820     0.9650 C.3   1 <1>  -0.2400 
 14 C        2.9280     4.1020     0.3500 C.2   1 <1>   0.5690 
 15 C       -1.6760     3.9680     0.7190 C.ar  1 <1>  -0.1500 
 16 O        2.9910     3.5770     1.4380 O.2   1 <1>  -0.5700 
 17 C        4.1210     4.9190    -0.2100 C.3   1 <1>   0.0610 
 18 C        3.6530     6.3150    -0.6700 C.3   1 <1>  -0.2400 
 19 C        5.2220     5.1250     0.8510 C.3   1 <1>  -0.2400 
 20 C        4.7470     4.1910    -1.4130 C.3   1 <1>  -0.2400 
 21 H        2.7010     1.6820     0.9260 H     1 <1>   0.3700 
 22 H        2.9950    -0.8670    -0.6430 H     1 <1>   0.0800 
 23 H        3.3500    -0.7570     1.0570 H     1 <1>   0.0800 
 24 H       -1.2490     0.6530     0.3470 H     1 <1>   0.1500 
 25 H        4.7260     0.9000    -1.0610 H     1 <1>   0.0800 
 26 H        1.8420     4.4280    -1.3360 H     1 <1>   0.3700 
 27 H       -0.1810     5.4340     0.3520 H     1 <1>   0.1500 
 28 H       -2.9610     2.2850     1.0010 H     1 <1>   0.1500 
 29 H        5.7100    -1.6580     0.2210 H     1 <1>   0.0800 
 30 H        6.6320    -0.6450    -0.8650 H     1 <1>   0.0800 
 31 H        5.2090    -1.4700    -1.4430 H     1 <1>   0.0800 
 32 H        5.5220     0.3350     1.8210 H     1 <1>   0.0800 
 33 H        4.8660     1.8420     1.2480 H     1 <1>   0.0800 
 34 H        6.4270     1.3140     0.6900 H     1 <1>   0.0800 
 35 H       -2.4240     4.6870     1.0080 H     1 <1>   0.1500 
 36 H        2.9480     6.2460    -1.4780 H     1 <1>   0.0800 
 37 H        4.4890     6.9020    -1.0090 H     1 <1>   0.0800 
 38 H        3.1850     6.8360     0.1470 H     1 <1>   0.0800 
 39 H        4.8230     5.6370     1.7080 H     1 <1>   0.0800 
 40 H        6.0380     5.7040     0.4550 H     1 <1>   0.0800 
 41 H        5.6090     4.1770     1.1810 H     1 <1>   0.0800 
 42 H        4.0230     4.0390    -2.1940 H     1 <1>   0.0800 
 43 H        5.1200     3.2300    -1.1090 H     1 <1>   0.0800 
 44 H        5.5680     4.7580    -1.8160 H     1 <1>   0.0800 
@<TRIPOS>BOND
  1   1   2  2   
  2   2   3  am  
  3   2   4  1   
  4   3   5  1   
  5   3  21  1   
  6   4   6  ar  
  7   4   7  ar  
  8   5   8  1   
  9   5  22  1   
 10   5  23  1   
 11   6   9  1   
 12   6  10  ar  
 13   7  11  ar  
 14   7  24  1   
 15   8  12  1   
 16   8  13  1   
 17   8  25  1   
 18   9  14  am  
 19   9  26  1   
 20  10  15  ar  
 21  10  27  1   
 22  11  15  ar  
 23  11  28  1   
 24  12  29  1   
 25  12  30  1   
 26  12  31  1   
 27  13  32  1   
 28  13  33  1   
 29  13  34  1   
 30  14  16  2   
 31  14  17  1   
 32  15  35  1   
 33  17  18  1   
 34  17  19  1   
 35  17  20  1   
 36  18  36  1   
 37  18  37  1   
 38  18  38  1   
 39  19  39  1   
 40  19  40  1   
 41  19  41  1   
 42  20  42  1   
 43  20  43  1   
 44  20  44  1   
@<TRIPOS>SUBSTRUCTURE
  1 ****   9 GROUP 4 **** **** 0

# MOE 2024.06 (io_trps.svl 2023.06)
