@<TRIPOS>MOLECULE
NONAME
35 36 1 0 0 
SMALL
USER_CHARGES


@<TRIPOS>ATOM
  1 O       -0.4400     2.1900     2.8580 O.2   1 <1>  -0.5700 
  2 C       -0.1060     2.1180     1.6990 C.2   1 <1>   0.5690 
  3 N       -0.9730     1.7870     0.7110 N.am  1 <1>  -0.7300 
  4 C        1.3480     2.4040     1.3100 C.3   1 <1>   0.1710 
  5 C       -2.3860     1.4200     0.8620 C.3   1 <1>   0.2200 
  6 N        1.7990     1.7250     0.0570 N.3   1 <1>  -0.8100 
  7 C       -2.5550    -0.0420     0.4680 C.3   1 <1>  -0.1600 
  8 C       -3.1990     2.1620    -0.1910 C.3   1 <1>  -0.1600 
  9 C        3.0950     2.2640    -0.3970 C.3   1 <1>   0.1100 
 10 C        1.9230     0.2650     0.2570 C.3   1 <1>   0.1100 
 11 C       -2.6050    -0.0540    -1.0640 C.3   1 <1>  -0.1600 
 12 C       -3.0390     1.3560    -1.4860 C.3   1 <1>  -0.1600 
 13 C        3.5940     1.5190    -1.6490 C.3   1 <1>   0.1200 
 14 C        2.4560    -0.4230    -1.0130 C.3   1 <1>   0.1200 
 15 O        3.6750     0.1440    -1.4020 O.3   1 <1>  -0.5600 
 16 H       -0.5790     1.6910    -0.2280 H     1 <1>   0.3700 
 17 H        1.9840     2.1180     2.1290 H     1 <1>   0.0800 
 18 H        1.4330     3.4670     1.1840 H     1 <1>   0.0800 
 19 H       -2.7260     1.6200     1.8660 H     1 <1>   0.0800 
 20 H       -3.4970    -0.3910     0.8520 H     1 <1>   0.0800 
 21 H       -1.7710    -0.6630     0.8660 H     1 <1>   0.0800 
 22 H       -2.8880     3.1870    -0.2950 H     1 <1>   0.0800 
 23 H       -4.2330     2.1450     0.1050 H     1 <1>   0.0800 
 24 H        3.8310     2.1670     0.3820 H     1 <1>   0.0800 
 25 H        2.9860     3.3090    -0.6320 H     1 <1>   0.0800 
 26 H        0.9620    -0.1540     0.5020 H     1 <1>   0.0800 
 27 H        2.5960     0.0570     1.0720 H     1 <1>   0.0800 
 28 H       -3.2910    -0.8030    -1.4220 H     1 <1>   0.0800 
 29 H       -1.6250    -0.2630    -1.4590 H     1 <1>   0.0800 
 30 H       -2.2760     1.8010    -2.1020 H     1 <1>   0.0800 
 31 H       -3.9620     1.3350    -2.0400 H     1 <1>   0.0800 
 32 H        4.5760     1.8620    -1.9210 H     1 <1>   0.0800 
 33 H        2.9260     1.6820    -2.4770 H     1 <1>   0.0800 
 34 H        1.7540    -0.3210    -1.8210 H     1 <1>   0.0800 
 35 H        2.6250    -1.4690    -0.8280 H     1 <1>   0.0800 
@<TRIPOS>BOND
  1   1   2  2   
  2   2   3  am  
  3   2   4  1   
  4   3   5  1   
  5   3  16  1   
  6   4   6  1   
  7   4  17  1   
  8   4  18  1   
  9   5   7  1   
 10   5   8  1   
 11   5  19  1   
 12   6   9  1   
 13   6  10  1   
 14   7  11  1   
 15   7  20  1   
 16   7  21  1   
 17   8  12  1   
 18   8  22  1   
 19   8  23  1   
 20   9  13  1   
 21   9  24  1   
 22   9  25  1   
 23  10  14  1   
 24  10  26  1   
 25  10  27  1   
 26  11  12  1   
 27  11  28  1   
 28  11  29  1   
 29  12  30  1   
 30  12  31  1   
 31  13  15  1   
 32  13  32  1   
 33  13  33  1   
 34  14  15  1   
 35  14  34  1   
 36  14  35  1   
@<TRIPOS>SUBSTRUCTURE
  1 ****   3 GROUP 4 **** **** 0

# MOE 2024.06 (io_trps.svl 2023.06)
