@<TRIPOS>MOLECULE
NONAME
39 41 1 0 0 
SMALL
USER_CHARGES


@<TRIPOS>ATOM
  1 O        0.3440    -1.3330    -0.6320 O.2   1 <1>  -0.5700 
  2 C       -0.5930    -2.0740    -0.7560 C.2   1 <1>   0.5690 
  3 N       -0.5810    -3.0660    -1.6780 N.am  1 <1>  -0.4900 
  4 C       -1.8210    -1.9030     0.1210 C.3   1 <1>  -0.0990 
  5 C       -1.5610    -3.9780    -1.8910 C.2   1 <1>   0.5690 
  6 C       -2.5860    -3.2290     0.3110 C.3   1 <1>  -0.0800 
  7 O       -1.4350    -4.8350    -2.7230 O.2   1 <1>  -0.5700 
  8 C       -2.8300    -3.8960    -1.0610 C.3   1 <1>  -0.0990 
  9 C       -3.8910    -3.0000     1.0950 C.3   1 <1>   0.0210 
 10 C       -4.6210    -4.3020     1.3780 C.2   1 <1>   0.1080 
 11 N       -4.3180    -5.1090     2.3260 N.2   1 <1>  -0.4100 
 12 C       -5.6950    -4.8030     0.6650 C.2   1 <1>  -0.0860 
 13 O       -5.1330    -6.1450     2.3010 O.3   1 <1>  -0.0190 
 14 C       -6.4690    -4.4340    -0.4460 C.2   1 <1>   0.5950 
 15 C       -5.9460    -5.9370     1.2960 C.2   1 <1>  -0.0400 
 16 O       -6.2290    -3.4760    -1.1350 O.2   1 <1>  -0.5700 
 17 C       -7.6870    -5.2960    -0.7610 C.3   1 <1>  -0.0990 
 18 C       -7.0210    -6.9240     0.9070 C.3   1 <1>   0.0200 
 19 C       -8.1670    -6.7350    -0.2050 C.3   1 <1>   0.0000 
 20 C       -9.3680    -6.6950    -1.2820 C.3   1 <1>  -0.2400 
 21 C       -8.7760    -8.1570     0.2500 C.3   1 <1>  -0.2400 
 22 H        0.2540    -3.1510    -2.2510 H     1 <1>   0.3700 
 23 H       -2.4570    -1.1700    -0.3410 H     1 <1>   0.0800 
 24 H       -1.5100    -1.5200     1.0770 H     1 <1>   0.0800 
 25 H       -1.9630    -3.8910     0.8920 H     1 <1>   0.0800 
 26 H       -3.2100    -4.8930    -0.9270 H     1 <1>   0.0800 
 27 H       -3.5570    -3.3370    -1.6230 H     1 <1>   0.0800 
 28 H       -4.5400    -2.3350     0.5530 H     1 <1>   0.0800 
 29 H       -3.6640    -2.5350     2.0390 H     1 <1>   0.0800 
 30 H       -7.5750    -5.3740    -1.8320 H     1 <1>   0.0800 
 31 H       -8.4770    -4.5960    -0.5460 H     1 <1>   0.0800 
 32 H       -7.4910    -7.1050     1.8630 H     1 <1>   0.0800 
 33 H       -6.4340    -7.7900     0.6420 H     1 <1>   0.0800 
 34 H       -9.6340    -5.7710    -1.7720 H     1 <1>   0.0800 
 35 H      -10.3340    -6.9730    -0.8880 H     1 <1>   0.0800 
 36 H       -9.1360    -7.3570    -2.1020 H     1 <1>   0.0800 
 37 H       -8.1940    -8.8330     0.8600 H     1 <1>   0.0800 
 38 H       -9.0250    -8.8190    -0.5670 H     1 <1>   0.0800 
 39 H       -9.6660    -7.9960     0.8380 H     1 <1>   0.0800 
@<TRIPOS>BOND
  1   1   2  2   
  2   2   3  am  
  3   2   4  1   
  4   3   5  am  
  5   3  22  1   
  6   4   6  1   
  7   4  23  1   
  8   4  24  1   
  9   5   7  2   
 10   5   8  1   
 11   6   8  1   
 12   6   9  1   
 13   6  25  1   
 14   8  26  1   
 15   8  27  1   
 16   9  10  1   
 17   9  28  1   
 18   9  29  1   
 19  10  11  2   
 20  10  12  1   
 21  11  13  1   
 22  12  14  1   
 23  12  15  2   
 24  13  15  1   
 25  14  16  2   
 26  14  17  1   
 27  15  18  1   
 28  17  19  1   
 29  17  30  1   
 30  17  31  1   
 31  18  19  1   
 32  18  32  1   
 33  18  33  1   
 34  19  20  1   
 35  19  21  1   
 36  20  34  1   
 37  20  35  1   
 38  20  36  1   
 39  21  37  1   
 40  21  38  1   
 41  21  39  1   
@<TRIPOS>SUBSTRUCTURE
  1 ****  12 GROUP 4 **** **** 0

# MOE 2024.06 (io_trps.svl 2023.06)
