@<TRIPOS>MOLECULE
NONAME
31 32 1 0 0 
SMALL
USER_CHARGES


@<TRIPOS>ATOM
  1 O       -1.2660     0.0380     1.9040 O.2   1 <1>  -0.5700 
  2 C       -2.2320     0.0180     1.1600 C.2   1 <1>   0.6900 
  3 N       -2.7820     1.1970     0.7250 N.am  1 <1>  -0.6600 
  4 N       -2.7460    -1.1830     0.7430 N.am  1 <1>  -0.6600 
  5 C       -3.9660     1.1940    -0.1440 C.3   1 <1>   0.5200 
  6 C       -2.2950     2.5150     1.2130 C.3   1 <1>   0.0600 
  7 C       -3.9290    -1.2290    -0.1270 C.3   1 <1>   0.5200 
  8 C       -2.2190    -2.4780     1.2500 C.3   1 <1>   0.0600 
  9 N       -5.1620     1.1600     0.7070 N.am  1 <1>  -0.6600 
 10 C       -3.9400    -0.0240    -1.0420 C.3   1 <1>  -0.1600 
 11 N       -5.1260    -1.2190     0.7240 N.am  1 <1>  -0.6600 
 12 C       -5.6830    -0.0350     1.1330 C.2   1 <1>   0.6900 
 13 C       -5.6970     2.4620     1.1870 C.3   1 <1>   0.0600 
 14 C       -5.6200    -2.5310     1.2230 C.3   1 <1>   0.0600 
 15 O       -6.6600    -0.0450     1.8620 O.2   1 <1>  -0.5700 
 16 H       -3.9750     2.0830    -0.7520 H     1 <1>   0.0800 
 17 H       -1.2520     2.4530     1.4740 H     1 <1>   0.0800 
 18 H       -2.8500     2.8000     2.0890 H     1 <1>   0.0800 
 19 H       -2.4130     3.2640     0.4510 H     1 <1>   0.0800 
 20 H       -3.9100    -2.1270    -0.7210 H     1 <1>   0.0800 
 21 H       -1.1780    -2.3810     1.5100 H     1 <1>   0.0800 
 22 H       -2.3140    -3.2420     0.4990 H     1 <1>   0.0800 
 23 H       -2.7650    -2.7670     2.1300 H     1 <1>   0.0800 
 24 H       -3.0650    -0.0150    -1.6640 H     1 <1>   0.0800 
 25 H       -4.8060    -0.0420    -1.6770 H     1 <1>   0.0800 
 26 H       -5.1640     2.7640     2.0720 H     1 <1>   0.0800 
 27 H       -6.7410     2.3690     1.4320 H     1 <1>   0.0800 
 28 H       -5.5890     3.2150     0.4270 H     1 <1>   0.0800 
 29 H       -5.0790    -2.8030     2.1120 H     1 <1>   0.0800 
 30 H       -5.4900    -3.2900     0.4740 H     1 <1>   0.0800 
 31 H       -6.6670    -2.4650     1.4670 H     1 <1>   0.0800 
@<TRIPOS>BOND
  1   1   2  2   
  2   2   3  am  
  3   2   4  am  
  4   3   5  1   
  5   3   6  1   
  6   4   7  1   
  7   4   8  1   
  8   5   9  1   
  9   5  10  1   
 10   5  16  1   
 11   6  17  1   
 12   6  18  1   
 13   6  19  1   
 14   7  10  1   
 15   7  11  1   
 16   7  20  1   
 17   8  21  1   
 18   8  22  1   
 19   8  23  1   
 20   9  12  am  
 21   9  13  1   
 22  10  24  1   
 23  10  25  1   
 24  11  12  am  
 25  11  14  1   
 26  12  15  2   
 27  13  26  1   
 28  13  27  1   
 29  13  28  1   
 30  14  29  1   
 31  14  30  1   
 32  14  31  1   
@<TRIPOS>SUBSTRUCTURE
  1 ****   5 GROUP 4 **** **** 0

# MOE 2024.06 (io_trps.svl 2023.06)
