@<TRIPOS>MOLECULE
NONAME
47 49 1 0 0 
SMALL
USER_CHARGES


@<TRIPOS>ATOM
  1 F       -0.4120    -2.0530    -2.2610 F     1 <1>  -0.1900 
  2 C       -1.2470    -1.8140    -1.2770 C.ar  1 <1>   0.1900 
  3 C       -0.9810    -2.3390    -0.0050 C.ar  1 <1>   0.1000 
  4 C       -2.3600    -1.0450    -1.5530 C.ar  1 <1>  -0.1500 
  5 N        0.1360    -3.1230     0.3140 N.pl3 1 <1>  -0.8380 
  6 C       -1.9000    -2.0520     0.9960 C.ar  1 <1>  -0.1500 
  7 C       -3.2570    -0.7770    -0.5320 C.ar  1 <1>  -0.1500 
  8 C        1.4460    -2.4030     0.2810 C.3   1 <1>   0.2090 
  9 C        0.1770    -4.4660    -0.3370 C.3   1 <1>   0.2090 
 10 C       -3.0240    -1.2820     0.7380 C.ar  1 <1>  -0.1500 
 11 C        2.5750    -3.2770     0.8650 C.3   1 <1>   0.3430 
 12 C        1.3080    -5.3330     0.2560 C.3   1 <1>   0.3430 
 13 N        2.6480    -4.6420     0.2190 N.4   1 <1>  -0.9590 
 14 C        3.7190    -5.4810     0.8200 C.3   1 <1>   0.4860 
 15 C        5.0550    -4.7990     0.5960 C.ar  1 <1>  -0.1430 
 16 C        5.6080    -4.7410    -0.6750 C.ar  1 <1>  -0.1500 
 17 C        5.7360    -4.2180     1.6570 C.ar  1 <1>  -0.1500 
 18 C        6.8130    -4.0960    -0.8810 C.ar  1 <1>  -0.1500 
 19 C        6.9430    -3.5770     1.4440 C.ar  1 <1>  -0.1500 
 20 C        7.4960    -3.4980     0.1720 C.ar  1 <1>   0.1170 
 21 N        8.7190    -2.8370    -0.0070 N.am  1 <1>  -0.5470 
 22 C        9.1880    -2.1570    -1.0950 C.2   1 <1>   0.5690 
 23 O        8.5530    -1.9880    -2.1040 O.2   1 <1>  -0.5700 
 24 C       10.5760    -1.5760    -1.0070 C.3   1 <1>  -0.1790 
 25 H       -2.5220    -0.6630    -2.5450 H     1 <1>   0.1500 
 26 H       -1.7300    -2.4380     1.9840 H     1 <1>   0.1500 
 27 H       -4.1320    -0.1800    -0.7240 H     1 <1>   0.1500 
 28 H        1.3650    -1.4960     0.8560 H     1 <1>   0.0800 
 29 H        1.6880    -2.1290    -0.7320 H     1 <1>   0.0800 
 30 H        0.3240    -4.3550    -1.3970 H     1 <1>   0.0800 
 31 H       -0.7680    -4.9600    -0.1850 H     1 <1>   0.0800 
 32 H       -3.7220    -1.0730     1.5310 H     1 <1>   0.1500 
 33 H        2.3970    -3.3880     1.9220 H     1 <1>   0.0800 
 34 H        3.5140    -2.7620     0.7410 H     1 <1>   0.0800 
 35 H        1.3570    -6.2620    -0.2890 H     1 <1>   0.0800 
 36 H        1.0480    -5.5610     1.2760 H     1 <1>   0.0800 
 37 H        2.9050    -4.4830    -0.7630 H     1 <1>   0.4500 
 38 H        3.7360    -6.4530     0.3540 H     1 <1>   0.0800 
 39 H        3.5430    -5.6100     1.8750 H     1 <1>   0.0800 
 40 H        5.1190    -5.1950    -1.5200 H     1 <1>   0.1500 
 41 H        5.3390    -4.2590     2.6580 H     1 <1>   0.1500 
 42 H        7.2320    -4.0600    -1.8720 H     1 <1>   0.1500 
 43 H        7.4600    -3.1280     2.2730 H     1 <1>   0.1500 
 44 H        9.3350    -2.8310     0.8040 H     1 <1>   0.3700 
 45 H       10.6130    -0.8320    -0.2340 H     1 <1>   0.0800 
 46 H       10.8350    -1.1150    -1.9430 H     1 <1>   0.0800 
 47 H       11.2870    -2.3530    -0.7970 H     1 <1>   0.0800 
@<TRIPOS>BOND
  1   1   2  1   
  2   2   3  ar  
  3   2   4  ar  
  4   3   5  1   
  5   3   6  ar  
  6   4   7  ar  
  7   4  25  1   
  8   5   8  1   
  9   5   9  1   
 10   6  10  ar  
 11   6  26  1   
 12   7  10  ar  
 13   7  27  1   
 14   8  11  1   
 15   8  28  1   
 16   8  29  1   
 17   9  12  1   
 18   9  30  1   
 19   9  31  1   
 20  10  32  1   
 21  11  13  1   
 22  11  33  1   
 23  11  34  1   
 24  12  13  1   
 25  12  35  1   
 26  12  36  1   
 27  13  14  1   
 28  13  37  1   
 29  14  15  1   
 30  14  38  1   
 31  14  39  1   
 32  15  16  ar  
 33  15  17  ar  
 34  16  18  ar  
 35  16  40  1   
 36  17  19  ar  
 37  17  41  1   
 38  18  20  ar  
 39  18  42  1   
 40  19  20  ar  
 41  19  43  1   
 42  20  21  1   
 43  21  22  am  
 44  21  44  1   
 45  22  23  2   
 46  22  24  1   
 47  24  45  1   
 48  24  46  1   
 49  24  47  1   
@<TRIPOS>SUBSTRUCTURE
  1 ****  11 GROUP 4 **** **** 0

# MOE 2024.06 (io_trps.svl 2023.06)
