@<TRIPOS>MOLECULE
NONAME
52 54 1 0 0 
SMALL
USER_CHARGES


@<TRIPOS>ATOM
  1 O       -0.3530     1.0880    -0.0600 O.3   1 <1>  -0.3630 
  2 C       -1.2520     1.5960     0.8260 C.ar  1 <1>   0.0830 
  3 C        1.0360     1.2900     0.0990 C.3   1 <1>   0.2640 
  4 C       -1.1030     2.7820     1.5610 C.ar  1 <1>   0.0830 
  5 C       -2.4010     0.8390     0.9700 C.ar  1 <1>  -0.1500 
  6 C        1.7740     0.2010    -0.6610 C.ar  1 <1>  -0.1440 
  7 O        0.0140     3.5480     1.3920 O.3   1 <1>  -0.3630 
  8 C       -2.1180     3.1570     2.4390 C.ar  1 <1>  -0.1500 
  9 C       -3.4140     1.2270     1.8320 C.ar  1 <1>  -0.1440 
 10 C        1.8170     0.2260    -2.0470 C.ar  1 <1>  -0.1500 
 11 C        2.4130    -0.8250     0.0190 C.ar  1 <1>  -0.1500 
 12 C        0.2020     4.7730     2.0680 C.3   1 <1>   0.0400 
 13 C       -3.2610     2.3870     2.5730 C.ar  1 <1>  -0.1500 
 14 C       -4.6730     0.3890     1.9460 C.3   1 <1>   0.4860 
 15 C        2.4930    -0.7590    -2.7460 C.ar  1 <1>  -0.1500 
 16 C        3.0900    -1.8120    -0.6780 C.ar  1 <1>  -0.1500 
 17 N       -5.4340     0.5060     0.6740 N.4   1 <1>  -0.9590 
 18 C        3.1300    -1.7790    -2.0610 C.ar  1 <1>  -0.1500 
 19 C       -5.8980     1.9040     0.4330 C.3   1 <1>   0.3430 
 20 C       -6.5490    -0.4790     0.6080 C.3   1 <1>   0.3430 
 21 C       -6.5450     2.0000    -0.9490 C.3   1 <1>  -0.1600 
 22 C       -7.2040    -0.4220    -0.7730 C.3   1 <1>  -0.1600 
 23 C       -7.6940     0.9930    -1.1100 C.3   1 <1>  -0.0800 
 24 C       -8.2610     1.0440    -2.5320 C.3   1 <1>  -0.2400 
 25 H        1.2850     2.2580    -0.2970 H     1 <1>   0.0800 
 26 H        1.2720     1.2530     1.1480 H     1 <1>   0.0800 
 27 H       -2.4760    -0.0650     0.3910 H     1 <1>   0.1500 
 28 H       -2.0390     4.0500     3.0310 H     1 <1>   0.1500 
 29 H        1.3190     1.0140    -2.5850 H     1 <1>   0.1500 
 30 H        2.3870    -0.8620     1.0940 H     1 <1>   0.1500 
 31 H        1.1430     5.1860     1.7540 H     1 <1>   0.0800 
 32 H       -0.5960     5.4450     1.8050 H     1 <1>   0.0800 
 33 H        0.2220     4.5900     3.1280 H     1 <1>   0.0800 
 34 H       -4.0240     2.7090     3.2630 H     1 <1>   0.1500 
 35 H       -5.2720     0.7300     2.7750 H     1 <1>   0.0800 
 36 H       -4.3970    -0.6380     2.1210 H     1 <1>   0.0800 
 37 H        2.5210    -0.7330    -3.8210 H     1 <1>   0.1500 
 38 H        3.5840    -2.6050    -0.1450 H     1 <1>   0.1500 
 39 H       -4.7720     0.2900    -0.0820 H     1 <1>   0.4500 
 40 H        3.6560    -2.5450    -2.6030 H     1 <1>   0.1500 
 41 H       -5.0640     2.5870     0.4810 H     1 <1>   0.0800 
 42 H       -6.6140     2.1890     1.1860 H     1 <1>   0.0800 
 43 H       -7.2850    -0.2510     1.3620 H     1 <1>   0.0800 
 44 H       -6.1760    -1.4760     0.7850 H     1 <1>   0.0800 
 45 H       -5.7950     1.8350    -1.7030 H     1 <1>   0.0800 
 46 H       -6.9230     2.9990    -1.0860 H     1 <1>   0.0800 
 47 H       -8.0380    -1.1020    -0.7900 H     1 <1>   0.0800 
 48 H       -6.5000    -0.7590    -1.5140 H     1 <1>   0.0800 
 49 H       -8.4840     1.2580    -0.4250 H     1 <1>   0.0800 
 50 H       -7.5090     0.7870    -3.2580 H     1 <1>   0.0800 
 51 H       -8.6250     2.0320    -2.7560 H     1 <1>   0.0800 
 52 H       -9.0820     0.3560    -2.6350 H     1 <1>   0.0800 
@<TRIPOS>BOND
  1   1   2  1   
  2   1   3  1   
  3   2   4  ar  
  4   2   5  ar  
  5   3   6  1   
  6   3  25  1   
  7   3  26  1   
  8   4   7  1   
  9   4   8  ar  
 10   5   9  ar  
 11   5  27  1   
 12   6  10  ar  
 13   6  11  ar  
 14   7  12  1   
 15   8  13  ar  
 16   8  28  1   
 17   9  13  ar  
 18   9  14  1   
 19  10  15  ar  
 20  10  29  1   
 21  11  16  ar  
 22  11  30  1   
 23  12  31  1   
 24  12  32  1   
 25  12  33  1   
 26  13  34  1   
 27  14  17  1   
 28  14  35  1   
 29  14  36  1   
 30  15  18  ar  
 31  15  37  1   
 32  16  18  ar  
 33  16  38  1   
 34  17  19  1   
 35  17  20  1   
 36  17  39  1   
 37  18  40  1   
 38  19  21  1   
 39  19  41  1   
 40  19  42  1   
 41  20  22  1   
 42  20  43  1   
 43  20  44  1   
 44  21  23  1   
 45  21  45  1   
 46  21  46  1   
 47  22  23  1   
 48  22  47  1   
 49  22  48  1   
 50  23  24  1   
 51  23  49  1   
 52  24  50  1   
 53  24  51  1   
 54  24  52  1   
@<TRIPOS>SUBSTRUCTURE
  1 ****   5 GROUP 4 **** **** 0

# MOE 2024.06 (io_trps.svl 2023.06)
