@<TRIPOS>MOLECULE
Structure2261
33 34 1 0 0 
SMALL
USER_CHARGES


@<TRIPOS>ATOM
  1 F       -0.0590     1.2540    -0.9400 F     1 <1>  -0.1900 
  2 C        0.8480     2.1050    -0.5430 C.ar  1 <1>   0.1900 
  3 C        2.1400     1.6550    -0.3530 C.ar  1 <1>  -0.1500 
  4 C        0.4750     3.4190    -0.3290 C.ar  1 <1>  -0.1500 
  5 C        3.1030     2.5660     0.0710 C.ar  1 <1>   0.0830 
  6 C        1.4390     4.3190     0.0920 C.ar  1 <1>  -0.1500 
  7 O        4.4010     2.2430     0.2890 O.3   1 <1>  -0.3630 
  8 C        2.7430     3.8900     0.2900 C.ar  1 <1>  -0.1500 
  9 C        4.8900     0.9370     0.0450 C.3   1 <1>   0.1200 
 10 C        6.3960     0.8880     0.3660 C.3   1 <1>   0.2800 
 11 O        6.5650     1.3560     1.6590 O.3   1 <1>  -0.6800 
 12 C        6.9520    -0.5610     0.3100 C.3   1 <1>   0.3430 
 13 C        7.2260     1.7990    -0.5600 C.3   1 <1>  -0.1600 
 14 N        8.4580    -0.6590     0.1830 N.4   1 <1>  -0.9060 
 15 C        8.7400     1.7620    -0.2390 C.3   1 <1>  -0.1600 
 16 C        9.1700     0.5710     0.6300 C.3   1 <1>   0.3430 
 17 H        2.3540     0.6210    -0.5370 H     1 <1>   0.1500 
 18 H       -0.5430     3.7250    -0.4900 H     1 <1>   0.1500 
 19 H        1.1770     5.3490     0.2670 H     1 <1>   0.1500 
 20 H        3.4920     4.5900     0.6170 H     1 <1>   0.1500 
 21 H        4.7120     0.6990    -0.9890 H     1 <1>   0.0800 
 22 H        4.3480     0.2520     0.6740 H     1 <1>   0.0800 
 23 H        6.0050     2.1580     1.7740 H     1 <1>   0.4000 
 24 H        6.5060    -1.0670    -0.5300 H     1 <1>   0.0800 
 25 H        6.6270    -1.0690     1.2040 H     1 <1>   0.0800 
 26 H        6.8660     2.8140    -0.5080 H     1 <1>   0.0800 
 27 H        7.0810     1.4740    -1.5750 H     1 <1>   0.0800 
 28 H        8.7120    -0.8330    -0.7960 H     1 <1>   0.4500 
 29 H        8.7950    -1.4600     0.7330 H     1 <1>   0.4500 
 30 H        9.0040     2.6600     0.2930 H     1 <1>   0.0800 
 31 H        9.3050     1.7680    -1.1550 H     1 <1>   0.0800 
 32 H       10.2390     0.4380     0.5700 H     1 <1>   0.0800 
 33 H        8.9140     0.7750     1.6590 H     1 <1>   0.0800 
@<TRIPOS>BOND
  1   1   2  1   
  2   2   3  ar  
  3   2   4  ar  
  4   3   5  ar  
  5   3  17  1   
  6   4   6  ar  
  7   4  18  1   
  8   5   7  1   
  9   5   8  ar  
 10   6   8  ar  
 11   6  19  1   
 12   7   9  1   
 13   8  20  1   
 14   9  10  1   
 15   9  21  1   
 16   9  22  1   
 17  10  11  1   
 18  10  12  1   
 19  10  13  1   
 20  11  23  1   
 21  12  14  1   
 22  12  24  1   
 23  12  25  1   
 24  13  15  1   
 25  13  26  1   
 26  13  27  1   
 27  14  16  1   
 28  14  28  1   
 29  14  29  1   
 30  15  16  1   
 31  15  30  1   
 32  15  31  1   
 33  16  32  1   
 34  16  33  1   
@<TRIPOS>SUBSTRUCTURE
  1 ****   7 GROUP 4 **** **** 0

# MOE 2024.06 (io_trps.svl 2023.06)
