@<TRIPOS>MOLECULE
NONAME
51 53 1 0 0 
SMALL
USER_CHARGES


@<TRIPOS>ATOM
  1 BR       1.0980    -1.8160    -3.5400 Br    1 <1>  -0.1110 
  2 C        0.2610    -2.7180    -2.0520 C.ar  1 <1>   0.1110 
  3 C        0.9590    -2.8870    -0.8640 C.ar  1 <1>   0.0820 
  4 C       -1.0320    -3.1700    -2.2270 C.ar  1 <1>  -0.1500 
  5 O        2.2270    -2.4060    -0.7910 O.3   1 <1>  -0.3630 
  6 C        0.3180    -3.5390     0.1850 C.ar  1 <1>  -0.1500 
  7 C       -1.6640    -3.8170    -1.1760 C.ar  1 <1>  -0.1430 
  8 C        3.0440    -2.6150     0.3410 C.3   1 <1>   0.0400 
  9 C       -0.9900    -4.0020     0.0310 C.ar  1 <1>   0.0820 
 10 C       -3.0850    -4.3220    -1.3460 C.3   1 <1>   0.4870 
 11 O       -1.6680    -4.6350     1.0280 O.3   1 <1>  -0.3630 
 12 N       -3.9520    -3.6320    -0.3620 N.4   1 <1>  -0.9590 
 13 C       -1.0010    -5.1010     2.1850 C.3   1 <1>   0.0400 
 14 C       -5.3220    -4.2470    -0.2650 C.3   1 <1>   0.3430 
 15 C       -4.0250    -2.1440    -0.5960 C.3   1 <1>   0.3430 
 16 C       -6.2030    -3.5650     0.8030 C.3   1 <1>   0.2090 
 17 C       -4.8860    -1.4170     0.4580 C.3   1 <1>   0.2090 
 18 N       -6.2090    -2.0820     0.6500 N.pl3 1 <1>  -0.8380 
 19 C       -7.3280    -1.4950     0.0600 C.ar  1 <1>   0.1000 
 20 C       -8.2920    -0.8530     0.8390 C.ar  1 <1>  -0.1430 
 21 C       -7.5020    -1.5460    -1.3190 C.ar  1 <1>  -0.1500 
 22 C       -9.3980    -0.2810     0.2330 C.ar  1 <1>  -0.1500 
 23 C       -8.1410    -0.7720     2.3520 C.3   1 <1>  -0.0970 
 24 C       -8.6070    -0.9730    -1.9180 C.ar  1 <1>  -0.1500 
 25 C       -9.5590    -0.3380    -1.1400 C.ar  1 <1>  -0.1500 
 26 H       -1.5140    -3.0120    -3.1760 H     1 <1>   0.1500 
 27 H        0.8350    -3.6760     1.1120 H     1 <1>   0.1500 
 28 H        4.0050    -2.1740     0.1430 H     1 <1>   0.0800 
 29 H        3.1550    -3.6720     0.5030 H     1 <1>   0.0800 
 30 H        2.5940    -2.1360     1.1920 H     1 <1>   0.0800 
 31 H       -3.0990    -5.3850    -1.1670 H     1 <1>   0.0800 
 32 H       -3.4320    -4.1360    -2.3490 H     1 <1>   0.0800 
 33 H       -3.4680    -3.7730     0.5410 H     1 <1>   0.4500 
 34 H       -0.6450    -4.2590     2.7530 H     1 <1>   0.0800 
 35 H       -0.1840    -5.7360     1.8900 H     1 <1>   0.0800 
 36 H       -1.7010    -5.6650     2.7770 H     1 <1>   0.0800 
 37 H       -5.2390    -5.2950    -0.0290 H     1 <1>   0.0800 
 38 H       -5.8240    -4.1600    -1.2140 H     1 <1>   0.0800 
 39 H       -4.4530    -1.9530    -1.5660 H     1 <1>   0.0800 
 40 H       -3.0340    -1.7200    -0.5860 H     1 <1>   0.0800 
 41 H       -5.8420    -3.8140     1.7860 H     1 <1>   0.0800 
 42 H       -7.2110    -3.9360     0.7250 H     1 <1>   0.0800 
 43 H       -5.0400    -0.3960     0.1510 H     1 <1>   0.0800 
 44 H       -4.3650    -1.3970     1.3990 H     1 <1>   0.0800 
 45 H       -6.7720    -2.0350    -1.9310 H     1 <1>   0.1500 
 46 H      -10.1460     0.2160     0.8270 H     1 <1>   0.1500 
 47 H       -8.1180    -1.7620     2.7690 H     1 <1>   0.0800 
 48 H       -8.9560    -0.2310     2.7960 H     1 <1>   0.0800 
 49 H       -7.2230    -0.2710     2.5990 H     1 <1>   0.0800 
 50 H       -8.7340    -1.0160    -2.9860 H     1 <1>   0.1500 
 51 H      -10.4220     0.1100    -1.6000 H     1 <1>   0.1500 
@<TRIPOS>BOND
  1   1   2  1   
  2   2   3  ar  
  3   2   4  ar  
  4   3   5  1   
  5   3   6  ar  
  6   4   7  ar  
  7   4  26  1   
  8   5   8  1   
  9   6   9  ar  
 10   6  27  1   
 11   7   9  ar  
 12   7  10  1   
 13   8  28  1   
 14   8  29  1   
 15   8  30  1   
 16   9  11  1   
 17  10  12  1   
 18  10  31  1   
 19  10  32  1   
 20  11  13  1   
 21  12  14  1   
 22  12  15  1   
 23  12  33  1   
 24  13  34  1   
 25  13  35  1   
 26  13  36  1   
 27  14  16  1   
 28  14  37  1   
 29  14  38  1   
 30  15  17  1   
 31  15  39  1   
 32  15  40  1   
 33  16  18  1   
 34  16  41  1   
 35  16  42  1   
 36  17  18  1   
 37  17  43  1   
 38  17  44  1   
 39  18  19  1   
 40  19  20  ar  
 41  19  21  ar  
 42  20  22  ar  
 43  20  23  1   
 44  21  24  ar  
 45  21  45  1   
 46  22  25  ar  
 47  22  46  1   
 48  23  47  1   
 49  23  48  1   
 50  23  49  1   
 51  24  25  ar  
 52  24  50  1   
 53  25  51  1   
@<TRIPOS>SUBSTRUCTURE
  1 ****  15 GROUP 4 **** **** 0

# MOE 2024.06 (io_trps.svl 2023.06)
