@<TRIPOS>MOLECULE
NONAME
38 40 1 0 0 
SMALL
USER_CHARGES


@<TRIPOS>ATOM
  1 BR      -1.4750    -0.3080     2.2370 Br    1 <1>  -0.1110 
  2 C       -2.4010     0.7900     0.9580 C.ar  1 <1>   0.1110 
  3 C       -3.6280     0.3640     0.4880 C.ar  1 <1>  -0.1500 
  4 C       -1.8180     1.9710     0.5460 C.ar  1 <1>  -0.1500 
  5 C       -4.3050     1.1570    -0.4290 C.ar  1 <1>  -0.1440 
  6 C       -2.4920     2.7530    -0.3760 C.ar  1 <1>  -0.1500 
  7 C       -3.7270     2.3470    -0.8600 C.ar  1 <1>  -0.1500 
  8 C       -5.6650     0.7330    -0.9520 C.3   1 <1>   0.4870 
  9 N       -6.6700     0.9400     0.1230 N.4   1 <1>  -0.9590 
 10 C       -8.0100     0.3450    -0.2490 C.3   1 <1>   0.3430 
 11 C       -6.7910     2.4070     0.4860 C.3   1 <1>   0.3430 
 12 C       -9.1050     0.6210     0.8040 C.3   1 <1>   0.2090 
 13 C       -7.8800     2.6650     1.5450 C.3   1 <1>   0.2090 
 14 N       -9.1730     2.0830     1.0820 N.pl3 1 <1>  -0.8380 
 15 C      -10.0640     2.8480     0.3660 C.ar  1 <1>   0.7200 
 16 N      -11.3070     2.3910     0.2870 N.ar  1 <1>  -0.6200 
 17 N       -9.5820     3.9470    -0.2120 N.ar  1 <1>  -0.6200 
 18 C      -12.1530     3.1330    -0.3860 C.ar  1 <1>   0.1600 
 19 C      -10.4520     4.6690    -0.8800 C.ar  1 <1>   0.1600 
 20 C      -11.7710     4.3020    -0.9960 C.ar  1 <1>  -0.1500 
 21 H       -4.0240    -0.5720     0.8410 H     1 <1>   0.1500 
 22 H       -0.8590     2.2690     0.9340 H     1 <1>   0.1500 
 23 H       -2.0520     3.6750    -0.7170 H     1 <1>   0.1500 
 24 H       -4.2260     2.9740    -1.5810 H     1 <1>   0.1500 
 25 H       -5.6280    -0.3070    -1.2330 H     1 <1>   0.0800 
 26 H       -5.9240     1.3140    -1.8220 H     1 <1>   0.0800 
 27 H       -6.3220     0.4580     0.9600 H     1 <1>   0.4500 
 28 H       -7.9160    -0.7200    -0.3850 H     1 <1>   0.0800 
 29 H       -8.3430     0.7690    -1.1830 H     1 <1>   0.0800 
 30 H       -7.0460     2.9790    -0.3920 H     1 <1>   0.0800 
 31 H       -5.8480     2.7750     0.8570 H     1 <1>   0.0800 
 32 H       -8.8870     0.0930     1.7160 H     1 <1>   0.0800 
 33 H      -10.0500     0.2560     0.4400 H     1 <1>   0.0800 
 34 H       -7.9840     3.7240     1.7140 H     1 <1>   0.0800 
 35 H       -7.6000     2.2180     2.4830 H     1 <1>   0.0800 
 36 H      -13.1770     2.8010    -0.4530 H     1 <1>   0.1500 
 37 H      -10.1080     5.5770    -1.3470 H     1 <1>   0.1500 
 38 H      -12.4740     4.9030    -1.5420 H     1 <1>   0.1500 
@<TRIPOS>BOND
  1   1   2  1   
  2   2   3  ar  
  3   2   4  ar  
  4   3   5  ar  
  5   3  21  1   
  6   4   6  ar  
  7   4  22  1   
  8   5   7  ar  
  9   5   8  1   
 10   6   7  ar  
 11   6  23  1   
 12   7  24  1   
 13   8   9  1   
 14   8  25  1   
 15   8  26  1   
 16   9  10  1   
 17   9  11  1   
 18   9  27  1   
 19  10  12  1   
 20  10  28  1   
 21  10  29  1   
 22  11  13  1   
 23  11  30  1   
 24  11  31  1   
 25  12  14  1   
 26  12  32  1   
 27  12  33  1   
 28  13  14  1   
 29  13  34  1   
 30  13  35  1   
 31  14  15  1   
 32  15  16  ar  
 33  15  17  ar  
 34  16  18  ar  
 35  17  19  ar  
 36  18  20  ar  
 37  18  36  1   
 38  19  20  ar  
 39  19  37  1   
 40  20  38  1   
@<TRIPOS>SUBSTRUCTURE
  1 ****  11 GROUP 4 **** **** 0

# MOE 2024.06 (io_trps.svl 2023.06)
