@<TRIPOS>MOLECULE
NONAME
44 44 1 0 0 
SMALL
USER_CHARGES


@<TRIPOS>ATOM
  1 O       -1.5340    -0.1510     1.5230 O.3   1 <1>  -0.3630 
  2 C       -2.0590     0.7030     0.6120 C.ar  1 <1>   0.0830 
  3 C       -0.9020    -1.3200     1.0440 C.3   1 <1>   0.1200 
  4 C       -1.4230     1.9020     0.2920 C.ar  1 <1>   0.0820 
  5 C       -3.2720     0.3880     0.0240 C.ar  1 <1>  -0.1500 
  6 C        0.4990    -0.9800     0.5380 C.3   1 <1>  -0.2400 
  7 O       -0.2520     2.2410     0.8700 O.3   1 <1>  -0.5320 
  8 C       -1.9940     2.7610    -0.6310 C.ar  1 <1>  -0.1500 
  9 C       -3.8590     1.2600    -0.8840 C.ar  1 <1>  -0.1430 
 10 C       -3.2070     2.4400    -1.2180 C.ar  1 <1>  -0.1500 
 11 C       -5.2100     0.9300    -1.4830 C.3   1 <1>   0.4860 
 12 N       -6.2430     1.1090    -0.4100 N.4   1 <1>  -0.9590 
 13 C       -7.5530     0.4710    -0.8010 C.3   1 <1>   0.3430 
 14 C       -6.3540     2.5680    -0.0540 C.3   1 <1>   0.2630 
 15 C       -8.6130     0.4250     0.3410 C.3   1 <1>   0.3430 
 16 N       -9.9360    -0.1950    -0.0480 N.4   1 <1>  -0.9590 
 17 C      -10.9370    -0.0170     1.0600 C.3   1 <1>   0.2630 
 18 C       -9.8440    -1.6600    -0.3770 C.3   1 <1>   0.2630 
 19 H       -1.5040    -1.7540     0.2650 H     1 <1>   0.0800 
 20 H       -0.8390    -2.0090     1.8680 H     1 <1>   0.0800 
 21 H       -3.7340    -0.5430     0.2970 H     1 <1>   0.1500 
 22 H        0.4450    -0.3320    -0.3170 H     1 <1>   0.0800 
 23 H        1.0100    -1.8800     0.2500 H     1 <1>   0.0800 
 24 H        1.0630    -0.4980     1.3160 H     1 <1>   0.0800 
 25 H        0.0970     3.1010     0.5800 H     1 <1>   0.4500 
 26 H       -1.4980     3.6790    -0.8930 H     1 <1>   0.1500 
 27 H       -3.6280     3.1260    -1.9340 H     1 <1>   0.1500 
 28 H       -5.1980    -0.0900    -1.8310 H     1 <1>   0.0800 
 29 H       -5.4140     1.5780    -2.3210 H     1 <1>   0.0800 
 30 H       -5.8260     0.6330     0.4070 H     1 <1>   0.4500 
 31 H       -7.3620    -0.5390    -1.1240 H     1 <1>   0.0800 
 32 H       -7.9680     1.0140    -1.6350 H     1 <1>   0.0800 
 33 H       -6.7060     3.1400    -0.8970 H     1 <1>   0.0800 
 34 H       -5.3900     2.9550     0.2400 H     1 <1>   0.0800 
 35 H       -7.0320     2.7110     0.7720 H     1 <1>   0.0800 
 36 H       -8.7940     1.4340     0.6720 H     1 <1>   0.0800 
 37 H       -8.2030    -0.1260     1.1710 H     1 <1>   0.0800 
 38 H      -10.3330     0.2920    -0.8710 H     1 <1>   0.4500 
 39 H      -10.6060    -0.5190     1.9550 H     1 <1>   0.0800 
 40 H      -11.8920    -0.4280     0.7730 H     1 <1>   0.0800 
 41 H      -11.0740     1.0300     1.2830 H     1 <1>   0.0800 
 42 H       -9.4660    -2.2150     0.4670 H     1 <1>   0.0800 
 43 H       -9.1940    -1.8240    -1.2210 H     1 <1>   0.0800 
 44 H      -10.8200    -2.0480    -0.6250 H     1 <1>   0.0800 
@<TRIPOS>BOND
  1   1   2  1   
  2   1   3  1   
  3   2   4  ar  
  4   2   5  ar  
  5   3   6  1   
  6   3  19  1   
  7   3  20  1   
  8   4   7  1   
  9   4   8  ar  
 10   5   9  ar  
 11   5  21  1   
 12   6  22  1   
 13   6  23  1   
 14   6  24  1   
 15   7  25  1   
 16   8  10  ar  
 17   8  26  1   
 18   9  10  ar  
 19   9  11  1   
 20  10  27  1   
 21  11  12  1   
 22  11  28  1   
 23  11  29  1   
 24  12  13  1   
 25  12  14  1   
 26  12  30  1   
 27  13  15  1   
 28  13  31  1   
 29  13  32  1   
 30  14  33  1   
 31  14  34  1   
 32  14  35  1   
 33  15  16  1   
 34  15  36  1   
 35  15  37  1   
 36  16  17  1   
 37  16  18  1   
 38  16  38  1   
 39  17  39  1   
 40  17  40  1   
 41  17  41  1   
 42  18  42  1   
 43  18  43  1   
 44  18  44  1   
@<TRIPOS>SUBSTRUCTURE
  1 ****   9 GROUP 4 **** **** 0

# MOE 2024.06 (io_trps.svl 2023.06)
