@<TRIPOS>MOLECULE
NONAME
44 45 1 0 0 
SMALL
USER_CHARGES


@<TRIPOS>ATOM
  1 O        1.3350     0.7880     0.9320 O.3   1 <1>  -0.3630 
  2 C        0.5580     1.7870     0.4320 C.ar  1 <1>   0.0830 
  3 C        0.8740    -0.0380     1.9820 C.3   1 <1>   0.0400 
  4 C        0.9820     2.4130    -0.7380 C.ar  1 <1>  -0.1440 
  5 C       -0.6240     2.2000     1.0430 C.ar  1 <1>  -0.1500 
  6 C        0.2230     3.4370    -1.2840 C.ar  1 <1>  -0.1500 
  7 C        2.2710     1.9810    -1.4160 C.3   1 <1>  -0.0160 
  8 C       -1.3730     3.2230     0.4900 C.ar  1 <1>  -0.1500 
  9 C       -0.9500     3.8410    -0.6720 C.ar  1 <1>  -0.1500 
 10 C        3.4500     2.3720    -0.5260 C.3   1 <1>   0.3430 
 11 N        4.7240     1.8280    -1.0730 N.4   1 <1>  -0.9060 
 12 C        5.8930     2.1160    -0.2200 C.3   1 <1>   0.4230 
 13 C        6.3290     3.5750    -0.4310 C.3   1 <1>  -0.1600 
 14 C        6.9680     1.0790    -0.5650 C.3   1 <1>  -0.1600 
 15 C        7.2840     4.0480     0.6760 C.3   1 <1>  -0.1600 
 16 C        8.2860     1.2290     0.2130 C.3   1 <1>  -0.1600 
 17 C        8.7700     3.7660     0.4100 C.3   1 <1>  -0.1600 
 18 C        9.1170     2.4290    -0.2620 C.3   1 <1>  -0.1600 
 19 H        1.6030    -0.8090     2.1520 H     1 <1>   0.0800 
 20 H       -0.0630    -0.4810     1.6930 H     1 <1>   0.0800 
 21 H        0.7580     0.5560     2.8720 H     1 <1>   0.0800 
 22 H       -0.9810     1.7430     1.9460 H     1 <1>   0.1500 
 23 H        0.5290     3.9310    -2.1900 H     1 <1>   0.1500 
 24 H        2.3600     2.4520    -2.3780 H     1 <1>   0.0800 
 25 H        2.2430     0.9140    -1.5540 H     1 <1>   0.0800 
 26 H       -2.2860     3.5400     0.9640 H     1 <1>   0.1500 
 27 H       -1.5370     4.6360    -1.1010 H     1 <1>   0.1500 
 28 H        3.2860     1.9800     0.4650 H     1 <1>   0.0800 
 29 H        3.4950     3.4460    -0.4550 H     1 <1>   0.0800 
 30 H        4.9020     2.1980    -2.0130 H     1 <1>   0.4500 
 31 H        4.6330     0.8100    -1.1560 H     1 <1>   0.4500 
 32 H        5.6160     1.9840     0.8150 H     1 <1>   0.0800 
 33 H        5.4670     4.2150    -0.3830 H     1 <1>   0.0800 
 34 H        6.7860     3.7090    -1.3960 H     1 <1>   0.0800 
 35 H        7.1850     1.1100    -1.6190 H     1 <1>   0.0800 
 36 H        6.5770     0.1020    -0.3380 H     1 <1>   0.0800 
 37 H        7.0000     3.6050     1.6160 H     1 <1>   0.0800 
 38 H        7.1750     5.1130     0.7970 H     1 <1>   0.0800 
 39 H        8.8700     0.3410     0.0370 H     1 <1>   0.0800 
 40 H        8.1120     1.2840     1.2740 H     1 <1>   0.0800 
 41 H        9.2900     3.8220     1.3520 H     1 <1>   0.0800 
 42 H        9.1680     4.5560    -0.2050 H     1 <1>   0.0800 
 43 H        9.0350     2.5300    -1.3310 H     1 <1>   0.0800 
 44 H       10.1550     2.2260    -0.0580 H     1 <1>   0.0800 
@<TRIPOS>BOND
  1   1   2  1   
  2   1   3  1   
  3   2   4  ar  
  4   2   5  ar  
  5   3  19  1   
  6   3  20  1   
  7   3  21  1   
  8   4   6  ar  
  9   4   7  1   
 10   5   8  ar  
 11   5  22  1   
 12   6   9  ar  
 13   6  23  1   
 14   7  10  1   
 15   7  24  1   
 16   7  25  1   
 17   8   9  ar  
 18   8  26  1   
 19   9  27  1   
 20  10  11  1   
 21  10  28  1   
 22  10  29  1   
 23  11  12  1   
 24  11  30  1   
 25  11  31  1   
 26  12  13  1   
 27  12  14  1   
 28  12  32  1   
 29  13  15  1   
 30  13  33  1   
 31  13  34  1   
 32  14  16  1   
 33  14  35  1   
 34  14  36  1   
 35  15  17  1   
 36  15  37  1   
 37  15  38  1   
 38  16  18  1   
 39  16  39  1   
 40  16  40  1   
 41  17  18  1   
 42  17  41  1   
 43  17  42  1   
 44  18  43  1   
 45  18  44  1   
@<TRIPOS>SUBSTRUCTURE
  1 ****  10 GROUP 4 **** **** 0

# MOE 2024.06 (io_trps.svl 2023.06)
