@<TRIPOS>MOLECULE
NONAME
32 34 1 0 0 
SMALL
USER_CHARGES


@<TRIPOS>ATOM
  1 O        8.8670    -1.0710    -0.8730 O.2   1 <1>  -0.5700 
  2 C        7.7960    -1.5040    -0.4700 C.2   1 <1>   0.7160 
  3 N        7.7420    -2.8250    -0.1460 N.am  1 <1>  -0.4900 
  4 C        6.5810    -0.7710    -0.3020 C.2   1 <1>   0.1410 
  5 C        6.6020    -3.4170     0.3090 C.2   1 <1>   0.5600 
  6 N        6.2430     0.5370    -0.5150 N.2   1 <1>  -0.5650 
  7 C        5.4930    -1.4620     0.1600 C.2   1 <1>  -0.0260 
  8 N        5.4760    -2.7980     0.4710 N.2   1 <1>  -0.5760 
  9 N        6.6660    -4.7250     0.6030 N.pl3 1 <1>  -0.8500 
 10 C        4.9960     0.5970    -0.1820 C.2   1 <1>   0.0360 
 11 N        4.4740    -0.5850     0.2370 N.pl3 1 <1>   0.0480 
 12 C        3.1030    -0.9040     0.6750 C.3   1 <1>   0.4560 
 13 O        2.2670     0.2100     0.5780 O.3   1 <1>  -0.5600 
 14 C        2.4480    -1.9710    -0.2090 C.3   1 <1>   0.2000 
 15 C        0.9520    -0.2440     0.5240 C.3   1 <1>   0.2000 
 16 O        2.5140    -3.2200     0.3940 O.3   1 <1>  -0.6800 
 17 C        1.0040    -1.5130    -0.3330 C.3   1 <1>  -0.1600 
 18 C        0.0540     0.8730    -0.0260 C.3   1 <1>   0.1200 
 19 O       -1.2550     0.4220    -0.1500 O.3   1 <1>  -0.6800 
 20 H        8.5940    -3.3500    -0.2850 H     1 <1>   0.3700 
 21 H        5.8480    -5.1690     1.0220 H     1 <1>   0.4000 
 22 H        7.5340    -5.2550     0.6510 H     1 <1>   0.4000 
 23 H        4.3950     1.4900    -0.2220 H     1 <1>   0.1500 
 24 H        3.1120    -1.2200     1.7040 H     1 <1>   0.0800 
 25 H        2.9230    -2.0300    -1.1730 H     1 <1>   0.0800 
 26 H        0.6550    -0.4840     1.5320 H     1 <1>   0.0800 
 27 H        3.4630    -3.4760     0.4760 H     1 <1>   0.4000 
 28 H        0.3000    -2.2460     0.0170 H     1 <1>   0.0800 
 29 H        0.7920    -1.2750    -1.3590 H     1 <1>   0.0800 
 30 H        0.3930     1.1970    -0.9950 H     1 <1>   0.0800 
 31 H        0.0480     1.7090     0.6520 H     1 <1>   0.0800 
 32 H       -1.3290    -0.2620    -0.8440 H     1 <1>   0.4000 
@<TRIPOS>BOND
  1   1   2  2   
  2   2   3  am  
  3   2   4  1   
  4   3   5  1   
  5   3  20  1   
  6   4   6  1   
  7   4   7  2   
  8   5   8  2   
  9   5   9  1   
 10   6  10  2   
 11   7   8  1   
 12   7  11  1   
 13   9  21  1   
 14   9  22  1   
 15  10  11  1   
 16  10  23  1   
 17  11  12  1   
 18  12  13  1   
 19  12  14  1   
 20  12  24  1   
 21  13  15  1   
 22  14  16  1   
 23  14  17  1   
 24  14  25  1   
 25  15  17  1   
 26  15  18  1   
 27  15  26  1   
 28  16  27  1   
 29  17  28  1   
 30  17  29  1   
 31  18  19  1   
 32  18  30  1   
 33  18  31  1   
 34  19  32  1   
@<TRIPOS>SUBSTRUCTURE
  1 ****  11 GROUP 4 **** **** 0

# MOE 2024.06 (io_trps.svl 2023.06)
