@<TRIPOS>MOLECULE
NONAME
50 52 1 0 0 
SMALL
USER_CHARGES


@<TRIPOS>ATOM
  1 F        0.0160    -0.5260     1.6500 F     1 <1>  -0.3400 
  2 C        0.9160    -1.3630     2.1460 C.3   1 <1>   1.1640 
  3 F        1.7020    -0.6410     2.9370 F     1 <1>  -0.3400 
  4 F        0.2610    -2.2040     2.9370 F     1 <1>  -0.3400 
  5 C        1.7200    -2.0640     1.0350 C.ar  1 <1>  -0.1440 
  6 C        2.7620    -1.4010     0.3920 C.ar  1 <1>  -0.1500 
  7 C        1.4210    -3.3650     0.6430 C.ar  1 <1>  -0.1500 
  8 C        3.4950    -2.0200    -0.6120 C.ar  1 <1>  -0.1440 
  9 C        2.1420    -3.9840    -0.3610 C.ar  1 <1>  -0.1500 
 10 C        3.1750    -3.3150    -0.9890 C.ar  1 <1>  -0.1500 
 11 C        4.6380    -1.2970    -1.2870 C.3   1 <1>   0.4870 
 12 N        5.8590    -1.6510    -0.5230 N.4   1 <1>  -0.9060 
 13 C        7.1440    -1.1760    -1.0900 C.3   1 <1>   0.4230 
 14 C        8.2890    -1.8700    -0.3510 C.3   1 <1>  -0.1600 
 15 C        7.2700     0.3460    -0.9550 C.3   1 <1>  -0.1600 
 16 C        9.6500    -1.3690    -0.8340 C.3   1 <1>   0.3430 
 17 C        8.6430     0.8370    -1.4300 C.3   1 <1>   0.3430 
 18 N        9.7220     0.1170    -0.6990 N.4   1 <1>  -0.9590 
 19 C       11.0740     0.6230    -1.0980 C.3   1 <1>   0.4860 
 20 C       12.0900     0.0470    -0.1350 C.ar  1 <1>  -0.1430 
 21 C       12.1780     0.5310     1.1630 C.ar  1 <1>  -0.1500 
 22 C       12.9350    -0.9770    -0.5410 C.ar  1 <1>  -0.1500 
 23 C       13.0860    -0.0180     2.0500 C.ar  1 <1>  -0.1500 
 24 C       13.8430    -1.5240     0.3490 C.ar  1 <1>  -0.1500 
 25 C       13.9160    -1.0470     1.6450 C.ar  1 <1>  -0.1500 
 26 H        2.9890    -0.3870     0.6850 H     1 <1>   0.1500 
 27 H        0.6180    -3.9090     1.1150 H     1 <1>   0.1500 
 28 H        1.8900    -4.9900    -0.6540 H     1 <1>   0.1500 
 29 H        3.7110    -3.8230    -1.7750 H     1 <1>   0.1500 
 30 H        4.4650    -0.2330    -1.2700 H     1 <1>   0.0800 
 31 H        4.7190    -1.6240    -2.3120 H     1 <1>   0.0800 
 32 H        5.8530    -2.6770    -0.4540 H     1 <1>   0.4500 
 33 H        5.7240    -1.3260     0.4430 H     1 <1>   0.4500 
 34 H        7.1940    -1.4450    -2.1350 H     1 <1>   0.0800 
 35 H        8.2440    -2.9320    -0.5240 H     1 <1>   0.0800 
 36 H        8.2180    -1.7020     0.7100 H     1 <1>   0.0800 
 37 H        7.1310     0.6500     0.0680 H     1 <1>   0.0800 
 38 H        6.5220     0.8340    -1.5540 H     1 <1>   0.0800 
 39 H        9.8020    -1.6500    -1.8650 H     1 <1>   0.0800 
 40 H       10.4300    -1.8310    -0.2460 H     1 <1>   0.0800 
 41 H        8.7260     1.9000    -1.2550 H     1 <1>   0.0800 
 42 H        8.7450     0.6650    -2.4900 H     1 <1>   0.0800 
 43 H        9.6670     0.3360     0.3060 H     1 <1>   0.4500 
 44 H       11.1050     1.7000    -1.0410 H     1 <1>   0.0800 
 45 H       11.3100     0.3260    -2.1080 H     1 <1>   0.0800 
 46 H       11.5550     1.3410     1.5040 H     1 <1>   0.1500 
 47 H       12.9070    -1.3620    -1.5460 H     1 <1>   0.1500 
 48 H       13.1570     0.3570     3.0590 H     1 <1>   0.1500 
 49 H       14.5000    -2.3190     0.0360 H     1 <1>   0.1500 
 50 H       14.6250    -1.4720     2.3360 H     1 <1>   0.1500 
@<TRIPOS>BOND
  1   1   2  1   
  2   2   3  1   
  3   2   4  1   
  4   2   5  1   
  5   5   6  ar  
  6   5   7  ar  
  7   6   8  ar  
  8   6  26  1   
  9   7   9  ar  
 10   7  27  1   
 11   8  10  ar  
 12   8  11  1   
 13   9  10  ar  
 14   9  28  1   
 15  10  29  1   
 16  11  12  1   
 17  11  30  1   
 18  11  31  1   
 19  12  13  1   
 20  12  32  1   
 21  12  33  1   
 22  13  14  1   
 23  13  15  1   
 24  13  34  1   
 25  14  16  1   
 26  14  35  1   
 27  14  36  1   
 28  15  17  1   
 29  15  37  1   
 30  15  38  1   
 31  16  18  1   
 32  16  39  1   
 33  16  40  1   
 34  17  18  1   
 35  17  41  1   
 36  17  42  1   
 37  18  19  1   
 38  18  43  1   
 39  19  20  1   
 40  19  44  1   
 41  19  45  1   
 42  20  21  ar  
 43  20  22  ar  
 44  21  23  ar  
 45  21  46  1   
 46  22  24  ar  
 47  22  47  1   
 48  23  25  ar  
 49  23  48  1   
 50  24  25  ar  
 51  24  49  1   
 52  25  50  1   
@<TRIPOS>SUBSTRUCTURE
  1 ****  12 GROUP 4 **** **** 0

# MOE 2024.06 (io_trps.svl 2023.06)
