@<TRIPOS>MOLECULE
NONAME
51 53 1 0 0 
SMALL
USER_CHARGES


@<TRIPOS>ATOM
  1 S        0.2060    -0.9560    -1.1380 S.o2  1 <1>   1.4470 
  2 O        0.5440    -1.5330    -2.4230 O.2   1 <1>  -0.6500 
  3 O       -0.1850     0.4390    -1.1320 O.2   1 <1>  -0.6500 
  4 N        1.6140    -1.0400    -0.1990 N.am  1 <1>  -0.8490 
  5 C       -0.9910    -1.9250    -0.1740 C.ar  1 <1>  -0.0090 
  6 C        2.2090    -2.3910    -0.1980 C.3   1 <1>   0.1960 
  7 C        2.6170    -0.0560    -0.6450 C.3   1 <1>   0.1960 
  8 C       -1.2060    -3.2850    -0.3990 C.ar  1 <1>   0.0830 
  9 C       -1.6940    -1.3170     0.8580 C.ar  1 <1>  -0.1500 
 10 C        3.4610    -2.4710     0.6960 C.3   1 <1>   0.2090 
 11 C        3.8830    -0.0770     0.2320 C.3   1 <1>   0.2090 
 12 O       -0.4940    -3.9030    -1.3710 O.3   1 <1>  -0.3630 
 13 C       -2.1230    -3.9850     0.3810 C.ar  1 <1>  -0.1500 
 14 C       -2.6070    -1.9950     1.6670 C.ar  1 <1>  -0.1790 
 15 N        4.4710    -1.4480     0.3000 N.pl3 1 <1>  -0.8380 
 16 C       -0.8750    -5.1510    -1.9050 C.3   1 <1>   0.0400 
 17 C       -2.8080    -3.3460     1.3930 C.ar  1 <1>  -0.1500 
 18 C       -3.3130    -1.3300     2.7550 C.2   1 <1>   0.9790 
 19 C        5.7320    -1.5590     0.8850 C.ar  1 <1>   0.1000 
 20 O       -4.1370    -1.9540     3.4470 O.co2 1 <1>  -0.9000 
 21 O       -3.0940    -0.1340     3.0160 O.co2 1 <1>  -0.9000 
 22 C        6.8480    -1.9260     0.1260 C.ar  1 <1>  -0.1430 
 23 C        5.8850    -1.3030     2.2430 C.ar  1 <1>  -0.1500 
 24 C        8.0960    -2.0340     0.7370 C.ar  1 <1>  -0.1430 
 25 C        6.6410    -2.1980    -1.3640 C.3   1 <1>  -0.0970 
 26 C        7.1210    -1.4080     2.8470 C.ar  1 <1>  -0.1500 
 27 C        8.2210    -1.7730     2.0940 C.ar  1 <1>  -0.1500 
 28 C        9.3490    -2.4330    -0.0300 C.3   1 <1>  -0.0970 
 29 H        2.4800    -2.6760    -1.2010 H     1 <1>   0.0800 
 30 H        1.4910    -3.1020     0.1680 H     1 <1>   0.0800 
 31 H        2.1940     0.9330    -0.6040 H     1 <1>   0.0800 
 32 H        2.8950    -0.2560    -1.6670 H     1 <1>   0.0800 
 33 H       -1.5320    -0.2690     1.0580 H     1 <1>   0.1500 
 34 H        3.9000    -3.4500     0.6140 H     1 <1>   0.0800 
 35 H        3.1720    -2.3160     1.7210 H     1 <1>   0.0800 
 36 H        3.6280     0.2560     1.2230 H     1 <1>   0.0800 
 37 H        4.6130     0.6000    -0.1730 H     1 <1>   0.0800 
 38 H       -2.3130    -5.0290     0.2260 H     1 <1>   0.1500 
 39 H       -0.2520    -5.3510    -2.7580 H     1 <1>   0.0800 
 40 H       -1.9050    -5.1000    -2.2100 H     1 <1>   0.0800 
 41 H       -0.7300    -5.9110    -1.1590 H     1 <1>   0.0800 
 42 H       -3.5150    -3.8910     1.9990 H     1 <1>   0.1500 
 43 H        5.0280    -1.0210     2.8230 H     1 <1>   0.1500 
 44 H        5.9660    -3.0250    -1.4840 H     1 <1>   0.0800 
 45 H        7.5490    -2.4260    -1.8850 H     1 <1>   0.0800 
 46 H        6.2010    -1.3330    -1.8260 H     1 <1>   0.0800 
 47 H        7.2300    -1.2080     3.8980 H     1 <1>   0.1500 
 48 H        9.1790    -1.8520     2.5770 H     1 <1>   0.1500 
 49 H        9.5520    -1.7120    -0.8000 H     1 <1>   0.0800 
 50 H        9.2130    -3.4010    -0.4770 H     1 <1>   0.0800 
 51 H       10.2040    -2.4810     0.6190 H     1 <1>   0.0800 
@<TRIPOS>BOND
  1   1   2  2   
  2   1   3  2   
  3   1   4  am  
  4   1   5  1   
  5   4   6  1   
  6   4   7  1   
  7   5   8  ar  
  8   5   9  ar  
  9   6  10  1   
 10   6  29  1   
 11   6  30  1   
 12   7  11  1   
 13   7  31  1   
 14   7  32  1   
 15   8  12  1   
 16   8  13  ar  
 17   9  14  ar  
 18   9  33  1   
 19  10  15  1   
 20  10  34  1   
 21  10  35  1   
 22  11  15  1   
 23  11  36  1   
 24  11  37  1   
 25  12  16  1   
 26  13  17  ar  
 27  13  38  1   
 28  14  17  ar  
 29  14  18  1   
 30  15  19  1   
 31  16  39  1   
 32  16  40  1   
 33  16  41  1   
 34  17  42  1   
 35  18  20  ar  
 36  18  21  ar  
 37  19  22  ar  
 38  19  23  ar  
 39  22  24  ar  
 40  22  25  1   
 41  23  26  ar  
 42  23  43  1   
 43  24  27  ar  
 44  24  28  1   
 45  25  44  1   
 46  25  45  1   
 47  25  46  1   
 48  26  27  ar  
 49  26  47  1   
 50  27  48  1   
 51  28  49  1   
 52  28  50  1   
 53  28  51  1   
@<TRIPOS>SUBSTRUCTURE
  1 ****   6 GROUP 4 **** **** 0

# MOE 2024.06 (io_trps.svl 2023.06)
