@<TRIPOS>MOLECULE
NONAME
47 48 1 0 0 
SMALL
USER_CHARGES


@<TRIPOS>ATOM
  1 O       -0.2730    -0.1580     0.0970 O.3   1 <1>  -0.3630 
  2 C       -1.4630    -0.7040    -0.2700 C.ar  1 <1>   0.0830 
  3 C        0.3020     0.9370    -0.5820 C.3   1 <1>   0.0400 
  4 C       -1.8990    -1.8530     0.3930 C.ar  1 <1>  -0.1440 
  5 C       -2.2400    -0.1530    -1.2820 C.ar  1 <1>  -0.1500 
  6 C       -3.1020    -2.4580     0.0230 C.ar  1 <1>  -0.1430 
  7 C       -1.0340    -2.4370     1.5150 C.3   1 <1>  -0.0960 
  8 C       -3.4400    -0.7360    -1.6280 C.ar  1 <1>  -0.1500 
  9 C       -3.8830    -1.8770    -0.9770 C.ar  1 <1>  -0.1440 
 10 C       -3.5340    -3.7560     0.7130 C.3   1 <1>  -0.0970 
 11 C       -5.2370    -2.4300    -1.3890 C.3   1 <1>   0.4860 
 12 N       -6.2190    -2.1740    -0.2930 N.4   1 <1>  -0.9590 
 13 C       -7.5480    -2.8390    -0.4810 C.3   1 <1>   0.4230 
 14 C       -6.3400    -0.7020    -0.0560 C.3   1 <1>   0.3430 
 15 C       -8.4260    -2.5650     0.7550 C.3   1 <1>  -0.1600 
 16 C       -7.3730    -4.3570    -0.7130 C.3   1 <1>  -0.1600 
 17 C       -7.1740    -0.4340     1.1930 C.3   1 <1>  -0.1600 
 18 C       -8.5580    -1.0730     1.0770 C.3   1 <1>  -0.1600 
 19 C       -8.6930    -5.1290    -0.8720 C.3   1 <1>  -0.2400 
 20 H        1.2540     1.1460    -0.1290 H     1 <1>   0.0800 
 21 H       -0.3440     1.7900    -0.4830 H     1 <1>   0.0800 
 22 H        0.4410     0.6720    -1.6160 H     1 <1>   0.0800 
 23 H       -1.9250     0.7270    -1.8090 H     1 <1>   0.1500 
 24 H       -0.3850    -1.6970     1.9470 H     1 <1>   0.0800 
 25 H       -0.4230    -3.2310     1.1250 H     1 <1>   0.0800 
 26 H       -1.6380    -2.8180     2.3170 H     1 <1>   0.0800 
 27 H       -4.0200    -0.2840    -2.4150 H     1 <1>   0.1500 
 28 H       -3.9250    -3.5410     1.6910 H     1 <1>   0.0800 
 29 H       -2.6890    -4.4130     0.8220 H     1 <1>   0.0800 
 30 H       -4.2670    -4.3030     0.1540 H     1 <1>   0.0800 
 31 H       -5.1310    -3.4850    -1.5730 H     1 <1>   0.0800 
 32 H       -5.5660    -1.9600    -2.3010 H     1 <1>   0.0800 
 33 H       -5.7950    -2.5600     0.5560 H     1 <1>   0.4500 
 34 H       -8.0350    -2.4130    -1.3430 H     1 <1>   0.0800 
 35 H       -6.8040    -0.2310    -0.9070 H     1 <1>   0.0800 
 36 H       -5.3630    -0.2650     0.0820 H     1 <1>   0.0800 
 37 H       -8.0210    -3.0830     1.6070 H     1 <1>   0.0800 
 38 H       -9.4160    -2.9500     0.5880 H     1 <1>   0.0800 
 39 H       -6.8240    -4.7910     0.1050 H     1 <1>   0.0800 
 40 H       -6.8230    -4.5250    -1.6200 H     1 <1>   0.0800 
 41 H       -7.2800     0.6290     1.3240 H     1 <1>   0.0800 
 42 H       -6.6580    -0.8150     2.0580 H     1 <1>   0.0800 
 43 H       -9.0990    -0.9440     2.0000 H     1 <1>   0.0800 
 44 H       -9.1180    -0.5830     0.2980 H     1 <1>   0.0800 
 45 H       -9.2430    -5.1680     0.0520 H     1 <1>   0.0800 
 46 H       -8.4880    -6.1440    -1.1680 H     1 <1>   0.0800 
 47 H       -9.3130    -4.6810    -1.6300 H     1 <1>   0.0800 
@<TRIPOS>BOND
  1   1   2  1   
  2   1   3  1   
  3   2   4  ar  
  4   2   5  ar  
  5   3  20  1   
  6   3  21  1   
  7   3  22  1   
  8   4   6  ar  
  9   4   7  1   
 10   5   8  ar  
 11   5  23  1   
 12   6   9  ar  
 13   6  10  1   
 14   7  24  1   
 15   7  25  1   
 16   7  26  1   
 17   8   9  ar  
 18   8  27  1   
 19   9  11  1   
 20  10  28  1   
 21  10  29  1   
 22  10  30  1   
 23  11  12  1   
 24  11  31  1   
 25  11  32  1   
 26  12  13  1   
 27  12  14  1   
 28  12  33  1   
 29  13  15  1   
 30  13  16  1   
 31  13  34  1   
 32  14  17  1   
 33  14  35  1   
 34  14  36  1   
 35  15  18  1   
 36  15  37  1   
 37  15  38  1   
 38  16  19  1   
 39  16  39  1   
 40  16  40  1   
 41  17  18  1   
 42  17  41  1   
 43  17  42  1   
 44  18  43  1   
 45  18  44  1   
 46  19  45  1   
 47  19  46  1   
 48  19  47  1   
@<TRIPOS>SUBSTRUCTURE
  1 ****   9 GROUP 4 **** **** 0

# MOE 2024.06 (io_trps.svl 2023.06)
