@<TRIPOS>MOLECULE
NONAME
41 43 1 0 0 
SMALL
USER_CHARGES


@<TRIPOS>ATOM
  1 S        0.1910    -0.6990    -0.4120 S.3   1 <1>  -0.0800 
  2 C        1.4220     0.5040    -0.7630 C.ar  1 <1>   0.2970 
  3 C       -1.0720     0.5280    -0.3970 C.2   1 <1>  -0.1400 
  4 N        2.6890     0.1760    -0.8870 N.ar  1 <1>  -0.5670 
  5 C        0.8680     1.7610    -0.8860 C.ar  1 <1>   0.0000 
  6 C       -0.5670     1.7520    -0.6390 C.2   1 <1>  -0.1810 
  7 C       -2.4790     0.0340    -0.1180 C.3   1 <1>   0.0200 
  8 C        3.4310     1.2250    -1.1690 C.ar  1 <1>   0.7220 
  9 C        1.8080     2.7460    -1.2260 C.ar  1 <1>   0.4100 
 10 C       -1.4420     3.0010    -0.6410 C.3   1 <1>   0.0210 
 11 C       -3.1200     0.7650     1.0670 C.3   1 <1>  -0.1600 
 12 S        5.1790     0.9040    -1.3360 S.3   1 <1>  -0.3320 
 13 N        3.0880     2.4880    -1.3500 N.ar  1 <1>  -0.6200 
 14 N        1.5100     4.0400    -1.4920 N.pl3 1 <1>  -0.9000 
 15 C       -2.2500     3.1620     0.6560 C.3   1 <1>  -0.1600 
 16 C       -3.4690     2.2320     0.7780 C.3   1 <1>  -0.1600 
 17 C        5.3340    -0.9270    -1.0490 C.3   1 <1>   0.1310 
 18 C        6.7910    -1.3710    -1.0440 C.2   1 <1>   0.6590 
 19 O        7.2240    -2.0230    -1.9570 O.2   1 <1>  -0.5700 
 20 O        7.5770    -1.0840    -0.0080 O.3   1 <1>  -0.4300 
 21 C        7.2530    -0.2220     1.0580 C.3   1 <1>   0.1200 
 22 C        8.3950    -0.2810     2.0670 C.3   1 <1>  -0.2400 
 23 H       -2.4440    -1.0180     0.1070 H     1 <1>   0.0800 
 24 H       -3.0820     0.1570    -1.0000 H     1 <1>   0.0800 
 25 H       -2.1040     2.9750    -1.4880 H     1 <1>   0.0800 
 26 H       -0.8390     3.8790    -0.7310 H     1 <1>   0.0800 
 27 H       -2.4660     0.7050     1.9200 H     1 <1>   0.0800 
 28 H       -4.0290     0.2480     1.3230 H     1 <1>   0.0800 
 29 H        2.2920     4.6110    -1.8180 H     1 <1>   0.4000 
 30 H        0.6080     4.2860    -1.8980 H     1 <1>   0.4000 
 31 H       -2.6110     4.1750     0.6910 H     1 <1>   0.0800 
 32 H       -1.6000     3.0280     1.5030 H     1 <1>   0.0800 
 33 H       -4.0710     2.5900     1.5950 H     1 <1>   0.0800 
 34 H       -4.0730     2.2990    -0.1110 H     1 <1>   0.0800 
 35 H        4.8060    -1.4120    -1.8490 H     1 <1>   0.0800 
 36 H        4.8600    -1.1580    -0.1140 H     1 <1>   0.0800 
 37 H        6.3340    -0.5490     1.5120 H     1 <1>   0.0800 
 38 H        7.1450     0.7780     0.6720 H     1 <1>   0.0800 
 39 H        8.5100    -1.2830     2.4400 H     1 <1>   0.0800 
 40 H        8.1850     0.3720     2.8950 H     1 <1>   0.0800 
 41 H        9.3130     0.0370     1.6050 H     1 <1>   0.0800 
@<TRIPOS>BOND
  1   1   2  1   
  2   1   3  1   
  3   2   4  ar  
  4   2   5  ar  
  5   3   6  2   
  6   3   7  1   
  7   4   8  ar  
  8   5   6  1   
  9   5   9  ar  
 10   6  10  1   
 11   7  11  1   
 12   7  23  1   
 13   7  24  1   
 14   8  12  1   
 15   8  13  ar  
 16   9  13  ar  
 17   9  14  1   
 18  10  15  1   
 19  10  25  1   
 20  10  26  1   
 21  11  16  1   
 22  11  27  1   
 23  11  28  1   
 24  12  17  1   
 25  14  29  1   
 26  14  30  1   
 27  15  16  1   
 28  15  31  1   
 29  15  32  1   
 30  16  33  1   
 31  16  34  1   
 32  17  18  1   
 33  17  35  1   
 34  17  36  1   
 35  18  19  2   
 36  18  20  1   
 37  20  21  1   
 38  21  22  1   
 39  21  37  1   
 40  21  38  1   
 41  22  39  1   
 42  22  40  1   
 43  22  41  1   
@<TRIPOS>SUBSTRUCTURE
  1 ****   2 GROUP 4 **** **** 0

# MOE 2024.06 (io_trps.svl 2023.06)
