@<TRIPOS>MOLECULE
NONAME
47 49 1 0 0 
SMALL
USER_CHARGES


@<TRIPOS>ATOM
  1 O        2.1610    -2.6110     0.7450 O.3   1 <1>  -0.3690 
  2 C        3.2270    -1.7810     0.6370 C.ar  1 <1>   0.0740 
  3 C        0.9480    -2.3390     0.0800 C.3   1 <1>   0.0320 
  4 C        4.3560    -2.1180     1.3630 C.ar  1 <1>  -0.1580 
  5 C        3.2400    -0.6330    -0.1510 C.ar  1 <1>  -0.1580 
  6 C        5.4900    -1.3300     1.3060 C.ar  1 <1>  -0.1580 
  7 C        4.3760     0.1550    -0.2100 C.ar  1 <1>  -0.1580 
  8 C        5.5080    -0.1900     0.5140 C.ar  1 <1>  -0.1510 
  9 C        6.7640     0.6450     0.4200 C.3   1 <1>   0.3050 
 10 N        7.6750    -0.1240    -0.4360 N.pl3 1 <1>  -0.7180 
 11 C        8.9180    -0.5020    -0.1930 C.cat 1 <1>   1.0690 
 12 N        9.7050     0.0210     0.7360 N.pl3 1 <1>  -0.7040 
 13 N        9.5460    -1.4800    -0.8460 N.pl3 1 <1>  -0.7670 
 14 C       10.9140    -0.6450     0.7080 C.ar  1 <1>   0.3030 
 15 C       10.8180    -1.6000    -0.2890 C.ar  1 <1>   0.3030 
 16 C        8.9980    -2.3900    -1.8830 C.3   1 <1>   0.3480 
 17 C       12.0710    -0.5020     1.4630 C.ar  1 <1>  -0.1170 
 18 C       11.8900    -2.4480    -0.5520 C.ar  1 <1>  -0.1170 
 19 C        7.9290    -3.3240    -1.2980 C.3   1 <1>  -0.1670 
 20 C       13.1350    -1.3430     1.1990 C.ar  1 <1>  -0.1580 
 21 C       13.0430    -2.3110     0.1970 C.ar  1 <1>  -0.1580 
 22 C        8.4150    -4.1510    -0.0970 C.3   1 <1>  -0.1670 
 23 C        7.3090    -5.0860     0.3980 C.3   1 <1>  -0.2470 
 24 H        0.2520    -3.1220     0.3230 H     1 <1>   0.0720 
 25 H        1.1270    -2.3250    -0.9800 H     1 <1>   0.0720 
 26 H        0.5670    -1.3930     0.4210 H     1 <1>   0.0720 
 27 H        4.3350    -3.0040     1.9730 H     1 <1>   0.1420 
 28 H        2.3770    -0.3430    -0.7200 H     1 <1>   0.1420 
 29 H        6.3520    -1.6190     1.8820 H     1 <1>   0.1420 
 30 H        4.3640     1.0380    -0.8260 H     1 <1>   0.1420 
 31 H        7.1810     0.8000     1.4010 H     1 <1>   0.0720 
 32 H        6.5530     1.6010    -0.0300 H     1 <1>   0.0720 
 33 H        7.1620    -0.6380    -1.1490 H     1 <1>   0.4450 
 34 H        9.4670     0.7910     1.3530 H     1 <1>   0.4450 
 35 H        9.7920    -2.9830    -2.3030 H     1 <1>   0.0720 
 36 H        8.5730    -1.8080    -2.6840 H     1 <1>   0.0720 
 37 H       12.1340     0.2450     2.2350 H     1 <1>   0.1420 
 38 H       11.8240    -3.1960    -1.3200 H     1 <1>   0.1420 
 39 H        7.6200    -4.0000    -2.0760 H     1 <1>   0.0720 
 40 H        7.0580    -2.7600    -1.0150 H     1 <1>   0.0720 
 41 H       14.0470    -1.2580     1.7680 H     1 <1>   0.1420 
 42 H       13.8880    -2.9570     0.0120 H     1 <1>   0.1420 
 43 H        8.7040    -3.5070     0.7160 H     1 <1>   0.0720 
 44 H        9.2720    -4.7400    -0.3790 H     1 <1>   0.0720 
 45 H        6.4440    -4.5230     0.7040 H     1 <1>   0.0720 
 46 H        7.6580    -5.6570     1.2410 H     1 <1>   0.0720 
 47 H        7.0170    -5.7720    -0.3780 H     1 <1>   0.0720 
@<TRIPOS>BOND
  1   1   2  1   
  2   1   3  1   
  3   2   4  ar  
  4   2   5  ar  
  5   3  24  1   
  6   3  25  1   
  7   3  26  1   
  8   4   6  ar  
  9   4  27  1   
 10   5   7  ar  
 11   5  28  1   
 12   6   8  ar  
 13   6  29  1   
 14   7   8  ar  
 15   7  30  1   
 16   8   9  1   
 17   9  10  1   
 18   9  31  1   
 19   9  32  1   
 20  10  11  ar  
 21  10  33  1   
 22  11  12  ar  
 23  11  13  ar  
 24  12  14  1   
 25  12  34  1   
 26  13  15  1   
 27  13  16  1   
 28  14  15  ar  
 29  14  17  ar  
 30  15  18  ar  
 31  16  19  1   
 32  16  35  1   
 33  16  36  1   
 34  17  20  ar  
 35  17  37  1   
 36  18  21  ar  
 37  18  38  1   
 38  19  22  1   
 39  19  39  1   
 40  19  40  1   
 41  20  21  ar  
 42  20  41  1   
 43  21  42  1   
 44  22  23  1   
 45  22  43  1   
 46  22  44  1   
 47  23  45  1   
 48  23  46  1   
 49  23  47  1   
@<TRIPOS>SUBSTRUCTURE
  1 ****  10 GROUP 4 **** **** 0

# MOE 2024.06 (io_trps.svl 2023.06)
