@<TRIPOS>MOLECULE
NONAME
30 30 1 0 0 
SMALL
USER_CHARGES


@<TRIPOS>ATOM
  1 S        0.3090     2.9610     0.4120 S.o2  1 <1>   1.3450 
  2 O        1.6080     3.1490     1.1050 O.co2 1 <1>  -0.8170 
  3 O       -0.6360     2.1330     1.1950 O.co2 1 <1>  -0.8170 
  4 O        0.4720     2.5210    -0.9960 O.co2 1 <1>  -0.8170 
  5 C       -0.4310     4.6440     0.3260 C.3   1 <1>   0.1690 
  6 C       -1.9060     4.7090    -0.0990 C.ar  1 <1>  -0.1440 
  7 C        0.3500     5.5920    -0.5970 C.3   1 <1>  -0.0990 
  8 C       -2.3770     4.0140    -1.2040 C.ar  1 <1>  -0.1500 
  9 C       -2.7900     5.5010     0.6210 C.ar  1 <1>  -0.1500 
 10 C        1.7080     5.8970    -0.0230 C.2   1 <1>   0.6590 
 11 C       -3.7050     4.1100    -1.5830 C.ar  1 <1>  -0.1500 
 12 C       -4.1190     5.6000     0.2440 C.ar  1 <1>  -0.1500 
 13 O        1.8210     6.6030     0.9470 O.2   1 <1>  -0.5700 
 14 O        2.7420     5.3580    -0.6520 O.3   1 <1>  -0.4300 
 15 C       -4.5770     4.9040    -0.8610 C.ar  1 <1>  -0.1500 
 16 C        4.0290     5.3210    -0.0850 C.3   1 <1>   0.1200 
 17 C        4.7920     6.5790    -0.4980 C.3   1 <1>  -0.2400 
 18 H       -0.3790     5.0470     1.3190 H     1 <1>   0.0800 
 19 H       -0.1820     6.5180    -0.7010 H     1 <1>   0.0800 
 20 H        0.4570     5.1470    -1.5690 H     1 <1>   0.0800 
 21 H       -1.7130     3.3870    -1.7750 H     1 <1>   0.1500 
 22 H       -2.4470     6.0460     1.4840 H     1 <1>   0.1500 
 23 H       -4.0540     3.5600    -2.4390 H     1 <1>   0.1500 
 24 H       -4.7940     6.2150     0.8110 H     1 <1>   0.1500 
 25 H       -5.6090     4.9770    -1.1550 H     1 <1>   0.1500 
 26 H        4.5160     4.4370    -0.4560 H     1 <1>   0.0800 
 27 H        3.9360     5.2390     0.9860 H     1 <1>   0.0800 
 28 H        4.8530     6.6380    -1.5700 H     1 <1>   0.0800 
 29 H        5.7870     6.5440    -0.0960 H     1 <1>   0.0800 
 30 H        4.2980     7.4530    -0.1130 H     1 <1>   0.0800 
@<TRIPOS>BOND
  1   1   2  ar  
  2   1   3  ar  
  3   1   4  ar  
  4   1   5  1   
  5   5   6  1   
  6   5   7  1   
  7   5  18  1   
  8   6   8  ar  
  9   6   9  ar  
 10   7  10  1   
 11   7  19  1   
 12   7  20  1   
 13   8  11  ar  
 14   8  21  1   
 15   9  12  ar  
 16   9  22  1   
 17  10  13  2   
 18  10  14  1   
 19  11  15  ar  
 20  11  23  1   
 21  12  15  ar  
 22  12  24  1   
 23  14  16  1   
 24  15  25  1   
 25  16  17  1   
 26  16  26  1   
 27  16  27  1   
 28  17  28  1   
 29  17  29  1   
 30  17  30  1   
@<TRIPOS>SUBSTRUCTURE
  1 ****   5 GROUP 4 **** **** 0

# MOE 2024.06 (io_trps.svl 2023.06)
