@<TRIPOS>MOLECULE
NONAME
38 40 1 0 0 
SMALL
USER_CHARGES


@<TRIPOS>ATOM
  1 O       -0.6010     1.1310    -0.5430 O.2   1 <1>  -0.5700 
  2 C       -0.4210     2.1690     0.0610 C.2   1 <1>   0.7060 
  3 O        0.7490     2.7870    -0.1280 O.3   1 <1>  -0.2320 
  4 C       -1.3770     2.7760     0.9400 C.2   1 <1>   0.0290 
  5 C        1.0960     3.9510     0.4760 C.ar  1 <1>   0.0830 
  6 C       -2.6340     2.1110     1.1290 C.2   1 <1>   0.6160 
  7 C       -1.0600     3.9360     1.5760 C.2   1 <1>  -0.1780 
  8 C        2.3420     4.5220     0.2140 C.ar  1 <1>   0.0830 
  9 C        0.1980     4.5620     1.3570 C.ar  1 <1>   0.0280 
 10 O       -2.9040     1.6700     2.2310 O.2   1 <1>  -0.5700 
 11 N       -3.5790     2.0260     0.1330 N.am  1 <1>  -0.6600 
 12 O        3.1610     3.8740    -0.6580 O.3   1 <1>  -0.3630 
 13 C        2.6910     5.7120     0.8430 C.ar  1 <1>  -0.1500 
 14 C        0.5750     5.7540     1.9750 C.ar  1 <1>  -0.1500 
 15 C       -4.8870     1.3650     0.3290 C.3   1 <1>   0.1400 
 16 C       -3.4640     2.5840    -1.2340 C.3   1 <1>   0.1400 
 17 C        4.4480     4.3560    -0.9650 C.3   1 <1>   0.1200 
 18 C        1.8060     6.3220     1.7210 C.ar  1 <1>  -0.1500 
 19 C       -5.7280     1.8160    -0.8580 C.3   1 <1>  -0.1600 
 20 C       -4.7130     2.0970    -1.9620 C.3   1 <1>  -0.1600 
 21 C        5.0870     3.3850    -1.9530 C.3   1 <1>  -0.2400 
 22 H       -1.7490     4.4020     2.2600 H     1 <1>   0.1500 
 23 H        3.6400     6.1820     0.6680 H     1 <1>   0.1500 
 24 H       -0.1050     6.2340     2.6580 H     1 <1>   0.1500 
 25 H       -5.3300     1.6550     1.2680 H     1 <1>   0.0800 
 26 H       -4.7430     0.2980     0.3120 H     1 <1>   0.0800 
 27 H       -2.5750     2.2340    -1.7290 H     1 <1>   0.0800 
 28 H       -3.4570     3.6590    -1.1800 H     1 <1>   0.0800 
 29 H        5.0210     4.4040    -0.0550 H     1 <1>   0.0800 
 30 H        4.3520     5.3350    -1.4020 H     1 <1>   0.0800 
 31 H        2.0860     7.2420     2.2040 H     1 <1>   0.1500 
 32 H       -6.2450     2.7220    -0.5950 H     1 <1>   0.0800 
 33 H       -6.4490     1.0700    -1.1410 H     1 <1>   0.0800 
 34 H       -4.4770     1.1830    -2.4800 H     1 <1>   0.0800 
 35 H       -5.0690     2.8190    -2.6750 H     1 <1>   0.0800 
 36 H        5.1610     2.4070    -1.5140 H     1 <1>   0.0800 
 37 H        6.0740     3.7230    -2.2100 H     1 <1>   0.0800 
 38 H        4.4970     3.3310    -2.8510 H     1 <1>   0.0800 
@<TRIPOS>BOND
  1   1   2  2   
  2   2   3  1   
  3   2   4  1   
  4   3   5  1   
  5   4   6  1   
  6   4   7  2   
  7   5   8  ar  
  8   5   9  ar  
  9   6  10  2   
 10   6  11  am  
 11   7   9  1   
 12   7  22  1   
 13   8  12  1   
 14   8  13  ar  
 15   9  14  ar  
 16  11  15  1   
 17  11  16  1   
 18  12  17  1   
 19  13  18  ar  
 20  13  23  1   
 21  14  18  ar  
 22  14  24  1   
 23  15  19  1   
 24  15  25  1   
 25  15  26  1   
 26  16  20  1   
 27  16  27  1   
 28  16  28  1   
 29  17  21  1   
 30  17  29  1   
 31  17  30  1   
 32  18  31  1   
 33  19  20  1   
 34  19  32  1   
 35  19  33  1   
 36  20  34  1   
 37  20  35  1   
 38  21  36  1   
 39  21  37  1   
 40  21  38  1   
@<TRIPOS>SUBSTRUCTURE
  1 ****   2 GROUP 4 **** **** 0

# MOE 2024.06 (io_trps.svl 2023.06)
