@<TRIPOS>MOLECULE
NONAME
47 48 1 0 0 
SMALL
USER_CHARGES


@<TRIPOS>ATOM
  1 S       -0.4410    -1.6610    -1.3370 S.o2  1 <1>   1.4470 
  2 O       -1.1370    -0.8390    -2.3000 O.2   1 <1>  -0.6500 
  3 O       -0.2520    -3.0650    -1.6070 O.2   1 <1>  -0.6500 
  4 N       -1.3970    -1.6990     0.0880 N.am  1 <1>  -0.7570 
  5 C        1.1460    -0.9200    -0.8610 C.ar  1 <1>  -0.0090 
  6 C       -2.3390    -0.7330     0.4490 C.ar  1 <1>   0.1990 
  7 C        1.9280    -0.2680    -1.8030 C.ar  1 <1>  -0.1500 
  8 C        1.6400    -0.9940     0.4340 C.ar  1 <1>  -0.1500 
  9 C       -2.0470     0.6370     0.5340 C.ar  1 <1>   0.0830 
 10 C       -3.6290    -1.1560     0.7430 C.ar  1 <1>  -0.1500 
 11 C        3.1460     0.2990    -1.4690 C.ar  1 <1>  -0.1500 
 12 C        2.8570    -0.4290     0.7730 C.ar  1 <1>  -0.1500 
 13 O       -0.7850     1.0780     0.2820 O.3   1 <1>  -0.3630 
 14 C       -3.0280     1.5430     0.9070 C.ar  1 <1>  -0.1500 
 15 C       -4.6150    -0.2450     1.1080 C.ar  1 <1>   0.0830 
 16 C        3.6360     0.2310    -0.1690 C.ar  1 <1>  -0.1430 
 17 C       -0.6340     2.0740    -0.7060 C.3   1 <1>   0.0400 
 18 C       -4.3080     1.1020     1.1890 C.ar  1 <1>  -0.1500 
 19 O       -5.8970    -0.5930     1.3980 O.3   1 <1>  -0.3620 
 20 C        4.9850     0.8490     0.2590 C.3   1 <1>   0.1440 
 21 C       -6.3440    -1.9230     1.2540 C.3   1 <1>   0.0400 
 22 C        5.7270     1.5430    -0.8970 C.3   1 <1>  -0.2400 
 23 C        4.7430     1.9020     1.3510 C.3   1 <1>  -0.2400 
 24 C        5.9050    -0.2520     0.8050 C.3   1 <1>  -0.2400 
 25 H       -1.6280    -2.6690     0.2710 H     1 <1>   0.4200 
 26 H        1.5760    -0.1990    -2.8190 H     1 <1>   0.1500 
 27 H        1.0650    -1.4930     1.1950 H     1 <1>   0.1500 
 28 H       -3.8480    -2.2020     0.6770 H     1 <1>   0.1500 
 29 H        3.6950     0.7890    -2.2500 H     1 <1>   0.1500 
 30 H        3.1890    -0.5100     1.7920 H     1 <1>   0.1500 
 31 H       -2.7980     2.5890     0.9890 H     1 <1>   0.1500 
 32 H        0.4150     2.1700    -0.9240 H     1 <1>   0.0800 
 33 H       -1.0150     3.0070    -0.3330 H     1 <1>   0.0800 
 34 H       -1.1660     1.7720    -1.5920 H     1 <1>   0.0800 
 35 H       -5.0750     1.7990     1.4760 H     1 <1>   0.1500 
 36 H       -7.3900    -1.9510     1.4990 H     1 <1>   0.0800 
 37 H       -5.7940    -2.5530     1.9310 H     1 <1>   0.0800 
 38 H       -6.2000    -2.2320     0.2330 H     1 <1>   0.0800 
 39 H        5.1340     2.3450    -1.2990 H     1 <1>   0.0800 
 40 H        5.9460     0.8400    -1.6810 H     1 <1>   0.0800 
 41 H        6.6570     1.9580    -0.5540 H     1 <1>   0.0800 
 42 H        4.0710     2.6590     0.9890 H     1 <1>   0.0800 
 43 H        5.6660     2.3710     1.6380 H     1 <1>   0.0800 
 44 H        4.3080     1.4580     2.2280 H     1 <1>   0.0800 
 45 H        6.0530    -1.0120     0.0580 H     1 <1>   0.0800 
 46 H        5.4820    -0.7150     1.6770 H     1 <1>   0.0800 
 47 H        6.8640     0.1530     1.0760 H     1 <1>   0.0800 
@<TRIPOS>BOND
  1   1   2  2   
  2   1   3  2   
  3   1   4  am  
  4   1   5  1   
  5   4   6  1   
  6   4  25  1   
  7   5   7  ar  
  8   5   8  ar  
  9   6   9  ar  
 10   6  10  ar  
 11   7  11  ar  
 12   7  26  1   
 13   8  12  ar  
 14   8  27  1   
 15   9  13  1   
 16   9  14  ar  
 17  10  15  ar  
 18  10  28  1   
 19  11  16  ar  
 20  11  29  1   
 21  12  16  ar  
 22  12  30  1   
 23  13  17  1   
 24  14  18  ar  
 25  14  31  1   
 26  15  18  ar  
 27  15  19  1   
 28  16  20  1   
 29  17  32  1   
 30  17  33  1   
 31  17  34  1   
 32  18  35  1   
 33  19  21  1   
 34  20  22  1   
 35  20  23  1   
 36  20  24  1   
 37  21  36  1   
 38  21  37  1   
 39  21  38  1   
 40  22  39  1   
 41  22  40  1   
 42  22  41  1   
 43  23  42  1   
 44  23  43  1   
 45  23  44  1   
 46  24  45  1   
 47  24  46  1   
 48  24  47  1   
@<TRIPOS>SUBSTRUCTURE
  1 ****  13 GROUP 4 **** **** 0

# MOE 2024.06 (io_trps.svl 2023.06)
