@<TRIPOS>MOLECULE
NONAME
52 55 1 0 0 
SMALL
USER_CHARGES


@<TRIPOS>ATOM
  1 N       -4.9260    -5.5160    -1.2920 N.ar  1 <1>  -0.6240 
  2 C       -5.4730    -4.4880    -1.9190 C.ar  1 <1>   0.1530 
  3 C       -5.3500    -5.7290    -0.0570 C.ar  1 <1>   0.1530 
  4 C       -6.3560    -3.5980    -1.3310 C.ar  1 <1>  -0.1570 
  5 C       -6.2260    -4.8990     0.6200 C.ar  1 <1>  -0.1570 
  6 C       -6.7290    -3.7780    -0.0130 C.ar  1 <1>  -0.1510 
  7 C       -7.6020    -2.7760     0.7150 C.3   1 <1>   0.3050 
  8 N       -6.6420    -1.8870     1.3950 N.pl3 1 <1>  -0.7180 
  9 C       -5.9840    -0.9240     0.7730 C.cat 1 <1>   1.0690 
 10 N       -6.5550     0.0230     0.0490 N.pl3 1 <1>  -0.7030 
 11 N       -4.6490    -0.8020     0.7490 N.pl3 1 <1>  -0.7670 
 12 C       -5.5700     0.8510    -0.4480 C.ar  1 <1>   0.3030 
 13 C       -4.3620     0.3370    -0.0070 C.ar  1 <1>   0.3030 
 14 C       -3.6090    -1.7710     1.2140 C.3   1 <1>   0.3480 
 15 C       -5.6240     1.9910    -1.2400 C.ar  1 <1>  -0.1160 
 16 C       -3.1670     0.9620    -0.3480 C.ar  1 <1>  -0.1160 
 17 C       -3.2250    -2.7710     0.0890 C.3   1 <1>   0.3370 
 18 C       -4.4360     2.6070    -1.5820 C.ar  1 <1>  -0.1570 
 19 C       -3.2150     2.0960    -1.1380 C.ar  1 <1>  -0.1570 
 20 N       -2.0400    -3.6540     0.3720 N.4   1 <1>  -0.9610 
 21 C       -1.7640    -4.4970    -0.8360 C.3   1 <1>   0.3370 
 22 C       -2.2150    -4.5400     1.5630 C.3   1 <1>   0.3370 
 23 C       -0.4510    -5.2540    -0.6430 C.3   1 <1>  -0.1670 
 24 C       -0.9160    -5.3000     1.8320 C.3   1 <1>  -0.1670 
 25 C       -0.4860    -6.1280     0.6160 C.3   1 <1>  -0.1670 
 26 H       -5.1990    -4.3440    -2.9520 H     1 <1>   0.1430 
 27 H       -4.9770    -6.6100     0.4400 H     1 <1>   0.1430 
 28 H       -6.7400    -2.7790    -1.9160 H     1 <1>   0.1430 
 29 H       -6.5070    -5.1440     1.6300 H     1 <1>   0.1430 
 30 H       -8.2370    -3.2660     1.4350 H     1 <1>   0.0730 
 31 H       -8.2180    -2.2280     0.0210 H     1 <1>   0.0730 
 32 H       -6.1950    -2.3400     2.1870 H     1 <1>   0.4450 
 33 H       -7.5580     0.1800    -0.0350 H     1 <1>   0.4450 
 34 H       -3.9770    -2.3120     2.0670 H     1 <1>   0.0730 
 35 H       -2.7340    -1.2200     1.5170 H     1 <1>   0.0730 
 36 H       -6.5680     2.3830    -1.5770 H     1 <1>   0.1430 
 37 H       -2.2220     0.5840    -0.0050 H     1 <1>   0.1430 
 38 H       -3.0170    -2.2040    -0.8030 H     1 <1>   0.0730 
 39 H       -4.0750    -3.3970    -0.1120 H     1 <1>   0.0730 
 40 H       -4.4430     3.4950    -2.1950 H     1 <1>   0.1430 
 41 H       -2.3040     2.6020    -1.4170 H     1 <1>   0.1430 
 42 H       -1.1860    -3.1000     0.5210 H     1 <1>   0.4450 
 43 H       -1.6920    -3.8770    -1.7150 H     1 <1>   0.0730 
 44 H       -2.5640    -5.2030    -0.9840 H     1 <1>   0.0730 
 45 H       -3.0090    -5.2450     1.3790 H     1 <1>   0.0730 
 46 H       -2.4640    -3.9560     2.4330 H     1 <1>   0.0730 
 47 H        0.3650    -4.5550    -0.5860 H     1 <1>   0.0730 
 48 H       -0.2790    -5.8800    -1.5020 H     1 <1>   0.0730 
 49 H       -1.0590    -5.9570     2.6730 H     1 <1>   0.0730 
 50 H       -0.1380    -4.6050     2.0970 H     1 <1>   0.0730 
 51 H        0.4850    -6.5620     0.7900 H     1 <1>   0.0730 
 52 H       -1.1840    -6.9360     0.4680 H     1 <1>   0.0730 
@<TRIPOS>BOND
  1   1   2  ar  
  2   1   3  ar  
  3   2   4  ar  
  4   2  26  1   
  5   3   5  ar  
  6   3  27  1   
  7   4   6  ar  
  8   4  28  1   
  9   5   6  ar  
 10   5  29  1   
 11   6   7  1   
 12   7   8  1   
 13   7  30  1   
 14   7  31  1   
 15   8   9  ar  
 16   8  32  1   
 17   9  10  ar  
 18   9  11  ar  
 19  10  12  1   
 20  10  33  1   
 21  11  13  1   
 22  11  14  1   
 23  12  13  ar  
 24  12  15  ar  
 25  13  16  ar  
 26  14  17  1   
 27  14  34  1   
 28  14  35  1   
 29  15  18  ar  
 30  15  36  1   
 31  16  19  ar  
 32  16  37  1   
 33  17  20  1   
 34  17  38  1   
 35  17  39  1   
 36  18  19  ar  
 37  18  40  1   
 38  19  41  1   
 39  20  21  1   
 40  20  22  1   
 41  20  42  1   
 42  21  23  1   
 43  21  43  1   
 44  21  44  1   
 45  22  24  1   
 46  22  45  1   
 47  22  46  1   
 48  23  25  1   
 49  23  47  1   
 50  23  48  1   
 51  24  25  1   
 52  24  49  1   
 53  24  50  1   
 54  25  51  1   
 55  25  52  1   
@<TRIPOS>SUBSTRUCTURE
  1 ****  17 GROUP 4 **** **** 0

# MOE 2024.06 (io_trps.svl 2023.06)
