@<TRIPOS>MOLECULE
NONAME
34 35 1 0 0 
SMALL
USER_CHARGES


@<TRIPOS>ATOM
  1 S       -0.1530    -0.0740    -0.4960 S.o2  1 <1>   1.4470 
  2 O       -0.2580     0.2860    -1.8930 O.2   1 <1>  -0.6500 
  3 O       -0.9620     0.6300     0.4770 O.2   1 <1>  -0.6500 
  4 N       -0.5560    -1.7150    -0.3830 N.am  1 <1>  -0.8490 
  5 C        1.5920    -0.0340     0.0040 C.ar  1 <1>  -0.0090 
  6 C       -0.6410    -2.2320     0.9720 C.3   1 <1>   0.1960 
  7 C       -1.8320    -2.0280    -1.0000 C.3   1 <1>   0.1960 
  8 C        2.4730    -1.0340    -0.3790 C.ar  1 <1>  -0.1500 
  9 C        2.0940     1.0070     0.7710 C.ar  1 <1>  -0.1500 
 10 C       -1.3660    -3.5620     0.8170 C.3   1 <1>  -0.1600 
 11 C       -2.1890    -3.4100    -0.4630 C.3   1 <1>  -0.1600 
 12 C        3.8180    -1.0350    -0.0180 C.ar  1 <1>   0.0860 
 13 C        3.4230     1.0350     1.1520 C.ar  1 <1>  -0.1500 
 14 C        4.2860     0.0220     0.7710 C.ar  1 <1>  -0.1440 
 15 C        4.6640    -2.1230    -0.4710 C.2   1 <1>   0.5440 
 16 C        5.7350     0.0780     1.2390 C.3   1 <1>  -0.0960 
 17 O        4.4510    -3.2680    -0.1430 O.2   1 <1>  -0.5700 
 18 N        5.7060    -1.9110    -1.3050 N.am  1 <1>  -0.8000 
 19 H       -1.2290    -1.5730     1.5900 H     1 <1>   0.0800 
 20 H        0.3380    -2.3570     1.4060 H     1 <1>   0.0800 
 21 H       -1.7520    -2.0180    -2.0750 H     1 <1>   0.0800 
 22 H       -2.5750    -1.3100    -0.6890 H     1 <1>   0.0800 
 23 H        2.1060    -1.8510    -0.9790 H     1 <1>   0.1500 
 24 H        1.4350     1.8040     1.0780 H     1 <1>   0.1500 
 25 H       -1.9800    -3.7690     1.6750 H     1 <1>   0.0800 
 26 H       -0.6430    -4.3520     0.7020 H     1 <1>   0.0800 
 27 H       -1.9080    -4.1620    -1.1800 H     1 <1>   0.0800 
 28 H       -3.2450    -3.4810    -0.2750 H     1 <1>   0.0800 
 29 H        3.7770     1.8550     1.7540 H     1 <1>   0.1500 
 30 H        6.0430    -0.8820     1.6170 H     1 <1>   0.0800 
 31 H        5.8590     0.7990     2.0270 H     1 <1>   0.0800 
 32 H        6.3790     0.3530     0.4230 H     1 <1>   0.0800 
 33 H        6.2350    -2.7150    -1.6430 H     1 <1>   0.3700 
 34 H        5.9060    -1.0090    -1.7340 H     1 <1>   0.3700 
@<TRIPOS>BOND
  1   1   2  2   
  2   1   3  2   
  3   1   4  am  
  4   1   5  1   
  5   4   6  1   
  6   4   7  1   
  7   5   8  ar  
  8   5   9  ar  
  9   6  10  1   
 10   6  19  1   
 11   6  20  1   
 12   7  11  1   
 13   7  21  1   
 14   7  22  1   
 15   8  12  ar  
 16   8  23  1   
 17   9  13  ar  
 18   9  24  1   
 19  10  11  1   
 20  10  25  1   
 21  10  26  1   
 22  11  27  1   
 23  11  28  1   
 24  12  14  ar  
 25  12  15  1   
 26  13  14  ar  
 27  13  29  1   
 28  14  16  1   
 29  15  17  2   
 30  15  18  am  
 31  16  30  1   
 32  16  31  1   
 33  16  32  1   
 34  18  33  1   
 35  18  34  1   
@<TRIPOS>SUBSTRUCTURE
  1 ****   8 GROUP 4 **** **** 0

# MOE 2024.06 (io_trps.svl 2023.06)
