@<TRIPOS>MOLECULE
NONAME
52 54 1 0 0 
SMALL
USER_CHARGES


@<TRIPOS>ATOM
  1 O        0.7240     0.1300     0.7930 O.2   1 <1>  -0.5700 
  2 C        0.5680    -1.0250     0.4760 C.2   1 <1>   0.6590 
  3 O       -0.5670    -1.6670     0.7150 O.3   1 <1>  -0.4300 
  4 C        1.6470    -1.8610    -0.2360 C.3   1 <1>   0.1710 
  5 C       -1.6510    -1.0390     1.3620 C.3   1 <1>   0.1200 
  6 N        2.9610    -1.1920    -0.4960 N.3   1 <1>  -0.8100 
  7 C       -2.7860    -2.0520     1.4770 C.3   1 <1>  -0.2400 
  8 C        4.0260    -2.1440    -0.8920 C.3   1 <1>   0.1100 
  9 C        2.8560    -0.0850    -1.4840 C.3   1 <1>   0.1100 
 10 C        5.3950    -1.4370    -1.0630 C.3   1 <1>   0.3430 
 11 C        4.2050     0.6460    -1.6840 C.3   1 <1>   0.3430 
 12 N        5.2650     0.0370    -0.8150 N.4   1 <1>  -0.9590 
 13 C        6.5380     0.7920    -0.7730 C.3   1 <1>   0.7100 
 14 C        7.5270     0.0740     0.1400 C.ar  1 <1>  -0.1440 
 15 C        6.2900     2.2410    -0.3570 C.ar  1 <1>  -0.1440 
 16 C        8.6730    -0.4830    -0.4150 C.ar  1 <1>  -0.1500 
 17 C        7.3080    -0.0580     1.5070 C.ar  1 <1>  -0.1500 
 18 C        5.3820     2.5990     0.6380 C.ar  1 <1>  -0.1500 
 19 C        6.9930     3.2450    -1.0100 C.ar  1 <1>  -0.1500 
 20 C        9.5770    -1.1670     0.3790 C.ar  1 <1>  -0.1500 
 21 C        8.2130    -0.7430     2.2990 C.ar  1 <1>  -0.1500 
 22 C        5.1810     3.9280     0.9610 C.ar  1 <1>  -0.1500 
 23 C        6.7900     4.5750    -0.6860 C.ar  1 <1>  -0.1500 
 24 C        9.3460    -1.2990     1.7360 C.ar  1 <1>  -0.1500 
 25 C        5.8830     4.9170     0.2990 C.ar  1 <1>  -0.1500 
 26 H        1.2340    -2.2110    -1.1650 H     1 <1>   0.0800 
 27 H        1.8180    -2.7220     0.3840 H     1 <1>   0.0800 
 28 H       -1.9520    -0.1860     0.7770 H     1 <1>   0.0800 
 29 H       -1.3250    -0.7120     2.3350 H     1 <1>   0.0800 
 30 H       -3.0950    -2.3770     0.5000 H     1 <1>   0.0800 
 31 H       -3.6270    -1.5980     1.9690 H     1 <1>   0.0800 
 32 H       -2.4690    -2.9010     2.0560 H     1 <1>   0.0800 
 33 H        3.7580    -2.6340    -1.8130 H     1 <1>   0.0800 
 34 H        4.1250    -2.9050    -0.1360 H     1 <1>   0.0800 
 35 H        2.1310     0.6390    -1.1530 H     1 <1>   0.0800 
 36 H        2.5150    -0.4670    -2.4320 H     1 <1>   0.0800 
 37 H        5.7690    -1.6160    -2.0570 H     1 <1>   0.0800 
 38 H        6.0940    -1.8690    -0.3660 H     1 <1>   0.0800 
 39 H        4.0720     1.6870    -1.4360 H     1 <1>   0.0800 
 40 H        4.4940     0.5900    -2.7200 H     1 <1>   0.0800 
 41 H        4.8610     0.0850     0.1280 H     1 <1>   0.4500 
 42 H        6.9560     0.8040    -1.7650 H     1 <1>   0.0800 
 43 H        8.8830    -0.3920    -1.4670 H     1 <1>   0.1500 
 44 H        6.4410     0.3680     1.9790 H     1 <1>   0.1500 
 45 H        4.8160     1.8610     1.1800 H     1 <1>   0.1500 
 46 H        7.7120     3.0100    -1.7780 H     1 <1>   0.1500 
 47 H       10.4650    -1.5960    -0.0550 H     1 <1>   0.1500 
 48 H        8.0400    -0.8400     3.3580 H     1 <1>   0.1500 
 49 H        4.4770     4.1980     1.7310 H     1 <1>   0.1500 
 50 H        7.3400     5.3470    -1.1970 H     1 <1>   0.1500 
 51 H       10.0510    -1.8290     2.3540 H     1 <1>   0.1500 
 52 H        5.7270     5.9530     0.5520 H     1 <1>   0.1500 
@<TRIPOS>BOND
  1   1   2  2   
  2   2   3  1   
  3   2   4  1   
  4   3   5  1   
  5   4   6  1   
  6   4  26  1   
  7   4  27  1   
  8   5   7  1   
  9   5  28  1   
 10   5  29  1   
 11   6   8  1   
 12   6   9  1   
 13   7  30  1   
 14   7  31  1   
 15   7  32  1   
 16   8  10  1   
 17   8  33  1   
 18   8  34  1   
 19   9  11  1   
 20   9  35  1   
 21   9  36  1   
 22  10  12  1   
 23  10  37  1   
 24  10  38  1   
 25  11  12  1   
 26  11  39  1   
 27  11  40  1   
 28  12  13  1   
 29  12  41  1   
 30  13  14  1   
 31  13  15  1   
 32  13  42  1   
 33  14  16  ar  
 34  14  17  ar  
 35  15  18  ar  
 36  15  19  ar  
 37  16  20  ar  
 38  16  43  1   
 39  17  21  ar  
 40  17  44  1   
 41  18  22  ar  
 42  18  45  1   
 43  19  23  ar  
 44  19  46  1   
 45  20  24  ar  
 46  20  47  1   
 47  21  24  ar  
 48  21  48  1   
 49  22  25  ar  
 50  22  49  1   
 51  23  25  ar  
 52  23  50  1   
 53  24  51  1   
 54  25  52  1   
@<TRIPOS>SUBSTRUCTURE
  1 ****  12 GROUP 4 **** **** 0

# MOE 2024.06 (io_trps.svl 2023.06)
