@<TRIPOS>MOLECULE
NONAME
49 51 1 0 0 
SMALL
USER_CHARGES


@<TRIPOS>ATOM
  1 BR       0.2410     3.0100     2.8820 Br    1 <1>  -0.1110 
  2 C       -0.5270     3.0820     1.1190 C.ar  1 <1>   0.1110 
  3 C       -1.8650     3.3960     0.9910 C.ar  1 <1>  -0.1500 
  4 C        0.2820     2.8170     0.0310 C.ar  1 <1>  -0.1500 
  5 C       -2.4410     3.4420    -0.2760 C.ar  1 <1>   0.0530 
  6 C       -0.2800     2.8760    -1.2320 C.ar  1 <1>  -0.1500 
  7 C       -3.8380     3.7390    -0.4590 C.2   1 <1>   0.1330 
  8 C       -1.6220     3.1880    -1.3780 C.ar  1 <1>  -0.1500 
  9 N       -4.3080     4.7930    -1.0690 N.2   1 <1>  -0.3380 
 10 N       -4.8450     2.9490    -0.0380 N.pl3 1 <1>   0.0480 
 11 N       -5.6380     4.7130    -1.0580 N.2   1 <1>  -0.3380 
 12 C       -5.9170     3.6170    -0.4480 C.2   1 <1>   0.2430 
 13 C       -4.7760     1.6450     0.6530 C.3   1 <1>   0.2340 
 14 S       -7.5950     3.0400    -0.1800 S.3   1 <1>  -0.2860 
 15 C       -4.4550     0.5370    -0.3380 C.2   1 <1>  -0.2880 
 16 C       -8.6120     4.3170    -1.0740 C.3   1 <1>   0.1310 
 17 C       -5.2570    -0.4930    -0.6270 C.2   1 <1>  -0.3000 
 18 C      -10.1030     4.0380    -0.9600 C.2   1 <1>   0.5690 
 19 O      -10.8340     4.5490    -1.7730 O.2   1 <1>  -0.5700 
 20 N      -10.5590     3.2420     0.0480 N.am  1 <1>  -0.7300 
 21 C      -11.9500     2.8400     0.3500 C.3   1 <1>   0.2200 
 22 C      -12.5460     2.0210    -0.8010 C.3   1 <1>  -0.1600 
 23 C      -12.8150     4.0610     0.6840 C.3   1 <1>  -0.1600 
 24 C      -13.9890     1.5990    -0.4850 C.3   1 <1>  -0.1600 
 25 C      -14.2580     3.6400     1.0020 C.3   1 <1>  -0.1600 
 26 C      -14.8600     2.8170    -0.1470 C.3   1 <1>  -0.1600 
 27 H       -2.4500     3.6110     1.8660 H     1 <1>   0.1500 
 28 H        1.3210     2.5760     0.1700 H     1 <1>   0.1500 
 29 H        0.3260     2.6830    -2.1020 H     1 <1>   0.1500 
 30 H       -2.0530     3.2400    -2.3630 H     1 <1>   0.1500 
 31 H       -5.7170     1.4490     1.1330 H     1 <1>   0.0800 
 32 H       -4.0170     1.6860     1.4130 H     1 <1>   0.0800 
 33 H       -3.4900     0.6620    -0.8020 H     1 <1>   0.1500 
 34 H       -8.3080     4.3000    -2.1040 H     1 <1>   0.0800 
 35 H       -8.3780     5.2730    -0.6440 H     1 <1>   0.0800 
 36 H       -5.0070    -1.2660    -1.3340 H     1 <1>   0.1500 
 37 H       -6.2280    -0.6540    -0.1900 H     1 <1>   0.1500 
 38 H       -9.8570     2.8160     0.6550 H     1 <1>   0.3700 
 39 H      -11.9230     2.2090     1.2220 H     1 <1>   0.0800 
 40 H      -11.9450     1.1450    -0.9710 H     1 <1>   0.0800 
 41 H      -12.5490     2.6110    -1.7010 H     1 <1>   0.0800 
 42 H      -12.8310     4.7340    -0.1550 H     1 <1>   0.0800 
 43 H      -12.3980     4.5790     1.5290 H     1 <1>   0.0800 
 44 H      -13.9890     0.9170     0.3490 H     1 <1>   0.0800 
 45 H      -14.4060     1.0830    -1.3330 H     1 <1>   0.0800 
 46 H      -14.8600     4.5170     1.1690 H     1 <1>   0.0800 
 47 H      -14.2710     3.0540     1.9050 H     1 <1>   0.0800 
 48 H      -15.8490     2.4900     0.1230 H     1 <1>   0.0800 
 49 H      -14.9470     3.4420    -1.0200 H     1 <1>   0.0800 
@<TRIPOS>BOND
  1   1   2  1   
  2   2   3  ar  
  3   2   4  ar  
  4   3   5  ar  
  5   3  27  1   
  6   4   6  ar  
  7   4  28  1   
  8   5   7  1   
  9   5   8  ar  
 10   6   8  ar  
 11   6  29  1   
 12   7   9  2   
 13   7  10  1   
 14   8  30  1   
 15   9  11  1   
 16  10  12  1   
 17  10  13  1   
 18  11  12  2   
 19  12  14  1   
 20  13  15  1   
 21  13  31  1   
 22  13  32  1   
 23  14  16  1   
 24  15  17  2   
 25  15  33  1   
 26  16  18  1   
 27  16  34  1   
 28  16  35  1   
 29  17  36  1   
 30  17  37  1   
 31  18  19  2   
 32  18  20  am  
 33  20  21  1   
 34  20  38  1   
 35  21  22  1   
 36  21  23  1   
 37  21  39  1   
 38  22  24  1   
 39  22  40  1   
 40  22  41  1   
 41  23  25  1   
 42  23  42  1   
 43  23  43  1   
 44  24  26  1   
 45  24  44  1   
 46  24  45  1   
 47  25  26  1   
 48  25  46  1   
 49  25  47  1   
 50  26  48  1   
 51  26  49  1   
@<TRIPOS>SUBSTRUCTURE
  1 ****  14 GROUP 4 **** **** 0

# MOE 2024.06 (io_trps.svl 2023.06)
