@<TRIPOS>MOLECULE
NONAME
37 38 1 0 0 
SMALL
USER_CHARGES


@<TRIPOS>ATOM
  1 P        1.1470    -0.7280     0.9190 P.3   1 <1>   0.9000 
  2 O        0.3880    -0.8630     2.2040 O.co2 1 <1>  -0.9500 
  3 O        2.3490    -1.6180     0.7830 O.co2 1 <1>  -0.9500 
  4 C        1.7180     0.9580     0.7010 C.3   1 <1>  -0.1860 
  5 C        0.0140    -1.0920    -0.4700 C.3   1 <1>   0.1400 
  6 C        0.5680     1.8820     0.4010 C.2   1 <1>   0.9060 
  7 C        2.8030     1.0840    -0.3920 C.3   1 <1>  -0.0170 
  8 N       -0.4950    -2.5100    -0.5910 N.am  1 <1>  -0.6600 
  9 O        0.0070     1.8140    -0.7050 O.co2 1 <1>  -0.9000 
 10 O        0.2590     2.7750     1.2010 O.co2 1 <1>  -0.9000 
 11 C        3.5480     2.4170    -0.3750 C.ar  1 <1>  -0.1440 
 12 C       -0.6400    -3.2360    -1.7170 C.2   1 <1>   0.5690 
 13 C       -0.5740    -3.3250     0.6310 C.3   1 <1>   0.1400 
 14 C        2.9780     3.5510    -0.9310 C.ar  1 <1>  -0.1500 
 15 C        4.8110     2.5030     0.1900 C.ar  1 <1>  -0.1500 
 16 O       -0.5740    -2.8440    -2.8590 O.2   1 <1>  -0.5700 
 17 C       -0.9130    -4.6770    -1.3780 C.3   1 <1>  -0.0990 
 18 C       -1.1510    -4.6580     0.1420 C.3   1 <1>  -0.1600 
 19 C        3.6620     4.7540    -0.9300 C.ar  1 <1>  -0.1500 
 20 C        5.5010     3.7040     0.1910 C.ar  1 <1>  -0.1500 
 21 C        4.9270     4.8320    -0.3710 C.ar  1 <1>  -0.1500 
 22 H        2.1570     1.2930     1.6180 H     1 <1>   0.0800 
 23 H        0.4810    -0.8410    -1.4030 H     1 <1>   0.0800 
 24 H       -0.8560    -0.4680    -0.3950 H     1 <1>   0.0800 
 25 H        2.3570     0.9330    -1.3590 H     1 <1>   0.0800 
 26 H        3.5230     0.2960    -0.2580 H     1 <1>   0.0800 
 27 H       -1.1990    -2.8470     1.3680 H     1 <1>   0.0800 
 28 H        0.4170    -3.4580     1.0360 H     1 <1>   0.0800 
 29 H        1.9870     3.4920    -1.3540 H     1 <1>   0.1500 
 30 H        5.2520     1.6280     0.6330 H     1 <1>   0.1500 
 31 H       -0.0430    -5.2550    -1.6240 H     1 <1>   0.0800 
 32 H       -1.7690    -5.0380    -1.9170 H     1 <1>   0.0800 
 33 H       -2.2070    -4.6670     0.3470 H     1 <1>   0.0800 
 34 H       -0.6860    -5.4880     0.6410 H     1 <1>   0.0800 
 35 H        3.2000     5.6240    -1.3590 H     1 <1>   0.1500 
 36 H        6.4790     3.7590     0.6330 H     1 <1>   0.1500 
 37 H        5.4560     5.7670    -0.3690 H     1 <1>   0.1500 
@<TRIPOS>BOND
  1   1   2  ar  
  2   1   3  ar  
  3   1   4  1   
  4   1   5  1   
  5   4   6  1   
  6   4   7  1   
  7   4  22  1   
  8   5   8  1   
  9   5  23  1   
 10   5  24  1   
 11   6   9  ar  
 12   6  10  ar  
 13   7  11  1   
 14   7  25  1   
 15   7  26  1   
 16   8  12  am  
 17   8  13  1   
 18  11  14  ar  
 19  11  15  ar  
 20  12  16  2   
 21  12  17  1   
 22  13  18  1   
 23  13  27  1   
 24  13  28  1   
 25  14  19  ar  
 26  14  29  1   
 27  15  20  ar  
 28  15  30  1   
 29  17  18  1   
 30  17  31  1   
 31  17  32  1   
 32  18  33  1   
 33  18  34  1   
 34  19  21  ar  
 35  19  35  1   
 36  20  21  ar  
 37  20  36  1   
 38  21  37  1   
@<TRIPOS>SUBSTRUCTURE
  1 ****   4 GROUP 4 **** **** 0

# MOE 2024.06 (io_trps.svl 2023.06)
