@<TRIPOS>MOLECULE
NONAME
46 47 1 0 0 
SMALL
USER_CHARGES


@<TRIPOS>ATOM
  1 S        0.2450    -0.2420    -0.5300 S.o2  1 <1>   1.3330 
  2 O       -0.9660     0.5050    -0.7750 O.2   1 <1>  -0.6500 
  3 O        0.6130    -1.3470    -1.3840 O.2   1 <1>  -0.6500 
  4 N        1.5390     0.8520    -0.5090 N.am  1 <1>  -0.8490 
  5 C        0.1630    -0.8590     1.1410 C.3   1 <1>  -0.1350 
  6 C        2.8450     0.2350    -0.2410 C.3   1 <1>   0.1960 
  7 C        1.2970     2.0690     0.2690 C.3   1 <1>   0.1960 
  8 C        3.9810     1.2190    -0.5470 C.3   1 <1>  -0.0190 
  9 C        2.3910     3.1030    -0.0190 C.3   1 <1>  -0.1600 
 10 C        5.3160     0.5680    -0.2270 C.2   1 <1>   0.5690 
 11 C        3.7940     2.5330     0.2340 C.3   1 <1>  -0.1600 
 12 O        5.4540     0.0230     0.8420 O.2   1 <1>  -0.5700 
 13 N        6.3020     0.6260    -1.1630 N.am  1 <1>  -0.7300 
 14 C        7.6680     0.0610    -1.0780 C.3   1 <1>   0.2200 
 15 C        7.5840    -1.4710    -1.0770 C.3   1 <1>  -0.1600 
 16 C        8.4200     0.6790     0.1110 C.3   1 <1>  -0.1600 
 17 C        8.9430    -2.1880    -1.0250 C.3   1 <1>  -0.1600 
 18 C        9.9420     0.4910     0.0000 C.3   1 <1>  -0.1600 
 19 C        9.6070    -2.0830     0.3560 C.3   1 <1>  -0.1600 
 20 C       10.4770    -0.8340     0.5670 C.3   1 <1>  -0.1600 
 21 H       -0.6430    -1.5610     1.2250 H     1 <1>   0.0800 
 22 H       -0.0120    -0.0580     1.8300 H     1 <1>   0.0800 
 23 H        1.0740    -1.3590     1.4040 H     1 <1>   0.0800 
 24 H        2.9700    -0.6380    -0.8610 H     1 <1>   0.0800 
 25 H        2.9000    -0.0720     0.7900 H     1 <1>   0.0800 
 26 H        1.2820     1.8370     1.3210 H     1 <1>   0.0800 
 27 H        0.3430     2.4900    -0.0020 H     1 <1>   0.0800 
 28 H        3.9470     1.4320    -1.6000 H     1 <1>   0.0800 
 29 H        2.2340     3.9680     0.6000 H     1 <1>   0.0800 
 30 H        2.3040     3.4160    -1.0460 H     1 <1>   0.0800 
 31 H        4.5410     3.2470    -0.0660 H     1 <1>   0.0800 
 32 H        3.9190     2.3430     1.2870 H     1 <1>   0.0800 
 33 H        6.1060     1.0980    -2.0460 H     1 <1>   0.3700 
 34 H        8.1830     0.3560    -1.9770 H     1 <1>   0.0800 
 35 H        7.0800    -1.7760    -1.9770 H     1 <1>   0.0800 
 36 H        6.9860    -1.7990    -0.2450 H     1 <1>   0.0800 
 37 H        8.0610     0.2750     1.0410 H     1 <1>   0.0800 
 38 H        8.2230     1.7360     0.1140 H     1 <1>   0.0800 
 39 H        9.6010    -1.8240    -1.7940 H     1 <1>   0.0800 
 40 H        8.7640    -3.2310    -1.2240 H     1 <1>   0.0800 
 41 H       10.4260     1.2920     0.5330 H     1 <1>   0.0800 
 42 H       10.2410     0.5830    -1.0300 H     1 <1>   0.0800 
 43 H       10.2330    -2.9460     0.5030 H     1 <1>   0.0800 
 44 H        8.8490    -2.1220     1.1200 H     1 <1>   0.0800 
 45 H       10.6260    -0.7170     1.6270 H     1 <1>   0.0800 
 46 H       11.4470    -1.0110     0.1360 H     1 <1>   0.0800 
@<TRIPOS>BOND
  1   1   2  2   
  2   1   3  2   
  3   1   4  am  
  4   1   5  1   
  5   4   6  1   
  6   4   7  1   
  7   5  21  1   
  8   5  22  1   
  9   5  23  1   
 10   6   8  1   
 11   6  24  1   
 12   6  25  1   
 13   7   9  1   
 14   7  26  1   
 15   7  27  1   
 16   8  10  1   
 17   8  11  1   
 18   8  28  1   
 19   9  11  1   
 20   9  29  1   
 21   9  30  1   
 22  10  12  2   
 23  10  13  am  
 24  11  31  1   
 25  11  32  1   
 26  13  14  1   
 27  13  33  1   
 28  14  15  1   
 29  14  16  1   
 30  14  34  1   
 31  15  17  1   
 32  15  35  1   
 33  15  36  1   
 34  16  18  1   
 35  16  37  1   
 36  16  38  1   
 37  17  19  1   
 38  17  39  1   
 39  17  40  1   
 40  18  20  1   
 41  18  41  1   
 42  18  42  1   
 43  19  20  1   
 44  19  43  1   
 45  19  44  1   
 46  20  45  1   
 47  20  46  1   
@<TRIPOS>SUBSTRUCTURE
  1 ****  10 GROUP 4 **** **** 0

# MOE 2024.06 (io_trps.svl 2023.06)
