@<TRIPOS>MOLECULE
NONAME
32 33 1 0 0 
SMALL
USER_CHARGES


@<TRIPOS>ATOM
  1 F       -1.9860     0.2750    -1.9950 F     1 <1>  -0.3400 
  2 C       -2.3730    -0.2730    -0.8460 C.3   1 <1>   1.0200 
  3 F       -1.4260    -1.1610    -0.5490 F     1 <1>  -0.3400 
  4 F       -3.4470    -1.0030    -1.1400 F     1 <1>  -0.3400 
  5 C       -2.6080     0.7560     0.2970 C.3   1 <1>   0.6800 
  6 F       -3.0000     0.1130     1.4060 F     1 <1>  -0.3400 
  7 F       -1.4380     1.3040     0.6570 F     1 <1>  -0.3400 
  8 C       -3.6180     1.8580    -0.0790 C.3   1 <1>   0.6800 
  9 F       -3.1430     2.5740    -1.1050 F     1 <1>  -0.3400 
 10 F       -4.7320     1.3110    -0.5790 F     1 <1>  -0.3400 
 11 C       -4.0050     2.8240     1.0780 C.3   1 <1>   0.8180 
 12 F       -4.6260     2.1600     2.0580 F     1 <1>  -0.3400 
 13 F       -2.9220     3.3170     1.6790 F     1 <1>  -0.3400 
 14 C       -4.9220     4.0050     0.6520 C.2   1 <1>  -0.0380 
 15 N       -6.2980     3.7690     0.7290 N.pl3 1 <1>  -0.6000 
 16 C       -4.3660     5.1700     0.2350 C.2   1 <1>  -0.1360 
 17 C       -7.4140     4.4550     0.2060 C.ar  1 <1>   0.1000 
 18 C       -4.9520     6.3950    -0.1940 C.2   1 <1>   0.6160 
 19 C       -7.4100     5.7700    -0.2960 C.ar  1 <1>   0.1170 
 20 C       -8.6080     3.7470     0.2080 C.ar  1 <1>  -0.1500 
 21 O       -4.2380     7.3390    -0.4550 O.2   1 <1>  -0.5700 
 22 N       -6.2830     6.6100    -0.3510 N.am  1 <1>  -0.5470 
 23 C       -8.5960     6.3110    -0.7720 C.ar  1 <1>  -0.1500 
 24 C       -9.7820     4.3010    -0.2720 C.ar  1 <1>  -0.1500 
 25 C       -9.7770     5.5890    -0.7640 C.ar  1 <1>  -0.1500 
 26 H       -6.5730     2.9200     1.2410 H     1 <1>   0.4000 
 27 H       -3.2940     5.2500     0.2090 H     1 <1>   0.1500 
 28 H       -8.6340     2.7410     0.5850 H     1 <1>   0.1500 
 29 H       -6.4570     7.5670    -0.6520 H     1 <1>   0.3700 
 30 H       -8.6080     7.3140    -1.1590 H     1 <1>   0.1500 
 31 H      -10.6950     3.7300    -0.2600 H     1 <1>   0.1500 
 32 H      -10.6840     6.0300    -1.1400 H     1 <1>   0.1500 
@<TRIPOS>BOND
  1   1   2  1   
  2   2   3  1   
  3   2   4  1   
  4   2   5  1   
  5   5   6  1   
  6   5   7  1   
  7   5   8  1   
  8   8   9  1   
  9   8  10  1   
 10   8  11  1   
 11  11  12  1   
 12  11  13  1   
 13  11  14  1   
 14  14  15  1   
 15  14  16  2   
 16  15  17  1   
 17  15  26  1   
 18  16  18  1   
 19  16  27  1   
 20  17  19  ar  
 21  17  20  ar  
 22  18  21  2   
 23  18  22  am  
 24  19  22  1   
 25  19  23  ar  
 26  20  24  ar  
 27  20  28  1   
 28  22  29  1   
 29  23  25  ar  
 30  23  30  1   
 31  24  25  ar  
 32  24  31  1   
 33  25  32  1   
@<TRIPOS>SUBSTRUCTURE
  1 ****  14 GROUP 4 **** **** 0

# MOE 2024.06 (io_trps.svl 2023.06)
