@<TRIPOS>MOLECULE
NONAME
48 51 1 0 0 
SMALL
USER_CHARGES


@<TRIPOS>ATOM
  1 O        3.5150    -0.6740     1.2380 O.2   1 <1>  -0.5700 
  2 C        2.7940    -1.6630     1.2330 C.2   1 <1>   0.6160 
  3 N        2.8870    -2.5850     0.1980 N.am  1 <1>  -0.4690 
  4 C        1.8750    -1.9120     2.2860 C.2   1 <1>  -0.1360 
  5 C        2.1640    -3.7770     0.2610 C.2   1 <1>  -0.0290 
  6 C        3.5650    -2.1260    -1.0630 C.3   1 <1>   0.1400 
  7 C        1.1330    -3.0480     2.3180 C.2   1 <1>  -0.1500 
  8 C        1.2970    -4.0020     1.2860 C.2   1 <1>  -0.1500 
  9 C        2.3970    -4.8430    -0.8130 C.3   1 <1>   0.0580 
 10 C        3.8720    -3.2690    -2.0490 C.3   1 <1>  -0.0800 
 11 C        3.6330    -5.6650    -0.4020 C.3   1 <1>   0.3430 
 12 C        2.6440    -4.1850    -2.1780 C.3   1 <1>  -0.1600 
 13 C        5.1070    -4.0670    -1.5940 C.3   1 <1>   0.3430 
 14 N        4.8100    -4.7530    -0.3020 N.4   1 <1>  -0.9590 
 15 C        6.0100    -5.3300     0.3550 C.3   1 <1>   0.4860 
 16 C        6.9950    -4.1970     0.5790 C.ar  1 <1>  -0.1430 
 17 C        8.2530    -4.1940    -0.0170 C.ar  1 <1>  -0.1430 
 18 C        6.6080    -3.1240     1.3740 C.ar  1 <1>  -0.1500 
 19 C        9.0910    -3.1090     0.1820 C.ar  1 <1>  -0.1500 
 20 C        8.7450    -5.3460    -0.8830 C.3   1 <1>  -0.0970 
 21 C        7.4450    -2.0410     1.5610 C.ar  1 <1>  -0.1430 
 22 C        8.6910    -2.0380     0.9610 C.ar  1 <1>  -0.1500 
 23 C        6.9880    -0.8700     2.4140 C.3   1 <1>  -0.0970 
 24 H        1.8020    -1.1550     3.0440 H     1 <1>   0.1500 
 25 H        4.4780    -1.6070    -0.8180 H     1 <1>   0.0800 
 26 H        2.9130    -1.4150    -1.5420 H     1 <1>   0.0800 
 27 H        0.4270    -3.2460     3.1070 H     1 <1>   0.1500 
 28 H        0.7150    -4.9060     1.3550 H     1 <1>   0.1500 
 29 H        1.5430    -5.4950    -0.8760 H     1 <1>   0.0800 
 30 H        4.0940    -2.8320    -3.0070 H     1 <1>   0.0800 
 31 H        3.8210    -6.4370    -1.1310 H     1 <1>   0.0800 
 32 H        3.4460    -6.1280     0.5530 H     1 <1>   0.0800 
 33 H        1.7800    -3.6090    -2.4680 H     1 <1>   0.0800 
 34 H        2.8110    -4.9360    -2.9320 H     1 <1>   0.0800 
 35 H        5.9400    -3.3900    -1.4730 H     1 <1>   0.0800 
 36 H        5.3690    -4.7940    -2.3450 H     1 <1>   0.0800 
 37 H        4.4980    -3.9830     0.3150 H     1 <1>   0.4500 
 38 H        6.4430    -6.0960    -0.2630 H     1 <1>   0.0800 
 39 H        5.7430    -5.7610     1.3060 H     1 <1>   0.0800 
 40 H        5.6460    -3.1090     1.8580 H     1 <1>   0.1500 
 41 H       10.0690    -3.0830    -0.2670 H     1 <1>   0.1500 
 42 H        8.1160    -5.4670    -1.7460 H     1 <1>   0.0800 
 43 H        8.7550    -6.2600    -0.3160 H     1 <1>   0.0800 
 44 H        9.7480    -5.1640    -1.2270 H     1 <1>   0.0800 
 45 H        9.3560    -1.2030     1.0970 H     1 <1>   0.1500 
 46 H        6.2090    -0.3290     1.9060 H     1 <1>   0.0800 
 47 H        7.8020    -0.1950     2.6080 H     1 <1>   0.0800 
 48 H        6.6080    -1.2220     3.3550 H     1 <1>   0.0800 
@<TRIPOS>BOND
  1   1   2  2   
  2   2   3  am  
  3   2   4  1   
  4   3   5  1   
  5   3   6  1   
  6   4   7  2   
  7   4  24  1   
  8   5   8  2   
  9   5   9  1   
 10   6  10  1   
 11   6  25  1   
 12   6  26  1   
 13   7   8  1   
 14   7  27  1   
 15   8  28  1   
 16   9  11  1   
 17   9  12  1   
 18   9  29  1   
 19  10  12  1   
 20  10  13  1   
 21  10  30  1   
 22  11  14  1   
 23  11  31  1   
 24  11  32  1   
 25  12  33  1   
 26  12  34  1   
 27  13  14  1   
 28  13  35  1   
 29  13  36  1   
 30  14  15  1   
 31  14  37  1   
 32  15  16  1   
 33  15  38  1   
 34  15  39  1   
 35  16  17  ar  
 36  16  18  ar  
 37  17  19  ar  
 38  17  20  1   
 39  18  21  ar  
 40  18  40  1   
 41  19  22  ar  
 42  19  41  1   
 43  20  42  1   
 44  20  43  1   
 45  20  44  1   
 46  21  22  ar  
 47  21  23  1   
 48  22  45  1   
 49  23  46  1   
 50  23  47  1   
 51  23  48  1   
@<TRIPOS>SUBSTRUCTURE
  1 ****  14 GROUP 4 **** **** 0

# MOE 2024.06 (io_trps.svl 2023.06)
