@<TRIPOS>MOLECULE
NONAME
32 32 1 0 0 
SMALL
USER_CHARGES


@<TRIPOS>ATOM
  1 O       -1.1870     0.7440    -0.0480 O.2   1 <1>  -0.5700 
  2 C       -0.7380    -0.2910    -0.4710 C.2   1 <1>   0.6590 
  3 O        0.1870    -0.9830     0.1880 O.3   1 <1>  -0.4300 
  4 C       -1.1970    -0.8700    -1.8030 C.3   1 <1>   0.1810 
  5 C        0.6610    -0.5730     1.4540 C.3   1 <1>   0.0400 
  6 O       -1.7130    -2.1870    -1.6620 O.3   1 <1>  -0.3630 
  7 C       -2.7570    -2.4460    -0.8230 C.ar  1 <1>   0.0830 
  8 C       -2.8330    -3.6850    -0.1720 C.ar  1 <1>   0.0830 
  9 C       -3.7670    -1.5110    -0.6160 C.ar  1 <1>  -0.1500 
 10 O       -1.8870    -4.6560    -0.2760 O.3   1 <1>  -0.3630 
 11 C       -3.9160    -3.9720     0.6410 C.ar  1 <1>  -0.1500 
 12 C       -4.8370    -1.8050     0.2130 C.ar  1 <1>  -0.1500 
 13 C       -0.5240    -4.2940    -0.1050 C.3   1 <1>   0.1810 
 14 C       -4.9150    -3.0360     0.8380 C.ar  1 <1>  -0.1500 
 15 C        0.2970    -5.4620     0.4140 C.2   1 <1>   0.6590 
 16 O        0.8070    -5.4390     1.5060 O.2   1 <1>  -0.5700 
 17 O        0.4470    -6.4960    -0.4090 O.3   1 <1>  -0.4300 
 18 C        1.1850    -7.6410    -0.0370 C.3   1 <1>   0.0400 
 19 H       -0.3560    -0.9260    -2.4670 H     1 <1>   0.0800 
 20 H       -1.9460    -0.2460    -2.2500 H     1 <1>   0.0800 
 21 H        1.3890    -1.2880     1.7950 H     1 <1>   0.0800 
 22 H       -0.1680    -0.5320     2.1390 H     1 <1>   0.0800 
 23 H        1.1120     0.4000     1.3590 H     1 <1>   0.0800 
 24 H       -3.7470    -0.5500    -1.0950 H     1 <1>   0.1500 
 25 H       -3.9690    -4.9310     1.1240 H     1 <1>   0.1500 
 26 H       -5.6120    -1.0740     0.3680 H     1 <1>   0.1500 
 27 H       -0.4710    -3.4850     0.6000 H     1 <1>   0.0800 
 28 H       -0.1340    -3.9800    -1.0540 H     1 <1>   0.0800 
 29 H       -5.7500    -3.2660     1.4770 H     1 <1>   0.1500 
 30 H        1.1640    -8.3400    -0.8530 H     1 <1>   0.0800 
 31 H        0.7310    -8.0770     0.8370 H     1 <1>   0.0800 
 32 H        2.1980    -7.3480     0.1780 H     1 <1>   0.0800 
@<TRIPOS>BOND
  1   1   2  2   
  2   2   3  1   
  3   2   4  1   
  4   3   5  1   
  5   4   6  1   
  6   4  19  1   
  7   4  20  1   
  8   5  21  1   
  9   5  22  1   
 10   5  23  1   
 11   6   7  1   
 12   7   8  ar  
 13   7   9  ar  
 14   8  10  1   
 15   8  11  ar  
 16   9  12  ar  
 17   9  24  1   
 18  10  13  1   
 19  11  14  ar  
 20  11  25  1   
 21  12  14  ar  
 22  12  26  1   
 23  13  15  1   
 24  13  27  1   
 25  13  28  1   
 26  14  29  1   
 27  15  16  2   
 28  15  17  1   
 29  17  18  1   
 30  18  30  1   
 31  18  31  1   
 32  18  32  1   
@<TRIPOS>SUBSTRUCTURE
  1 ****   8 GROUP 4 **** **** 0

# MOE 2024.06 (io_trps.svl 2023.06)
