@<TRIPOS>MOLECULE
NONAME
35 36 1 0 0 
SMALL
USER_CHARGES


@<TRIPOS>ATOM
  1 O       -0.4410     2.1760    -1.5430 O.2   1 <1>  -0.5700 
  2 C       -0.8480     2.5970    -0.4930 C.2   1 <1>   0.5690 
  3 N       -1.9370     2.1450     0.1790 N.am  1 <1>  -0.4200 
  4 C       -0.1730     3.7150     0.2690 C.3   1 <1>  -0.0990 
  5 C       -2.1060     2.8050     1.3530 C.2   1 <1>   0.5690 
  6 C       -2.8310     1.0590    -0.3190 C.3   1 <1>   0.2010 
  7 C       -1.0260     3.8450     1.5460 C.3   1 <1>  -0.0990 
  8 O       -2.9930     2.6110     2.1440 O.2   1 <1>  -0.5700 
  9 C       -4.2070     1.5600    -0.7520 C.2   1 <1>   0.5690 
 10 O       -4.5940     1.3100    -1.8680 O.2   1 <1>  -0.5700 
 11 N       -4.9770     2.2480     0.1320 N.am  1 <1>  -0.7300 
 12 C       -6.3230     2.7990    -0.1470 C.3   1 <1>   0.1400 
 13 C       -7.3900     1.9120     0.4940 C.3   1 <1>  -0.0170 
 14 C       -8.7740     2.4840     0.2320 C.ar  1 <1>  -0.1440 
 15 C       -9.4070     3.2650     1.1870 C.ar  1 <1>  -0.1500 
 16 C       -9.4140     2.2290    -0.9710 C.ar  1 <1>  -0.1500 
 17 C      -10.6650     3.7870     0.9420 C.ar  1 <1>  -0.1500 
 18 C      -10.6730     2.7500    -1.2170 C.ar  1 <1>  -0.1500 
 19 C      -11.3000     3.5290    -0.2610 C.ar  1 <1>  -0.1500 
 20 H       -0.1950     4.6170    -0.3150 H     1 <1>   0.0800 
 21 H        0.8420     3.4450     0.4940 H     1 <1>   0.0800 
 22 H       -2.9630     0.3310     0.4600 H     1 <1>   0.0800 
 23 H       -2.3670     0.5690    -1.1560 H     1 <1>   0.0800 
 24 H       -1.4670     4.8220     1.6300 H     1 <1>   0.0800 
 25 H       -0.4540     3.6190     2.4280 H     1 <1>   0.0800 
 26 H       -4.5950     2.4370     1.0720 H     1 <1>   0.3700 
 27 H       -6.4860     2.8450    -1.2110 H     1 <1>   0.0800 
 28 H       -6.3900     3.7980     0.2470 H     1 <1>   0.0800 
 29 H       -7.2180     1.8460     1.5530 H     1 <1>   0.0800 
 30 H       -7.3280     0.9230     0.0760 H     1 <1>   0.0800 
 31 H       -8.9240     3.4730     2.1260 H     1 <1>   0.1500 
 32 H       -8.9340     1.6250    -1.7210 H     1 <1>   0.1500 
 33 H      -11.1510     4.3920     1.6870 H     1 <1>   0.1500 
 34 H      -11.1640     2.5480    -2.1530 H     1 <1>   0.1500 
 35 H      -12.2780     3.9340    -0.4520 H     1 <1>   0.1500 
@<TRIPOS>BOND
  1   1   2  2   
  2   2   3  am  
  3   2   4  1   
  4   3   5  am  
  5   3   6  1   
  6   4   7  1   
  7   4  20  1   
  8   4  21  1   
  9   5   7  1   
 10   5   8  2   
 11   6   9  1   
 12   6  22  1   
 13   6  23  1   
 14   7  24  1   
 15   7  25  1   
 16   9  10  2   
 17   9  11  am  
 18  11  12  1   
 19  11  26  1   
 20  12  13  1   
 21  12  27  1   
 22  12  28  1   
 23  13  14  1   
 24  13  29  1   
 25  13  30  1   
 26  14  15  ar  
 27  14  16  ar  
 28  15  17  ar  
 29  15  31  1   
 30  16  18  ar  
 31  16  32  1   
 32  17  19  ar  
 33  17  33  1   
 34  18  19  ar  
 35  18  34  1   
 36  19  35  1   
@<TRIPOS>SUBSTRUCTURE
  1 ****  11 GROUP 4 **** **** 0

# MOE 2024.06 (io_trps.svl 2023.06)
