@<TRIPOS>MOLECULE
NONAME
34 35 1 0 0 
SMALL
USER_CHARGES


@<TRIPOS>ATOM
  1 CL       0.7710     0.5040    -0.2810 Cl    1 <1>  -0.1770 
  2 C        2.3100    -0.2970    -0.0930 C.ar  1 <1>   0.1770 
  3 C        3.4690     0.4520    -0.1100 C.ar  1 <1>  -0.1500 
  4 C        2.3400    -1.6690     0.0680 C.ar  1 <1>  -0.1500 
  5 C        4.7040    -0.1730     0.0350 C.ar  1 <1>   0.1170 
  6 C        3.5620    -2.3020     0.2140 C.ar  1 <1>  -0.1500 
  7 N        5.9020     0.5780     0.0190 N.am  1 <1>  -0.2370 
  8 C        4.7300    -1.5570     0.1970 C.ar  1 <1>  -0.1500 
  9 C        6.1070     1.7510     0.6960 C.2   1 <1>   0.5690 
 10 C        7.0340     0.2450    -0.6760 C.2   1 <1>   0.5690 
 11 O        5.3400     2.2500     1.4840 O.2   1 <1>  -0.5700 
 12 C        7.4450     2.3930     0.3160 C.3   1 <1>   0.0610 
 13 O        7.1380    -0.6730    -1.4520 O.2   1 <1>  -0.5700 
 14 C        8.1990     1.1790    -0.3320 C.3   1 <1>   0.0610 
 15 C        8.1590     3.0250     1.5340 C.3   1 <1>  -0.2400 
 16 C        7.1450     3.5360    -0.6830 C.3   1 <1>  -0.2400 
 17 C        9.1220     0.4280     0.6580 C.3   1 <1>  -0.2400 
 18 C        9.0520     1.5330    -1.5740 C.3   1 <1>  -0.2400 
 19 H        3.4050     1.5180    -0.2320 H     1 <1>   0.1500 
 20 H        1.4210    -2.2280     0.0770 H     1 <1>   0.1500 
 21 H        3.6050    -3.3710     0.3380 H     1 <1>   0.1500 
 22 H        5.6740    -2.0610     0.3060 H     1 <1>   0.1500 
 23 H        8.2470     2.3260     2.3460 H     1 <1>   0.0800 
 24 H        7.5930     3.8640     1.9020 H     1 <1>   0.0800 
 25 H        9.1390     3.3730     1.2610 H     1 <1>   0.0800 
 26 H        6.6330     3.1670    -1.5540 H     1 <1>   0.0800 
 27 H        8.0500     4.0290    -0.9920 H     1 <1>   0.0800 
 28 H        6.5100     4.2730    -0.2210 H     1 <1>   0.0800 
 29 H        8.5860     0.1380     1.5450 H     1 <1>   0.0800 
 30 H        9.9640     1.0350     0.9410 H     1 <1>   0.0800 
 31 H        9.5020    -0.4690     0.1990 H     1 <1>   0.0800 
 32 H        8.4430     1.9050    -2.3780 H     1 <1>   0.0800 
 33 H        9.5560     0.6560    -1.9400 H     1 <1>   0.0800 
 34 H        9.7960     2.2700    -1.3260 H     1 <1>   0.0800 
@<TRIPOS>BOND
  1   1   2  1   
  2   2   3  ar  
  3   2   4  ar  
  4   3   5  ar  
  5   3  19  1   
  6   4   6  ar  
  7   4  20  1   
  8   5   7  1   
  9   5   8  ar  
 10   6   8  ar  
 11   6  21  1   
 12   7   9  am  
 13   7  10  am  
 14   8  22  1   
 15   9  11  2   
 16   9  12  1   
 17  10  13  2   
 18  10  14  1   
 19  12  14  1   
 20  12  15  1   
 21  12  16  1   
 22  14  17  1   
 23  14  18  1   
 24  15  23  1   
 25  15  24  1   
 26  15  25  1   
 27  16  26  1   
 28  16  27  1   
 29  16  28  1   
 30  17  29  1   
 31  17  30  1   
 32  17  31  1   
 33  18  32  1   
 34  18  33  1   
 35  18  34  1   
@<TRIPOS>SUBSTRUCTURE
  1 ****   7 GROUP 4 **** **** 0

# MOE 2024.06 (io_trps.svl 2023.06)
