@<TRIPOS>MOLECULE
NONAME
45 46 1 0 0 
SMALL
USER_CHARGES


@<TRIPOS>ATOM
  1 O       -7.1550     4.9540    -0.4830 O.3   1 <1>  -0.5600 
  2 C       -8.3070     5.3010    -1.1910 C.3   1 <1>   0.2640 
  3 C       -6.2190     4.2180    -1.2060 C.3   1 <1>   0.1200 
  4 C       -9.1790     6.1580    -0.2900 C.ar  1 <1>  -0.1440 
  5 C       -5.0160     3.9530    -0.2890 C.3   1 <1>   0.2000 
  6 C       -9.8140     5.5930     0.8070 C.ar  1 <1>  -0.1500 
  7 C       -9.3550     7.5090    -0.5530 C.ar  1 <1>  -0.1500 
  8 O       -4.6770     5.1490     0.3430 O.3   1 <1>  -0.6800 
  9 C       -3.7810     3.4120    -1.0390 C.3   1 <1>   0.3430 
 10 C      -10.6170     6.3660     1.6280 C.ar  1 <1>  -0.1500 
 11 C      -10.1570     8.2830     0.2670 C.ar  1 <1>  -0.1500 
 12 N       -2.5370     3.7030    -0.2640 N.4   1 <1>  -0.9590 
 13 C      -10.7890     7.7120     1.3580 C.ar  1 <1>  -0.1500 
 14 C       -1.3240     3.8600    -1.1250 C.3   1 <1>   0.3430 
 15 C       -2.3190     2.7870     0.8860 C.3   1 <1>   0.3430 
 16 C       -0.0190     3.8880    -0.3020 C.3   1 <1>  -0.0800 
 17 C       -1.2920     3.4090     1.8410 C.3   1 <1>  -0.1600 
 18 C       -0.2630     4.3270     1.1520 C.3   1 <1>  -0.1600 
 19 C        1.0180     4.8010    -0.9680 C.3   1 <1>  -0.2400 
 20 H       -8.8300     4.4020    -1.4690 H     1 <1>   0.0800 
 21 H       -8.0240     5.8470    -2.0740 H     1 <1>   0.0800 
 22 H       -5.9200     4.7920    -2.0680 H     1 <1>   0.0800 
 23 H       -6.6710     3.2930    -1.5240 H     1 <1>   0.0800 
 24 H       -5.3120     3.2560     0.4760 H     1 <1>   0.0800 
 25 H       -9.6800     4.5480     1.0260 H     1 <1>   0.1500 
 26 H       -8.8680     7.9670    -1.3950 H     1 <1>   0.1500 
 27 H       -5.5270     5.6090     0.5580 H     1 <1>   0.4000 
 28 H       -3.7280     3.9120    -1.9920 H     1 <1>   0.0800 
 29 H       -3.8830     2.3550    -1.2220 H     1 <1>   0.0800 
 30 H      -11.1060     5.9210     2.4760 H     1 <1>   0.1500 
 31 H      -10.2900     9.3300     0.0580 H     1 <1>   0.1500 
 32 H       -2.7460     4.6270     0.1650 H     1 <1>   0.4500 
 33 H      -11.4130     8.3130     1.9960 H     1 <1>   0.1500 
 34 H       -1.4100     4.7810    -1.6780 H     1 <1>   0.0800 
 35 H       -1.2670     3.0510    -1.8360 H     1 <1>   0.0800 
 36 H       -1.9510     1.8410     0.5240 H     1 <1>   0.0800 
 37 H       -3.2420     2.6170     1.4170 H     1 <1>   0.0800 
 38 H        0.3860     2.8900    -0.2900 H     1 <1>   0.0800 
 39 H       -0.7770     2.6050     2.3390 H     1 <1>   0.0800 
 40 H       -1.8080     3.9670     2.6030 H     1 <1>   0.0800 
 41 H       -0.6330     5.3390     1.1570 H     1 <1>   0.0800 
 42 H        0.6590     4.3170     1.7090 H     1 <1>   0.0800 
 43 H        0.6710     5.8200    -1.0000 H     1 <1>   0.0800 
 44 H        1.2220     4.4750    -1.9740 H     1 <1>   0.0800 
 45 H        1.9440     4.7780    -0.4180 H     1 <1>   0.0800 
@<TRIPOS>BOND
  1   1   2  1   
  2   1   3  1   
  3   2   4  1   
  4   2  20  1   
  5   2  21  1   
  6   3   5  1   
  7   3  22  1   
  8   3  23  1   
  9   4   6  ar  
 10   4   7  ar  
 11   5   8  1   
 12   5   9  1   
 13   5  24  1   
 14   6  10  ar  
 15   6  25  1   
 16   7  11  ar  
 17   7  26  1   
 18   8  27  1   
 19   9  12  1   
 20   9  28  1   
 21   9  29  1   
 22  10  13  ar  
 23  10  30  1   
 24  11  13  ar  
 25  11  31  1   
 26  12  14  1   
 27  12  15  1   
 28  12  32  1   
 29  13  33  1   
 30  14  16  1   
 31  14  34  1   
 32  14  35  1   
 33  15  17  1   
 34  15  36  1   
 35  15  37  1   
 36  16  18  1   
 37  16  19  1   
 38  16  38  1   
 39  17  18  1   
 40  17  39  1   
 41  17  40  1   
 42  18  41  1   
 43  18  42  1   
 44  19  43  1   
 45  19  44  1   
 46  19  45  1   
@<TRIPOS>SUBSTRUCTURE
  1 ****   8 GROUP 4 **** **** 0

# MOE 2024.06 (io_trps.svl 2023.06)
