@<TRIPOS>MOLECULE
NONAME
48 49 1 0 0 
SMALL
USER_CHARGES


@<TRIPOS>ATOM
  1 O       -0.5190     0.3820    -0.0290 O.2   1 <1>  -0.5700 
  2 C       -0.3860     1.5830    -0.1540 C.2   1 <1>   0.5440 
  3 N        0.8640     2.1520    -0.0750 N.am  1 <1>  -0.5470 
  4 C       -1.5480     2.4300    -0.3440 C.ar  1 <1>   0.0860 
  5 C        2.1410     1.5720    -0.0170 C.ar  1 <1>   0.1170 
  6 C       -2.7830     2.0780     0.1990 C.ar  1 <1>  -0.1500 
  7 C       -1.4850     3.6200    -1.0680 C.ar  1 <1>  -0.1500 
  8 C        2.4270     0.3150    -0.5380 C.ar  1 <1>  -0.1500 
  9 C        3.1740     2.2920     0.5670 C.ar  1 <1>  -0.1500 
 10 C       -3.9180     2.8690     0.0520 C.ar  1 <1>   0.0830 
 11 C       -2.5980     4.4240    -1.2190 C.ar  1 <1>  -0.1500 
 12 C        3.7050    -0.2130    -0.4770 C.ar  1 <1>   0.0830 
 13 C        4.4580     1.7820     0.6360 C.ar  1 <1>   0.0830 
 14 O       -5.1100     2.4860     0.5950 O.3   1 <1>  -0.3630 
 15 C       -3.8190     4.0750    -0.6670 C.ar  1 <1>   0.0830 
 16 O        3.8790    -1.4470    -1.0170 O.3   1 <1>  -0.3630 
 17 C        4.7290     0.5220     0.1130 C.ar  1 <1>  -0.1500 
 18 O        5.3900     2.5710     1.2290 O.3   1 <1>  -0.3620 
 19 C       -5.3310     1.1850     1.0900 C.3   1 <1>   0.1200 
 20 O       -4.8110     4.9760    -0.9020 O.3   1 <1>  -0.3630 
 21 C        5.1190    -2.1150    -0.9490 C.3   1 <1>   0.0400 
 22 C        6.7240     2.1410     1.3870 C.3   1 <1>   0.0400 
 23 C       -6.8090     1.0650     1.4460 C.3   1 <1>  -0.2400 
 24 C       -6.1280     4.8470    -0.4210 C.3   1 <1>   0.1200 
 25 C       -6.9200     6.0700    -0.8740 C.3   1 <1>  -0.2400 
 26 H        0.8580     3.1630     0.0440 H     1 <1>   0.3700 
 27 H       -2.8200     1.1560     0.7490 H     1 <1>   0.1500 
 28 H       -0.5610     3.9210    -1.5280 H     1 <1>   0.1500 
 29 H        1.6520    -0.2670    -1.0000 H     1 <1>   0.1500 
 30 H        2.9870     3.2650     0.9800 H     1 <1>   0.1500 
 31 H       -2.5300     5.3400    -1.7780 H     1 <1>   0.1500 
 32 H        5.7190     0.1200     0.1620 H     1 <1>   0.1500 
 33 H       -5.0650     0.4760     0.3240 H     1 <1>   0.0800 
 34 H       -4.7180     1.0420     1.9640 H     1 <1>   0.0800 
 35 H        5.0030    -3.0780    -1.4120 H     1 <1>   0.0800 
 36 H        5.3930    -2.2370     0.0840 H     1 <1>   0.0800 
 37 H        5.8550    -1.5400    -1.4810 H     1 <1>   0.0800 
 38 H        7.2680     2.9210     1.8890 H     1 <1>   0.0800 
 39 H        7.1520     1.9660     0.4160 H     1 <1>   0.0800 
 40 H        6.7350     1.2460     1.9830 H     1 <1>   0.0800 
 41 H       -7.0120     0.0810     1.8300 H     1 <1>   0.0800 
 42 H       -7.4140     1.2240     0.5710 H     1 <1>   0.0800 
 43 H       -7.0680     1.7870     2.2000 H     1 <1>   0.0800 
 44 H       -6.5530     3.9460    -0.8290 H     1 <1>   0.0800 
 45 H       -6.0940     4.7910     0.6530 H     1 <1>   0.0800 
 46 H       -7.9320     5.9990    -0.5200 H     1 <1>   0.0800 
 47 H       -6.9340     6.1230    -1.9480 H     1 <1>   0.0800 
 48 H       -6.4770     6.9640    -0.4740 H     1 <1>   0.0800 
@<TRIPOS>BOND
  1   1   2  2   
  2   2   3  am  
  3   2   4  1   
  4   3   5  1   
  5   3  26  1   
  6   4   6  ar  
  7   4   7  ar  
  8   5   8  ar  
  9   5   9  ar  
 10   6  10  ar  
 11   6  27  1   
 12   7  11  ar  
 13   7  28  1   
 14   8  12  ar  
 15   8  29  1   
 16   9  13  ar  
 17   9  30  1   
 18  10  14  1   
 19  10  15  ar  
 20  11  15  ar  
 21  11  31  1   
 22  12  16  1   
 23  12  17  ar  
 24  13  17  ar  
 25  13  18  1   
 26  14  19  1   
 27  15  20  1   
 28  16  21  1   
 29  17  32  1   
 30  18  22  1   
 31  19  23  1   
 32  19  33  1   
 33  19  34  1   
 34  20  24  1   
 35  21  35  1   
 36  21  36  1   
 37  21  37  1   
 38  22  38  1   
 39  22  39  1   
 40  22  40  1   
 41  23  41  1   
 42  23  42  1   
 43  23  43  1   
 44  24  25  1   
 45  24  44  1   
 46  24  45  1   
 47  25  46  1   
 48  25  47  1   
 49  25  48  1   
@<TRIPOS>SUBSTRUCTURE
  1 ****   2 GROUP 4 **** **** 0

# MOE 2024.06 (io_trps.svl 2023.06)
