@<TRIPOS>MOLECULE
NONAME
42 44 1 0 0 
SMALL
USER_CHARGES


@<TRIPOS>ATOM
  1 CL      -0.8250    -1.3640    -1.2580 Cl    1 <1>  -0.1770 
  2 C        0.4930    -2.4850    -1.0270 C.ar  1 <1>   0.1770 
  3 C        0.5020    -3.3890     0.0260 C.ar  1 <1>  -0.0090 
  4 C        1.5260    -2.4330    -1.9460 C.ar  1 <1>  -0.1500 
  5 S       -0.8480    -3.4620     1.2240 S.o2  1 <1>   1.4470 
  6 C        1.5890    -4.2490     0.1210 C.ar  1 <1>  -0.1500 
  7 C        2.5960    -3.2970    -1.8230 C.ar  1 <1>  -0.1500 
  8 O       -1.1120    -2.1410     1.7510 O.2   1 <1>  -0.6500 
  9 O       -0.5960    -4.5340     2.1630 O.2   1 <1>  -0.6500 
 10 N       -2.1820    -3.9290     0.2930 N.am  1 <1>  -0.8490 
 11 C        2.6510    -4.2220    -0.7820 C.ar  1 <1>   0.0860 
 12 C       -2.2330    -5.3380    -0.0610 C.3   1 <1>   0.1960 
 13 C       -3.4520    -3.6380     0.9300 C.3   1 <1>   0.1960 
 14 C        3.7660    -5.1360    -0.6370 C.2   1 <1>   0.5440 
 15 C       -3.6580    -5.5410    -0.5580 C.3   1 <1>  -0.1600 
 16 C       -4.4730    -4.4530     0.1430 C.3   1 <1>  -0.1600 
 17 O        3.5470    -6.3310    -0.6210 O.2   1 <1>  -0.5700 
 18 N        5.0610    -4.6840    -0.5030 N.am  1 <1>  -0.6600 
 19 C        5.4280    -3.2870    -0.1180 C.3   1 <1>   0.1400 
 20 C        6.2290    -5.6180    -0.4810 C.3   1 <1>   0.1400 
 21 C        6.2500    -3.2850     1.1820 C.3   1 <1>   0.1200 
 22 C        7.0020    -5.4810     0.8400 C.3   1 <1>   0.1200 
 23 O        7.3480    -4.1440     1.0740 O.3   1 <1>  -0.5600 
 24 H        1.4830    -1.7200    -2.7510 H     1 <1>   0.1500 
 25 H        1.6240    -4.9730     0.9200 H     1 <1>   0.1500 
 26 H        3.4000    -3.2670    -2.5390 H     1 <1>   0.1500 
 27 H       -2.0690    -5.9520     0.8100 H     1 <1>   0.0800 
 28 H       -1.5040    -5.5790    -0.8170 H     1 <1>   0.0800 
 29 H       -3.6650    -2.5810     0.8960 H     1 <1>   0.0800 
 30 H       -3.4300    -3.9660     1.9570 H     1 <1>   0.0800 
 31 H       -4.0110    -6.5300    -0.3250 H     1 <1>   0.0800 
 32 H       -3.6880    -5.3970    -1.6240 H     1 <1>   0.0800 
 33 H       -4.9610    -3.8240    -0.5810 H     1 <1>   0.0800 
 34 H       -5.2140    -4.8670     0.8040 H     1 <1>   0.0800 
 35 H        4.5500    -2.6840     0.0260 H     1 <1>   0.0800 
 36 H        6.0120    -2.8450    -0.9060 H     1 <1>   0.0800 
 37 H        6.8850    -5.3830    -1.3000 H     1 <1>   0.0800 
 38 H        5.9080    -6.6380    -0.6000 H     1 <1>   0.0800 
 39 H        5.6460    -3.6020     2.0140 H     1 <1>   0.0800 
 40 H        6.6250    -2.2970     1.3830 H     1 <1>   0.0800 
 41 H        7.9110    -6.0550     0.7990 H     1 <1>   0.0800 
 42 H        6.4070    -5.8350     1.6640 H     1 <1>   0.0800 
@<TRIPOS>BOND
  1   1   2  1   
  2   2   3  ar  
  3   2   4  ar  
  4   3   5  1   
  5   3   6  ar  
  6   4   7  ar  
  7   4  24  1   
  8   5   8  2   
  9   5   9  2   
 10   5  10  am  
 11   6  11  ar  
 12   6  25  1   
 13   7  11  ar  
 14   7  26  1   
 15  10  12  1   
 16  10  13  1   
 17  11  14  1   
 18  12  15  1   
 19  12  27  1   
 20  12  28  1   
 21  13  16  1   
 22  13  29  1   
 23  13  30  1   
 24  14  17  2   
 25  14  18  am  
 26  15  16  1   
 27  15  31  1   
 28  15  32  1   
 29  16  33  1   
 30  16  34  1   
 31  18  19  1   
 32  18  20  1   
 33  19  21  1   
 34  19  35  1   
 35  19  36  1   
 36  20  22  1   
 37  20  37  1   
 38  20  38  1   
 39  21  23  1   
 40  21  39  1   
 41  21  40  1   
 42  22  23  1   
 43  22  41  1   
 44  22  42  1   
@<TRIPOS>SUBSTRUCTURE
  1 ****   6 GROUP 4 **** **** 0

# MOE 2024.06 (io_trps.svl 2023.06)
