@<TRIPOS>MOLECULE
NONAME
38 39 1 0 0 
SMALL
USER_CHARGES


@<TRIPOS>ATOM
  1 I        0.0260     0.0480     1.9190 I     1 <1>  -0.0810 
  2 C       -1.8500    -0.8290     1.4230 C.ar  1 <1>   0.0810 
  3 C       -2.5030    -0.4030     0.2830 C.ar  1 <1>  -0.1500 
  4 C       -2.3700    -1.8030     2.2550 C.ar  1 <1>  -0.1500 
  5 C       -3.7220    -0.9780    -0.0310 C.ar  1 <1>  -0.1500 
  6 C       -3.5890    -2.3670     1.9230 C.ar  1 <1>  -0.1500 
  7 C       -4.2790    -1.9680     0.7800 C.ar  1 <1>   0.1170 
  8 N       -5.5170    -2.5700     0.5050 N.am  1 <1>  -0.5470 
  9 C       -6.2260    -2.6800    -0.6590 C.2   1 <1>   0.5690 
 10 O       -5.8490    -2.2590    -1.7240 O.2   1 <1>  -0.5700 
 11 C       -7.5660    -3.3890    -0.5960 C.3   1 <1>  -0.0990 
 12 C       -8.6600    -2.4980     0.0220 C.3   1 <1>  -0.1600 
 13 C      -10.0020    -3.2260     0.2320 C.3   1 <1>  -0.0800 
 14 C      -10.6390    -3.6690    -1.0990 C.3   1 <1>  -0.1600 
 15 C      -10.9680    -2.3110     1.0060 C.3   1 <1>  -0.1600 
 16 C      -12.0070    -4.3310    -0.8820 C.3   1 <1>  -0.1600 
 17 C      -12.3310    -2.9800     1.2280 C.3   1 <1>  -0.1600 
 18 C      -12.9550    -3.4120    -0.1040 C.3   1 <1>  -0.1600 
 19 H       -2.0750     0.3580    -0.3460 H     1 <1>   0.1500 
 20 H       -1.8350    -2.1120     3.1360 H     1 <1>   0.1500 
 21 H       -4.2410    -0.6490    -0.9130 H     1 <1>   0.1500 
 22 H       -4.0050    -3.1280     2.5580 H     1 <1>   0.1500 
 23 H       -5.9510    -3.0240     1.3050 H     1 <1>   0.3700 
 24 H       -7.4560    -4.2920    -0.0260 H     1 <1>   0.0800 
 25 H       -7.8400    -3.6630    -1.5980 H     1 <1>   0.0800 
 26 H       -8.8110    -1.6390    -0.6110 H     1 <1>   0.0800 
 27 H       -8.3130    -2.1360     0.9750 H     1 <1>   0.0800 
 28 H       -9.8250    -4.1040     0.8320 H     1 <1>   0.0800 
 29 H      -10.0020    -4.3720    -1.6040 H     1 <1>   0.0800 
 30 H      -10.7610    -2.8130    -1.7410 H     1 <1>   0.0800 
 31 H      -11.1120    -1.3960     0.4570 H     1 <1>   0.0800 
 32 H      -10.5430    -2.0580     1.9620 H     1 <1>   0.0800 
 33 H      -11.8750    -5.2490    -0.3350 H     1 <1>   0.0800 
 34 H      -12.4450    -4.5750    -1.8340 H     1 <1>   0.0800 
 35 H      -12.9920    -2.2940     1.7290 H     1 <1>   0.0800 
 36 H      -12.2080    -3.8420     1.8610 H     1 <1>   0.0800 
 37 H      -13.8840    -3.9240     0.0820 H     1 <1>   0.0800 
 38 H      -13.1720    -2.5390    -0.6960 H     1 <1>   0.0800 
@<TRIPOS>BOND
  1   1   2  1   
  2   2   3  ar  
  3   2   4  ar  
  4   3   5  ar  
  5   3  19  1   
  6   4   6  ar  
  7   4  20  1   
  8   5   7  ar  
  9   5  21  1   
 10   6   7  ar  
 11   6  22  1   
 12   7   8  1   
 13   8   9  am  
 14   8  23  1   
 15   9  10  2   
 16   9  11  1   
 17  11  12  1   
 18  11  24  1   
 19  11  25  1   
 20  12  13  1   
 21  12  26  1   
 22  12  27  1   
 23  13  14  1   
 24  13  15  1   
 25  13  28  1   
 26  14  16  1   
 27  14  29  1   
 28  14  30  1   
 29  15  17  1   
 30  15  31  1   
 31  15  32  1   
 32  16  18  1   
 33  16  33  1   
 34  16  34  1   
 35  17  18  1   
 36  17  35  1   
 37  17  36  1   
 38  18  37  1   
 39  18  38  1   
@<TRIPOS>SUBSTRUCTURE
  1 ****   9 GROUP 4 **** **** 0

# MOE 2024.06 (io_trps.svl 2023.06)
