@<TRIPOS>MOLECULE
NONAME
37 39 1 0 0 
SMALL
USER_CHARGES


@<TRIPOS>ATOM
  1 S        1.6970    -5.3680     0.1700 S.3   1 <1>  -0.2320 
  2 C        0.5230    -4.1010     0.1890 C.cat 1 <1>   0.8400 
  3 C        3.0000    -4.1630     0.1230 C.2   1 <1>  -0.0490 
  4 N       -0.7790    -4.1040     0.2480 N.pl3 1 <1>  -0.7940 
  5 N        1.0830    -2.9230     0.1500 N.pl3 1 <1>  -0.6850 
  6 C        2.4920    -2.9120     0.1160 C.2   1 <1>   0.3130 
  7 C       -1.2710    -2.6980     0.2690 C.3   1 <1>   0.3290 
  8 C        0.0440    -1.8660     0.2090 C.3   1 <1>   0.3290 
  9 C        3.1990    -1.6530     0.0900 C.ar  1 <1>   0.0280 
 10 C        3.0840    -0.7850    -0.9890 C.ar  1 <1>  -0.1500 
 11 C        4.0090    -1.2630     1.1500 C.ar  1 <1>  -0.1500 
 12 C        3.7410     0.4300    -0.9990 C.ar  1 <1>  -0.1500 
 13 C        4.6660    -0.0470     1.1390 C.ar  1 <1>  -0.1500 
 14 C        4.5440     0.8290     0.0640 C.ar  1 <1>  -0.1430 
 15 C        5.2550     2.1990     0.0060 C.3   1 <1>   0.1430 
 16 C        4.2080     3.3160    -0.1210 C.3   1 <1>  -0.2400 
 17 C        6.1000     2.4970     1.2570 C.3   1 <1>  -0.2400 
 18 C        6.1950     2.2400    -1.2070 C.3   1 <1>  -0.2400 
 19 H        4.0140    -4.5230     0.1050 H     1 <1>   0.1500 
 20 H       -1.3850    -4.9290     0.2890 H     1 <1>   0.4500 
 21 H       -1.8160    -2.4940     1.1760 H     1 <1>   0.0800 
 22 H       -1.8940    -2.4960    -0.5860 H     1 <1>   0.0800 
 23 H        0.0770    -1.2460    -0.6700 H     1 <1>   0.0800 
 24 H        0.1670    -1.2600     1.0910 H     1 <1>   0.0800 
 25 H        2.4810    -1.0620    -1.8360 H     1 <1>   0.1500 
 26 H        4.1270    -1.9130     2.0000 H     1 <1>   0.1500 
 27 H        3.6250     1.0700    -1.8560 H     1 <1>   0.1500 
 28 H        5.2750     0.1970     1.9900 H     1 <1>   0.1500 
 29 H        3.5240     3.2750     0.7080 H     1 <1>   0.0800 
 30 H        3.6440     3.2190    -1.0300 H     1 <1>   0.0800 
 31 H        4.6820     4.2810    -0.1250 H     1 <1>   0.0800 
 32 H        5.4830     2.5070     2.1380 H     1 <1>   0.0800 
 33 H        6.5720     3.4590     1.1730 H     1 <1>   0.0800 
 34 H        6.8720     1.7580     1.3770 H     1 <1>   0.0800 
 35 H        5.6500     2.1320    -2.1270 H     1 <1>   0.0800 
 36 H        6.9120     1.4410    -1.1450 H     1 <1>   0.0800 
 37 H        6.7270     3.1730    -1.2440 H     1 <1>   0.0800 
@<TRIPOS>BOND
  1   1   2  1   
  2   1   3  1   
  3   2   4  ar  
  4   2   5  ar  
  5   3   6  2   
  6   3  19  1   
  7   4   7  1   
  8   4  20  1   
  9   5   6  1   
 10   5   8  1   
 11   6   9  1   
 12   7   8  1   
 13   7  21  1   
 14   7  22  1   
 15   8  23  1   
 16   8  24  1   
 17   9  10  ar  
 18   9  11  ar  
 19  10  12  ar  
 20  10  25  1   
 21  11  13  ar  
 22  11  26  1   
 23  12  14  ar  
 24  12  27  1   
 25  13  14  ar  
 26  13  28  1   
 27  14  15  1   
 28  15  16  1   
 29  15  17  1   
 30  15  18  1   
 31  16  29  1   
 32  16  30  1   
 33  16  31  1   
 34  17  32  1   
 35  17  33  1   
 36  17  34  1   
 37  18  35  1   
 38  18  36  1   
 39  18  37  1   
@<TRIPOS>SUBSTRUCTURE
  1 ****   9 GROUP 4 **** **** 0

# MOE 2024.06 (io_trps.svl 2023.06)
