@<TRIPOS>MOLECULE
NONAME
47 49 1 0 0 
SMALL
USER_CHARGES


@<TRIPOS>ATOM
  1 CL      -1.4690     0.7970    -2.6960 Cl    1 <1>  -0.1770 
  2 C       -1.9260     1.8880    -1.4110 C.ar  1 <1>   0.1770 
  3 C       -3.2620     2.1420    -1.1850 C.ar  1 <1>  -0.1500 
  4 C       -0.9410     2.4770    -0.6430 C.ar  1 <1>  -0.1500 
  5 C       -3.6410     3.0070    -0.1660 C.ar  1 <1>   0.1000 
  6 C       -1.3100     3.3410     0.3740 C.ar  1 <1>  -0.1500 
  7 N       -4.9900     3.2650     0.0680 N.pl3 1 <1>  -0.8380 
  8 C       -2.6500     3.6080     0.6160 C.ar  1 <1>  -0.1430 
  9 C       -5.7320     4.1470    -0.8850 C.3   1 <1>   0.2090 
 10 C       -5.8190     2.2120     0.7270 C.3   1 <1>   0.2090 
 11 C       -3.0340     4.5620     1.7380 C.3   1 <1>  -0.0970 
 12 C       -6.5810     3.3380    -1.8800 C.3   1 <1>   0.1400 
 13 C       -6.6810     1.4270    -0.2810 C.3   1 <1>   0.1400 
 14 N       -7.4530     2.3460    -1.1750 N.am  1 <1>  -0.6600 
 15 C       -8.7880     2.6000    -1.0000 C.2   1 <1>   0.6900 
 16 O       -9.2320     3.7150    -1.1980 O.2   1 <1>  -0.5700 
 17 N       -9.5980     1.5680    -0.6260 N.am  1 <1>  -0.5470 
 18 C      -10.9380     1.5510    -0.2090 C.ar  1 <1>   0.1170 
 19 C      -11.6790     0.3860    -0.3710 C.ar  1 <1>  -0.1500 
 20 C      -11.5530     2.6490     0.3830 C.ar  1 <1>  -0.1500 
 21 C      -12.9970     0.3130     0.0440 C.ar  1 <1>  -0.1500 
 22 C      -12.8700     2.5830     0.7990 C.ar  1 <1>  -0.1500 
 23 C      -13.6020     1.4190     0.6350 C.ar  1 <1>   0.0830 
 24 O      -14.8890     1.4380     1.0730 O.3   1 <1>  -0.3630 
 25 C      -15.7240     0.3120     0.9170 C.3   1 <1>   0.0400 
 26 H       -4.0030     1.6720    -1.7980 H     1 <1>   0.1500 
 27 H        0.0940     2.2620    -0.8390 H     1 <1>   0.1500 
 28 H       -0.5470     3.8030     0.9760 H     1 <1>   0.1500 
 29 H       -5.0320     4.7600    -1.4260 H     1 <1>   0.0800 
 30 H       -6.3780     4.8010    -0.3260 H     1 <1>   0.0800 
 31 H       -6.4630     2.6830     1.4490 H     1 <1>   0.0800 
 32 H       -5.1760     1.5310     1.2560 H     1 <1>   0.0800 
 33 H       -3.6510     4.0490     2.4530 H     1 <1>   0.0800 
 34 H       -3.5910     5.3880     1.3360 H     1 <1>   0.0800 
 35 H       -2.1650     4.9440     2.2430 H     1 <1>   0.0800 
 36 H       -5.9300     2.8160    -2.5570 H     1 <1>   0.0800 
 37 H       -7.1800     4.0130    -2.4650 H     1 <1>   0.0800 
 38 H       -7.3430     0.7810     0.2670 H     1 <1>   0.0800 
 39 H       -6.0410     0.8080    -0.8830 H     1 <1>   0.0800 
 40 H       -9.1810     0.6630    -0.8100 H     1 <1>   0.3700 
 41 H      -11.2240    -0.4730    -0.8280 H     1 <1>   0.1500 
 42 H      -11.0020     3.5620     0.5220 H     1 <1>   0.1500 
 43 H      -13.5350    -0.6040    -0.1000 H     1 <1>   0.1500 
 44 H      -13.3380     3.4370     1.2540 H     1 <1>   0.1500 
 45 H      -16.6910     0.5570     1.3180 H     1 <1>   0.0800 
 46 H      -15.3020    -0.5140     1.4600 H     1 <1>   0.0800 
 47 H      -15.8100     0.0850    -0.1310 H     1 <1>   0.0800 
@<TRIPOS>BOND
  1   1   2  1   
  2   2   3  ar  
  3   2   4  ar  
  4   3   5  ar  
  5   3  26  1   
  6   4   6  ar  
  7   4  27  1   
  8   5   7  1   
  9   5   8  ar  
 10   6   8  ar  
 11   6  28  1   
 12   7   9  1   
 13   7  10  1   
 14   8  11  1   
 15   9  12  1   
 16   9  29  1   
 17   9  30  1   
 18  10  13  1   
 19  10  31  1   
 20  10  32  1   
 21  11  33  1   
 22  11  34  1   
 23  11  35  1   
 24  12  14  1   
 25  12  36  1   
 26  12  37  1   
 27  13  14  1   
 28  13  38  1   
 29  13  39  1   
 30  14  15  am  
 31  15  16  2   
 32  15  17  am  
 33  17  18  1   
 34  17  40  1   
 35  18  19  ar  
 36  18  20  ar  
 37  19  21  ar  
 38  19  41  1   
 39  20  22  ar  
 40  20  42  1   
 41  21  23  ar  
 42  21  43  1   
 43  22  23  ar  
 44  22  44  1   
 45  23  24  1   
 46  24  25  1   
 47  25  45  1   
 48  25  46  1   
 49  25  47  1   
@<TRIPOS>SUBSTRUCTURE
  1 ****  14 GROUP 4 **** **** 0

# MOE 2024.06 (io_trps.svl 2023.06)
