@<TRIPOS>MOLECULE
NONAME
40 41 1 0 0 
SMALL
USER_CHARGES


@<TRIPOS>ATOM
  1 CL       1.7360    -2.5010     2.7520 Cl    1 <1>  -0.1770 
  2 C        2.8400    -1.9880     1.4900 C.ar  1 <1>   0.1770 
  3 C        3.2370    -0.6580     1.4370 C.ar  1 <1>  -0.1440 
  4 C        3.2950    -2.9210     0.5660 C.ar  1 <1>  -0.1440 
  5 C        4.1130    -0.2670     0.4380 C.ar  1 <1>  -0.1500 
  6 C        2.7290     0.3580     2.4500 C.3   1 <1>  -0.0960 
  7 C        4.1690    -2.5080    -0.4270 C.ar  1 <1>  -0.1500 
  8 C        2.8500    -4.3750     0.6320 C.3   1 <1>  -0.0960 
  9 C        4.5890    -1.1820    -0.4870 C.ar  1 <1>   0.0830 
 10 O        5.4680    -0.7060    -1.4060 O.3   1 <1>  -0.3630 
 11 C        6.2420    -1.5610    -2.2390 C.3   1 <1>   0.2610 
 12 C        7.1140    -2.5630    -1.4490 C.2   1 <1>   0.5690 
 13 C        7.0630    -0.6700    -3.1780 C.3   1 <1>  -0.2400 
 14 O        7.0630    -3.7140    -1.8260 O.2   1 <1>  -0.5700 
 15 N        7.9090    -2.2140    -0.3770 N.am  1 <1>  -0.6600 
 16 C        8.0430    -0.8530     0.2250 C.3   1 <1>   0.1400 
 17 C        8.5810    -3.2530     0.4600 C.3   1 <1>   0.1400 
 18 C        7.5720    -0.8780     1.6890 C.3   1 <1>   0.1200 
 19 C        8.0960    -3.1540     1.9170 C.3   1 <1>   0.1200 
 20 O        8.2710    -1.8540     2.4100 O.3   1 <1>  -0.5600 
 21 H        4.4390     0.7550     0.3660 H     1 <1>   0.1500 
 22 H        3.0170     0.0630     3.4430 H     1 <1>   0.0800 
 23 H        1.6560     0.4170     2.4030 H     1 <1>   0.0800 
 24 H        3.1320     1.3350     2.2540 H     1 <1>   0.0800 
 25 H        4.5120    -3.2310    -1.1440 H     1 <1>   0.1500 
 26 H        3.1210    -4.7990     1.5830 H     1 <1>   0.0800 
 27 H        3.3130    -4.9580    -0.1430 H     1 <1>   0.0800 
 28 H        1.7830    -4.4380     0.5160 H     1 <1>   0.0800 
 29 H        5.5470    -2.1220    -2.8370 H     1 <1>   0.0800 
 30 H        7.7650    -0.0750    -2.6240 H     1 <1>   0.0800 
 31 H        6.4100    -0.0260    -3.7390 H     1 <1>   0.0800 
 32 H        7.6110    -1.2860    -3.8680 H     1 <1>   0.0800 
 33 H        7.4830    -0.1170    -0.3170 H     1 <1>   0.0800 
 34 H        9.0770    -0.5570     0.1970 H     1 <1>   0.0800 
 35 H        9.6460    -3.1030     0.4270 H     1 <1>   0.0800 
 36 H        8.3760    -4.2410     0.0870 H     1 <1>   0.0800 
 37 H        6.5190    -1.0920     1.7480 H     1 <1>   0.0800 
 38 H        7.7590     0.0720     2.1570 H     1 <1>   0.0800 
 39 H        8.6600    -3.8220     2.5430 H     1 <1>   0.0800 
 40 H        7.0530    -3.4120     1.9840 H     1 <1>   0.0800 
@<TRIPOS>BOND
  1   1   2  1   
  2   2   3  ar  
  3   2   4  ar  
  4   3   5  ar  
  5   3   6  1   
  6   4   7  ar  
  7   4   8  1   
  8   5   9  ar  
  9   5  21  1   
 10   6  22  1   
 11   6  23  1   
 12   6  24  1   
 13   7   9  ar  
 14   7  25  1   
 15   8  26  1   
 16   8  27  1   
 17   8  28  1   
 18   9  10  1   
 19  10  11  1   
 20  11  12  1   
 21  11  13  1   
 22  11  29  1   
 23  12  14  2   
 24  12  15  am  
 25  13  30  1   
 26  13  31  1   
 27  13  32  1   
 28  15  16  1   
 29  15  17  1   
 30  16  18  1   
 31  16  33  1   
 32  16  34  1   
 33  17  19  1   
 34  17  35  1   
 35  17  36  1   
 36  18  20  1   
 37  18  37  1   
 38  18  38  1   
 39  19  20  1   
 40  19  39  1   
 41  19  40  1   
@<TRIPOS>SUBSTRUCTURE
  1 ****   9 GROUP 4 **** **** 0

# MOE 2024.06 (io_trps.svl 2023.06)
