@<TRIPOS>MOLECULE
NONAME
53 54 1 0 0 
SMALL
USER_CHARGES


@<TRIPOS>ATOM
  1 S        0.5260     1.0300    -1.5170 S.o2  1 <1>   1.3330 
  2 O        1.7470     1.3280    -2.2290 O.2   1 <1>  -0.6500 
  3 O        0.2740    -0.3080    -1.0450 O.2   1 <1>  -0.6500 
  4 N        0.5040     2.0800    -0.1490 N.am  1 <1>  -0.6930 
  5 C       -0.8570     1.6050    -2.4790 C.3   1 <1>  -0.1350 
  6 C       -0.5490     2.0440     0.7670 C.ar  1 <1>   0.1990 
  7 C        1.4360     3.2500    -0.1260 C.3   1 <1>   0.2570 
  8 C       -1.6240     2.9430     0.6970 C.ar  1 <1>   0.0830 
  9 C       -0.5310     1.0920     1.7750 C.ar  1 <1>  -0.1500 
 10 C        2.8180     2.9160     0.4400 C.2   1 <1>   0.5690 
 11 O       -1.6190     3.8600    -0.3190 O.3   1 <1>  -0.3630 
 12 C       -2.6450     2.8710     1.6390 C.ar  1 <1>  -0.1500 
 13 C       -1.5500     1.0240     2.7080 C.ar  1 <1>  -0.1500 
 14 O        3.1520     3.4370     1.4780 O.2   1 <1>  -0.5700 
 15 N        3.6160     2.0490    -0.2540 N.am  1 <1>  -0.5470 
 16 C       -2.5770     4.8910    -0.3780 C.3   1 <1>   0.1200 
 17 C       -2.6060     1.9140     2.6400 C.ar  1 <1>  -0.1500 
 18 C        4.8040     1.4240     0.1510 C.ar  1 <1>   0.1170 
 19 C       -2.2380     5.7760    -1.5730 C.3   1 <1>  -0.2400 
 20 C        5.9800     2.1440     0.3820 C.ar  1 <1>  -0.1430 
 21 C        4.8140     0.0350     0.2980 C.ar  1 <1>  -0.1430 
 22 C        7.1290     1.4760     0.7710 C.ar  1 <1>  -0.1500 
 23 C        6.0460     3.6570     0.2140 C.3   1 <1>  -0.0970 
 24 C        5.9760    -0.6120     0.6820 C.ar  1 <1>  -0.1500 
 25 C        3.5570    -0.7930     0.0490 C.3   1 <1>  -0.0970 
 26 C        7.1360     0.1010     0.9240 C.ar  1 <1>  -0.1430 
 27 C        8.4040    -0.6170     1.3480 C.3   1 <1>  -0.0970 
 28 H       -0.9310     1.0440    -3.3900 H     1 <1>   0.0800 
 29 H       -0.7370     2.6430    -2.7190 H     1 <1>   0.0800 
 30 H       -1.7670     1.4830    -1.9250 H     1 <1>   0.0800 
 31 H        1.0100     4.0270     0.4830 H     1 <1>   0.0800 
 32 H        1.5500     3.6430    -1.1190 H     1 <1>   0.0800 
 33 H        0.2920     0.4000     1.8230 H     1 <1>   0.1500 
 34 H       -3.4830     3.5420     1.6160 H     1 <1>   0.1500 
 35 H       -1.5180     0.2790     3.4840 H     1 <1>   0.1500 
 36 H        3.1770     1.6240    -1.0810 H     1 <1>   0.3700 
 37 H       -2.5310     5.4550     0.5390 H     1 <1>   0.0800 
 38 H       -3.5510     4.4490    -0.4980 H     1 <1>   0.0800 
 39 H       -3.3980     1.8610     3.3680 H     1 <1>   0.1500 
 40 H       -1.2570     6.2010    -1.4530 H     1 <1>   0.0800 
 41 H       -2.9510     6.5780    -1.6450 H     1 <1>   0.0800 
 42 H       -2.2740     5.2040    -2.4820 H     1 <1>   0.0800 
 43 H        8.0310     2.0310     0.9550 H     1 <1>   0.1500 
 44 H        5.6500     4.1350     1.0920 H     1 <1>   0.0800 
 45 H        5.4740     3.9670    -0.6410 H     1 <1>   0.0800 
 46 H        7.0600     3.9820     0.0740 H     1 <1>   0.0800 
 47 H        5.9820    -1.6810     0.7950 H     1 <1>   0.1500 
 48 H        3.7100    -1.8220     0.3180 H     1 <1>   0.0800 
 49 H        2.7390    -0.4130     0.6350 H     1 <1>   0.0800 
 50 H        3.2890    -0.7520    -0.9920 H     1 <1>   0.0800 
 51 H        9.0080     0.0220     1.9670 H     1 <1>   0.0800 
 52 H        8.9710    -0.8960     0.4780 H     1 <1>   0.0800 
 53 H        8.1640    -1.5030     1.9070 H     1 <1>   0.0800 
@<TRIPOS>BOND
  1   1   2  2   
  2   1   3  2   
  3   1   4  am  
  4   1   5  1   
  5   4   6  1   
  6   4   7  1   
  7   5  28  1   
  8   5  29  1   
  9   5  30  1   
 10   6   8  ar  
 11   6   9  ar  
 12   7  10  1   
 13   7  31  1   
 14   7  32  1   
 15   8  11  1   
 16   8  12  ar  
 17   9  13  ar  
 18   9  33  1   
 19  10  14  2   
 20  10  15  am  
 21  11  16  1   
 22  12  17  ar  
 23  12  34  1   
 24  13  17  ar  
 25  13  35  1   
 26  15  18  1   
 27  15  36  1   
 28  16  19  1   
 29  16  37  1   
 30  16  38  1   
 31  17  39  1   
 32  18  20  ar  
 33  18  21  ar  
 34  19  40  1   
 35  19  41  1   
 36  19  42  1   
 37  20  22  ar  
 38  20  23  1   
 39  21  24  ar  
 40  21  25  1   
 41  22  26  ar  
 42  22  43  1   
 43  23  44  1   
 44  23  45  1   
 45  23  46  1   
 46  24  26  ar  
 47  24  47  1   
 48  25  48  1   
 49  25  49  1   
 50  25  50  1   
 51  26  27  1   
 52  27  51  1   
 53  27  52  1   
 54  27  53  1   
@<TRIPOS>SUBSTRUCTURE
  1 ****  10 GROUP 4 **** **** 0

# MOE 2024.06 (io_trps.svl 2023.06)
