@<TRIPOS>MOLECULE
NONAME
44 45 1 0 0 
SMALL
USER_CHARGES


@<TRIPOS>ATOM
  1 O        0.8050     0.1780     0.4810 O.3   1 <1>  -0.3630 
  2 C        1.7250    -0.5850    -0.1570 C.ar  1 <1>   0.0830 
  3 C       -0.3960     0.4340    -0.2160 C.3   1 <1>   0.0400 
  4 C        1.5030    -1.9200    -0.5150 C.ar  1 <1>   0.0830 
  5 C        2.9370     0.0120    -0.4580 C.ar  1 <1>  -0.1500 
  6 O        0.3640    -2.5880    -0.2110 O.3   1 <1>  -0.3630 
  7 C        2.4800    -2.6110    -1.2090 C.ar  1 <1>  -0.1500 
  8 C        3.9250    -0.6910    -1.1330 C.ar  1 <1>  -0.1430 
  9 C        0.1140    -2.8210     1.1580 C.3   1 <1>   0.0400 
 10 C        3.6860    -2.0020    -1.5170 C.ar  1 <1>  -0.1500 
 11 C        5.2530    -0.0260    -1.4340 C.3   1 <1>  -0.0170 
 12 C        6.1240    -0.1060    -0.1780 C.3   1 <1>   0.3430 
 13 N        7.4910     0.4610    -0.3960 N.4   1 <1>  -0.9590 
 14 C        8.3920     0.0850     0.7320 C.3   1 <1>   0.4860 
 15 C        7.4740     1.9470    -0.6040 C.3   1 <1>   0.2630 
 16 C        9.8180     0.4480     0.3630 C.ar  1 <1>  -0.1430 
 17 C       10.4600     1.5380     0.9210 C.ar  1 <1>  -0.1500 
 18 C       10.5490    -0.2920    -0.5490 C.ar  1 <1>  -0.1500 
 19 C       11.7570     1.8370     0.5390 C.ar  1 <1>   0.1600 
 20 C       11.8420     0.0940    -0.8620 C.ar  1 <1>   0.1600 
 21 N       12.4530     1.1440    -0.3440 N.ar  1 <1>  -0.6200 
 22 H       -0.9630     1.1550     0.3440 H     1 <1>   0.0800 
 23 H       -0.9580    -0.4780    -0.3100 H     1 <1>   0.0800 
 24 H       -0.1580     0.8270    -1.1890 H     1 <1>   0.0800 
 25 H        3.0830     1.0340    -0.1600 H     1 <1>   0.1500 
 26 H        2.2910    -3.6280    -1.5020 H     1 <1>   0.1500 
 27 H       -0.7670    -3.4310     1.2390 H     1 <1>   0.0800 
 28 H       -0.0430    -1.8820     1.6580 H     1 <1>   0.0800 
 29 H        0.9590    -3.3340     1.5820 H     1 <1>   0.0800 
 30 H        4.4270    -2.5660    -2.0570 H     1 <1>   0.1500 
 31 H        5.0730     0.9960    -1.7140 H     1 <1>   0.0800 
 32 H        5.7320    -0.5310    -2.2540 H     1 <1>   0.0800 
 33 H        6.2030    -1.1430     0.1060 H     1 <1>   0.0800 
 34 H        5.6310     0.4170     0.6270 H     1 <1>   0.0800 
 35 H        7.8980     0.0320    -1.2380 H     1 <1>   0.4500 
 36 H        8.3350    -0.9760     0.9150 H     1 <1>   0.0800 
 37 H        8.1010     0.6020     1.6320 H     1 <1>   0.0800 
 38 H        7.0690     2.4440     0.2630 H     1 <1>   0.0800 
 39 H        6.8710     2.2020    -1.4600 H     1 <1>   0.0800 
 40 H        8.4740     2.3140    -0.7760 H     1 <1>   0.0800 
 41 H        9.9780     2.1630     1.6520 H     1 <1>   0.1500 
 42 H       10.1430    -1.1680    -1.0230 H     1 <1>   0.1500 
 43 H       12.2490     2.6890     0.9800 H     1 <1>   0.1500 
 44 H       12.4040    -0.4880    -1.5740 H     1 <1>   0.1500 
@<TRIPOS>BOND
  1   1   2  1   
  2   1   3  1   
  3   2   4  ar  
  4   2   5  ar  
  5   3  22  1   
  6   3  23  1   
  7   3  24  1   
  8   4   6  1   
  9   4   7  ar  
 10   5   8  ar  
 11   5  25  1   
 12   6   9  1   
 13   7  10  ar  
 14   7  26  1   
 15   8  10  ar  
 16   8  11  1   
 17   9  27  1   
 18   9  28  1   
 19   9  29  1   
 20  10  30  1   
 21  11  12  1   
 22  11  31  1   
 23  11  32  1   
 24  12  13  1   
 25  12  33  1   
 26  12  34  1   
 27  13  14  1   
 28  13  15  1   
 29  13  35  1   
 30  14  16  1   
 31  14  36  1   
 32  14  37  1   
 33  15  38  1   
 34  15  39  1   
 35  15  40  1   
 36  16  17  ar  
 37  16  18  ar  
 38  17  19  ar  
 39  17  41  1   
 40  18  20  ar  
 41  18  42  1   
 42  19  21  ar  
 43  19  43  1   
 44  20  21  ar  
 45  20  44  1   
@<TRIPOS>SUBSTRUCTURE
  1 ****  12 GROUP 4 **** **** 0

# MOE 2024.06 (io_trps.svl 2023.06)
