@<TRIPOS>MOLECULE
NONAME
50 53 1 0 0 
SMALL
USER_CHARGES


@<TRIPOS>ATOM
  1 O       -4.2650     0.3640    -2.7930 O.3   1 <1>  -0.3630 
  2 C       -4.1300     0.5380    -1.4740 C.ar  1 <1>   0.0820 
  3 C       -3.0400     0.7910    -3.3870 C.3   1 <1>   0.4000 
  4 C       -2.9060     1.0680    -1.1920 C.ar  1 <1>   0.0820 
  5 C       -5.0400     0.2550    -0.4750 C.ar  1 <1>  -0.1500 
  6 O       -2.2110     1.2490    -2.3200 O.3   1 <1>  -0.3630 
  7 C       -2.5220     1.3450     0.1040 C.ar  1 <1>  -0.1500 
  8 C       -4.6820     0.5280     0.8410 C.ar  1 <1>  -0.1440 
  9 C       -3.4260     1.0690     1.1230 C.ar  1 <1>  -0.1500 
 10 C       -5.6660     0.2400     1.9650 C.3   1 <1>   0.2540 
 11 N       -6.9130     1.0070     1.7700 N.3   1 <1>  -0.8100 
 12 C       -7.9450     0.6440     2.7670 C.3   1 <1>   0.1100 
 13 C       -6.6820     2.4740     1.7640 C.3   1 <1>   0.1100 
 14 C       -9.2670     1.4260     2.5570 C.3   1 <1>   0.3430 
 15 C       -7.9870     3.2730     1.5250 C.3   1 <1>   0.3430 
 16 N       -9.1700     2.3620     1.3880 N.4   1 <1>  -0.9590 
 17 C      -10.4190     3.0690     1.0410 C.3   1 <1>   0.4810 
 18 C      -11.4280     2.0380     0.5960 C.2   1 <1>  -0.2880 
 19 C      -11.7760     1.8080    -0.6830 C.2   1 <1>  -0.1780 
 20 C      -12.7320     0.8440    -1.1810 C.ar  1 <1>   0.0280 
 21 C      -12.7400     0.5070    -2.5330 C.ar  1 <1>  -0.1500 
 22 C      -13.6700     0.2240    -0.3570 C.ar  1 <1>  -0.1500 
 23 C      -13.6380    -0.4130    -3.0410 C.ar  1 <1>  -0.1500 
 24 C      -14.5700    -0.6980    -0.8590 C.ar  1 <1>  -0.1500 
 25 C      -14.5560    -1.0200    -2.2040 C.ar  1 <1>  -0.1500 
 26 H       -2.5680    -0.0430    -3.8770 H     1 <1>   0.0800 
 27 H       -3.2300     1.5990    -4.0700 H     1 <1>   0.0800 
 28 H       -5.9990    -0.1630    -0.7230 H     1 <1>   0.1500 
 29 H       -1.5510     1.7600     0.3040 H     1 <1>   0.1500 
 30 H       -3.1410     1.2780     2.1400 H     1 <1>   0.1500 
 31 H       -5.2260     0.4860     2.9170 H     1 <1>   0.0800 
 32 H       -5.8880    -0.8140     1.9610 H     1 <1>   0.0800 
 33 H       -8.1540    -0.4110     2.6940 H     1 <1>   0.0800 
 34 H       -7.5780     0.8320     3.7620 H     1 <1>   0.0800 
 35 H       -6.2420     2.7800     2.6970 H     1 <1>   0.0800 
 36 H       -5.9860     2.7300     0.9820 H     1 <1>   0.0800 
 37 H       -9.4990     1.9770     3.4540 H     1 <1>   0.0800 
 38 H      -10.0610     0.7160     2.3940 H     1 <1>   0.0800 
 39 H       -7.8700     3.8590     0.6290 H     1 <1>   0.0800 
 40 H       -8.1370     3.9540     2.3460 H     1 <1>   0.0800 
 41 H       -8.9230     1.7410     0.6010 H     1 <1>   0.4500 
 42 H      -10.7940     3.6280     1.8840 H     1 <1>   0.0800 
 43 H      -10.2330     3.7530     0.2290 H     1 <1>   0.0800 
 44 H      -11.8580     1.4930     1.4160 H     1 <1>   0.1500 
 45 H      -11.3140     2.3800    -1.4710 H     1 <1>   0.1500 
 46 H      -12.0340     0.9660    -3.2010 H     1 <1>   0.1500 
 47 H      -13.7110     0.4620     0.6880 H     1 <1>   0.1500 
 48 H      -13.6250    -0.6590    -4.0890 H     1 <1>   0.1500 
 49 H      -15.2860    -1.1660    -0.2060 H     1 <1>   0.1500 
 50 H      -15.2560    -1.7370    -2.5970 H     1 <1>   0.1500 
@<TRIPOS>BOND
  1   1   2  1   
  2   1   3  1   
  3   2   4  ar  
  4   2   5  ar  
  5   3   6  1   
  6   3  26  1   
  7   3  27  1   
  8   4   6  1   
  9   4   7  ar  
 10   5   8  ar  
 11   5  28  1   
 12   7   9  ar  
 13   7  29  1   
 14   8   9  ar  
 15   8  10  1   
 16   9  30  1   
 17  10  11  1   
 18  10  31  1   
 19  10  32  1   
 20  11  12  1   
 21  11  13  1   
 22  12  14  1   
 23  12  33  1   
 24  12  34  1   
 25  13  15  1   
 26  13  35  1   
 27  13  36  1   
 28  14  16  1   
 29  14  37  1   
 30  14  38  1   
 31  15  16  1   
 32  15  39  1   
 33  15  40  1   
 34  16  17  1   
 35  16  41  1   
 36  17  18  1   
 37  17  42  1   
 38  17  43  1   
 39  18  19  2   
 40  18  44  1   
 41  19  20  1   
 42  19  45  1   
 43  20  21  ar  
 44  20  22  ar  
 45  21  23  ar  
 46  21  46  1   
 47  22  24  ar  
 48  22  47  1   
 49  23  25  ar  
 50  23  48  1   
 51  24  25  ar  
 52  24  49  1   
 53  25  50  1   
@<TRIPOS>SUBSTRUCTURE
  1 ****  11 GROUP 4 **** **** 0

# MOE 2024.06 (io_trps.svl 2023.06)
