@<TRIPOS>MOLECULE
NONAME
30 30 1 0 0 
SMALL
USER_CHARGES


@<TRIPOS>ATOM
  1 BR      -0.5930    -0.1940     2.1580 Br    1 <1>  -0.1110 
  2 C       -1.5970     0.8110     0.8500 C.ar  1 <1>   0.1110 
  3 C       -1.0620     1.9710     0.3020 C.ar  1 <1>   0.0820 
  4 C       -2.8460     0.3420     0.4900 C.ar  1 <1>  -0.1500 
  5 O        0.1580     2.4290     0.6560 O.3   1 <1>  -0.3630 
  6 C       -1.8130     2.6810    -0.6200 C.ar  1 <1>  -0.1500 
  7 C       -3.5830     1.0570    -0.4410 C.ar  1 <1>  -0.1500 
  8 C        1.2490     1.8790    -0.0410 C.3   1 <1>   0.1200 
  9 C       -3.0680     2.2220    -0.9920 C.ar  1 <1>  -0.1500 
 10 C        2.5340     2.4520     0.5570 C.3   1 <1>  -0.1600 
 11 C        3.7760     1.8880    -0.1470 C.3   1 <1>  -0.1600 
 12 C        5.0610     2.4650     0.4620 C.3   1 <1>  -0.1600 
 13 C        6.3030     1.9030    -0.2340 C.3   1 <1>   0.0700 
 14 S        7.7920     2.6500     0.5570 S.3   1 <1>  -0.2660 
 15 C        9.1470     1.8940    -0.3620 C.1   1 <1>   0.5930 
 16 N        9.9790     1.4010    -0.9600 N.1   1 <1>  -0.5570 
 17 H       -3.2320    -0.5600     0.9290 H     1 <1>   0.1500 
 18 H       -1.4160     3.5870    -1.0410 H     1 <1>   0.1500 
 19 H       -4.5590     0.7090    -0.7360 H     1 <1>   0.1500 
 20 H        1.1540     2.1440    -1.0800 H     1 <1>   0.0800 
 21 H        1.2210     0.8090     0.0660 H     1 <1>   0.0800 
 22 H       -3.6480     2.7760    -1.7100 H     1 <1>   0.1500 
 23 H        2.5700     2.2030     1.6030 H     1 <1>   0.0800 
 24 H        2.5180     3.5230     0.4580 H     1 <1>   0.0800 
 25 H        3.7340     2.1310    -1.1950 H     1 <1>   0.0800 
 26 H        3.7840     0.8150    -0.0500 H     1 <1>   0.0800 
 27 H        5.1030     2.2230     1.5100 H     1 <1>   0.0800 
 28 H        5.0560     3.5370     0.3630 H     1 <1>   0.0800 
 29 H        6.3280     2.1640    -1.2770 H     1 <1>   0.0800 
 30 H        6.3770     0.8360    -0.1140 H     1 <1>   0.0800 
@<TRIPOS>BOND
  1   1   2  1   
  2   2   3  ar  
  3   2   4  ar  
  4   3   5  1   
  5   3   6  ar  
  6   4   7  ar  
  7   4  17  1   
  8   5   8  1   
  9   6   9  ar  
 10   6  18  1   
 11   7   9  ar  
 12   7  19  1   
 13   8  10  1   
 14   8  20  1   
 15   8  21  1   
 16   9  22  1   
 17  10  11  1   
 18  10  23  1   
 19  10  24  1   
 20  11  12  1   
 21  11  25  1   
 22  11  26  1   
 23  12  13  1   
 24  12  27  1   
 25  12  28  1   
 26  13  14  1   
 27  13  29  1   
 28  13  30  1   
 29  14  15  1   
 30  15  16  3   
@<TRIPOS>SUBSTRUCTURE
  1 ****   8 GROUP 4 **** **** 0

# MOE 2024.06 (io_trps.svl 2023.06)
