@<TRIPOS>MOLECULE
NONAME
48 49 1 0 0 
SMALL
USER_CHARGES


@<TRIPOS>ATOM
  1 O        0.8420     0.4650     0.1830 O.3   1 <1>  -0.3630 
  2 C       -0.4040     0.9910     0.0480 C.ar  1 <1>   0.0830 
  3 C        1.9850     1.2140    -0.1540 C.3   1 <1>   0.1200 
  4 C       -0.6570     2.2770    -0.4210 C.ar  1 <1>  -0.1500 
  5 C       -1.4650     0.1750     0.4050 C.ar  1 <1>  -0.1500 
  6 C        3.2120     0.3410     0.1130 C.3   1 <1>  -0.1600 
  7 C       -1.9620     2.7280    -0.5260 C.ar  1 <1>  -0.1500 
  8 C       -2.7700     0.6260     0.3010 C.ar  1 <1>  -0.1500 
  9 C        4.5140     1.0770    -0.2290 C.3   1 <1>  -0.1600 
 10 C       -3.0230     1.9120    -0.1690 C.ar  1 <1>   0.0830 
 11 C        5.7340     0.1870     0.0460 C.3   1 <1>  -0.1600 
 12 O       -4.2690     2.4370    -0.3040 O.3   1 <1>  -0.3630 
 13 C        7.0340     0.9210    -0.2920 C.3   1 <1>   0.3430 
 14 C       -5.4140     1.6860     0.0330 C.3   1 <1>   0.0400 
 15 N        8.2130     0.0970     0.0870 N.4   1 <1>  -0.9590 
 16 C        9.4430     0.9400     0.1340 C.3   1 <1>   0.3430 
 17 C        8.3980    -1.0820    -0.8140 C.3   1 <1>   0.3430 
 18 C       10.6160     0.1170     0.6700 C.3   1 <1>  -0.1600 
 19 C        9.5500    -1.9500    -0.3010 C.3   1 <1>  -0.1600 
 20 C       10.8500    -1.1480    -0.1650 C.3   1 <1>  -0.1600 
 21 H        2.0020     2.0980     0.4590 H     1 <1>   0.0800 
 22 H        1.9210     1.4790    -1.1950 H     1 <1>   0.0800 
 23 H        0.1370     2.9380    -0.7080 H     1 <1>   0.1500 
 24 H       -1.2610    -0.8170     0.7670 H     1 <1>   0.1500 
 25 H        3.1330    -0.5530    -0.4820 H     1 <1>   0.0800 
 26 H        3.2150     0.0620     1.1530 H     1 <1>   0.0800 
 27 H       -2.1670     3.7190    -0.8870 H     1 <1>   0.1500 
 28 H       -3.5660    -0.0330     0.5860 H     1 <1>   0.1500 
 29 H        4.5770     1.9760     0.3630 H     1 <1>   0.0800 
 30 H        4.4960     1.3610    -1.2690 H     1 <1>   0.0800 
 31 H        5.6460    -0.7060    -0.5470 H     1 <1>   0.0800 
 32 H        5.7350    -0.0860     1.0870 H     1 <1>   0.0800 
 33 H        7.0540     1.8500     0.2550 H     1 <1>   0.0800 
 34 H        7.0640     1.1510    -1.3450 H     1 <1>   0.0800 
 35 H       -6.2800     2.2960    -0.1530 H     1 <1>   0.0800 
 36 H       -5.3670     1.4270     1.0760 H     1 <1>   0.0800 
 37 H       -5.4480     0.8060    -0.5840 H     1 <1>   0.0800 
 38 H        8.0610    -0.2660     1.0370 H     1 <1>   0.4500 
 39 H        9.2840     1.7930     0.7750 H     1 <1>   0.0800 
 40 H        9.6790     1.2980    -0.8550 H     1 <1>   0.0800 
 41 H        8.6200    -0.7460    -1.8140 H     1 <1>   0.0800 
 42 H        7.4980    -1.6740    -0.8470 H     1 <1>   0.0800 
 43 H       10.4280    -0.1490     1.6960 H     1 <1>   0.0800 
 44 H       11.5060     0.7220     0.6550 H     1 <1>   0.0800 
 45 H        9.7060    -2.7670    -0.9840 H     1 <1>   0.0800 
 46 H        9.2790    -2.3760     0.6500 H     1 <1>   0.0800 
 47 H       11.6100    -1.7570     0.2960 H     1 <1>   0.0800 
 48 H       11.2050    -0.8710    -1.1450 H     1 <1>   0.0800 
@<TRIPOS>BOND
  1   1   2  1   
  2   1   3  1   
  3   2   4  ar  
  4   2   5  ar  
  5   3   6  1   
  6   3  21  1   
  7   3  22  1   
  8   4   7  ar  
  9   4  23  1   
 10   5   8  ar  
 11   5  24  1   
 12   6   9  1   
 13   6  25  1   
 14   6  26  1   
 15   7  10  ar  
 16   7  27  1   
 17   8  10  ar  
 18   8  28  1   
 19   9  11  1   
 20   9  29  1   
 21   9  30  1   
 22  10  12  1   
 23  11  13  1   
 24  11  31  1   
 25  11  32  1   
 26  12  14  1   
 27  13  15  1   
 28  13  33  1   
 29  13  34  1   
 30  14  35  1   
 31  14  36  1   
 32  14  37  1   
 33  15  16  1   
 34  15  17  1   
 35  15  38  1   
 36  16  18  1   
 37  16  39  1   
 38  16  40  1   
 39  17  19  1   
 40  17  41  1   
 41  17  42  1   
 42  18  20  1   
 43  18  43  1   
 44  18  44  1   
 45  19  20  1   
 46  19  45  1   
 47  19  46  1   
 48  20  47  1   
 49  20  48  1   
@<TRIPOS>SUBSTRUCTURE
  1 ****   6 GROUP 4 **** **** 0

# MOE 2024.06 (io_trps.svl 2023.06)
