@<TRIPOS>MOLECULE
NONAME
41 42 1 0 0 
SMALL
USER_CHARGES


@<TRIPOS>ATOM
  1 O       -1.6560     1.6720     0.9870 O.2   1 <1>  -0.5700 
  2 C       -2.5790     0.9050     1.0920 C.2   1 <1>   0.5690 
  3 N       -2.9380     0.4410     2.3050 N.am  1 <1>  -0.8000 
  4 C       -3.3550     0.4860    -0.1640 C.3   1 <1>   0.1710 
  5 N       -4.5860     1.2910    -0.4340 N.3   1 <1>  -0.8100 
  6 C       -4.2520     2.7350    -0.5670 C.3   1 <1>   0.1100 
  7 C       -5.2870     0.8090    -1.6450 C.3   1 <1>   0.1100 
  8 C       -5.4640     3.6010    -0.9880 C.3   1 <1>   0.3430 
  9 C       -6.5800     1.6120    -1.9400 C.3   1 <1>   0.3430 
 10 N       -6.7240     2.7920    -1.0220 N.4   1 <1>  -0.9590 
 11 C       -7.9380     3.6050    -1.2430 C.3   1 <1>   0.4810 
 12 C       -9.1350     2.7540    -0.8940 C.2   1 <1>  -0.2880 
 13 C       -9.8620     2.8790     0.2290 C.2   1 <1>  -0.1780 
 14 C      -11.0190     2.1060     0.6270 C.ar  1 <1>   0.0280 
 15 C      -11.7320     1.3090    -0.2670 C.ar  1 <1>  -0.1500 
 16 C      -11.4610     2.1450     1.9480 C.ar  1 <1>  -0.1500 
 17 C      -12.8310     0.5760     0.1410 C.ar  1 <1>  -0.1500 
 18 C      -12.5600     1.4160     2.3620 C.ar  1 <1>  -0.1500 
 19 C      -13.2480     0.6270     1.4590 C.ar  1 <1>  -0.1500 
 20 H       -2.4070     0.7300     3.1290 H     1 <1>   0.3700 
 21 H       -3.7430    -0.1620     2.4710 H     1 <1>   0.3700 
 22 H       -3.6270    -0.5490    -0.0540 H     1 <1>   0.0800 
 23 H       -2.6850     0.5590    -1.0030 H     1 <1>   0.0800 
 24 H       -3.8850     3.1050     0.3760 H     1 <1>   0.0800 
 25 H       -3.4600     2.8670    -1.2860 H     1 <1>   0.0800 
 26 H       -4.6310     0.8780    -2.4970 H     1 <1>   0.0800 
 27 H       -5.5470    -0.2290    -1.5220 H     1 <1>   0.0800 
 28 H       -5.2720     4.0230    -1.9610 H     1 <1>   0.0800 
 29 H       -5.5640     4.4170    -0.2910 H     1 <1>   0.0800 
 30 H       -7.4250     0.9550    -1.8180 H     1 <1>   0.0800 
 31 H       -6.5650     1.9380    -2.9660 H     1 <1>   0.0800 
 32 H       -6.7880     2.3700    -0.0830 H     1 <1>   0.4500 
 33 H       -7.9180     4.4670    -0.5950 H     1 <1>   0.0800 
 34 H       -7.9960     3.9440    -2.2650 H     1 <1>   0.0800 
 35 H       -9.3610     2.0230    -1.6490 H     1 <1>   0.1500 
 36 H       -9.5940     3.6270     0.9570 H     1 <1>   0.1500 
 37 H      -11.4380     1.2580    -1.2980 H     1 <1>   0.1500 
 38 H      -10.9410     2.7520     2.6670 H     1 <1>   0.1500 
 39 H      -13.3670    -0.0340    -0.5650 H     1 <1>   0.1500 
 40 H      -12.8830     1.4600     3.3880 H     1 <1>   0.1500 
 41 H      -14.1040     0.0580     1.7780 H     1 <1>   0.1500 
@<TRIPOS>BOND
  1   1   2  2   
  2   2   3  am  
  3   2   4  1   
  4   3  20  1   
  5   3  21  1   
  6   4   5  1   
  7   4  22  1   
  8   4  23  1   
  9   5   6  1   
 10   5   7  1   
 11   6   8  1   
 12   6  24  1   
 13   6  25  1   
 14   7   9  1   
 15   7  26  1   
 16   7  27  1   
 17   8  10  1   
 18   8  28  1   
 19   8  29  1   
 20   9  10  1   
 21   9  30  1   
 22   9  31  1   
 23  10  11  1   
 24  10  32  1   
 25  11  12  1   
 26  11  33  1   
 27  11  34  1   
 28  12  13  2   
 29  12  35  1   
 30  13  14  1   
 31  13  36  1   
 32  14  15  ar  
 33  14  16  ar  
 34  15  17  ar  
 35  15  37  1   
 36  16  18  ar  
 37  16  38  1   
 38  17  19  ar  
 39  17  39  1   
 40  18  19  ar  
 41  18  40  1   
 42  19  41  1   
@<TRIPOS>SUBSTRUCTURE
  1 ****  10 GROUP 4 **** **** 0

# MOE 2024.06 (io_trps.svl 2023.06)
