@<TRIPOS>MOLECULE
NONAME
50 52 1 0 0 
SMALL
USER_CHARGES


@<TRIPOS>ATOM
  1 S       -1.3640     0.8240     1.8710 S.o2  1 <1>   1.4470 
  2 O       -1.3380    -0.6170     1.9540 O.2   1 <1>  -0.6500 
  3 O       -2.0050     1.6200     2.8910 O.2   1 <1>  -0.6500 
  4 N       -2.1950     1.2300     0.4260 N.am  1 <1>  -0.7570 
  5 C        0.2890     1.4830     1.5300 C.ar  1 <1>  -0.0090 
  6 C       -1.7970     0.7300    -0.8070 C.ar  1 <1>   0.1990 
  7 C        0.6970     2.7110     2.0410 C.ar  1 <1>  -0.1500 
  8 C        1.1730     0.8060     0.6960 C.ar  1 <1>  -0.1500 
  9 C       -1.0840     1.5350    -1.7020 C.ar  1 <1>   0.0830 
 10 C       -2.0820    -0.5830    -1.1540 C.ar  1 <1>  -0.1500 
 11 C        1.9240     3.2570     1.7090 C.ar  1 <1>  -0.1500 
 12 C        2.3970     1.3510     0.3560 C.ar  1 <1>  -0.1500 
 13 O       -0.7920     2.8120    -1.3150 O.3   1 <1>  -0.3620 
 14 C       -0.6790     1.0180    -2.9270 C.ar  1 <1>  -0.1500 
 15 C       -1.6740    -1.0940    -2.3740 C.ar  1 <1>  -0.1500 
 16 C        2.7810     2.5920     0.8450 C.ar  1 <1>   0.1170 
 17 C        0.3840     3.4300    -1.8030 C.3   1 <1>   0.0400 
 18 C       -0.9740    -0.2940    -3.2600 C.ar  1 <1>  -0.1500 
 19 N        3.9950     3.1750     0.4760 N.am  1 <1>  -0.5470 
 20 C        4.5340     3.2790    -0.7740 C.2   1 <1>   0.6900 
 21 O        3.8810     2.9410    -1.7450 O.2   1 <1>  -0.5700 
 22 N        5.7950     3.8020    -0.9210 N.am  1 <1>  -0.6600 
 23 C        6.3320     4.1420    -2.2700 C.3   1 <1>   0.1400 
 24 C        6.8040     3.9010     0.1730 C.3   1 <1>   0.1400 
 25 C        7.5170     3.2290    -2.6020 C.3   1 <1>  -0.1600 
 26 C        7.9960     2.9890    -0.1390 C.3   1 <1>  -0.1600 
 27 C        8.6000     3.2920    -1.5170 C.3   1 <1>  -0.1600 
 28 H       -2.3400     2.2350     0.4200 H     1 <1>   0.4200 
 29 H        0.0380     3.2540     2.6990 H     1 <1>   0.1500 
 30 H        0.8900    -0.1530     0.2930 H     1 <1>   0.1500 
 31 H       -2.6230    -1.2020    -0.4600 H     1 <1>   0.1500 
 32 H        2.2080     4.2130     2.1110 H     1 <1>   0.1500 
 33 H        3.0580     0.8190    -0.3060 H     1 <1>   0.1500 
 34 H       -0.1380     1.6230    -3.6310 H     1 <1>   0.1500 
 35 H       -1.9010    -2.1150    -2.6310 H     1 <1>   0.1500 
 36 H        0.5920     4.2900    -1.1920 H     1 <1>   0.0800 
 37 H        0.2240     3.7360    -2.8210 H     1 <1>   0.0800 
 38 H        1.2050     2.7370    -1.7400 H     1 <1>   0.0800 
 39 H       -0.6580    -0.6910    -4.2100 H     1 <1>   0.1500 
 40 H        4.4530     3.7600     1.1640 H     1 <1>   0.3700 
 41 H        6.6520     5.1700    -2.2680 H     1 <1>   0.0800 
 42 H        5.5710     4.0360    -3.0240 H     1 <1>   0.0800 
 43 H        6.3840     3.6150     1.1200 H     1 <1>   0.0800 
 44 H        7.1370     4.9220     0.2470 H     1 <1>   0.0800 
 45 H        7.9350     3.5200    -3.5490 H     1 <1>   0.0800 
 46 H        7.1550     2.2200    -2.7000 H     1 <1>   0.0800 
 47 H        7.6660     1.9650    -0.1070 H     1 <1>   0.0800 
 48 H        8.7480     3.1140     0.6200 H     1 <1>   0.0800 
 49 H        9.0390     4.2750    -1.5070 H     1 <1>   0.0800 
 50 H        9.3780     2.5820    -1.7380 H     1 <1>   0.0800 
@<TRIPOS>BOND
  1   1   2  2   
  2   1   3  2   
  3   1   4  am  
  4   1   5  1   
  5   4   6  1   
  6   4  28  1   
  7   5   7  ar  
  8   5   8  ar  
  9   6   9  ar  
 10   6  10  ar  
 11   7  11  ar  
 12   7  29  1   
 13   8  12  ar  
 14   8  30  1   
 15   9  13  1   
 16   9  14  ar  
 17  10  15  ar  
 18  10  31  1   
 19  11  16  ar  
 20  11  32  1   
 21  12  16  ar  
 22  12  33  1   
 23  13  17  1   
 24  14  18  ar  
 25  14  34  1   
 26  15  18  ar  
 27  15  35  1   
 28  16  19  1   
 29  17  36  1   
 30  17  37  1   
 31  17  38  1   
 32  18  39  1   
 33  19  20  am  
 34  19  40  1   
 35  20  21  2   
 36  20  22  am  
 37  22  23  1   
 38  22  24  1   
 39  23  25  1   
 40  23  41  1   
 41  23  42  1   
 42  24  26  1   
 43  24  43  1   
 44  24  44  1   
 45  25  27  1   
 46  25  45  1   
 47  25  46  1   
 48  26  27  1   
 49  26  47  1   
 50  26  48  1   
 51  27  49  1   
 52  27  50  1   
@<TRIPOS>SUBSTRUCTURE
  1 ****  12 GROUP 4 **** **** 0

# MOE 2024.06 (io_trps.svl 2023.06)
