@<TRIPOS>MOLECULE
NONAME
50 52 1 0 0 
SMALL
USER_CHARGES


@<TRIPOS>ATOM
  1 S        0.8990    -0.3170     0.8210 S.o2  1 <1>   1.4470 
  2 O        2.1300    -0.5560     1.5460 O.2   1 <1>  -0.6500 
  3 O        0.1660     0.8940     1.1000 O.2   1 <1>  -0.6500 
  4 N        1.3770    -0.2190    -0.8090 N.am  1 <1>  -0.8490 
  5 C       -0.1870    -1.7690     0.8840 C.ar  1 <1>  -0.0090 
  6 C        1.8870     1.1170    -1.1720 C.3   1 <1>   0.1960 
  7 C        2.2800    -1.3180    -1.2410 C.3   1 <1>   0.1960 
  8 C       -0.9660    -2.1340    -0.2030 C.ar  1 <1>  -0.1500 
  9 C       -0.2720    -2.5510     2.0270 C.ar  1 <1>  -0.1500 
 10 C        3.2990     1.3710    -0.5890 C.3   1 <1>   0.3430 
 11 C        3.6870    -0.8610    -1.7110 C.3   1 <1>   0.3430 
 12 C       -1.7900    -3.2580    -0.2060 C.ar  1 <1>   0.0860 
 13 C       -1.0830    -3.6710     2.0620 C.ar  1 <1>  -0.1500 
 14 N        4.2840     0.2610    -0.8880 N.4   1 <1>  -0.9590 
 15 C       -1.8320    -4.0380     0.9570 C.ar  1 <1>  -0.1440 
 16 C       -2.5340    -3.5550    -1.4160 C.2   1 <1>   0.5440 
 17 C        4.9040    -0.2510     0.3710 C.3   1 <1>   0.4860 
 18 C       -2.6720    -5.3070     1.0410 C.3   1 <1>  -0.0970 
 19 O       -1.9780    -3.5910    -2.4920 O.2   1 <1>  -0.5700 
 20 N       -3.8710    -3.7580    -1.4150 N.am  1 <1>  -0.8000 
 21 C        6.0600    -1.1560    -0.0020 C.ar  1 <1>  -0.1440 
 22 C        7.2320    -0.6290    -0.5270 C.ar  1 <1>  -0.1500 
 23 C        5.9470    -2.5280     0.1770 C.ar  1 <1>  -0.1500 
 24 C        8.2720    -1.4690    -0.8870 C.ar  1 <1>  -0.1500 
 25 C        6.9880    -3.3650    -0.1840 C.ar  1 <1>  -0.1500 
 26 C        8.1490    -2.8360    -0.7180 C.ar  1 <1>  -0.1500 
 27 H        1.2110     1.8840    -0.8310 H     1 <1>   0.0800 
 28 H        1.9260     1.2010    -2.2450 H     1 <1>   0.0800 
 29 H        1.8090    -1.8410    -2.0570 H     1 <1>   0.0800 
 30 H        2.4000    -2.0410    -0.4520 H     1 <1>   0.0800 
 31 H       -0.9380    -1.5330    -1.0970 H     1 <1>   0.1500 
 32 H        0.3050    -2.2880     2.8990 H     1 <1>   0.1500 
 33 H        3.1990     1.4890     0.4780 H     1 <1>   0.0800 
 34 H        3.6730     2.3030    -0.9800 H     1 <1>   0.0800 
 35 H        3.5880    -0.5230    -2.7290 H     1 <1>   0.0800 
 36 H        4.3510    -1.7100    -1.7300 H     1 <1>   0.0800 
 37 H       -1.1200    -4.2610     2.9630 H     1 <1>   0.1500 
 38 H        5.0680     0.6440    -1.4300 H     1 <1>   0.4500 
 39 H        4.1900    -0.8060     0.9520 H     1 <1>   0.0800 
 40 H        5.2680     0.5670     0.9710 H     1 <1>   0.0800 
 41 H       -3.7070    -5.0570     1.1910 H     1 <1>   0.0800 
 42 H       -2.3510    -5.9270     1.8590 H     1 <1>   0.0800 
 43 H       -2.5790    -5.8820     0.1370 H     1 <1>   0.0800 
 44 H       -4.3470    -3.9100    -2.3050 H     1 <1>   0.3700 
 45 H       -4.4590    -3.6350    -0.5920 H     1 <1>   0.3700 
 46 H        7.3590     0.4320    -0.6580 H     1 <1>   0.1500 
 47 H        5.0560    -2.9610     0.6000 H     1 <1>   0.1500 
 48 H        9.1830    -1.0630    -1.2950 H     1 <1>   0.1500 
 49 H        6.9010    -4.4300    -0.0450 H     1 <1>   0.1500 
 50 H        8.9600    -3.4890    -0.9970 H     1 <1>   0.1500 
@<TRIPOS>BOND
  1   1   2  2   
  2   1   3  2   
  3   1   4  am  
  4   1   5  1   
  5   4   6  1   
  6   4   7  1   
  7   5   8  ar  
  8   5   9  ar  
  9   6  10  1   
 10   6  27  1   
 11   6  28  1   
 12   7  11  1   
 13   7  29  1   
 14   7  30  1   
 15   8  12  ar  
 16   8  31  1   
 17   9  13  ar  
 18   9  32  1   
 19  10  14  1   
 20  10  33  1   
 21  10  34  1   
 22  11  14  1   
 23  11  35  1   
 24  11  36  1   
 25  12  15  ar  
 26  12  16  1   
 27  13  15  ar  
 28  13  37  1   
 29  14  17  1   
 30  14  38  1   
 31  15  18  1   
 32  16  19  2   
 33  16  20  am  
 34  17  21  1   
 35  17  39  1   
 36  17  40  1   
 37  18  41  1   
 38  18  42  1   
 39  18  43  1   
 40  20  44  1   
 41  20  45  1   
 42  21  22  ar  
 43  21  23  ar  
 44  22  24  ar  
 45  22  46  1   
 46  23  25  ar  
 47  23  47  1   
 48  24  26  ar  
 49  24  48  1   
 50  25  26  ar  
 51  25  49  1   
 52  26  50  1   
@<TRIPOS>SUBSTRUCTURE
  1 ****   7 GROUP 4 **** **** 0

# MOE 2024.06 (io_trps.svl 2023.06)
