@<TRIPOS>MOLECULE
NONAME
49 51 1 0 0 
SMALL
USER_CHARGES


@<TRIPOS>ATOM
  1 BR       0.1910     0.3540    -0.8860 Br    1 <1>  -0.1110 
  2 C       -1.6140    -0.2570    -0.6240 C.ar  1 <1>   0.1110 
  3 C       -2.0040    -1.4520    -1.1910 C.ar  1 <1>  -0.1500 
  4 C       -2.4790     0.5140     0.1250 C.ar  1 <1>  -0.1500 
  5 C       -3.3050    -1.8840    -0.9980 C.ar  1 <1>  -0.1500 
  6 C       -3.7770     0.0710     0.3110 C.ar  1 <1>  -0.1500 
  7 C       -4.2110    -1.1320    -0.2490 C.ar  1 <1>  -0.1430 
  8 C       -5.6410    -1.6600    -0.0660 C.3   1 <1>   0.4240 
  9 O       -6.1150    -1.9450    -1.3330 O.3   1 <1>  -0.6800 
 10 C       -5.6480    -2.9710     0.7370 C.3   1 <1>  -0.1600 
 11 C       -6.6410    -0.6730     0.5570 C.3   1 <1>  -0.1600 
 12 C       -7.0240    -3.3680     1.2850 C.3   1 <1>   0.3430 
 13 C       -8.0730    -1.2250     0.6210 C.3   1 <1>   0.3430 
 14 N       -8.0900    -2.7100     0.4860 N.4   1 <1>  -0.9590 
 15 C       -9.4410    -3.3000     0.6780 C.3   1 <1>   0.4860 
 16 C       -9.4120    -4.7560     0.2480 C.ar  1 <1>  -0.1430 
 17 C       -9.2790    -5.0920    -1.0930 C.ar  1 <1>  -0.1500 
 18 C       -9.5260    -5.7680     1.1910 C.ar  1 <1>  -0.1500 
 19 C       -9.2530    -6.4200    -1.4800 C.ar  1 <1>  -0.1500 
 20 C       -9.5010    -7.0940     0.7970 C.ar  1 <1>  -0.1500 
 21 C       -9.3590    -7.4370    -0.5420 C.ar  1 <1>   0.1170 
 22 N       -9.3470    -8.7700    -0.9630 N.am  1 <1>  -0.5470 
 23 C       -8.6350    -9.8420    -0.5280 C.2   1 <1>   0.5690 
 24 O       -8.8280   -10.9250    -1.0140 O.2   1 <1>  -0.5700 
 25 C       -7.5820    -9.7010     0.5460 C.3   1 <1>  -0.1790 
 26 H       -1.3030    -2.0290    -1.7690 H     1 <1>   0.1500 
 27 H       -2.1380     1.4410     0.5530 H     1 <1>   0.1500 
 28 H       -3.6020    -2.8200    -1.4410 H     1 <1>   0.1500 
 29 H       -4.4280     0.6900     0.9010 H     1 <1>   0.1500 
 30 H       -5.5410    -1.4710    -1.9720 H     1 <1>   0.4000 
 31 H       -4.9820    -2.8700     1.5750 H     1 <1>   0.0800 
 32 H       -5.2590    -3.7700     0.1320 H     1 <1>   0.0800 
 33 H       -6.6410     0.2520     0.0090 H     1 <1>   0.0800 
 34 H       -6.3270    -0.4480     1.5600 H     1 <1>   0.0800 
 35 H       -7.1080    -3.0630     2.3150 H     1 <1>   0.0800 
 36 H       -7.1250    -4.4410     1.2410 H     1 <1>   0.0800 
 37 H       -8.6460    -0.7950    -0.1860 H     1 <1>   0.0800 
 38 H       -8.5280    -0.9270     1.5510 H     1 <1>   0.0800 
 39 H       -7.8120    -2.8900    -0.4960 H     1 <1>   0.4500 
 40 H      -10.1630    -2.7700     0.0790 H     1 <1>   0.0800 
 41 H       -9.7350    -3.2270     1.7120 H     1 <1>   0.0800 
 42 H       -9.1990    -4.3300    -1.8500 H     1 <1>   0.1500 
 43 H       -9.6430    -5.5400     2.2370 H     1 <1>   0.1500 
 44 H       -9.1490    -6.6730    -2.5200 H     1 <1>   0.1500 
 45 H       -9.6080    -7.8720     1.5320 H     1 <1>   0.1500 
 46 H       -9.9480    -9.0070    -1.7540 H     1 <1>   0.3700 
 47 H       -7.0590    -8.7710     0.4380 H     1 <1>   0.0800 
 48 H       -6.8760   -10.5060     0.4600 H     1 <1>   0.0800 
 49 H       -8.0440    -9.7500     1.5130 H     1 <1>   0.0800 
@<TRIPOS>BOND
  1   1   2  1   
  2   2   3  ar  
  3   2   4  ar  
  4   3   5  ar  
  5   3  26  1   
  6   4   6  ar  
  7   4  27  1   
  8   5   7  ar  
  9   5  28  1   
 10   6   7  ar  
 11   6  29  1   
 12   7   8  1   
 13   8   9  1   
 14   8  10  1   
 15   8  11  1   
 16   9  30  1   
 17  10  12  1   
 18  10  31  1   
 19  10  32  1   
 20  11  13  1   
 21  11  33  1   
 22  11  34  1   
 23  12  14  1   
 24  12  35  1   
 25  12  36  1   
 26  13  14  1   
 27  13  37  1   
 28  13  38  1   
 29  14  15  1   
 30  14  39  1   
 31  15  16  1   
 32  15  40  1   
 33  15  41  1   
 34  16  17  ar  
 35  16  18  ar  
 36  17  19  ar  
 37  17  42  1   
 38  18  20  ar  
 39  18  43  1   
 40  19  21  ar  
 41  19  44  1   
 42  20  21  ar  
 43  20  45  1   
 44  21  22  1   
 45  22  23  am  
 46  22  46  1   
 47  23  24  2   
 48  23  25  1   
 49  25  47  1   
 50  25  48  1   
 51  25  49  1   
@<TRIPOS>SUBSTRUCTURE
  1 ****  12 GROUP 4 **** **** 0

# MOE 2024.06 (io_trps.svl 2023.06)
