@<TRIPOS>MOLECULE
NONAME
58 61 1 0 0 
SMALL
USER_CHARGES


@<TRIPOS>ATOM
  1 S        0.2370     0.2510     0.4240 S.3   1 <1>  -0.3320 
  2 C        1.3000     1.6860     0.3040 C.ar  1 <1>   0.7220 
  3 C       -1.4980     0.8890     0.3620 C.3   1 <1>   0.0700 
  4 N        0.7040     2.8750     0.2680 N.ar  1 <1>  -0.3100 
  5 N        2.5780     1.4270     0.2680 N.ar  1 <1>  -0.6200 
  6 C       -1.8770     1.1130    -1.1020 C.3   1 <1>  -0.2400 
  7 N        1.4420     3.9440     0.1780 N.ar  1 <1>  -0.3100 
  8 C        3.3250     2.5120     0.1710 C.ar  1 <1>   0.3930 
  9 C        2.7770     3.8160     0.1260 C.ar  1 <1>   0.3100 
 10 O        4.6280     2.1870     0.1320 O.3   1 <1>  -0.3620 
 11 C        3.5060     5.0770     0.0150 C.ar  1 <1>   0.0000 
 12 C        5.6650     3.1120     0.1900 C.3   1 <1>   0.7130 
 13 C        4.7790     5.1640    -0.5690 C.ar  1 <1>   0.1000 
 14 C        2.9390     6.2790     0.4600 C.ar  1 <1>  -0.1500 
 15 N        5.4600     4.0260    -0.9230 N.pl3 1 <1>  -0.8690 
 16 C        7.0070     2.4150     0.0190 C.ar  1 <1>  -0.1430 
 17 C        5.4010     6.3930    -0.7520 C.ar  1 <1>  -0.1500 
 18 C        3.5690     7.4970     0.2960 C.ar  1 <1>  -0.1500 
 19 C        8.0980     2.8210     0.7820 C.ar  1 <1>   0.0830 
 20 C        7.1660     1.3870    -0.9020 C.ar  1 <1>  -0.1500 
 21 C        4.8030     7.5580    -0.3230 C.ar  1 <1>  -0.1500 
 22 O        7.9010     3.8400     1.6620 O.3   1 <1>  -0.3630 
 23 C        9.3280     2.1920     0.6210 C.ar  1 <1>  -0.1500 
 24 C        8.3920     0.7700    -1.0560 C.ar  1 <1>  -0.1500 
 25 C        8.9480     4.3230     2.4760 C.3   1 <1>   0.0400 
 26 C        9.4840     1.1640    -0.2990 C.ar  1 <1>   0.1000 
 27 N       10.7060     0.5240    -0.4730 N.pl3 1 <1>  -0.8380 
 28 C       11.1590    -0.3490     0.6370 C.3   1 <1>   0.2090 
 29 C       11.7680     1.2850    -1.1770 C.3   1 <1>   0.2090 
 30 C       11.6410    -1.6740     0.0600 C.3   1 <1>  -0.2400 
 31 C       11.7710     0.8620    -2.6400 C.3   1 <1>  -0.2400 
 32 H       -1.5470     1.7950     0.9400 H     1 <1>   0.0800 
 33 H       -2.1220     0.1370     0.8130 H     1 <1>   0.0800 
 34 H       -1.2360     1.8530    -1.5480 H     1 <1>   0.0800 
 35 H       -2.8930     1.4580    -1.1670 H     1 <1>   0.0800 
 36 H       -1.7890     0.1930    -1.6530 H     1 <1>   0.0800 
 37 H        5.6030     3.6220     1.1380 H     1 <1>   0.0800 
 38 H        1.9760     6.2730     0.9400 H     1 <1>   0.1500 
 39 H        6.3690     4.1730    -1.3690 H     1 <1>   0.4000 
 40 H        6.3650     6.4340    -1.2260 H     1 <1>   0.1500 
 41 H        3.0980     8.4010     0.6440 H     1 <1>   0.1500 
 42 H        6.3300     1.0650    -1.5010 H     1 <1>   0.1500 
 43 H        5.2920     8.5070    -0.4640 H     1 <1>   0.1500 
 44 H       10.1870     2.4760     1.1920 H     1 <1>   0.1500 
 45 H        8.5190    -0.0280    -1.7650 H     1 <1>   0.1500 
 46 H        8.5590     5.1220     3.0820 H     1 <1>   0.0800 
 47 H        9.7370     4.6940     1.8460 H     1 <1>   0.0800 
 48 H        9.2990     3.5250     3.1050 H     1 <1>   0.0800 
 49 H       10.3360    -0.5310     1.3080 H     1 <1>   0.0800 
 50 H       11.9470     0.1320     1.1900 H     1 <1>   0.0800 
 51 H       12.7300     1.0870    -0.7360 H     1 <1>   0.0800 
 52 H       11.5700     2.3420    -1.1060 H     1 <1>   0.0800 
 53 H       10.8500    -2.1320    -0.5060 H     1 <1>   0.0800 
 54 H       11.9230    -2.3370     0.8570 H     1 <1>   0.0800 
 55 H       12.4920    -1.5190    -0.5760 H     1 <1>   0.0800 
 56 H       11.9620    -0.1920    -2.7190 H     1 <1>   0.0800 
 57 H       12.5360     1.3950    -3.1730 H     1 <1>   0.0800 
 58 H       10.8190     1.0850    -3.0870 H     1 <1>   0.0800 
@<TRIPOS>BOND
  1   1   2  1   
  2   1   3  1   
  3   2   4  ar  
  4   2   5  ar  
  5   3   6  1   
  6   3  32  1   
  7   3  33  1   
  8   4   7  ar  
  9   5   8  ar  
 10   6  34  1   
 11   6  35  1   
 12   6  36  1   
 13   7   9  ar  
 14   8   9  ar  
 15   8  10  1   
 16   9  11  1   
 17  10  12  1   
 18  11  13  ar  
 19  11  14  ar  
 20  12  15  1   
 21  12  16  1   
 22  12  37  1   
 23  13  15  1   
 24  13  17  ar  
 25  14  18  ar  
 26  14  38  1   
 27  15  39  1   
 28  16  19  ar  
 29  16  20  ar  
 30  17  21  ar  
 31  17  40  1   
 32  18  21  ar  
 33  18  41  1   
 34  19  22  1   
 35  19  23  ar  
 36  20  24  ar  
 37  20  42  1   
 38  21  43  1   
 39  22  25  1   
 40  23  26  ar  
 41  23  44  1   
 42  24  26  ar  
 43  24  45  1   
 44  25  46  1   
 45  25  47  1   
 46  25  48  1   
 47  26  27  1   
 48  27  28  1   
 49  27  29  1   
 50  28  30  1   
 51  28  49  1   
 52  28  50  1   
 53  29  31  1   
 54  29  51  1   
 55  29  52  1   
 56  30  53  1   
 57  30  54  1   
 58  30  55  1   
 59  31  56  1   
 60  31  57  1   
 61  31  58  1   
@<TRIPOS>SUBSTRUCTURE
  1 ****  12 GROUP 4 **** **** 0

# MOE 2024.06 (io_trps.svl 2023.06)
