@<TRIPOS>MOLECULE
NONAME
43 44 1 0 0 
SMALL
USER_CHARGES


@<TRIPOS>ATOM
  1 O        0.1690     0.8320     2.2190 O.2   1 <1>  -0.5700 
  2 C        0.1290     1.6610     1.3450 C.2   1 <1>   0.5690 
  3 N        1.1550     1.9160     0.4770 N.am  1 <1>  -0.5470 
  4 C       -1.1310     2.4910     1.1950 C.3   1 <1>  -0.0990 
  5 C        2.4220     1.3270     0.3350 C.ar  1 <1>   0.1170 
  6 C       -1.9620     2.0650    -0.0290 C.3   1 <1>  -0.1600 
  7 C        2.7480     0.0770     0.8460 C.ar  1 <1>  -0.1500 
  8 C        3.3950     2.0230    -0.3690 C.ar  1 <1>  -0.1500 
  9 C       -3.2100     2.9400    -0.2240 C.3   1 <1>  -0.0800 
 10 C        4.0100    -0.4650     0.6660 C.ar  1 <1>   0.0830 
 11 C        4.6610     1.4980    -0.5600 C.ar  1 <1>   0.0830 
 12 C       -4.2280     2.8420     0.9120 C.3   1 <1>  -0.1600 
 13 C       -4.0160     2.5400    -1.4560 C.3   1 <1>  -0.1600 
 14 O        4.2260    -1.6930     1.2050 O.3   1 <1>  -0.3630 
 15 C        4.9740     0.2470    -0.0400 C.ar  1 <1>  -0.1500 
 16 O        5.5330     2.2650    -1.2630 O.3   1 <1>  -0.3630 
 17 C       -5.5660     3.2580     0.2960 C.3   1 <1>  -0.1600 
 18 C       -5.4030     3.1380    -1.2230 C.3   1 <1>  -0.1600 
 19 C        5.4850    -2.3230     1.1290 C.3   1 <1>   0.0400 
 20 C        6.8570     1.8420    -1.5020 C.3   1 <1>   0.0400 
 21 H        0.9780     2.6820    -0.1670 H     1 <1>   0.3700 
 22 H       -0.8580     3.5270     1.1150 H     1 <1>   0.0800 
 23 H       -1.7160     2.3740     2.0890 H     1 <1>   0.0800 
 24 H       -2.2560     1.0350     0.0900 H     1 <1>   0.0800 
 25 H       -1.3540     2.1290    -0.9140 H     1 <1>   0.0800 
 26 H        2.0210    -0.4960     1.3910 H     1 <1>   0.1500 
 27 H        3.1780     2.9910    -0.7780 H     1 <1>   0.1500 
 28 H       -2.9170     3.9720    -0.3340 H     1 <1>   0.0800 
 29 H       -3.9640     3.4670     1.7470 H     1 <1>   0.0800 
 30 H       -4.3000     1.8210     1.2480 H     1 <1>   0.0800 
 31 H       -4.1010     1.4680    -1.5050 H     1 <1>   0.0800 
 32 H       -3.5710     2.9010    -2.3670 H     1 <1>   0.0800 
 33 H        5.9500    -0.1670    -0.1830 H     1 <1>   0.1500 
 34 H       -5.7940     4.2770     0.5580 H     1 <1>   0.0800 
 35 H       -6.3590     2.6230     0.6530 H     1 <1>   0.0800 
 36 H       -6.1710     2.5220    -1.6580 H     1 <1>   0.0800 
 37 H       -5.4520     4.1190    -1.6660 H     1 <1>   0.0800 
 38 H        5.4160    -3.2660     1.6410 H     1 <1>   0.0800 
 39 H        6.2170    -1.6990     1.6100 H     1 <1>   0.0800 
 40 H        5.7320    -2.4850     0.0950 H     1 <1>   0.0800 
 41 H        7.3560     2.6100    -2.0650 H     1 <1>   0.0800 
 42 H        6.8350     0.9290    -2.0700 H     1 <1>   0.0800 
 43 H        7.3540     1.7000    -0.5590 H     1 <1>   0.0800 
@<TRIPOS>BOND
  1   1   2  2   
  2   2   3  am  
  3   2   4  1   
  4   3   5  1   
  5   3  21  1   
  6   4   6  1   
  7   4  22  1   
  8   4  23  1   
  9   5   7  ar  
 10   5   8  ar  
 11   6   9  1   
 12   6  24  1   
 13   6  25  1   
 14   7  10  ar  
 15   7  26  1   
 16   8  11  ar  
 17   8  27  1   
 18   9  12  1   
 19   9  13  1   
 20   9  28  1   
 21  10  14  1   
 22  10  15  ar  
 23  11  15  ar  
 24  11  16  1   
 25  12  17  1   
 26  12  29  1   
 27  12  30  1   
 28  13  18  1   
 29  13  31  1   
 30  13  32  1   
 31  14  19  1   
 32  15  33  1   
 33  16  20  1   
 34  17  18  1   
 35  17  34  1   
 36  17  35  1   
 37  18  36  1   
 38  18  37  1   
 39  19  38  1   
 40  19  39  1   
 41  19  40  1   
 42  20  41  1   
 43  20  42  1   
 44  20  43  1   
@<TRIPOS>SUBSTRUCTURE
  1 ****   3 GROUP 4 **** **** 0

# MOE 2024.06 (io_trps.svl 2023.06)
