@<TRIPOS>MOLECULE
NONAME
34 35 1 0 0 
SMALL
USER_CHARGES


@<TRIPOS>ATOM
  1 CL       0.2050     1.2610    -2.0100 Cl    1 <1>  -0.1770 
  2 C        1.8540     1.4720    -1.4680 C.ar  1 <1>   0.1770 
  3 C        2.2260     2.6250    -0.7870 C.ar  1 <1>  -0.1440 
  4 C        2.7650     0.4660    -1.7400 C.ar  1 <1>  -0.1500 
  5 C        3.5430     2.7540    -0.3720 C.ar  1 <1>  -0.1500 
  6 C        1.2170     3.7280    -0.5030 C.3   1 <1>  -0.0960 
  7 C        4.0760     0.6040    -1.3190 C.ar  1 <1>  -0.1500 
  8 C        4.4610     1.7410    -0.6280 C.ar  1 <1>   0.0820 
  9 O        5.7490     1.8410    -0.2310 O.3   1 <1>  -0.3630 
 10 C        6.0280     2.0580     1.1500 C.3   1 <1>   0.2610 
 11 C        7.3790     2.7660     1.3020 C.2   1 <1>   0.5690 
 12 C        6.0000     0.6950     1.8530 C.3   1 <1>  -0.2400 
 13 O        7.6400     3.2880     2.3570 O.2   1 <1>  -0.5700 
 14 N        8.2210     2.7740     0.2250 N.am  1 <1>  -0.4940 
 15 C        9.4910     3.2930     0.0930 C.2   1 <1>   0.4420 
 16 S       10.2250     3.1580    -1.4720 S.3   1 <1>  -0.0800 
 17 N       10.2600     3.8740     0.9400 N.2   1 <1>  -0.3380 
 18 C       11.6090     3.9540    -0.8090 C.2   1 <1>   0.1980 
 19 N       11.4680     4.2490     0.4180 N.2   1 <1>  -0.3380 
 20 C       12.7910     4.2060    -1.7180 C.3   1 <1>  -0.0600 
 21 H        2.4450    -0.4110    -2.2730 H     1 <1>   0.1500 
 22 H        3.8570     3.6450     0.1410 H     1 <1>   0.1500 
 23 H        0.4100     3.3430     0.0950 H     1 <1>   0.0800 
 24 H        0.8130     4.1030    -1.4270 H     1 <1>   0.0800 
 25 H        1.6740     4.5460     0.0250 H     1 <1>   0.0800 
 26 H        4.7980    -0.1670    -1.5230 H     1 <1>   0.1500 
 27 H        5.2720     2.6970     1.5680 H     1 <1>   0.0800 
 28 H        6.7410     0.0400     1.4310 H     1 <1>   0.0800 
 29 H        5.0270     0.2460     1.7640 H     1 <1>   0.0800 
 30 H        6.2180     0.8250     2.8980 H     1 <1>   0.0800 
 31 H        7.8260     2.3480    -0.6120 H     1 <1>   0.3700 
 32 H       13.1700     3.2730    -2.0920 H     1 <1>   0.0800 
 33 H       13.5690     4.7050    -1.1700 H     1 <1>   0.0800 
 34 H       12.4920     4.8260    -2.5430 H     1 <1>   0.0800 
@<TRIPOS>BOND
  1   1   2  1   
  2   2   3  ar  
  3   2   4  ar  
  4   3   5  ar  
  5   3   6  1   
  6   4   7  ar  
  7   4  21  1   
  8   5   8  ar  
  9   5  22  1   
 10   6  23  1   
 11   6  24  1   
 12   6  25  1   
 13   7   8  ar  
 14   7  26  1   
 15   8   9  1   
 16   9  10  1   
 17  10  11  1   
 18  10  12  1   
 19  10  27  1   
 20  11  13  2   
 21  11  14  am  
 22  12  28  1   
 23  12  29  1   
 24  12  30  1   
 25  14  15  1   
 26  14  31  1   
 27  15  16  1   
 28  15  17  2   
 29  16  18  1   
 30  17  19  1   
 31  18  19  2   
 32  18  20  1   
 33  20  32  1   
 34  20  33  1   
 35  20  34  1   
@<TRIPOS>SUBSTRUCTURE
  1 ****   9 GROUP 4 **** **** 0

# MOE 2024.06 (io_trps.svl 2023.06)
