@<TRIPOS>MOLECULE
NONAME
45 47 1 0 0 
SMALL
USER_CHARGES


@<TRIPOS>ATOM
  1 S       -0.4180    -0.1170    -0.5530 S.3   1 <1>  -0.0800 
  2 C       -0.2560     1.5440     0.0250 C.2   1 <1>  -0.0450 
  3 C        1.2700    -0.4660    -0.2470 C.2   1 <1>  -0.1400 
  4 C       -1.4040     2.4110     0.0000 C.2   1 <1>   0.7150 
  5 C        1.0330     1.7500     0.3940 C.2   1 <1>  -0.1500 
  6 C        1.8910     0.6190     0.2500 C.2   1 <1>  -0.1810 
  7 C        1.7710    -1.8600    -0.5630 C.3   1 <1>   0.0200 
  8 O       -1.3980     3.3950    -0.7160 O.2   1 <1>  -0.5700 
  9 N       -2.5590     2.1540     0.7200 N.am  1 <1>  -0.6600 
 10 C        3.3560     0.6920     0.6420 C.3   1 <1>   0.0210 
 11 C        3.0350    -1.8340    -1.4310 C.3   1 <1>  -0.1600 
 12 C       -3.7570     3.0190     0.5340 C.3   1 <1>   0.1400 
 13 C       -2.7630     0.9690     1.5870 C.3   1 <1>   0.1400 
 14 C        4.2910     0.2180    -0.4790 C.3   1 <1>  -0.1600 
 15 C        4.2870    -1.3020    -0.7140 C.3   1 <1>  -0.1600 
 16 C       -4.4570     2.6580    -0.7870 C.3   1 <1>   0.3430 
 17 C       -3.8130     0.0220     0.9840 C.3   1 <1>  -0.1600 
 18 N       -5.0340     1.2610    -0.8220 N.4   1 <1>  -0.9590 
 19 C       -4.0430     0.1740    -0.5270 C.3   1 <1>   0.3430 
 20 C       -5.6540     1.0230    -2.1600 C.3   1 <1>   0.2630 
 21 H        1.4070     2.6880     0.7660 H     1 <1>   0.1500 
 22 H        1.0040    -2.3960    -1.0940 H     1 <1>   0.0800 
 23 H        1.9630    -2.3870     0.3550 H     1 <1>   0.0800 
 24 H        3.5170     0.1070     1.5310 H     1 <1>   0.0800 
 25 H        3.6020     1.7120     0.8780 H     1 <1>   0.0800 
 26 H        2.8480    -1.2510    -2.3170 H     1 <1>   0.0800 
 27 H        3.2370    -2.8420    -1.7490 H     1 <1>   0.0800 
 28 H       -3.4460     4.0500     0.4950 H     1 <1>   0.0800 
 29 H       -4.4350     2.9170     1.3630 H     1 <1>   0.0800 
 30 H       -3.0800     1.2940     2.5650 H     1 <1>   0.0800 
 31 H       -1.8340     0.4440     1.7250 H     1 <1>   0.0800 
 32 H        5.2920     0.5070    -0.2110 H     1 <1>   0.0800 
 33 H        4.0440     0.7320    -1.3920 H     1 <1>   0.0800 
 34 H        5.1370    -1.5360    -1.3320 H     1 <1>   0.0800 
 35 H        4.4250    -1.8200     0.2200 H     1 <1>   0.0800 
 36 H       -3.7400     2.7760    -1.5840 H     1 <1>   0.0800 
 37 H       -5.2470     3.3710    -0.9570 H     1 <1>   0.0800 
 38 H       -4.7440     0.1230     1.5130 H     1 <1>   0.0800 
 39 H       -3.4700    -0.9800     1.1680 H     1 <1>   0.0800 
 40 H       -5.7720     1.2030    -0.1080 H     1 <1>   0.4500 
 41 H       -4.4300    -0.7610    -0.8980 H     1 <1>   0.0800 
 42 H       -3.1090     0.3670    -1.0320 H     1 <1>   0.0800 
 43 H       -4.9040     1.0710    -2.9330 H     1 <1>   0.0800 
 44 H       -6.4070     1.7680    -2.3630 H     1 <1>   0.0800 
 45 H       -6.1190     0.0510    -2.1910 H     1 <1>   0.0800 
@<TRIPOS>BOND
  1   1   2  1   
  2   1   3  1   
  3   2   4  1   
  4   2   5  2   
  5   3   6  2   
  6   3   7  1   
  7   4   8  2   
  8   4   9  am  
  9   5   6  1   
 10   5  21  1   
 11   6  10  1   
 12   7  11  1   
 13   7  22  1   
 14   7  23  1   
 15   9  12  1   
 16   9  13  1   
 17  10  14  1   
 18  10  24  1   
 19  10  25  1   
 20  11  15  1   
 21  11  26  1   
 22  11  27  1   
 23  12  16  1   
 24  12  28  1   
 25  12  29  1   
 26  13  17  1   
 27  13  30  1   
 28  13  31  1   
 29  14  15  1   
 30  14  32  1   
 31  14  33  1   
 32  15  34  1   
 33  15  35  1   
 34  16  18  1   
 35  16  36  1   
 36  16  37  1   
 37  17  19  1   
 38  17  38  1   
 39  17  39  1   
 40  18  19  1   
 41  18  20  1   
 42  18  40  1   
 43  19  41  1   
 44  19  42  1   
 45  20  43  1   
 46  20  44  1   
 47  20  45  1   
@<TRIPOS>SUBSTRUCTURE
  1 ****   2 GROUP 4 **** **** 0

# MOE 2024.06 (io_trps.svl 2023.06)
