@<TRIPOS>MOLECULE
NONAME
40 41 1 0 0 
SMALL
USER_CHARGES


@<TRIPOS>ATOM
  1 S        0.7370    -0.0090     0.3260 S.3   1 <1>  -0.0800 
  2 C        1.6860    -1.3410    -0.2590 C.2   1 <1>   0.4420 
  3 C       -0.6720    -0.9250    -0.0810 C.2   1 <1>   0.1980 
  4 N        0.9550    -2.3040    -0.6840 N.2   1 <1>  -0.3380 
  5 N        3.0630    -1.3290    -0.2500 N.am  1 <1>  -0.4940 
  6 N       -0.3870    -2.0620    -0.5800 N.2   1 <1>  -0.3380 
  7 C       -2.0100    -0.2630     0.2080 C.3   1 <1>   0.3000 
  8 C        3.9740    -0.3960     0.1630 C.2   1 <1>   0.5690 
  9 O       -3.0840    -1.1030    -0.1640 O.3   1 <1>  -0.3630 
 10 O        3.6410     0.6660     0.6300 O.2   1 <1>  -0.5700 
 11 C        5.4860    -0.7130     0.0270 C.3   1 <1>   0.0610 
 12 C       -4.3720    -0.7130     0.0050 C.ar  1 <1>   0.0820 
 13 C        6.1530    -0.6690     1.4140 C.3   1 <1>  -0.2400 
 14 C        5.7650    -2.1040    -0.5860 C.3   1 <1>  -0.2400 
 15 C        6.1580     0.3400    -0.8730 C.3   1 <1>  -0.2400 
 16 C       -5.3490    -1.6110    -0.3910 C.ar  1 <1>  -0.1500 
 17 C       -4.7510     0.5150     0.5430 C.ar  1 <1>  -0.1500 
 18 C       -6.6890    -1.2960    -0.2550 C.ar  1 <1>  -0.1500 
 19 C       -6.0940     0.8260     0.6770 C.ar  1 <1>  -0.1500 
 20 C       -7.0680    -0.0760     0.2810 C.ar  1 <1>  -0.1440 
 21 C       -8.5390     0.2700     0.4290 C.3   1 <1>  -0.0970 
 22 H        3.4640    -2.1830    -0.6250 H     1 <1>   0.3700 
 23 H       -2.0890     0.6500    -0.3540 H     1 <1>   0.0800 
 24 H       -2.0930    -0.0600     1.2600 H     1 <1>   0.0800 
 25 H        6.0250     0.3040     1.8590 H     1 <1>   0.0800 
 26 H        5.7070    -1.3960     2.0690 H     1 <1>   0.0800 
 27 H        7.2070    -0.8710     1.3430 H     1 <1>   0.0800 
 28 H        5.3540    -2.1760    -1.5770 H     1 <1>   0.0800 
 29 H        5.3500    -2.8840     0.0280 H     1 <1>   0.0800 
 30 H        6.8260    -2.2730    -0.6580 H     1 <1>   0.0800 
 31 H        5.7160     0.3340    -1.8540 H     1 <1>   0.0800 
 32 H        7.2120     0.1490    -0.9700 H     1 <1>   0.0800 
 33 H        6.0310     1.3240    -0.4560 H     1 <1>   0.0800 
 34 H       -5.0510    -2.5570    -0.8060 H     1 <1>   0.1500 
 35 H       -4.0280     1.2400     0.8620 H     1 <1>   0.1500 
 36 H       -7.4340    -2.0060    -0.5700 H     1 <1>   0.1500 
 37 H       -6.3800     1.7760     1.0920 H     1 <1>   0.1500 
 38 H       -9.1210    -0.6210     0.5860 H     1 <1>   0.0800 
 39 H       -8.8880     0.7600    -0.4620 H     1 <1>   0.0800 
 40 H       -8.6900     0.9240     1.2690 H     1 <1>   0.0800 
@<TRIPOS>BOND
  1   1   2  1   
  2   1   3  1   
  3   2   4  2   
  4   2   5  1   
  5   3   6  2   
  6   3   7  1   
  7   4   6  1   
  8   5   8  am  
  9   5  22  1   
 10   7   9  1   
 11   7  23  1   
 12   7  24  1   
 13   8  10  2   
 14   8  11  1   
 15   9  12  1   
 16  11  13  1   
 17  11  14  1   
 18  11  15  1   
 19  12  16  ar  
 20  12  17  ar  
 21  13  25  1   
 22  13  26  1   
 23  13  27  1   
 24  14  28  1   
 25  14  29  1   
 26  14  30  1   
 27  15  31  1   
 28  15  32  1   
 29  15  33  1   
 30  16  18  ar  
 31  16  34  1   
 32  17  19  ar  
 33  17  35  1   
 34  18  20  ar  
 35  18  36  1   
 36  19  20  ar  
 37  19  37  1   
 38  20  21  1   
 39  21  38  1   
 40  21  39  1   
 41  21  40  1   
@<TRIPOS>SUBSTRUCTURE
  1 ****   3 GROUP 4 **** **** 0

# MOE 2024.06 (io_trps.svl 2023.06)
