@<TRIPOS>MOLECULE
NONAME
45 46 1 0 0 
SMALL
USER_CHARGES


@<TRIPOS>ATOM
  1 CL      -0.1430     0.2050     0.5880 Cl    1 <1>  -0.1770 
  2 C       -1.7960     0.7010     0.3050 C.ar  1 <1>   0.1770 
  3 C       -2.0960     1.7830    -0.5080 C.ar  1 <1>  -0.0090 
  4 C       -2.7840    -0.0360     0.9320 C.ar  1 <1>  -0.1500 
  5 S       -0.7970     2.7480    -1.3120 S.o2  1 <1>   1.4470 
  6 C       -3.4380     2.1060    -0.6800 C.ar  1 <1>  -0.1500 
  7 C       -4.1160     0.2960     0.7570 C.ar  1 <1>  -0.1430 
  8 O        0.0550     1.8800    -2.0940 O.2   1 <1>  -0.6500 
  9 O       -1.3950     3.8970    -1.9610 O.2   1 <1>  -0.6500 
 10 N        0.1210     3.3600    -0.0270 N.am  1 <1>  -0.8490 
 11 C       -4.4480     1.3760    -0.0560 C.ar  1 <1>   0.0830 
 12 C       -5.1960    -0.5220     1.4530 C.3   1 <1>  -0.0970 
 13 C       -0.5120     4.4950     0.6800 C.3   1 <1>   0.1960 
 14 C        1.5010     3.6690    -0.4560 C.3   1 <1>   0.1960 
 15 O       -5.7670     1.6670    -0.2020 O.3   1 <1>  -0.3630 
 16 C        0.0770     5.8620     0.2600 C.3   1 <1>   0.2000 
 17 C        2.1840     4.7200     0.4480 C.3   1 <1>   0.2000 
 18 C       -6.2210     2.7110    -1.0580 C.3   1 <1>   0.1810 
 19 O        1.4590     5.9220     0.4980 O.3   1 <1>  -0.5600 
 20 C       -0.5540     7.0230     1.0220 C.3   1 <1>  -0.2400 
 21 C        3.5900     5.0720    -0.0330 C.3   1 <1>  -0.2400 
 22 C       -7.7440     2.8180    -1.0550 C.2   1 <1>   0.5690 
 23 O       -8.2730     3.6870    -1.6990 O.2   1 <1>  -0.5700 
 24 N       -8.4980     1.9550    -0.3440 N.am  1 <1>  -0.8000 
 25 H       -2.4990    -0.8670     1.5530 H     1 <1>   0.1500 
 26 H       -3.6760     2.9410    -1.3130 H     1 <1>   0.1500 
 27 H       -4.7670    -1.3120     2.0420 H     1 <1>   0.0800 
 28 H       -5.8500    -0.9600     0.7200 H     1 <1>   0.0800 
 29 H       -5.7750     0.1110     2.1010 H     1 <1>   0.0800 
 30 H       -0.3530     4.3730     1.7370 H     1 <1>   0.0800 
 31 H       -1.5770     4.4950     0.5190 H     1 <1>   0.0800 
 32 H        1.4980     4.0520    -1.4640 H     1 <1>   0.0800 
 33 H        2.0770     2.7590    -0.4570 H     1 <1>   0.0800 
 34 H       -0.0780     6.0040    -0.7970 H     1 <1>   0.0800 
 35 H        2.2390     4.3330     1.4520 H     1 <1>   0.0800 
 36 H       -5.8840     2.5040    -2.0560 H     1 <1>   0.0800 
 37 H       -5.8050     3.6400    -0.7130 H     1 <1>   0.0800 
 38 H       -0.3820     6.9160     2.0780 H     1 <1>   0.0800 
 39 H       -1.6140     7.0510     0.8430 H     1 <1>   0.0800 
 40 H       -0.1280     7.9510     0.6860 H     1 <1>   0.0800 
 41 H        3.5510     5.4900    -1.0230 H     1 <1>   0.0800 
 42 H        4.2060     4.1920    -0.0520 H     1 <1>   0.0800 
 43 H        4.0350     5.7860     0.6360 H     1 <1>   0.0800 
 44 H       -9.5150     2.0340    -0.3460 H     1 <1>   0.3700 
 45 H       -8.0800     1.2110     0.2160 H     1 <1>   0.3700 
@<TRIPOS>BOND
  1   1   2  1   
  2   2   3  ar  
  3   2   4  ar  
  4   3   5  1   
  5   3   6  ar  
  6   4   7  ar  
  7   4  25  1   
  8   5   8  2   
  9   5   9  2   
 10   5  10  am  
 11   6  11  ar  
 12   6  26  1   
 13   7  11  ar  
 14   7  12  1   
 15  10  13  1   
 16  10  14  1   
 17  11  15  1   
 18  12  27  1   
 19  12  28  1   
 20  12  29  1   
 21  13  16  1   
 22  13  30  1   
 23  13  31  1   
 24  14  17  1   
 25  14  32  1   
 26  14  33  1   
 27  15  18  1   
 28  16  19  1   
 29  16  20  1   
 30  16  34  1   
 31  17  19  1   
 32  17  21  1   
 33  17  35  1   
 34  18  22  1   
 35  18  36  1   
 36  18  37  1   
 37  20  38  1   
 38  20  39  1   
 39  20  40  1   
 40  21  41  1   
 41  21  42  1   
 42  21  43  1   
 43  22  23  2   
 44  22  24  am  
 45  24  44  1   
 46  24  45  1   
@<TRIPOS>SUBSTRUCTURE
  1 ****   3 GROUP 4 **** **** 0

# MOE 2024.06 (io_trps.svl 2023.06)
