@<TRIPOS>MOLECULE
NONAME
48 52 1 0 0 
SMALL
USER_CHARGES


@<TRIPOS>ATOM
  1 S       -0.5100    -0.3650     0.7220 S.3   1 <1>  -0.4600 
  2 C       -1.5640     1.1010     0.7510 C.3   1 <1>   0.5940 
  3 C       -1.2740    -1.1710    -0.7010 C.3   1 <1>   0.1310 
  4 N       -2.5600     0.8640    -0.3170 N.am  1 <1>  -0.6600 
  5 C       -0.7060     2.3380     0.4990 C.ar  1 <1>  -0.1440 
  6 C       -2.3930    -0.2380    -1.1000 C.2   1 <1>   0.5690 
  7 C       -3.5510     1.9390    -0.6230 C.3   1 <1>   0.1400 
  8 C       -0.5640     3.2910     1.4990 C.ar  1 <1>  -0.1500 
  9 C       -0.0680     2.5400    -0.7180 C.ar  1 <1>  -0.1500 
 10 O       -3.0700    -0.4850    -2.0690 O.2   1 <1>  -0.5700 
 11 C       -4.8960     1.8070     0.1320 C.3   1 <1>   0.0000 
 12 C        0.1990     4.4260     1.2850 C.ar  1 <1>  -0.1500 
 13 C        0.6950     3.6740    -0.9330 C.ar  1 <1>  -0.1500 
 14 C       -5.8010     2.9880    -0.2940 C.3   1 <1>  -0.1600 
 15 C       -4.7200     1.8620     1.6690 C.3   1 <1>  -0.1600 
 16 C       -5.6220     0.4890    -0.2280 C.3   1 <1>  -0.1600 
 17 C        0.8290     4.6180     0.0690 C.ar  1 <1>  -0.1500 
 18 C       -7.1700     2.9210     0.4070 C.3   1 <1>  -0.0800 
 19 C       -6.0840     1.7920     2.3810 C.3   1 <1>  -0.0800 
 20 C       -6.9900     0.4060     0.4760 C.3   1 <1>  -0.0800 
 21 C       -6.9580     2.9760     1.9300 C.3   1 <1>  -0.1600 
 22 C       -7.8610     1.5960     0.0340 C.3   1 <1>  -0.1600 
 23 C       -6.7820     0.4720     2.0000 C.3   1 <1>  -0.1600 
 24 H       -2.0270     1.1330     1.7200 H     1 <1>   0.0800 
 25 H       -1.6470    -2.1290    -0.3930 H     1 <1>   0.0800 
 26 H       -0.5380    -1.2610    -1.4780 H     1 <1>   0.0800 
 27 H       -3.7520     1.9230    -1.6810 H     1 <1>   0.0800 
 28 H       -3.1140     2.8980    -0.4050 H     1 <1>   0.0800 
 29 H       -1.0460     3.1570     2.4520 H     1 <1>   0.1500 
 30 H       -0.1660     1.8130    -1.5060 H     1 <1>   0.1500 
 31 H        0.3050     5.1590     2.0660 H     1 <1>   0.1500 
 32 H        1.1860     3.8210    -1.8800 H     1 <1>   0.1500 
 33 H       -5.9490     2.9680    -1.3600 H     1 <1>   0.0800 
 34 H       -5.3240     3.9220    -0.0500 H     1 <1>   0.0800 
 35 H       -4.2110     2.7680     1.9500 H     1 <1>   0.0800 
 36 H       -4.1300     1.0280     2.0000 H     1 <1>   0.0800 
 37 H       -5.0240    -0.3540     0.0680 H     1 <1>   0.0800 
 38 H       -5.7590     0.4260    -1.2940 H     1 <1>   0.0800 
 39 H        1.4240     5.5000    -0.0970 H     1 <1>   0.1500 
 40 H       -7.7810     3.7500     0.0940 H     1 <1>   0.0800 
 41 H       -5.9420     1.8320     3.4480 H     1 <1>   0.0800 
 42 H       -7.4770    -0.5170     0.2140 H     1 <1>   0.0800 
 43 H       -7.9100     2.9370     2.4310 H     1 <1>   0.0800 
 44 H       -6.4850     3.9030     2.2000 H     1 <1>   0.0800 
 45 H       -8.0200     1.5550    -1.0300 H     1 <1>   0.0800 
 46 H       -8.8240     1.5410     0.5110 H     1 <1>   0.0800 
 47 H       -7.7320     0.4050     2.5000 H     1 <1>   0.0800 
 48 H       -6.1840    -0.3630     2.3210 H     1 <1>   0.0800 
@<TRIPOS>BOND
  1   1   2  1   
  2   1   3  1   
  3   2   4  1   
  4   2   5  1   
  5   2  24  1   
  6   3   6  1   
  7   3  25  1   
  8   3  26  1   
  9   4   6  am  
 10   4   7  1   
 11   5   8  ar  
 12   5   9  ar  
 13   6  10  2   
 14   7  11  1   
 15   7  27  1   
 16   7  28  1   
 17   8  12  ar  
 18   8  29  1   
 19   9  13  ar  
 20   9  30  1   
 21  11  14  1   
 22  11  15  1   
 23  11  16  1   
 24  12  17  ar  
 25  12  31  1   
 26  13  17  ar  
 27  13  32  1   
 28  14  18  1   
 29  14  33  1   
 30  14  34  1   
 31  15  19  1   
 32  15  35  1   
 33  15  36  1   
 34  16  20  1   
 35  16  37  1   
 36  16  38  1   
 37  17  39  1   
 38  18  21  1   
 39  18  22  1   
 40  18  40  1   
 41  19  21  1   
 42  19  23  1   
 43  19  41  1   
 44  20  22  1   
 45  20  23  1   
 46  20  42  1   
 47  21  43  1   
 48  21  44  1   
 49  22  45  1   
 50  22  46  1   
 51  23  47  1   
 52  23  48  1   
@<TRIPOS>SUBSTRUCTURE
  1 ****   7 GROUP 4 **** **** 0

# MOE 2024.06 (io_trps.svl 2023.06)
