@<TRIPOS>MOLECULE
NONAME
44 48 1 0 0 
SMALL
USER_CHARGES


@<TRIPOS>ATOM
  1 O       -0.7300     0.0160     0.8110 O.2   1 <1>  -0.5700 
  2 C       -1.6750    -0.6270     0.4660 C.2   1 <1>   0.4480 
  3 C       -1.6200    -2.1500     0.2750 C.3   1 <1>   0.2040 
  4 C       -3.0290     0.0090     0.1140 C.3   1 <1>   0.2040 
  5 C       -0.2530    -2.7960     0.5760 C.ar  1 <1>  -0.1440 
  6 C       -1.9510    -2.4130    -1.2010 C.3   1 <1>   0.3430 
  7 C       -2.7830    -2.7580     1.0820 C.3   1 <1>   0.1100 
  8 C       -3.0850     1.5440     0.2530 C.ar  1 <1>  -0.1440 
  9 C       -3.3030    -0.3420    -1.3550 C.3   1 <1>   0.3430 
 10 C       -4.1090    -0.7260     0.9310 C.3   1 <1>   0.1100 
 11 C        0.8780    -2.3360    -0.0920 C.ar  1 <1>  -0.1500 
 12 C       -0.0960    -3.8450     1.4800 C.ar  1 <1>  -0.1500 
 13 N       -3.2960    -1.8350    -1.5660 N.4   1 <1>  -0.9590 
 14 N       -4.0660    -2.1740     0.6380 N.3   1 <1>  -0.8100 
 15 C       -2.1620     2.3220    -0.4390 C.ar  1 <1>  -0.1500 
 16 C       -4.0390     2.1980     1.0310 C.ar  1 <1>  -0.1500 
 17 C        2.1180    -2.9100     0.1190 C.ar  1 <1>  -0.1500 
 18 C        1.1450    -4.4200     1.6920 C.ar  1 <1>  -0.1500 
 19 C       -4.3680    -2.4750    -0.7590 C.3   1 <1>   0.6130 
 20 C       -2.1970     3.7030    -0.3730 C.ar  1 <1>  -0.1500 
 21 C       -4.0750     3.5800     1.0970 C.ar  1 <1>  -0.1500 
 22 C        2.2530    -3.9570     1.0100 C.ar  1 <1>  -0.1500 
 23 C       -3.1570     4.3350     0.3930 C.ar  1 <1>  -0.1500 
 24 H       -1.9480    -3.4770    -1.3730 H     1 <1>   0.0800 
 25 H       -1.1830    -1.9750    -1.8180 H     1 <1>   0.0800 
 26 H       -2.6410    -2.5630     2.1330 H     1 <1>   0.0800 
 27 H       -2.8180    -3.8260     0.9460 H     1 <1>   0.0800 
 28 H       -4.2600     0.0660    -1.6370 H     1 <1>   0.0800 
 29 H       -2.5510     0.1200    -1.9740 H     1 <1>   0.0800 
 30 H       -5.0880    -0.3480     0.6870 H     1 <1>   0.0800 
 31 H       -3.9450    -0.5650     1.9850 H     1 <1>   0.0800 
 32 H        0.8200    -1.5100    -0.7800 H     1 <1>   0.1500 
 33 H       -0.9160    -4.2470     2.0470 H     1 <1>   0.1500 
 34 H       -3.4940    -2.0380    -2.5550 H     1 <1>   0.4500 
 35 H       -1.3860     1.8700    -1.0320 H     1 <1>   0.1500 
 36 H       -4.7760     1.6690     1.6070 H     1 <1>   0.1500 
 37 H        2.9830    -2.5390    -0.4040 H     1 <1>   0.1500 
 38 H        1.2530    -5.2300     2.3930 H     1 <1>   0.1500 
 39 H       -4.3800    -3.5440    -0.9100 H     1 <1>   0.0800 
 40 H       -5.3370    -2.0760    -1.0190 H     1 <1>   0.0800 
 41 H       -1.4730     4.2900    -0.9120 H     1 <1>   0.1500 
 42 H       -4.8180     4.0730     1.7010 H     1 <1>   0.1500 
 43 H        3.2180    -4.4040     1.1770 H     1 <1>   0.1500 
 44 H       -3.1850     5.4100     0.4470 H     1 <1>   0.1500 
@<TRIPOS>BOND
  1   1   2  2   
  2   2   3  1   
  3   2   4  1   
  4   3   5  1   
  5   3   6  1   
  6   3   7  1   
  7   4   8  1   
  8   4   9  1   
  9   4  10  1   
 10   5  11  ar  
 11   5  12  ar  
 12   6  13  1   
 13   6  24  1   
 14   6  25  1   
 15   7  14  1   
 16   7  26  1   
 17   7  27  1   
 18   8  15  ar  
 19   8  16  ar  
 20   9  13  1   
 21   9  28  1   
 22   9  29  1   
 23  10  14  1   
 24  10  30  1   
 25  10  31  1   
 26  11  17  ar  
 27  11  32  1   
 28  12  18  ar  
 29  12  33  1   
 30  13  19  1   
 31  13  34  1   
 32  14  19  1   
 33  15  20  ar  
 34  15  35  1   
 35  16  21  ar  
 36  16  36  1   
 37  17  22  ar  
 38  17  37  1   
 39  18  22  ar  
 40  18  38  1   
 41  19  39  1   
 42  19  40  1   
 43  20  23  ar  
 44  20  41  1   
 45  21  23  ar  
 46  21  42  1   
 47  22  43  1   
 48  23  44  1   
@<TRIPOS>SUBSTRUCTURE
  1 ****   2 GROUP 4 **** **** 0

# MOE 2024.06 (io_trps.svl 2023.06)
