@<TRIPOS>MOLECULE
NONAME
41 43 1 0 0 
SMALL
USER_CHARGES


@<TRIPOS>ATOM
  1 CL       0.6310    -0.0730     1.4850 Cl    1 <1>  -0.1770 
  2 C        0.8940    -1.5150     0.5330 C.ar  1 <1>   0.1770 
  3 C       -0.1460    -2.4050     0.3040 C.ar  1 <1>  -0.1440 
  4 C        2.1650    -1.7320     0.0240 C.ar  1 <1>  -0.1500 
  5 C        0.1470    -3.5240    -0.4600 C.ar  1 <1>   0.1900 
  6 C       -1.5420    -2.1660     0.8600 C.3   1 <1>   0.2140 
  7 C        2.4240    -2.8620    -0.7370 C.ar  1 <1>  -0.1500 
  8 F       -0.7930    -4.3970    -0.7070 F     1 <1>  -0.1900 
  9 C        1.4050    -3.7680    -0.9830 C.ar  1 <1>  -0.1500 
 10 S       -2.4500    -1.0800    -0.3240 S.3   1 <1>  -0.2860 
 11 C       -4.0360    -0.8590     0.4880 C.2   1 <1>   0.2430 
 12 N       -4.3440    -1.3950     1.6150 N.2   1 <1>  -0.3380 
 13 N       -5.0060    -0.1120    -0.0340 N.pl3 1 <1>   0.0480 
 14 N       -5.5930    -0.9930     1.8730 N.2   1 <1>  -0.3380 
 15 C       -5.9730    -0.2420     0.8900 C.2   1 <1>   0.0060 
 16 C       -4.9560     0.6510    -1.2980 C.3   1 <1>   0.0160 
 17 C       -7.3410     0.4320     0.8160 C.3   1 <1>   0.2900 
 18 N       -8.3770    -0.4010     0.1710 N.3   1 <1>  -0.8100 
 19 C       -8.0520    -0.8210    -1.2060 C.3   1 <1>   0.1100 
 20 C       -9.6930     0.2650     0.2060 C.3   1 <1>   0.1100 
 21 C       -9.1960    -1.6470    -1.8200 C.3   1 <1>   0.1200 
 22 C      -10.7760    -0.6000    -0.4630 C.3   1 <1>   0.1200 
 23 O      -10.3970    -0.9320    -1.7680 O.3   1 <1>  -0.5600 
 24 H        2.9430    -1.0180     0.2240 H     1 <1>   0.1500 
 25 H       -1.5230    -1.6610     1.8090 H     1 <1>   0.0800 
 26 H       -2.1070    -3.0760     0.9520 H     1 <1>   0.0800 
 27 H        3.4100    -3.0330    -1.1350 H     1 <1>   0.1500 
 28 H        1.5790    -4.6520    -1.5700 H     1 <1>   0.1500 
 29 H       -4.8990    -0.0360    -2.1230 H     1 <1>   0.0800 
 30 H       -4.0820     1.2780    -1.2990 H     1 <1>   0.0800 
 31 H       -5.8310     1.2640    -1.4010 H     1 <1>   0.0800 
 32 H       -7.2590     1.3750     0.3060 H     1 <1>   0.0800 
 33 H       -7.6530     0.6360     1.8260 H     1 <1>   0.0800 
 34 H       -7.1650    -1.4290    -1.1970 H     1 <1>   0.0800 
 35 H       -7.8760     0.0410    -1.8260 H     1 <1>   0.0800 
 36 H       -9.6430     1.2120    -0.3040 H     1 <1>   0.0800 
 37 H       -9.9760     0.4460     1.2290 H     1 <1>   0.0800 
 38 H       -9.3200    -2.5730    -1.2850 H     1 <1>   0.0800 
 39 H       -8.9880    -1.8670    -2.8520 H     1 <1>   0.0800 
 40 H      -11.7050    -0.0630    -0.5170 H     1 <1>   0.0800 
 41 H      -10.9290    -1.5080     0.0940 H     1 <1>   0.0800 
@<TRIPOS>BOND
  1   1   2  1   
  2   2   3  ar  
  3   2   4  ar  
  4   3   5  ar  
  5   3   6  1   
  6   4   7  ar  
  7   4  24  1   
  8   5   8  1   
  9   5   9  ar  
 10   6  10  1   
 11   6  25  1   
 12   6  26  1   
 13   7   9  ar  
 14   7  27  1   
 15   9  28  1   
 16  10  11  1   
 17  11  12  2   
 18  11  13  1   
 19  12  14  1   
 20  13  15  1   
 21  13  16  1   
 22  14  15  2   
 23  15  17  1   
 24  16  29  1   
 25  16  30  1   
 26  16  31  1   
 27  17  18  1   
 28  17  32  1   
 29  17  33  1   
 30  18  19  1   
 31  18  20  1   
 32  19  21  1   
 33  19  34  1   
 34  19  35  1   
 35  20  22  1   
 36  20  36  1   
 37  20  37  1   
 38  21  23  1   
 39  21  38  1   
 40  21  39  1   
 41  22  23  1   
 42  22  40  1   
 43  22  41  1   
@<TRIPOS>SUBSTRUCTURE
  1 ****  11 GROUP 4 **** **** 0

# MOE 2024.06 (io_trps.svl 2023.06)
