@<TRIPOS>MOLECULE
NONAME
34 34 1 0 0 
SMALL
USER_CHARGES


@<TRIPOS>ATOM
  1 CL      -0.4840    -2.6480    -1.5050 Cl    1 <1>  -0.1770 
  2 C        1.0890    -2.2860    -0.8240 C.ar  1 <1>   0.1770 
  3 C        1.5650    -3.0200     0.2560 C.ar  1 <1>   0.0820 
  4 C        1.8340    -1.2650    -1.3810 C.ar  1 <1>  -0.1500 
  5 O        0.8180    -4.0190     0.7810 O.3   1 <1>  -0.3630 
  6 C        2.8070    -2.7090     0.8030 C.ar  1 <1>  -0.1440 
  7 C        3.0770    -0.9620    -0.8490 C.ar  1 <1>  -0.1430 
  8 C        0.9520    -5.2860     0.1670 C.3   1 <1>   0.1200 
  9 C        3.5520    -1.6840     0.2360 C.ar  1 <1>  -0.1500 
 10 C        3.3590    -3.4610     2.0050 C.3   1 <1>  -0.0960 
 11 C        3.9190     0.1530    -1.4440 C.3   1 <1>  -0.0970 
 12 C       -0.2100    -6.1690     0.6390 C.3   1 <1>   0.3430 
 13 N       -1.5030    -5.4200     0.5410 N.4   1 <1>  -0.9590 
 14 C       -2.4920    -5.8760     1.5620 C.3   1 <1>   0.2630 
 15 C       -2.0810    -5.4590    -0.8370 C.3   1 <1>   0.2630 
 16 H        1.4420    -0.7170    -2.2190 H     1 <1>   0.1500 
 17 H        1.9000    -5.7080     0.4530 H     1 <1>   0.0800 
 18 H        0.9260    -5.1620    -0.9010 H     1 <1>   0.0800 
 19 H        4.5170    -1.4380     0.6450 H     1 <1>   0.1500 
 20 H        2.5890    -3.6040     2.7420 H     1 <1>   0.0800 
 21 H        4.1610    -2.9100     2.4640 H     1 <1>   0.0800 
 22 H        3.7360    -4.4200     1.6980 H     1 <1>   0.0800 
 23 H        3.3200     0.7960    -2.0640 H     1 <1>   0.0800 
 24 H        4.7090    -0.2650    -2.0410 H     1 <1>   0.0800 
 25 H        4.3540     0.7470    -0.6600 H     1 <1>   0.0800 
 26 H       -0.0250    -6.4370     1.6660 H     1 <1>   0.0800 
 27 H       -0.2500    -7.0770     0.0600 H     1 <1>   0.0800 
 28 H       -1.2460    -4.4340     0.7480 H     1 <1>   0.4500 
 29 H       -2.7600    -6.9060     1.3920 H     1 <1>   0.0800 
 30 H       -3.3840    -5.2740     1.5110 H     1 <1>   0.0800 
 31 H       -2.0750    -5.7850     2.5520 H     1 <1>   0.0800 
 32 H       -2.3650    -6.4650    -1.0980 H     1 <1>   0.0800 
 33 H       -1.3610    -5.1050    -1.5570 H     1 <1>   0.0800 
 34 H       -2.9530    -4.8270    -0.8930 H     1 <1>   0.0800 
@<TRIPOS>BOND
  1   1   2  1   
  2   2   3  ar  
  3   2   4  ar  
  4   3   5  1   
  5   3   6  ar  
  6   4   7  ar  
  7   4  16  1   
  8   5   8  1   
  9   6   9  ar  
 10   6  10  1   
 11   7   9  ar  
 12   7  11  1   
 13   8  12  1   
 14   8  17  1   
 15   8  18  1   
 16   9  19  1   
 17  10  20  1   
 18  10  21  1   
 19  10  22  1   
 20  11  23  1   
 21  11  24  1   
 22  11  25  1   
 23  12  13  1   
 24  12  26  1   
 25  12  27  1   
 26  13  14  1   
 27  13  15  1   
 28  13  28  1   
 29  14  29  1   
 30  14  30  1   
 31  14  31  1   
 32  15  32  1   
 33  15  33  1   
 34  15  34  1   
@<TRIPOS>SUBSTRUCTURE
  1 ****   3 GROUP 4 **** **** 0

# MOE 2024.06 (io_trps.svl 2023.06)
