@<TRIPOS>MOLECULE
NONAME
45 47 1 0 0 
SMALL
USER_CHARGES


@<TRIPOS>ATOM
  1 O       -0.6880     0.1760     0.0380 O.2   1 <1>  -0.5700 
  2 C        0.2250     0.9580     0.1920 C.2   1 <1>   0.5690 
  3 N        0.0020     2.3260     0.1370 N.am  1 <1>  -0.4770 
  4 C        1.6060     0.3410     0.4290 C.3   1 <1>   0.1810 
  5 C        0.9000     3.3440     0.5420 C.ar  1 <1>   0.1170 
  6 C       -1.2550     2.7490    -0.5640 C.3   1 <1>   0.1400 
  7 O        2.3930     0.3130    -0.7580 O.3   1 <1>  -0.3630 
  8 C        1.0650     4.4760    -0.2560 C.ar  1 <1>  -0.1440 
  9 C        1.6110     3.2740     1.7370 C.ar  1 <1>  -0.1500 
 10 C       -1.2250     4.1980    -1.0780 C.3   1 <1>  -0.1600 
 11 C        3.0800     1.4320    -1.0810 C.ar  1 <1>   0.0820 
 12 C        1.9720     5.4620     0.0920 C.ar  1 <1>  -0.1500 
 13 C        0.1870     4.6240    -1.4830 C.3   1 <1>  -0.0170 
 14 C        2.5180     4.2580     2.0860 C.ar  1 <1>  -0.1500 
 15 C        4.0780     1.9750    -0.2650 C.ar  1 <1>   0.0820 
 16 C        2.7600     2.0580    -2.2730 C.ar  1 <1>  -0.1500 
 17 C        2.7080     5.3490     1.2580 C.ar  1 <1>  -0.1500 
 18 O        4.4930     1.3800     0.8790 O.3   1 <1>  -0.3630 
 19 C        4.6760     3.1720    -0.6150 C.ar  1 <1>  -0.1500 
 20 C        3.3810     3.2440    -2.6240 C.ar  1 <1>  -0.1500 
 21 C        5.1680     0.1510     0.7370 C.3   1 <1>   0.1200 
 22 C        4.3310     3.8270    -1.7910 C.ar  1 <1>   0.0730 
 23 C        5.5870    -0.3190     2.1270 C.3   1 <1>  -0.2400 
 24 C        4.9340     5.0820    -2.1320 C.1   1 <1>   0.4840 
 25 N        5.4010     6.0870    -2.4050 N.1   1 <1>  -0.5570 
 26 H        1.4710    -0.6800     0.7310 H     1 <1>   0.0800 
 27 H        2.1440     0.8410     1.2050 H     1 <1>   0.0800 
 28 H       -2.0890     2.6130     0.1020 H     1 <1>   0.0800 
 29 H       -1.4030     2.0980    -1.4090 H     1 <1>   0.0800 
 30 H        1.4530     2.4510     2.4080 H     1 <1>   0.1500 
 31 H       -1.5750     4.8480    -0.2950 H     1 <1>   0.0800 
 32 H       -1.9000     4.2980    -1.9090 H     1 <1>   0.0800 
 33 H        2.1050     6.3270    -0.5350 H     1 <1>   0.1500 
 34 H        0.5530     3.9950    -2.2750 H     1 <1>   0.0800 
 35 H        0.1790     5.6440    -1.8250 H     1 <1>   0.0800 
 36 H        3.0750     4.1760     3.0030 H     1 <1>   0.1500 
 37 H        2.0140     1.6180    -2.9110 H     1 <1>   0.1500 
 38 H        3.4160     6.1140     1.5250 H     1 <1>   0.1500 
 39 H        5.4150     3.5940     0.0420 H     1 <1>   0.1500 
 40 H        3.1150     3.7260    -3.5490 H     1 <1>   0.1500 
 41 H        6.0280     0.3070     0.1090 H     1 <1>   0.0800 
 42 H        4.5080    -0.5630     0.2770 H     1 <1>   0.0800 
 43 H        6.2410     0.4040     2.5800 H     1 <1>   0.0800 
 44 H        6.1100    -1.2550     2.0510 H     1 <1>   0.0800 
 45 H        4.7200    -0.4590     2.7470 H     1 <1>   0.0800 
@<TRIPOS>BOND
  1   1   2  2   
  2   2   3  am  
  3   2   4  1   
  4   3   5  1   
  5   3   6  1   
  6   4   7  1   
  7   4  26  1   
  8   4  27  1   
  9   5   8  ar  
 10   5   9  ar  
 11   6  10  1   
 12   6  28  1   
 13   6  29  1   
 14   7  11  1   
 15   8  12  ar  
 16   8  13  1   
 17   9  14  ar  
 18   9  30  1   
 19  10  13  1   
 20  10  31  1   
 21  10  32  1   
 22  11  15  ar  
 23  11  16  ar  
 24  12  17  ar  
 25  12  33  1   
 26  13  34  1   
 27  13  35  1   
 28  14  17  ar  
 29  14  36  1   
 30  15  18  1   
 31  15  19  ar  
 32  16  20  ar  
 33  16  37  1   
 34  17  38  1   
 35  18  21  1   
 36  19  22  ar  
 37  19  39  1   
 38  20  22  ar  
 39  20  40  1   
 40  21  23  1   
 41  21  41  1   
 42  21  42  1   
 43  22  24  1   
 44  23  43  1   
 45  23  44  1   
 46  23  45  1   
 47  24  25  3   
@<TRIPOS>SUBSTRUCTURE
  1 ****  11 GROUP 4 **** **** 0

# MOE 2024.06 (io_trps.svl 2023.06)
