@<TRIPOS>MOLECULE
NONAME
57 59 1 0 0 
SMALL
USER_CHARGES


@<TRIPOS>ATOM
  1 O        0.0180    -0.3720     1.9080 O.3   1 <1>  -0.3630 
  2 C       -0.2950    -1.1110     0.8090 C.ar  1 <1>   0.0830 
  3 C       -0.9160     0.5050     2.5000 C.3   1 <1>   0.0400 
  4 C        0.6000    -2.1080     0.4230 C.ar  1 <1>  -0.1440 
  5 C       -1.4560    -0.9000     0.0690 C.ar  1 <1>  -0.1500 
  6 C        0.3300    -2.8720    -0.7010 C.ar  1 <1>  -0.1500 
  7 C        1.8740    -2.3820     1.2130 C.3   1 <1>   0.2540 
  8 C       -1.7220    -1.6760    -1.0540 C.ar  1 <1>   0.0830 
  9 C       -0.8230    -2.6580    -1.4330 C.ar  1 <1>  -0.1500 
 10 N        3.0650    -1.8650     0.5050 N.3   1 <1>  -0.8100 
 11 O       -2.8280    -1.5360    -1.8280 O.3   1 <1>  -0.3630 
 12 C        4.3010    -2.2370     1.2170 C.3   1 <1>   0.1100 
 13 C        2.9760    -0.4010     0.3040 C.3   1 <1>   0.1100 
 14 C       -3.8290    -0.5920    -1.5230 C.3   1 <1>   0.0400 
 15 C        5.5510    -1.7220     0.4750 C.3   1 <1>   0.3430 
 16 C        4.2100     0.1450    -0.4370 C.3   1 <1>   0.3430 
 17 N        5.4910    -0.2390     0.2530 N.4   1 <1>  -0.9590 
 18 C        6.6800     0.2670    -0.4800 C.3   1 <1>   0.4860 
 19 C        6.6380     1.7820    -0.4640 C.ar  1 <1>  -0.1430 
 20 C        6.2710     2.4830    -1.6040 C.ar  1 <1>  -0.1500 
 21 C        6.9580     2.4800     0.6910 C.ar  1 <1>  -0.1500 
 22 C        6.2110     3.8650    -1.5820 C.ar  1 <1>  -0.1500 
 23 C        6.8960     3.8620     0.7080 C.ar  1 <1>  -0.1500 
 24 C        6.5190     4.5620    -0.4260 C.ar  1 <1>  -0.1430 
 25 C        6.4540     6.0810    -0.4050 C.3   1 <1>  -0.0170 
 26 C        7.8030     6.6810    -0.8070 C.3   1 <1>  -0.2400 
 27 H       -0.4800     0.9020     3.4000 H     1 <1>   0.0800 
 28 H       -1.8090    -0.0450     2.7400 H     1 <1>   0.0800 
 29 H       -1.1280     1.3070     1.8150 H     1 <1>   0.0800 
 30 H       -2.1460    -0.1360     0.3580 H     1 <1>   0.1500 
 31 H        1.0200    -3.6380    -1.0090 H     1 <1>   0.1500 
 32 H        1.9700    -3.4480     1.3340 H     1 <1>   0.0800 
 33 H        1.8120    -1.9500     2.1970 H     1 <1>   0.0800 
 34 H       -1.0340    -3.2530    -2.3030 H     1 <1>   0.1500 
 35 H        4.3580    -3.3100     1.2860 H     1 <1>   0.0800 
 36 H        4.2840    -1.8410     2.2180 H     1 <1>   0.0800 
 37 H        2.8660     0.0980     1.2520 H     1 <1>   0.0800 
 38 H        2.1070    -0.1700    -0.2890 H     1 <1>   0.0800 
 39 H       -4.6030    -0.6760    -2.2640 H     1 <1>   0.0800 
 40 H       -3.4010     0.3940    -1.5530 H     1 <1>   0.0800 
 41 H       -4.2310    -0.8110    -0.5500 H     1 <1>   0.0800 
 42 H        5.6100    -2.2290    -0.4740 H     1 <1>   0.0800 
 43 H        6.4290    -1.9750     1.0450 H     1 <1>   0.0800 
 44 H        4.1320     1.2180    -0.5030 H     1 <1>   0.0800 
 45 H        4.2020    -0.2510    -1.4390 H     1 <1>   0.0800 
 46 H        5.4770     0.2310     1.1650 H     1 <1>   0.4500 
 47 H        6.6760    -0.0930    -1.4960 H     1 <1>   0.0800 
 48 H        7.5850    -0.0670     0.0000 H     1 <1>   0.0800 
 49 H        6.0310     1.9700    -2.5190 H     1 <1>   0.1500 
 50 H        7.2630     1.9670     1.5870 H     1 <1>   0.1500 
 51 H        5.9270     4.4020    -2.4710 H     1 <1>   0.1500 
 52 H        7.1480     4.3980     1.6080 H     1 <1>   0.1500 
 53 H        6.1880     6.4210     0.5810 H     1 <1>   0.0800 
 54 H        5.6910     6.4230    -1.0830 H     1 <1>   0.0800 
 55 H        8.5700     6.3630    -0.1240 H     1 <1>   0.0800 
 56 H        7.7490     7.7550    -0.7890 H     1 <1>   0.0800 
 57 H        8.0710     6.3640    -1.7990 H     1 <1>   0.0800 
@<TRIPOS>BOND
  1   1   2  1   
  2   1   3  1   
  3   2   4  ar  
  4   2   5  ar  
  5   3  27  1   
  6   3  28  1   
  7   3  29  1   
  8   4   6  ar  
  9   4   7  1   
 10   5   8  ar  
 11   5  30  1   
 12   6   9  ar  
 13   6  31  1   
 14   7  10  1   
 15   7  32  1   
 16   7  33  1   
 17   8   9  ar  
 18   8  11  1   
 19   9  34  1   
 20  10  12  1   
 21  10  13  1   
 22  11  14  1   
 23  12  15  1   
 24  12  35  1   
 25  12  36  1   
 26  13  16  1   
 27  13  37  1   
 28  13  38  1   
 29  14  39  1   
 30  14  40  1   
 31  14  41  1   
 32  15  17  1   
 33  15  42  1   
 34  15  43  1   
 35  16  17  1   
 36  16  44  1   
 37  16  45  1   
 38  17  18  1   
 39  17  46  1   
 40  18  19  1   
 41  18  47  1   
 42  18  48  1   
 43  19  20  ar  
 44  19  21  ar  
 45  20  22  ar  
 46  20  49  1   
 47  21  23  ar  
 48  21  50  1   
 49  22  24  ar  
 50  22  51  1   
 51  23  24  ar  
 52  23  52  1   
 53  24  25  1   
 54  25  26  1   
 55  25  53  1   
 56  25  54  1   
 57  26  55  1   
 58  26  56  1   
 59  26  57  1   
@<TRIPOS>SUBSTRUCTURE
  1 ****  13 GROUP 4 **** **** 0

# MOE 2024.06 (io_trps.svl 2023.06)
