@<TRIPOS>MOLECULE
NONAME
51 53 1 0 0 
SMALL
USER_CHARGES


@<TRIPOS>ATOM
  1 S       -0.3350     0.2870     1.1290 S.3   1 <1>  -0.3320 
  2 C       -1.8430    -0.6210     0.7560 C.ar  1 <1>   0.1020 
  3 C        0.3390     0.9010    -0.4780 C.3   1 <1>  -0.0100 
  4 C       -2.4810    -1.2360     1.8160 C.ar  1 <1>  -0.1500 
  5 C       -2.3570    -0.7090    -0.5280 C.ar  1 <1>  -0.1500 
  6 C       -3.6480    -1.9450     1.5970 C.ar  1 <1>  -0.1500 
  7 C       -3.5260    -1.4190    -0.7440 C.ar  1 <1>  -0.1500 
  8 C       -4.1810    -2.0340     0.3170 C.ar  1 <1>  -0.1430 
  9 C       -5.4740    -2.7920     0.0840 C.3   1 <1>   0.4860 
 10 N       -6.5710    -1.8070    -0.1020 N.4   1 <1>  -0.9590 
 11 C       -6.7830    -0.9590     1.1300 C.3   1 <1>   0.3430 
 12 C       -7.8590    -2.4680    -0.5220 C.3   1 <1>   0.3430 
 13 C       -7.9180     0.0680     0.9490 C.3   1 <1>   0.2090 
 14 C       -9.0020    -1.4520    -0.7210 C.3   1 <1>   0.2090 
 15 N       -9.1760    -0.5940     0.4890 N.pl3 1 <1>  -0.8380 
 16 C      -10.2870     0.2590     0.4330 C.ar  1 <1>   0.1000 
 17 C      -10.4060     1.3340    -0.4680 C.ar  1 <1>   0.0830 
 18 C      -11.3220     0.0170     1.3250 C.ar  1 <1>  -0.1500 
 19 O       -9.3770     1.5640    -1.3440 O.3   1 <1>  -0.3630 
 20 C      -11.5520     2.1250    -0.4470 C.ar  1 <1>  -0.1500 
 21 C      -12.4560     0.8080     1.3400 C.ar  1 <1>  -0.1500 
 22 C       -9.4120     2.6460    -2.2470 C.3   1 <1>   0.1200 
 23 C      -12.5710     1.8620     0.4530 C.ar  1 <1>  -0.1500 
 24 C       -8.1150     2.6320    -3.0500 C.3   1 <1>  -0.2400 
 25 H        1.2580     1.4190    -0.2660 H     1 <1>   0.0800 
 26 H       -0.3830     1.5690    -0.9100 H     1 <1>   0.0800 
 27 H        0.5200     0.0500    -1.1100 H     1 <1>   0.0800 
 28 H       -2.0570    -1.1590     2.8030 H     1 <1>   0.1500 
 29 H       -1.8610    -0.2380    -1.3540 H     1 <1>   0.1500 
 30 H       -4.1270    -2.4240     2.4350 H     1 <1>   0.1500 
 31 H       -3.9110    -1.4850    -1.7480 H     1 <1>   0.1500 
 32 H       -5.6830    -3.4310     0.9260 H     1 <1>   0.0800 
 33 H       -5.3710    -3.4060    -0.7960 H     1 <1>   0.0800 
 34 H       -6.2830    -1.1630    -0.8480 H     1 <1>   0.4500 
 35 H       -5.8760    -0.4320     1.3750 H     1 <1>   0.0800 
 36 H       -7.0350    -1.5900     1.9660 H     1 <1>   0.0800 
 37 H       -8.1690    -3.1700     0.2340 H     1 <1>   0.0800 
 38 H       -7.7140    -3.0110    -1.4410 H     1 <1>   0.0800 
 39 H       -7.6140     0.8170     0.2390 H     1 <1>   0.0800 
 40 H       -8.1050     0.5630     1.8860 H     1 <1>   0.0800 
 41 H       -9.9220    -1.9800    -0.9090 H     1 <1>   0.0800 
 42 H       -8.7950    -0.8400    -1.5800 H     1 <1>   0.0800 
 43 H      -11.2320    -0.8020     2.0140 H     1 <1>   0.1500 
 44 H      -11.6810     2.9520    -1.1180 H     1 <1>   0.1500 
 45 H      -13.2470     0.6030     2.0400 H     1 <1>   0.1500 
 46 H       -9.5000     3.5590    -1.6840 H     1 <1>   0.0800 
 47 H      -10.2620     2.5220    -2.8960 H     1 <1>   0.0800 
 48 H      -13.4530     2.4780     0.4640 H     1 <1>   0.1500 
 49 H       -7.2710     2.7450    -2.3940 H     1 <1>   0.0800 
 50 H       -8.1150     3.4490    -3.7480 H     1 <1>   0.0800 
 51 H       -8.0290     1.7130    -3.6010 H     1 <1>   0.0800 
@<TRIPOS>BOND
  1   1   2  1   
  2   1   3  1   
  3   2   4  ar  
  4   2   5  ar  
  5   3  25  1   
  6   3  26  1   
  7   3  27  1   
  8   4   6  ar  
  9   4  28  1   
 10   5   7  ar  
 11   5  29  1   
 12   6   8  ar  
 13   6  30  1   
 14   7   8  ar  
 15   7  31  1   
 16   8   9  1   
 17   9  10  1   
 18   9  32  1   
 19   9  33  1   
 20  10  11  1   
 21  10  12  1   
 22  10  34  1   
 23  11  13  1   
 24  11  35  1   
 25  11  36  1   
 26  12  14  1   
 27  12  37  1   
 28  12  38  1   
 29  13  15  1   
 30  13  39  1   
 31  13  40  1   
 32  14  15  1   
 33  14  41  1   
 34  14  42  1   
 35  15  16  1   
 36  16  17  ar  
 37  16  18  ar  
 38  17  19  1   
 39  17  20  ar  
 40  18  21  ar  
 41  18  43  1   
 42  19  22  1   
 43  20  23  ar  
 44  20  44  1   
 45  21  23  ar  
 46  21  45  1   
 47  22  24  1   
 48  22  46  1   
 49  22  47  1   
 50  23  48  1   
 51  24  49  1   
 52  24  50  1   
 53  24  51  1   
@<TRIPOS>SUBSTRUCTURE
  1 ****  13 GROUP 4 **** **** 0

# MOE 2024.06 (io_trps.svl 2023.06)
