@<TRIPOS>MOLECULE
NONAME
25 25 1 0 0 
SMALL
USER_CHARGES


@<TRIPOS>ATOM
  1 CL      -0.8170     0.6270    -1.6830 Cl    1 <1>  -0.1770 
  2 C       -0.2550     1.8880    -0.6090 C.ar  1 <1>   0.1770 
  3 C       -1.0950     2.4150     0.3580 C.ar  1 <1>   0.1770 
  4 C        1.0410     2.3480    -0.7370 C.ar  1 <1>  -0.1500 
  5 CL      -2.7390     1.8410     0.5330 Cl    1 <1>  -0.1770 
  6 C       -0.6410     3.4080     1.2070 C.ar  1 <1>  -0.1500 
  7 C        1.5150     3.3510     0.1060 C.ar  1 <1>   0.1170 
  8 C        0.6590     3.8680     1.0770 C.ar  1 <1>  -0.1500 
  9 N        2.8230     3.8520     0.0310 N.am  1 <1>  -0.5470 
 10 C        3.7220     3.8550    -1.0010 C.2   1 <1>   0.5690 
 11 O        3.4850     3.4100    -2.0950 O.2   1 <1>  -0.5700 
 12 C        5.0860     4.4740    -0.7520 C.3   1 <1>  -0.0990 
 13 C        6.1410     3.4620    -0.2720 C.3   1 <1>  -0.1600 
 14 C        5.8330     2.8840     1.1150 C.3   1 <1>  -0.2400 
 15 H        1.6720     1.9180    -1.4930 H     1 <1>   0.1500 
 16 H       -1.3000     3.8110     1.9560 H     1 <1>   0.1500 
 17 H        1.0090     4.6430     1.7360 H     1 <1>   0.1500 
 18 H        3.1610     4.3010     0.8800 H     1 <1>   0.3700 
 19 H        4.9970     5.2760    -0.0430 H     1 <1>   0.0800 
 20 H        5.4220     4.9040    -1.6790 H     1 <1>   0.0800 
 21 H        7.1000     3.9510    -0.2390 H     1 <1>   0.0800 
 22 H        6.2110     2.6580    -0.9860 H     1 <1>   0.0800 
 23 H        5.7380     3.6700     1.8430 H     1 <1>   0.0800 
 24 H        6.6340     2.2340     1.4220 H     1 <1>   0.0800 
 25 H        4.9260     2.3060     1.0970 H     1 <1>   0.0800 
@<TRIPOS>BOND
  1   1   2  1   
  2   2   3  ar  
  3   2   4  ar  
  4   3   5  1   
  5   3   6  ar  
  6   4   7  ar  
  7   4  15  1   
  8   6   8  ar  
  9   6  16  1   
 10   7   8  ar  
 11   7   9  1   
 12   8  17  1   
 13   9  10  am  
 14   9  18  1   
 15  10  11  2   
 16  10  12  1   
 17  12  13  1   
 18  12  19  1   
 19  12  20  1   
 20  13  14  1   
 21  13  21  1   
 22  13  22  1   
 23  14  23  1   
 24  14  24  1   
 25  14  25  1   
@<TRIPOS>SUBSTRUCTURE
  1 ****   7 GROUP 4 **** **** 0

# MOE 2024.06 (io_trps.svl 2023.06)
