@<TRIPOS>MOLECULE
NONAME
37 38 1 0 0 
SMALL
USER_CHARGES


@<TRIPOS>ATOM
  1 N        0.0240     0.0310    -0.0040 N.4   1 <1>  -0.9590 
  2 C        1.2710     0.7690     0.4000 C.3   1 <1>   0.4230 
  3 C       -1.2410     0.7060     0.4530 C.3   1 <1>   0.3430 
  4 C        0.0050    -1.4010     0.4560 C.3   1 <1>   0.3430 
  5 C        1.2450     2.2110    -0.1350 C.3   1 <1>  -0.1600 
  6 C        2.5230     0.0500    -0.1320 C.3   1 <1>  -0.1600 
  7 C       -2.4600     0.0210    -0.1670 C.3   1 <1>  -0.1600 
  8 C       -1.1820    -2.1410    -0.1630 C.3   1 <1>  -0.1600 
  9 C        2.5470     2.9600     0.1560 C.3   1 <1>   0.3430 
 10 C        3.8060     0.8300     0.1600 C.3   1 <1>   0.3430 
 11 C       -2.5130    -1.4690     0.1840 C.3   1 <1>  -0.1600 
 12 N        3.7050     2.2060    -0.3970 N.4   1 <1>  -0.9590 
 13 C        4.9790     2.9600    -0.1520 C.3   1 <1>   0.2630 
 14 H       -0.0260     0.0000    -1.0310 H     1 <1>   0.4500 
 15 H        1.3240     0.8020     1.4770 H     1 <1>   0.0800 
 16 H       -1.2510     1.7400     0.1540 H     1 <1>   0.0800 
 17 H       -1.3140     0.6620     1.5280 H     1 <1>   0.0800 
 18 H       -0.0700    -1.4410     1.5310 H     1 <1>   0.0800 
 19 H        0.9070    -1.9100     0.1600 H     1 <1>   0.0800 
 20 H        0.4600     2.7720     0.3380 H     1 <1>   0.0800 
 21 H        1.0720     2.2170    -1.1970 H     1 <1>   0.0800 
 22 H        2.4460    -0.1080    -1.1930 H     1 <1>   0.0800 
 23 H        2.6350    -0.9070     0.3440 H     1 <1>   0.0800 
 24 H       -2.4420     0.1470    -1.2350 H     1 <1>   0.0800 
 25 H       -3.3540     0.5000     0.1960 H     1 <1>   0.0800 
 26 H       -1.1940    -3.1540     0.2020 H     1 <1>   0.0800 
 27 H       -1.0610    -2.1890    -1.2320 H     1 <1>   0.0800 
 28 H        2.6680     3.0800     1.2220 H     1 <1>   0.0800 
 29 H        2.5040     3.9430    -0.2860 H     1 <1>   0.0800 
 30 H        4.6480     0.3170    -0.2800 H     1 <1>   0.0800 
 31 H        3.9680     0.8810     1.2260 H     1 <1>   0.0800 
 32 H       -3.3170    -1.9450    -0.3530 H     1 <1>   0.0800 
 33 H       -2.7120    -1.5850     1.2380 H     1 <1>   0.0800 
 34 H        3.5940     2.1390    -1.4220 H     1 <1>   0.4500 
 35 H        5.1580     3.0680     0.9060 H     1 <1>   0.0800 
 36 H        4.9250     3.9430    -0.5920 H     1 <1>   0.0800 
 37 H        5.8150     2.4380    -0.5900 H     1 <1>   0.0800 
@<TRIPOS>BOND
  1   1   2  1   
  2   1   3  1   
  3   1   4  1   
  4   1  14  1   
  5   2   5  1   
  6   2   6  1   
  7   2  15  1   
  8   3   7  1   
  9   3  16  1   
 10   3  17  1   
 11   4   8  1   
 12   4  18  1   
 13   4  19  1   
 14   5   9  1   
 15   5  20  1   
 16   5  21  1   
 17   6  10  1   
 18   6  22  1   
 19   6  23  1   
 20   7  11  1   
 21   7  24  1   
 22   7  25  1   
 23   8  11  1   
 24   8  26  1   
 25   8  27  1   
 26   9  12  1   
 27   9  28  1   
 28   9  29  1   
 29  10  12  1   
 30  10  30  1   
 31  10  31  1   
 32  11  32  1   
 33  11  33  1   
 34  12  13  1   
 35  12  34  1   
 36  13  35  1   
 37  13  36  1   
 38  13  37  1   
@<TRIPOS>SUBSTRUCTURE
  1 ****   2 GROUP 4 **** **** 0

# MOE 2024.06 (io_trps.svl 2023.06)
