@<TRIPOS>MOLECULE
NONAME
33 34 1 0 0 
SMALL
USER_CHARGES


@<TRIPOS>ATOM
  1 S        1.4060    -1.4120    -2.4960 S.3   1 <1>  -0.4600 
  2 C        1.7120     0.2080    -1.7300 C.3   1 <1>   0.0700 
  3 C        0.8000    -2.4030    -1.0910 C.3   1 <1>   0.0700 
  4 C        2.7290     0.0670    -0.5810 C.3   1 <1>   0.3430 
  5 C        1.4210    -1.9130     0.2320 C.3   1 <1>   0.3430 
  6 N        2.7800    -1.3210     0.0090 N.4   1 <1>  -0.9590 
  7 C        3.6510    -1.3930     1.2140 C.3   1 <1>   0.4860 
  8 C        5.0420    -0.9160     0.8440 C.ar  1 <1>  -0.1430 
  9 C        5.4920     0.3210     1.2890 C.ar  1 <1>  -0.1500 
 10 C        5.8700    -1.7040     0.0530 C.ar  1 <1>  -0.1500 
 11 C        6.7520     0.7710     0.9350 C.ar  1 <1>  -0.1500 
 12 C        7.1320    -1.2560    -0.3020 C.ar  1 <1>  -0.1500 
 13 C        7.5630    -0.0170     0.1410 C.ar  1 <1>   0.1010 
 14 S        9.1840     0.6450    -0.2770 S.3   1 <1>  -0.3310 
 15 C       10.0510    -0.6430    -1.2780 C.3   1 <1>  -0.0100 
 16 H        0.7650     0.5710    -1.3700 H     1 <1>   0.0800 
 17 H        2.0760     0.8700    -2.4960 H     1 <1>   0.0800 
 18 H        1.0700    -3.4250    -1.2940 H     1 <1>   0.0800 
 19 H       -0.2720    -2.3210    -1.0710 H     1 <1>   0.0800 
 20 H        2.4900     0.7870     0.1840 H     1 <1>   0.0800 
 21 H        3.7060     0.3160    -0.9640 H     1 <1>   0.0800 
 22 H        1.4820    -2.7480     0.9110 H     1 <1>   0.0800 
 23 H        0.7750    -1.1730     0.6750 H     1 <1>   0.0800 
 24 H        3.2260    -1.8930    -0.7240 H     1 <1>   0.4500 
 25 H        3.7080    -2.4090     1.5720 H     1 <1>   0.0800 
 26 H        3.2510    -0.7760     2.0020 H     1 <1>   0.0800 
 27 H        4.8770     0.9480     1.9140 H     1 <1>   0.1500 
 28 H        5.5510    -2.6720    -0.2930 H     1 <1>   0.1500 
 29 H        7.1130     1.7270     1.2730 H     1 <1>   0.1500 
 30 H        7.7610    -1.8740    -0.9140 H     1 <1>   0.1500 
 31 H       11.0290    -0.2640    -1.5150 H     1 <1>   0.0800 
 32 H        9.4800    -0.8090    -2.1740 H     1 <1>   0.0800 
 33 H       10.1230    -1.5350    -0.6830 H     1 <1>   0.0800 
@<TRIPOS>BOND
  1   1   2  1   
  2   1   3  1   
  3   2   4  1   
  4   2  16  1   
  5   2  17  1   
  6   3   5  1   
  7   3  18  1   
  8   3  19  1   
  9   4   6  1   
 10   4  20  1   
 11   4  21  1   
 12   5   6  1   
 13   5  22  1   
 14   5  23  1   
 15   6   7  1   
 16   6  24  1   
 17   7   8  1   
 18   7  25  1   
 19   7  26  1   
 20   8   9  ar  
 21   8  10  ar  
 22   9  11  ar  
 23   9  27  1   
 24  10  12  ar  
 25  10  28  1   
 26  11  13  ar  
 27  11  29  1   
 28  12  13  ar  
 29  12  30  1   
 30  13  14  1   
 31  14  15  1   
 32  15  31  1   
 33  15  32  1   
 34  15  33  1   
@<TRIPOS>SUBSTRUCTURE
  1 ****   8 GROUP 4 **** **** 0

# MOE 2024.06 (io_trps.svl 2023.06)
