@<TRIPOS>MOLECULE
NONAME
41 43 1 0 0 
SMALL
USER_CHARGES


@<TRIPOS>ATOM
  1 BR       0.7160     0.4660    -2.2720 Br    1 <1>  -0.1110 
  2 C        2.3920     0.9730    -1.4690 C.ar  1 <1>   0.1110 
  3 C        2.4110     1.3400    -0.1380 C.ar  1 <1>  -0.1500 
  4 C        3.5350     0.9580    -2.2450 C.ar  1 <1>  -0.1500 
  5 C        3.6200     1.7020     0.4320 C.ar  1 <1>  -0.1500 
  6 C        4.7350     1.3240    -1.6600 C.ar  1 <1>  -0.1500 
  7 C        4.7960     1.6980    -0.3190 C.ar  1 <1>   0.1170 
  8 N        6.0440     2.0570     0.2100 N.am  1 <1>  -0.5470 
  9 C        6.4890     2.3330     1.4720 C.2   1 <1>   0.5690 
 10 O        5.8010     2.3090     2.4650 O.2   1 <1>  -0.5700 
 11 C        7.9710     2.6930     1.5980 C.3   1 <1>   0.1710 
 12 N        8.8030     2.2080     0.4540 N.3   1 <1>  -0.8100 
 13 C       10.1000     2.9210     0.4110 C.3   1 <1>   0.1100 
 14 C        9.0600     0.7500     0.5700 C.3   1 <1>   0.1100 
 15 C       10.9830     2.4600    -0.7640 C.3   1 <1>   0.2090 
 16 C        9.9090     0.2060    -0.5950 C.3   1 <1>   0.2090 
 17 N       11.1840     0.9770    -0.7450 N.pl3 1 <1>  -0.8380 
 18 C       12.3860     0.3790    -1.0710 C.ar  1 <1>   0.7200 
 19 N       13.4380     1.1800    -1.2400 N.ar  1 <1>  -0.6200 
 20 N       12.3950    -0.9490    -1.1900 N.ar  1 <1>  -0.6200 
 21 C       14.5720     0.6000    -1.5500 C.ar  1 <1>   0.1600 
 22 C       13.5410    -1.5020    -1.5010 C.ar  1 <1>   0.1600 
 23 C       14.6800    -0.7600    -1.6940 C.ar  1 <1>  -0.1500 
 24 H        1.5040     1.3420     0.4390 H     1 <1>   0.1500 
 25 H        3.4820     0.6680    -3.2790 H     1 <1>   0.1500 
 26 H        3.6390     1.9910     1.4660 H     1 <1>   0.1500 
 27 H        5.6330     1.3180    -2.2510 H     1 <1>   0.1500 
 28 H        6.8250     2.0860    -0.4530 H     1 <1>   0.3700 
 29 H        8.3500     2.3010     2.5250 H     1 <1>   0.0800 
 30 H        8.0260     3.7660     1.6480 H     1 <1>   0.0800 
 31 H       10.6400     2.7570     1.3290 H     1 <1>   0.0800 
 32 H        9.9250     3.9780     0.3110 H     1 <1>   0.0800 
 33 H        8.1270     0.2150     0.5900 H     1 <1>   0.0800 
 34 H        9.5790     0.5420     1.4910 H     1 <1>   0.0800 
 35 H       11.9210     2.9810    -0.7040 H     1 <1>   0.0800 
 36 H       10.5110     2.7370    -1.6900 H     1 <1>   0.0800 
 37 H        9.3470     0.2780    -1.5090 H     1 <1>   0.0800 
 38 H       10.1050    -0.8340    -0.4090 H     1 <1>   0.0800 
 39 H       15.4360     1.2260    -1.6910 H     1 <1>   0.1500 
 40 H       13.5730    -2.5730    -1.6030 H     1 <1>   0.1500 
 41 H       15.6140    -1.2240    -1.9480 H     1 <1>   0.1500 
@<TRIPOS>BOND
  1   1   2  1   
  2   2   3  ar  
  3   2   4  ar  
  4   3   5  ar  
  5   3  24  1   
  6   4   6  ar  
  7   4  25  1   
  8   5   7  ar  
  9   5  26  1   
 10   6   7  ar  
 11   6  27  1   
 12   7   8  1   
 13   8   9  am  
 14   8  28  1   
 15   9  10  2   
 16   9  11  1   
 17  11  12  1   
 18  11  29  1   
 19  11  30  1   
 20  12  13  1   
 21  12  14  1   
 22  13  15  1   
 23  13  31  1   
 24  13  32  1   
 25  14  16  1   
 26  14  33  1   
 27  14  34  1   
 28  15  17  1   
 29  15  35  1   
 30  15  36  1   
 31  16  17  1   
 32  16  37  1   
 33  16  38  1   
 34  17  18  1   
 35  18  19  ar  
 36  18  20  ar  
 37  19  21  ar  
 38  20  22  ar  
 39  21  23  ar  
 40  21  39  1   
 41  22  23  ar  
 42  22  40  1   
 43  23  41  1   
@<TRIPOS>SUBSTRUCTURE
  1 ****  14 GROUP 4 **** **** 0

# MOE 2024.06 (io_trps.svl 2023.06)
