@<TRIPOS>MOLECULE
NONAME
48 52 1 0 0 
SMALL
USER_CHARGES


@<TRIPOS>ATOM
  1 O        0.1590    -0.4170    -0.5820 O.co2 1 <1>  -0.9000 
  2 C        1.1840    -1.0250    -0.2210 C.2   1 <1>   0.9790 
  3 O        2.2680    -0.4110    -0.2240 O.co2 1 <1>  -0.9000 
  4 C        1.1200    -2.4210     0.1920 C.ar  1 <1>  -0.1790 
  5 C       -0.0850    -3.1290     0.1960 C.ar  1 <1>  -0.1500 
  6 C        2.2600    -3.1120     0.6090 C.ar  1 <1>  -0.1500 
  7 C       -0.1580    -4.4580     0.5780 C.ar  1 <1>  -0.1440 
  8 C        2.2020    -4.4370     0.9930 C.ar  1 <1>  -0.1500 
  9 C        0.9990    -5.1280     0.9700 C.ar  1 <1>   0.1000 
 10 C       -1.4970    -5.1970     0.6230 C.3   1 <1>   0.0640 
 11 N        0.9540    -6.4710     1.3040 N.pl3 1 <1>  -0.8690 
 12 C       -1.3430    -6.8650     0.5090 C.3   1 <1>  -0.0800 
 13 C       -2.5710    -4.7200    -0.5220 C.3   1 <1>  -0.0800 
 14 C        0.1340    -7.2960     0.4060 C.3   1 <1>   0.4330 
 15 C       -2.2460    -7.3640    -0.7690 C.3   1 <1>  -0.0800 
 16 C       -2.4290    -6.0440    -0.6350 C.3   1 <1>  -0.1600 
 17 C       -3.4860    -5.2250    -1.7790 C.3   1 <1>  -0.1600 
 18 C        0.3390    -8.7720     0.7290 C.ar  1 <1>  -0.1430 
 19 C       -3.3630    -6.8900    -1.8620 C.3   1 <1>  -0.1600 
 20 C        0.6200    -9.6750    -0.2870 C.ar  1 <1>  -0.1500 
 21 C        0.2480    -9.2310     2.0370 C.ar  1 <1>  -0.1500 
 22 C        0.8030   -11.0260    -0.0020 C.ar  1 <1>   0.0830 
 23 C        0.4300   -10.5720     2.3270 C.ar  1 <1>  -0.1500 
 24 O        1.0780   -11.9660    -0.9410 O.3   1 <1>  -0.3620 
 25 C        0.7060   -11.4650     1.3080 C.ar  1 <1>  -0.1500 
 26 C        1.1920   -11.6320    -2.3060 C.3   1 <1>   0.0400 
 27 H       -0.9720    -2.5980    -0.1050 H     1 <1>   0.1500 
 28 H        3.1980    -2.5840     0.6240 H     1 <1>   0.1500 
 29 H        3.0960    -4.9380     1.3080 H     1 <1>   0.1500 
 30 H       -1.9080    -4.9770     1.5960 H     1 <1>   0.0800 
 31 H        1.8640    -6.9090     1.4630 H     1 <1>   0.4000 
 32 H       -1.7410    -7.3010     1.4120 H     1 <1>   0.0800 
 33 H       -3.3300    -4.2730     0.1030 H     1 <1>   0.0800 
 34 H        0.4780    -7.1030    -0.5970 H     1 <1>   0.0800 
 35 H       -1.4970    -7.7720    -1.4320 H     1 <1>   0.0800 
 36 H       -1.5330    -5.8560    -1.3740 H     1 <1>   0.0800 
 37 H       -3.3120    -6.2170     0.1240 H     1 <1>   0.0800 
 38 H       -3.1280    -4.7780    -2.6940 H     1 <1>   0.0800 
 39 H       -4.5160    -4.9280    -1.6540 H     1 <1>   0.0800 
 40 H       -4.3170    -7.3450    -1.6390 H     1 <1>   0.0800 
 41 H       -3.0850    -7.1960    -2.8590 H     1 <1>   0.0800 
 42 H        0.6920    -9.3180    -1.2960 H     1 <1>   0.1500 
 43 H        0.0350    -8.5370     2.8330 H     1 <1>   0.1500 
 44 H        0.3560   -10.9180     3.3430 H     1 <1>   0.1500 
 45 H        0.8480   -12.5090     1.5220 H     1 <1>   0.1500 
 46 H        1.4080   -12.5320    -2.8520 H     1 <1>   0.0800 
 47 H        1.9970   -10.9290    -2.4270 H     1 <1>   0.0800 
 48 H        0.2590   -11.2150    -2.6420 H     1 <1>   0.0800 
@<TRIPOS>BOND
  1   1   2  ar  
  2   2   3  ar  
  3   2   4  1   
  4   4   5  ar  
  5   4   6  ar  
  6   5   7  ar  
  7   5  27  1   
  8   6   8  ar  
  9   6  28  1   
 10   7   9  ar  
 11   7  10  1   
 12   8   9  ar  
 13   8  29  1   
 14   9  11  1   
 15  10  12  1   
 16  10  13  1   
 17  10  30  1   
 18  11  14  1   
 19  11  31  1   
 20  12  14  1   
 21  12  15  1   
 22  12  32  1   
 23  13  16  1   
 24  13  17  1   
 25  13  33  1   
 26  14  18  1   
 27  14  34  1   
 28  15  16  1   
 29  15  19  1   
 30  15  35  1   
 31  16  36  1   
 32  16  37  1   
 33  17  19  1   
 34  17  38  1   
 35  17  39  1   
 36  18  20  ar  
 37  18  21  ar  
 38  19  40  1   
 39  19  41  1   
 40  20  22  ar  
 41  20  42  1   
 42  21  23  ar  
 43  21  43  1   
 44  22  24  1   
 45  22  25  ar  
 46  23  25  ar  
 47  23  44  1   
 48  24  26  1   
 49  25  45  1   
 50  26  46  1   
 51  26  47  1   
 52  26  48  1   
@<TRIPOS>SUBSTRUCTURE
  1 ****  14 GROUP 4 **** **** 0

# MOE 2024.06 (io_trps.svl 2023.06)
