@<TRIPOS>MOLECULE
NONAME
35 36 1 0 0 
SMALL
USER_CHARGES


@<TRIPOS>ATOM
  1 CL      -0.4690    -0.2620     1.0740 Cl    1 <1>  -0.1770 
  2 C       -0.1700     1.3520     0.4820 C.ar  1 <1>   0.1770 
  3 C        1.1330     1.7940     0.3640 C.ar  1 <1>  -0.1500 
  4 C       -1.2440     2.1550     0.1420 C.ar  1 <1>  -0.1500 
  5 C        1.3710     3.0820    -0.1090 C.ar  1 <1>   0.0830 
  6 C       -1.0050     3.4360    -0.3280 C.ar  1 <1>  -0.1500 
  7 O        2.6090     3.6130    -0.2620 O.3   1 <1>  -0.3630 
  8 C        0.2970     3.8920    -0.4510 C.ar  1 <1>  -0.1500 
  9 C        3.7670     2.8820     0.0550 C.3   1 <1>   0.1200 
 10 C        4.9650     3.7850    -0.2420 C.3   1 <1>  -0.1600 
 11 C        6.2780     3.0780     0.0860 C.3   1 <1>   0.3430 
 12 N        7.4330     3.9380    -0.2910 N.4   1 <1>  -0.9590 
 13 C        8.7340     3.2300    -0.2040 C.3   1 <1>   0.3430 
 14 C        7.5850     5.1620     0.5380 C.3   1 <1>   0.3430 
 15 C        9.7700     4.3450    -0.1740 C.3   1 <1>  -0.1600 
 16 C        9.0300     5.5920     0.3210 C.3   1 <1>  -0.1600 
 17 H        1.9240     1.1260     0.6430 H     1 <1>   0.1500 
 18 H       -2.2470     1.7820     0.2450 H     1 <1>   0.1500 
 19 H       -1.8290     4.0750    -0.5970 H     1 <1>   0.1500 
 20 H        0.4870     4.8860    -0.8160 H     1 <1>   0.1500 
 21 H        3.7840     1.9950    -0.5560 H     1 <1>   0.0800 
 22 H        3.7240     2.6190     1.0990 H     1 <1>   0.0800 
 23 H        4.8660     4.6770     0.3510 H     1 <1>   0.0800 
 24 H        4.9430     4.0430    -1.2860 H     1 <1>   0.0800 
 25 H        6.3250     2.1520    -0.4650 H     1 <1>   0.0800 
 26 H        6.3180     2.8470     1.1390 H     1 <1>   0.0800 
 27 H        7.3180     4.2440    -1.2670 H     1 <1>   0.4500 
 28 H        8.8870     2.5660    -1.0400 H     1 <1>   0.0800 
 29 H        8.7850     2.6690     0.7150 H     1 <1>   0.0800 
 30 H        7.4350     4.9190     1.5790 H     1 <1>   0.0800 
 31 H        6.8910     5.9330     0.2460 H     1 <1>   0.0800 
 32 H       10.1590     4.5090    -1.1640 H     1 <1>   0.0800 
 33 H       10.5880     4.0820     0.4740 H     1 <1>   0.0800 
 34 H        9.4500     5.9690     1.2380 H     1 <1>   0.0800 
 35 H        9.0710     6.3730    -0.4190 H     1 <1>   0.0800 
@<TRIPOS>BOND
  1   1   2  1   
  2   2   3  ar  
  3   2   4  ar  
  4   3   5  ar  
  5   3  17  1   
  6   4   6  ar  
  7   4  18  1   
  8   5   7  1   
  9   5   8  ar  
 10   6   8  ar  
 11   6  19  1   
 12   7   9  1   
 13   8  20  1   
 14   9  10  1   
 15   9  21  1   
 16   9  22  1   
 17  10  11  1   
 18  10  23  1   
 19  10  24  1   
 20  11  12  1   
 21  11  25  1   
 22  11  26  1   
 23  12  13  1   
 24  12  14  1   
 25  12  27  1   
 26  13  15  1   
 27  13  28  1   
 28  13  29  1   
 29  14  16  1   
 30  14  30  1   
 31  14  31  1   
 32  15  16  1   
 33  15  32  1   
 34  15  33  1   
 35  16  34  1   
 36  16  35  1   
@<TRIPOS>SUBSTRUCTURE
  1 ****   9 GROUP 4 **** **** 0

# MOE 2024.06 (io_trps.svl 2023.06)
