@<TRIPOS>MOLECULE
NONAME
45 47 1 0 0 
SMALL
USER_CHARGES


@<TRIPOS>ATOM
  1 S       -0.2250     0.3670     0.4470 S.o2  1 <1>   1.5010 
  2 O        0.0750     0.8920     1.7620 O.2   1 <1>  -0.6500 
  3 O       -0.4280     1.2810    -0.6560 O.2   1 <1>  -0.6500 
  4 N        1.0690    -0.6410     0.0220 N.am  1 <1>  -0.8490 
  5 C       -1.6060    -0.7770     0.5470 C.2   1 <1>  -0.0630 
  6 C        1.4600    -1.5440     1.1210 C.3   1 <1>   0.1960 
  7 C        2.2320     0.1450    -0.4210 C.3   1 <1>   0.1960 
  8 C       -2.3890    -0.9560     1.6800 C.2   1 <1>   0.1390 
  9 C       -2.1380    -1.6430    -0.3520 C.2   1 <1>  -0.3020 
 10 C        2.5800    -2.5060     0.6930 C.3   1 <1>   0.1400 
 11 C        3.3990    -0.7490    -0.8800 C.3   1 <1>   0.1400 
 12 N       -3.3140    -1.8510     1.5140 N.2   1 <1>  -0.7070 
 13 N       -3.1620    -2.2750     0.2490 N.pl3 1 <1>   0.3140 
 14 N        3.7610    -1.7560     0.1660 N.am  1 <1>  -0.6600 
 15 C       -4.0390    -3.3050    -0.3450 C.3   1 <1>   0.0960 
 16 C        5.0440    -2.0520     0.5710 C.2   1 <1>   0.5690 
 17 C       -3.3410    -4.6700    -0.3860 C.3   1 <1>  -0.2400 
 18 O        5.2340    -2.8960     1.4200 O.2   1 <1>  -0.5700 
 19 C        6.2690    -1.3050    -0.0250 C.3   1 <1>   0.2610 
 20 O        6.3170    -1.4320    -1.4230 O.3   1 <1>  -0.5600 
 21 C        7.6400    -1.8280     0.4060 C.3   1 <1>  -0.1600 
 22 C        6.9770    -2.6080    -1.7680 C.3   1 <1>   0.1200 
 23 C        7.9420    -2.9060    -0.6230 C.3   1 <1>  -0.1600 
 24 H        0.6100    -2.1280     1.4310 H     1 <1>   0.0800 
 25 H        1.7990    -0.9740     1.9700 H     1 <1>   0.0800 
 26 H        2.5690     0.7830     0.3790 H     1 <1>   0.0800 
 27 H        1.9480     0.7760    -1.2470 H     1 <1>   0.0800 
 28 H       -2.2460    -0.4150     2.6020 H     1 <1>   0.1500 
 29 H       -1.8390    -1.8310    -1.3670 H     1 <1>   0.1500 
 30 H        2.2100    -3.1630    -0.0740 H     1 <1>   0.0800 
 31 H        2.8610    -3.1120     1.5370 H     1 <1>   0.0800 
 32 H        4.2360    -0.1190    -1.1180 H     1 <1>   0.0800 
 33 H        3.1130    -1.2670    -1.7790 H     1 <1>   0.0800 
 34 H       -4.3090    -2.9920    -1.3370 H     1 <1>   0.0800 
 35 H       -4.9330    -3.3670     0.2490 H     1 <1>   0.0800 
 36 H       -2.4530    -4.6230    -0.9910 H     1 <1>   0.0800 
 37 H       -4.0040    -5.4050    -0.8060 H     1 <1>   0.0800 
 38 H       -3.0790    -4.9790     0.6110 H     1 <1>   0.0800 
 39 H        6.1790    -0.2610     0.2120 H     1 <1>   0.0800 
 40 H        7.6530    -2.1970     1.4160 H     1 <1>   0.0800 
 41 H        8.3560    -1.0290     0.3210 H     1 <1>   0.0800 
 42 H        7.4880    -2.4550    -2.7030 H     1 <1>   0.0800 
 43 H        6.2420    -3.3890    -1.8710 H     1 <1>   0.0800 
 44 H        7.7370    -3.8850    -0.2250 H     1 <1>   0.0800 
 45 H        8.9660    -2.8680    -0.9520 H     1 <1>   0.0800 
@<TRIPOS>BOND
  1   1   2  2   
  2   1   3  2   
  3   1   4  am  
  4   1   5  1   
  5   4   6  1   
  6   4   7  1   
  7   5   8  1   
  8   5   9  2   
  9   6  10  1   
 10   6  24  1   
 11   6  25  1   
 12   7  11  1   
 13   7  26  1   
 14   7  27  1   
 15   8  12  2   
 16   8  28  1   
 17   9  13  1   
 18   9  29  1   
 19  10  14  1   
 20  10  30  1   
 21  10  31  1   
 22  11  14  1   
 23  11  32  1   
 24  11  33  1   
 25  12  13  1   
 26  13  15  1   
 27  14  16  am  
 28  15  17  1   
 29  15  34  1   
 30  15  35  1   
 31  16  18  2   
 32  16  19  1   
 33  17  36  1   
 34  17  37  1   
 35  17  38  1   
 36  19  20  1   
 37  19  21  1   
 38  19  39  1   
 39  20  22  1   
 40  21  23  1   
 41  21  40  1   
 42  21  41  1   
 43  22  23  1   
 44  22  42  1   
 45  22  43  1   
 46  23  44  1   
 47  23  45  1   
@<TRIPOS>SUBSTRUCTURE
  1 ****   6 GROUP 4 **** **** 0

# MOE 2024.06 (io_trps.svl 2023.06)
