@<TRIPOS>MOLECULE
NONAME
40 41 1 0 0 
SMALL
USER_CHARGES


@<TRIPOS>ATOM
  1 F        0.5450     0.4650    -0.8060 F     1 <1>  -0.3400 
  2 C        1.5380     1.2160    -0.3420 C.3   1 <1>   1.1640 
  3 F        1.7620     2.1420    -1.2680 F     1 <1>  -0.3400 
  4 F        1.0570     1.8550     0.7160 F     1 <1>  -0.3400 
  5 C        2.7900     0.3940     0.0040 C.ar  1 <1>  -0.1440 
  6 C        4.0650     0.9220    -0.1740 C.ar  1 <1>  -0.1500 
  7 C        2.6730    -0.8960     0.5130 C.ar  1 <1>  -0.1500 
  8 C        5.1970     0.1880     0.1400 C.ar  1 <1>   0.0830 
  9 C        3.7990    -1.6370     0.8290 C.ar  1 <1>  -0.1500 
 10 O        6.3910     0.7930    -0.0710 O.3   1 <1>  -0.3630 
 11 C        5.0600    -1.1010     0.6450 C.ar  1 <1>  -0.1500 
 12 C        7.6080     0.1410     0.2100 C.3   1 <1>   0.1200 
 13 C        8.7500     1.0940    -0.1410 C.3   1 <1>  -0.1600 
 14 C       10.1070     0.4500     0.1500 C.3   1 <1>   0.1400 
 15 N       11.1910     1.3870    -0.2010 N.am  1 <1>  -0.4200 
 16 C       11.7870     1.4700    -1.4260 C.2   1 <1>   0.6900 
 17 C       11.7680     2.2860     0.6460 C.2   1 <1>   0.5690 
 18 O       11.5440     0.7490    -2.3680 O.2   1 <1>  -0.5700 
 19 N       12.7200     2.4410    -1.4540 N.am  1 <1>  -0.7300 
 20 O       11.4830     2.4470     1.8100 O.2   1 <1>  -0.5700 
 21 C       12.8550     3.0590    -0.1290 C.3   1 <1>   0.3610 
 22 C       14.2690     2.8000     0.3950 C.3   1 <1>  -0.2400 
 23 C       12.5580     4.5550    -0.2530 C.3   1 <1>  -0.2400 
 24 H        4.2020     1.9180    -0.5600 H     1 <1>   0.1500 
 25 H        1.7000    -1.3350     0.6670 H     1 <1>   0.1500 
 26 H        3.6910    -2.6340     1.2200 H     1 <1>   0.1500 
 27 H        5.9150    -1.6980     0.8980 H     1 <1>   0.1500 
 28 H        7.6590    -0.7520    -0.3880 H     1 <1>   0.0800 
 29 H        7.6250    -0.1050     1.2580 H     1 <1>   0.0800 
 30 H        8.6490     1.9910     0.4450 H     1 <1>   0.0800 
 31 H        8.6900     1.3400    -1.1870 H     1 <1>   0.0800 
 32 H       10.2220    -0.4530    -0.4270 H     1 <1>   0.0800 
 33 H       10.1830     0.2010     1.1950 H     1 <1>   0.0800 
 34 H       13.4030     2.5360    -2.2040 H     1 <1>   0.3700 
 35 H       14.4680     1.7440     0.4300 H     1 <1>   0.0800 
 36 H       14.3610     3.1920     1.3920 H     1 <1>   0.0800 
 37 H       15.0000     3.2810    -0.2300 H     1 <1>   0.0800 
 38 H       11.5750     4.7070    -0.6620 H     1 <1>   0.0800 
 39 H       13.2840     5.0360    -0.8830 H     1 <1>   0.0800 
 40 H       12.5910     5.0120     0.7200 H     1 <1>   0.0800 
@<TRIPOS>BOND
  1   1   2  1   
  2   2   3  1   
  3   2   4  1   
  4   2   5  1   
  5   5   6  ar  
  6   5   7  ar  
  7   6   8  ar  
  8   6  24  1   
  9   7   9  ar  
 10   7  25  1   
 11   8  10  1   
 12   8  11  ar  
 13   9  11  ar  
 14   9  26  1   
 15  10  12  1   
 16  11  27  1   
 17  12  13  1   
 18  12  28  1   
 19  12  29  1   
 20  13  14  1   
 21  13  30  1   
 22  13  31  1   
 23  14  15  1   
 24  14  32  1   
 25  14  33  1   
 26  15  16  am  
 27  15  17  am  
 28  16  18  2   
 29  16  19  am  
 30  17  20  2   
 31  17  21  1   
 32  19  21  1   
 33  19  34  1   
 34  21  22  1   
 35  21  23  1   
 36  22  35  1   
 37  22  36  1   
 38  22  37  1   
 39  23  38  1   
 40  23  39  1   
 41  23  40  1   
@<TRIPOS>SUBSTRUCTURE
  1 ****  12 GROUP 4 **** **** 0

# MOE 2024.06 (io_trps.svl 2023.06)
