@<TRIPOS>MOLECULE
NONAME
34 34 1 0 0 
SMALL
USER_CHARGES


@<TRIPOS>ATOM
  1 O        0.1700    -0.6990    -1.4210 O.2   1 <1>  -0.5700 
  2 C        0.5570    -1.4540    -0.5490 C.2   1 <1>   0.7800 
  3 O       -0.3150    -2.2080     0.1360 O.3   1 <1>  -0.2330 
  4 N        1.8930    -1.5760    -0.2320 N.am  1 <1>  -0.6600 
  5 C       -1.6710    -2.1430     0.0660 C.ar  1 <1>   0.0820 
  6 C        2.4090    -2.4680     0.8450 C.3   1 <1>   0.0600 
  7 C        2.9440    -0.8110    -0.9580 C.3   1 <1>   0.0600 
  8 C       -2.3600    -0.9380    -0.0210 C.ar  1 <1>  -0.1500 
  9 C       -2.3750    -3.3360     0.1140 C.ar  1 <1>  -0.1500 
 10 C       -3.7430    -0.9320    -0.0690 C.ar  1 <1>  -0.1500 
 11 C       -3.7580    -3.3300     0.0670 C.ar  1 <1>  -0.1500 
 12 C       -4.4460    -2.1300    -0.0200 C.ar  1 <1>   0.0820 
 13 O       -5.8030    -2.1860    -0.0840 O.3   1 <1>  -0.2320 
 14 C       -6.6660    -1.3480     0.5100 C.2   1 <1>   0.7800 
 15 O       -6.2690    -0.5050     1.2920 O.2   1 <1>  -0.5700 
 16 N       -8.0030    -1.4900     0.2080 N.am  1 <1>  -0.6600 
 17 C       -9.0440    -0.6340     0.8430 C.3   1 <1>   0.0600 
 18 C       -8.5310    -2.4910    -0.7600 C.3   1 <1>   0.0600 
 19 H        1.6060    -2.9480     1.3760 H     1 <1>   0.0800 
 20 H        2.9840    -1.8910     1.5470 H     1 <1>   0.0800 
 21 H        3.0390    -3.2270     0.4140 H     1 <1>   0.0800 
 22 H        2.5120    -0.2060    -1.7370 H     1 <1>   0.0800 
 23 H        3.6460    -1.4920    -1.4050 H     1 <1>   0.0800 
 24 H        3.4630    -0.1650    -0.2720 H     1 <1>   0.0800 
 25 H       -1.8240    -0.0060    -0.0510 H     1 <1>   0.1500 
 26 H       -1.8380    -4.2650     0.1870 H     1 <1>   0.1500 
 27 H       -4.2670     0.0040    -0.1450 H     1 <1>   0.1500 
 28 H       -4.3060    -4.2540     0.0990 H     1 <1>   0.1500 
 29 H       -8.6040     0.0500     1.5480 H     1 <1>   0.0800 
 30 H       -9.7540    -1.2520     1.3640 H     1 <1>   0.0800 
 31 H       -9.5560    -0.0640     0.0870 H     1 <1>   0.0800 
 32 H       -7.7340    -3.0390    -1.2330 H     1 <1>   0.0800 
 33 H       -9.0990    -1.9900    -1.5240 H     1 <1>   0.0800 
 34 H       -9.1690    -3.1880    -0.2470 H     1 <1>   0.0800 
@<TRIPOS>BOND
  1   1   2  2   
  2   2   3  1   
  3   2   4  am  
  4   3   5  1   
  5   4   6  1   
  6   4   7  1   
  7   5   8  ar  
  8   5   9  ar  
  9   6  19  1   
 10   6  20  1   
 11   6  21  1   
 12   7  22  1   
 13   7  23  1   
 14   7  24  1   
 15   8  10  ar  
 16   8  25  1   
 17   9  11  ar  
 18   9  26  1   
 19  10  12  ar  
 20  10  27  1   
 21  11  12  ar  
 22  11  28  1   
 23  12  13  1   
 24  13  14  1   
 25  14  15  2   
 26  14  16  am  
 27  16  17  1   
 28  16  18  1   
 29  17  29  1   
 30  17  30  1   
 31  17  31  1   
 32  18  32  1   
 33  18  33  1   
 34  18  34  1   
@<TRIPOS>SUBSTRUCTURE
  1 ****   8 GROUP 4 **** **** 0

# MOE 2024.06 (io_trps.svl 2023.06)
