@<TRIPOS>MOLECULE
NONAME
49 51 1 0 0 
SMALL
USER_CHARGES


@<TRIPOS>ATOM
  1 O        1.5180     3.1720    -2.3840 O.2   1 <1>  -0.5700 
  2 C        0.8330     3.0080    -1.3960 C.2   1 <1>   0.5440 
  3 N        1.1690     3.4850    -0.1590 N.am  1 <1>  -0.4200 
  4 C       -0.3740     2.2390    -1.2860 C.ar  1 <1>   0.0860 
  5 C        0.2770     2.9860     0.7540 C.2   1 <1>   0.5440 
  6 C        2.3290     4.3750     0.1280 C.3   1 <1>   0.2810 
  7 C       -0.7180     2.2220     0.0570 C.ar  1 <1>   0.0860 
  8 C       -1.1590     1.5750    -2.2210 C.ar  1 <1>  -0.1500 
  9 O        0.3620     3.1480     1.9520 O.2   1 <1>  -0.5700 
 10 C        3.3430     3.7090     1.0900 C.2   1 <1>   0.5690 
 11 C        1.8000     5.7360     0.6100 C.3   1 <1>  -0.2400 
 12 C       -1.8510     1.5390     0.4830 C.ar  1 <1>  -0.1500 
 13 C       -2.2890     0.8950    -1.7960 C.ar  1 <1>  -0.1500 
 14 O        3.7990     4.3510     2.0080 O.2   1 <1>  -0.5700 
 15 N        3.7730     2.4150     0.8960 N.am  1 <1>  -0.6600 
 16 C       -2.6330     0.8770    -0.4490 C.ar  1 <1>  -0.1500 
 17 C        3.9170     1.7620    -0.4410 C.3   1 <1>   0.1400 
 18 C        4.3710     1.6470     2.0310 C.3   1 <1>   0.1400 
 19 C        5.3880     1.3810    -0.7080 C.3   1 <1>   0.3430 
 20 C        5.8460     1.3250     1.7430 C.3   1 <1>   0.3430 
 21 N        6.0080     0.6080     0.4290 N.4   1 <1>  -0.9590 
 22 C        7.4310     0.3050     0.1510 C.3   1 <1>   0.4810 
 23 C        7.4880    -0.6030    -1.0660 C.2   1 <1>  -0.2760 
 24 C        7.9420    -0.1950    -2.2570 C.2   1 <1>  -0.3000 
 25 C        7.0120    -2.0320    -0.8330 C.3   1 <1>  -0.1020 
 26 H        2.8520     4.5540    -0.7930 H     1 <1>   0.0800 
 27 H       -0.8840     1.5950    -3.2620 H     1 <1>   0.1500 
 28 H        1.3090     5.6350     1.5620 H     1 <1>   0.0800 
 29 H        1.1130     6.1500    -0.1070 H     1 <1>   0.0800 
 30 H        2.6190     6.4220     0.7310 H     1 <1>   0.0800 
 31 H       -2.1070     1.5320     1.5290 H     1 <1>   0.1500 
 32 H       -2.9070     0.3780    -2.5110 H     1 <1>   0.1500 
 33 H       -3.5140     0.3450    -0.1300 H     1 <1>   0.1500 
 34 H        3.6000     2.4270    -1.2230 H     1 <1>   0.0800 
 35 H        3.2960     0.8840    -0.4810 H     1 <1>   0.0800 
 36 H        3.8160     0.7370     2.1750 H     1 <1>   0.0800 
 37 H        4.3020     2.2110     2.9460 H     1 <1>   0.0800 
 38 H        5.9470     2.2880    -0.8690 H     1 <1>   0.0800 
 39 H        5.4410     0.8020    -1.6170 H     1 <1>   0.0800 
 40 H        6.2370     0.7210     2.5450 H     1 <1>   0.0800 
 41 H        6.3960     2.2520     1.7250 H     1 <1>   0.0800 
 42 H        5.5240    -0.2940     0.4860 H     1 <1>   0.4500 
 43 H        7.8890    -0.1870     0.9930 H     1 <1>   0.0800 
 44 H        7.9690     1.2180    -0.0480 H     1 <1>   0.0800 
 45 H        8.0000    -0.8260    -3.1290 H     1 <1>   0.1500 
 46 H        8.3040     0.7970    -2.4760 H     1 <1>   0.1500 
 47 H        5.9700    -2.0610    -0.5700 H     1 <1>   0.0800 
 48 H        7.5840    -2.4960    -0.0480 H     1 <1>   0.0800 
 49 H        7.1430    -2.6220    -1.7250 H     1 <1>   0.0800 
@<TRIPOS>BOND
  1   1   2  2   
  2   2   3  am  
  3   2   4  1   
  4   3   5  am  
  5   3   6  1   
  6   4   7  ar  
  7   4   8  ar  
  8   5   7  1   
  9   5   9  2   
 10   6  10  1   
 11   6  11  1   
 12   6  26  1   
 13   7  12  ar  
 14   8  13  ar  
 15   8  27  1   
 16  10  14  2   
 17  10  15  am  
 18  11  28  1   
 19  11  29  1   
 20  11  30  1   
 21  12  16  ar  
 22  12  31  1   
 23  13  16  ar  
 24  13  32  1   
 25  15  17  1   
 26  15  18  1   
 27  16  33  1   
 28  17  19  1   
 29  17  34  1   
 30  17  35  1   
 31  18  20  1   
 32  18  36  1   
 33  18  37  1   
 34  19  21  1   
 35  19  38  1   
 36  19  39  1   
 37  20  21  1   
 38  20  40  1   
 39  20  41  1   
 40  21  22  1   
 41  21  42  1   
 42  22  23  1   
 43  22  43  1   
 44  22  44  1   
 45  23  24  2   
 46  23  25  1   
 47  24  45  1   
 48  24  46  1   
 49  25  47  1   
 50  25  48  1   
 51  25  49  1   
@<TRIPOS>SUBSTRUCTURE
  1 ****  17 GROUP 4 **** **** 0

# MOE 2024.06 (io_trps.svl 2023.06)
