@<TRIPOS>MOLECULE
NONAME
53 55 1 0 0 
SMALL
USER_CHARGES


@<TRIPOS>ATOM
  1 O        1.0070    -1.0290     3.2610 O.2   1 <1>  -0.5700 
  2 C        0.5700    -1.3680     2.1880 C.2   1 <1>   0.5690 
  3 N        1.0100    -0.9080     0.9810 N.am  1 <1>  -0.5470 
  4 C       -0.5730    -2.3850     2.1350 C.3   1 <1>   0.1710 
  5 C        1.9800     0.0220     0.5760 C.ar  1 <1>   0.1170 
  6 N       -1.3660    -2.3250     0.8680 N.3   1 <1>  -0.8100 
  7 C        2.0310     0.4120    -0.7640 C.ar  1 <1>  -0.1430 
  8 C        2.8990     0.5690     1.4660 C.ar  1 <1>  -0.1500 
  9 C       -2.2590    -1.1380     0.8620 C.3   1 <1>   0.1100 
 10 C       -2.1860    -3.5460     0.7000 C.3   1 <1>   0.1100 
 11 C        2.9840     1.3280    -1.1810 C.ar  1 <1>  -0.1500 
 12 C        1.0530    -0.1530    -1.7880 C.3   1 <1>  -0.0970 
 13 C        3.8450     1.4820     1.0410 C.ar  1 <1>  -0.1500 
 14 C       -3.0730    -1.0240    -0.4410 C.3   1 <1>   0.2090 
 15 C       -3.0150    -3.5220    -0.6020 C.3   1 <1>   0.2090 
 16 C        3.8950     1.8670    -0.2880 C.ar  1 <1>  -0.1430 
 17 N       -3.8330    -2.2770    -0.7210 N.pl3 1 <1>  -0.8380 
 18 C        4.9310     2.8700    -0.7590 C.3   1 <1>  -0.0970 
 19 C       -5.2090    -2.2800    -0.4860 C.ar  1 <1>   0.1000 
 20 C       -6.0330    -1.4630    -1.2480 C.ar  1 <1>  -0.1500 
 21 C       -5.7930    -3.0720     0.4990 C.ar  1 <1>  -0.1500 
 22 C       -7.4000    -1.4210    -1.0410 C.ar  1 <1>   0.0820 
 23 C       -7.1590    -3.0440     0.7140 C.ar  1 <1>  -0.1500 
 24 O       -8.1160    -0.5840    -1.8350 O.3   1 <1>  -0.3630 
 25 C       -7.9670    -2.2210    -0.0510 C.ar  1 <1>  -0.1500 
 26 C       -9.5180    -0.4940    -1.7250 C.3   1 <1>   0.0400 
 27 H        0.4400    -1.2960     0.2240 H     1 <1>   0.3700 
 28 H       -1.2160    -2.2330     2.9830 H     1 <1>   0.0800 
 29 H       -0.1270    -3.3590     2.2290 H     1 <1>   0.0800 
 30 H        2.8830     0.2840     2.5000 H     1 <1>   0.1500 
 31 H       -1.6780    -0.2400     0.9790 H     1 <1>   0.0800 
 32 H       -2.9490    -1.1940     1.6870 H     1 <1>   0.0800 
 33 H       -2.8560    -3.6510     1.5360 H     1 <1>   0.0800 
 34 H       -1.5430    -4.4080     0.6780 H     1 <1>   0.0800 
 35 H        3.0230     1.6290    -2.2130 H     1 <1>   0.1500 
 36 H        1.1600    -1.2210    -1.8500 H     1 <1>   0.0800 
 37 H        1.2340     0.2610    -2.7630 H     1 <1>   0.0800 
 38 H        0.0440     0.0850    -1.5040 H     1 <1>   0.0800 
 39 H        4.5420     1.8900     1.7510 H     1 <1>   0.1500 
 40 H       -2.4070    -0.8270    -1.2620 H     1 <1>   0.0800 
 41 H       -3.7540    -0.1950    -0.3610 H     1 <1>   0.0800 
 42 H       -3.6580    -4.3840    -0.6410 H     1 <1>   0.0800 
 43 H       -2.3470    -3.5760    -1.4420 H     1 <1>   0.0800 
 44 H        5.2350     2.6490    -1.7660 H     1 <1>   0.0800 
 45 H        5.8000     2.8390    -0.1280 H     1 <1>   0.0800 
 46 H        4.5160     3.8610    -0.7300 H     1 <1>   0.0800 
 47 H       -5.6000    -0.8540    -2.0180 H     1 <1>   0.1500 
 48 H       -5.1770    -3.7060     1.1040 H     1 <1>   0.1500 
 49 H       -7.5960    -3.6630     1.4780 H     1 <1>   0.1500 
 50 H       -9.0240    -2.2150     0.1360 H     1 <1>   0.1500 
 51 H       -9.8650     0.2150    -2.4550 H     1 <1>   0.0800 
 52 H       -9.7690    -0.1530    -0.7360 H     1 <1>   0.0800 
 53 H       -9.9460    -1.4610    -1.9220 H     1 <1>   0.0800 
@<TRIPOS>BOND
  1   1   2  2   
  2   2   3  am  
  3   2   4  1   
  4   3   5  1   
  5   3  27  1   
  6   4   6  1   
  7   4  28  1   
  8   4  29  1   
  9   5   7  ar  
 10   5   8  ar  
 11   6   9  1   
 12   6  10  1   
 13   7  11  ar  
 14   7  12  1   
 15   8  13  ar  
 16   8  30  1   
 17   9  14  1   
 18   9  31  1   
 19   9  32  1   
 20  10  15  1   
 21  10  33  1   
 22  10  34  1   
 23  11  16  ar  
 24  11  35  1   
 25  12  36  1   
 26  12  37  1   
 27  12  38  1   
 28  13  16  ar  
 29  13  39  1   
 30  14  17  1   
 31  14  40  1   
 32  14  41  1   
 33  15  17  1   
 34  15  42  1   
 35  15  43  1   
 36  16  18  1   
 37  17  19  1   
 38  18  44  1   
 39  18  45  1   
 40  18  46  1   
 41  19  20  ar  
 42  19  21  ar  
 43  20  22  ar  
 44  20  47  1   
 45  21  23  ar  
 46  21  48  1   
 47  22  24  1   
 48  22  25  ar  
 49  23  25  ar  
 50  23  49  1   
 51  24  26  1   
 52  25  50  1   
 53  26  51  1   
 54  26  52  1   
 55  26  53  1   
@<TRIPOS>SUBSTRUCTURE
  1 ****   9 GROUP 4 **** **** 0

# MOE 2024.06 (io_trps.svl 2023.06)
