@<TRIPOS>MOLECULE
NONAME
29 30 1 0 0 
SMALL
USER_CHARGES


@<TRIPOS>ATOM
  1 BR      -1.8580     0.6320    -1.7750 Br    1 <1>  -0.1110 
  2 C       -0.9240     2.0820    -0.9130 C.ar  1 <1>   0.1110 
  3 C       -1.3870     2.5710     0.2990 C.ar  1 <1>  -0.1440 
  4 C        0.1910     2.5970    -1.5460 C.ar  1 <1>  -0.1500 
  5 C       -0.6870     3.6130     0.8920 C.ar  1 <1>  -0.1500 
  6 C       -2.6200     1.9870     0.9580 C.3   1 <1>   0.4870 
  7 C        0.8720     3.6390    -0.9440 C.ar  1 <1>  -0.1500 
  8 C        0.4340     4.1430     0.2710 C.ar  1 <1>  -0.1500 
  9 N       -3.8260     2.3970     0.1870 N.4   1 <1>  -0.9590 
 10 C       -3.9830     3.8940     0.1020 C.3   1 <1>   0.3430 
 11 C       -5.0710     1.6910     0.6260 C.3   1 <1>   0.3430 
 12 C       -5.3210     4.3360    -0.5220 C.3   1 <1>   0.0700 
 13 C       -6.0910     1.6000    -0.5260 C.3   1 <1>   0.0700 
 14 S       -5.9480     3.0410    -1.6330 S.3   1 <1>  -0.4600 
 15 H        0.5210     2.1930    -2.4880 H     1 <1>   0.1500 
 16 H       -0.9950     4.0240     1.8400 H     1 <1>   0.1500 
 17 H       -2.6920     2.3350     1.9750 H     1 <1>   0.0800 
 18 H       -2.5370     0.9120     0.9710 H     1 <1>   0.0800 
 19 H        1.7460     4.0570    -1.4170 H     1 <1>   0.1500 
 20 H        0.9760     4.9510     0.7350 H     1 <1>   0.1500 
 21 H       -3.6640     2.0950    -0.7890 H     1 <1>   0.4500 
 22 H       -3.1820     4.2930    -0.5000 H     1 <1>   0.0800 
 23 H       -3.8980     4.3320     1.0830 H     1 <1>   0.0800 
 24 H       -5.5130     2.2220     1.4530 H     1 <1>   0.0800 
 25 H       -4.8400     0.6920     0.9570 H     1 <1>   0.0800 
 26 H       -5.2050     5.2360    -1.1000 H     1 <1>   0.0800 
 27 H       -6.0700     4.4950     0.2330 H     1 <1>   0.0800 
 28 H       -7.1000     1.5750    -0.1500 H     1 <1>   0.0800 
 29 H       -5.9190     0.7270    -1.1300 H     1 <1>   0.0800 
@<TRIPOS>BOND
  1   1   2  1   
  2   2   3  ar  
  3   2   4  ar  
  4   3   5  ar  
  5   3   6  1   
  6   4   7  ar  
  7   4  15  1   
  8   5   8  ar  
  9   5  16  1   
 10   6   9  1   
 11   6  17  1   
 12   6  18  1   
 13   7   8  ar  
 14   7  19  1   
 15   8  20  1   
 16   9  10  1   
 17   9  11  1   
 18   9  21  1   
 19  10  12  1   
 20  10  22  1   
 21  10  23  1   
 22  11  13  1   
 23  11  24  1   
 24  11  25  1   
 25  12  14  1   
 26  12  26  1   
 27  12  27  1   
 28  13  14  1   
 29  13  28  1   
 30  13  29  1   
@<TRIPOS>SUBSTRUCTURE
  1 ****   3 GROUP 4 **** **** 0

# MOE 2024.06 (io_trps.svl 2023.06)
