@<TRIPOS>MOLECULE
NONAME
41 43 1 0 0 
SMALL
USER_CHARGES


@<TRIPOS>ATOM
  1 S        0.4600    -0.1350    -0.5280 S.3   1 <1>  -0.0800 
  2 C       -0.9520    -0.8300    -1.3000 C.2   1 <1>  -0.1100 
  3 C        0.0910    -0.9500     0.9790 C.2   1 <1>  -0.1100 
  4 C       -1.6360    -1.6080    -0.4380 C.2   1 <1>  -0.1810 
  5 C       -1.0330    -1.6810     0.8640 C.2   1 <1>  -0.1500 
  6 C       -2.9180    -2.3480    -0.7600 C.3   1 <1>   0.5240 
  7 N       -4.0210    -1.7150     0.0060 N.4   1 <1>  -0.9590 
  8 C       -5.3000    -2.5120    -0.0930 C.3   1 <1>   0.3430 
  9 C       -4.2320    -0.2780    -0.4230 C.3   1 <1>   0.3430 
 10 C       -6.4740    -1.8500     0.6580 C.3   1 <1>   0.2090 
 11 C       -5.3950     0.4030     0.3270 C.3   1 <1>   0.2090 
 12 N       -6.6250    -0.4320     0.2300 N.pl3 1 <1>  -0.8380 
 13 C       -7.8780     0.1570     0.3830 C.ar  1 <1>   0.1000 
 14 C       -8.9160    -0.2140    -0.4610 C.ar  1 <1>  -0.1500 
 15 C       -8.1290     1.1090     1.3660 C.ar  1 <1>  -0.1500 
 16 C      -10.1760     0.3410    -0.3370 C.ar  1 <1>   0.0830 
 17 C       -9.3850     1.6740     1.4980 C.ar  1 <1>  -0.1500 
 18 O      -11.1210    -0.0930    -1.2100 O.3   1 <1>  -0.3620 
 19 C      -10.4120     1.2940     0.6510 C.ar  1 <1>  -0.1500 
 20 C      -12.4310     0.4290    -1.1860 C.3   1 <1>   0.0400 
 21 H       -1.1100    -0.5670    -2.3330 H     1 <1>   0.1500 
 22 H        0.7700    -0.7950     1.8000 H     1 <1>   0.1500 
 23 H       -1.4470    -2.2780     1.6580 H     1 <1>   0.1500 
 24 H       -2.8120    -3.3850    -0.4830 H     1 <1>   0.0800 
 25 H       -3.1200    -2.2920    -1.8170 H     1 <1>   0.0800 
 26 H       -3.7270    -1.6880     0.9890 H     1 <1>   0.4500 
 27 H       -5.1500    -3.5040     0.3000 H     1 <1>   0.0800 
 28 H       -5.5850    -2.6060    -1.1280 H     1 <1>   0.0800 
 29 H       -4.4560    -0.2460    -1.4770 H     1 <1>   0.0800 
 30 H       -3.3320     0.2920    -0.2610 H     1 <1>   0.0800 
 31 H       -6.3050    -1.8880     1.7200 H     1 <1>   0.0800 
 32 H       -7.3840    -2.3890     0.4500 H     1 <1>   0.0800 
 33 H       -5.5850     1.3700    -0.1070 H     1 <1>   0.0800 
 34 H       -5.1320     0.5450     1.3610 H     1 <1>   0.0800 
 35 H       -8.7420    -0.9390    -1.2310 H     1 <1>   0.1500 
 36 H       -7.3460     1.4070     2.0360 H     1 <1>   0.1500 
 37 H       -9.5670     2.4090     2.2630 H     1 <1>   0.1500 
 38 H      -11.3780     1.7450     0.7740 H     1 <1>   0.1500 
 39 H      -12.9950    -0.0500    -1.9660 H     1 <1>   0.0800 
 40 H      -12.3880     1.4890    -1.3640 H     1 <1>   0.0800 
 41 H      -12.8740     0.2150    -0.2300 H     1 <1>   0.0800 
@<TRIPOS>BOND
  1   1   2  1   
  2   1   3  1   
  3   2   4  2   
  4   2  21  1   
  5   3   5  2   
  6   3  22  1   
  7   4   5  1   
  8   4   6  1   
  9   5  23  1   
 10   6   7  1   
 11   6  24  1   
 12   6  25  1   
 13   7   8  1   
 14   7   9  1   
 15   7  26  1   
 16   8  10  1   
 17   8  27  1   
 18   8  28  1   
 19   9  11  1   
 20   9  29  1   
 21   9  30  1   
 22  10  12  1   
 23  10  31  1   
 24  10  32  1   
 25  11  12  1   
 26  11  33  1   
 27  11  34  1   
 28  12  13  1   
 29  13  14  ar  
 30  13  15  ar  
 31  14  16  ar  
 32  14  35  1   
 33  15  17  ar  
 34  15  36  1   
 35  16  18  1   
 36  16  19  ar  
 37  17  19  ar  
 38  17  37  1   
 39  18  20  1   
 40  19  38  1   
 41  20  39  1   
 42  20  40  1   
 43  20  41  1   
@<TRIPOS>SUBSTRUCTURE
  1 ****  12 GROUP 4 **** **** 0

# MOE 2024.06 (io_trps.svl 2023.06)
