@<TRIPOS>MOLECULE
NONAME
29 29 1 0 0 
SMALL
USER_CHARGES


@<TRIPOS>ATOM
  1 O        0.4010    -1.2090     1.6270 O.co2 1 <1>  -0.9000 
  2 C        0.0430    -1.1620     0.4400 C.2   1 <1>   0.9060 
  3 O        0.4970    -0.2990    -0.3250 O.co2 1 <1>  -0.9000 
  4 C       -1.1320    -2.0320    -0.0190 C.3   1 <1>  -0.1860 
  5 C       -2.3830    -1.4720     0.6900 C.3   1 <1>  -0.0170 
  6 C       -0.9520    -3.5610     0.2430 C.3   1 <1>  -0.2660 
  7 C       -3.7260    -2.0740     0.2650 C.ar  1 <1>  -0.1440 
  8 C        0.0560    -4.3020    -0.6190 C.2   1 <1>   0.9060 
  9 C       -4.4580    -1.5900    -0.8180 C.ar  1 <1>   0.0820 
 10 C       -4.2470    -3.1320     0.9960 C.ar  1 <1>  -0.1500 
 11 O       -0.0340    -4.2420    -1.8510 O.co2 1 <1>  -0.9000 
 12 O        0.8530    -5.0750    -0.0690 O.co2 1 <1>  -0.9000 
 13 O       -4.0100    -0.5600    -1.5660 O.3   1 <1>  -0.3630 
 14 C       -5.6700    -2.1670    -1.1640 C.ar  1 <1>  -0.1500 
 15 C       -5.4620    -3.7020     0.6580 C.ar  1 <1>  -0.1500 
 16 C       -4.3990     0.7270    -1.1540 C.3   1 <1>   0.0400 
 17 C       -6.1760    -3.2210    -0.4260 C.ar  1 <1>  -0.1500 
 18 H       -1.2450    -1.8820    -1.0770 H     1 <1>   0.0800 
 19 H       -2.4030    -0.4100     0.5260 H     1 <1>   0.0800 
 20 H       -2.2550    -1.6080     1.7500 H     1 <1>   0.0800 
 21 H       -1.8800    -4.0640     0.0690 H     1 <1>   0.0800 
 22 H       -0.6780    -3.7110     1.2700 H     1 <1>   0.0800 
 23 H       -3.6890    -3.5180     1.8320 H     1 <1>   0.1500 
 24 H       -6.2050    -1.7870    -2.0140 H     1 <1>   0.1500 
 25 H       -5.8440    -4.5250     1.2350 H     1 <1>   0.1500 
 26 H       -5.4600     0.8290    -1.2940 H     1 <1>   0.0800 
 27 H       -3.8700     1.4440    -1.7560 H     1 <1>   0.0800 
 28 H       -4.1430     0.8580    -0.1180 H     1 <1>   0.0800 
 29 H       -7.1160    -3.6680    -0.6960 H     1 <1>   0.1500 
@<TRIPOS>BOND
  1   1   2  ar  
  2   2   3  ar  
  3   2   4  1   
  4   4   5  1   
  5   4   6  1   
  6   4  18  1   
  7   5   7  1   
  8   5  19  1   
  9   5  20  1   
 10   6   8  1   
 11   6  21  1   
 12   6  22  1   
 13   7   9  ar  
 14   7  10  ar  
 15   8  11  ar  
 16   8  12  ar  
 17   9  13  1   
 18   9  14  ar  
 19  10  15  ar  
 20  10  23  1   
 21  13  16  1   
 22  14  17  ar  
 23  14  24  1   
 24  15  17  ar  
 25  15  25  1   
 26  16  26  1   
 27  16  27  1   
 28  16  28  1   
 29  17  29  1   
@<TRIPOS>SUBSTRUCTURE
  1 ****   5 GROUP 4 **** **** 0

# MOE 2024.06 (io_trps.svl 2023.06)
