@<TRIPOS>MOLECULE
NONAME
39 42 1 0 0 
SMALL
USER_CHARGES


@<TRIPOS>ATOM
  1 O       -9.0970     1.0860    -2.2000 O.3   1 <1>  -0.6800 
  2 C       -8.3590     1.6280    -1.1770 C.3   1 <1>   0.2800 
  3 C       -7.2550     2.5090    -1.7800 C.3   1 <1>  -0.1600 
  4 C       -7.7390     0.4890    -0.3510 C.3   1 <1>  -0.1600 
  5 C       -9.2800     2.4780    -0.2900 C.3   1 <1>  -0.1600 
  6 C       -6.4090     3.1160    -0.6400 C.3   1 <1>  -0.0800 
  7 C       -6.8930     1.0950     0.7900 C.3   1 <1>  -0.0800 
  8 C       -8.4520     3.0920     0.8570 C.3   1 <1>  -0.0800 
  9 C       -5.7750     1.9600     0.1680 C.3   1 <1>   0.2890 
 10 C       -7.3360     3.9710     0.2560 C.3   1 <1>  -0.1600 
 11 C       -7.8190     1.9540     1.6840 C.3   1 <1>  -0.1600 
 12 N       -4.8960     2.4900     1.2350 N.pl3 1 <1>  -0.8690 
 13 C       -3.6100     2.8920     0.9000 C.ar  1 <1>   0.1000 
 14 C       -3.2080     4.2000     1.1370 C.ar  1 <1>  -0.1500 
 15 C       -2.7000     2.0070     0.3330 C.ar  1 <1>  -0.1500 
 16 C       -1.9330     4.6210     0.8030 C.ar  1 <1>  -0.1500 
 17 C       -1.4250     2.4230    -0.0040 C.ar  1 <1>  -0.1500 
 18 C       -1.0400     3.7320     0.2290 C.ar  1 <1>  -0.1500 
 19 H       -9.8150     0.5440    -1.8290 H     1 <1>   0.4000 
 20 H       -6.6280     1.9190    -2.4250 H     1 <1>   0.0800 
 21 H       -7.6960     3.2960    -2.3660 H     1 <1>   0.0800 
 22 H       -7.1140    -0.1190    -0.9820 H     1 <1>   0.0800 
 23 H       -8.5120    -0.1320     0.0650 H     1 <1>   0.0800 
 24 H      -10.0660     1.8710     0.1210 H     1 <1>   0.0800 
 25 H       -9.7250     3.2640    -0.8750 H     1 <1>   0.0800 
 26 H       -5.6300     3.7270    -1.0620 H     1 <1>   0.0800 
 27 H       -6.4480     0.3030     1.3670 H     1 <1>   0.0800 
 28 H       -9.0890     3.6910     1.4860 H     1 <1>   0.0800 
 29 H       -5.1870     1.3480    -0.4960 H     1 <1>   0.0800 
 30 H       -7.7740     4.7620    -0.3290 H     1 <1>   0.0800 
 31 H       -6.7700     4.4360     1.0440 H     1 <1>   0.0800 
 32 H       -8.5930     1.3360     2.1040 H     1 <1>   0.0800 
 33 H       -7.2610     2.3650     2.5070 H     1 <1>   0.0800 
 34 H       -5.4120     3.1780     1.7860 H     1 <1>   0.4000 
 35 H       -3.8990     4.8910     1.5830 H     1 <1>   0.1500 
 36 H       -2.9960     0.9890     0.1660 H     1 <1>   0.1500 
 37 H       -1.6350     5.6370     0.9890 H     1 <1>   0.1500 
 38 H       -0.7320     1.7280    -0.4440 H     1 <1>   0.1500 
 39 H       -0.0480     4.0570    -0.0320 H     1 <1>   0.1500 
@<TRIPOS>BOND
  1   1   2  1   
  2   1  19  1   
  3   2   3  1   
  4   2   4  1   
  5   2   5  1   
  6   3   6  1   
  7   3  20  1   
  8   3  21  1   
  9   4   7  1   
 10   4  22  1   
 11   4  23  1   
 12   5   8  1   
 13   5  24  1   
 14   5  25  1   
 15   6   9  1   
 16   6  10  1   
 17   6  26  1   
 18   7   9  1   
 19   7  11  1   
 20   7  27  1   
 21   8  10  1   
 22   8  11  1   
 23   8  28  1   
 24   9  12  1   
 25   9  29  1   
 26  10  30  1   
 27  10  31  1   
 28  11  32  1   
 29  11  33  1   
 30  12  13  1   
 31  12  34  1   
 32  13  14  ar  
 33  13  15  ar  
 34  14  16  ar  
 35  14  35  1   
 36  15  17  ar  
 37  15  36  1   
 38  16  18  ar  
 39  16  37  1   
 40  17  18  ar  
 41  17  38  1   
 42  18  39  1   
@<TRIPOS>SUBSTRUCTURE
  1 ****   9 GROUP 4 **** **** 0

# MOE 2024.06 (io_trps.svl 2023.06)
