@<TRIPOS>MOLECULE
Structure1709
43 43 1 0 0 
SMALL
USER_CHARGES


@<TRIPOS>ATOM
  1 O        0.4690     0.2600    -0.7560 O.2   1 <1>  -0.5700 
  2 C        1.2690     0.0430     0.1350 C.2   1 <1>   0.7800 
  3 O        1.9710     1.0260     0.6950 O.3   1 <1>  -0.4300 
  4 N        1.5100    -1.1900     0.6260 N.am  1 <1>  -0.7300 
  5 C        2.0050     2.3800     0.3090 C.3   1 <1>   0.2800 
  6 C        1.1630    -2.4500    -0.0580 C.3   1 <1>   0.2200 
  7 C        0.6290     3.0260     0.5110 C.3   1 <1>  -0.2400 
  8 C        2.5080     2.5050    -1.1340 C.3   1 <1>  -0.2400 
  9 C        3.0150     3.0360     1.2520 C.3   1 <1>  -0.2400 
 10 C       -0.1760    -3.0290     0.4860 C.3   1 <1>  -0.0800 
 11 C        2.3280    -3.4260     0.1520 C.3   1 <1>  -0.2660 
 12 C       -0.5680    -4.3380    -0.2400 C.3   1 <1>  -0.1600 
 13 C       -1.3430    -2.0210     0.3920 C.3   1 <1>  -0.1600 
 14 C        3.6630    -2.8150    -0.1580 C.2   1 <1>   0.9060 
 15 C       -1.9000    -4.9140     0.2610 C.3   1 <1>  -0.1600 
 16 C       -2.6710    -2.6030     0.8910 C.3   1 <1>  -0.1600 
 17 O        4.1680    -2.0740     0.6940 O.co2 1 <1>  -0.9000 
 18 O        4.2040    -3.0790    -1.2340 O.co2 1 <1>  -0.9000 
 19 C       -3.0300    -3.8880     0.1400 C.3   1 <1>  -0.1600 
 20 H        2.4500    -1.2630     1.0560 H     1 <1>   0.3700 
 21 H        1.0660    -2.2500    -1.1130 H     1 <1>   0.0800 
 22 H        0.2800     2.8490     1.5120 H     1 <1>   0.0800 
 23 H       -0.0870     2.6340    -0.1870 H     1 <1>   0.0800 
 24 H        0.6940     4.0860     0.3510 H     1 <1>   0.0800 
 25 H        1.7870     2.1160    -1.8290 H     1 <1>   0.0800 
 26 H        3.4320     1.9660    -1.2500 H     1 <1>   0.0800 
 27 H        2.6770     3.5370    -1.3790 H     1 <1>   0.0800 
 28 H        2.6910     2.9320     2.2720 H     1 <1>   0.0800 
 29 H        3.1160     4.0820     1.0280 H     1 <1>   0.0800 
 30 H        3.9770     2.5670     1.1430 H     1 <1>   0.0800 
 31 H       -0.0270    -3.2630     1.5260 H     1 <1>   0.0800 
 32 H        2.2190    -4.2770    -0.4890 H     1 <1>   0.0800 
 33 H        2.3490    -3.7670     1.1680 H     1 <1>   0.0800 
 34 H        0.1880    -5.0870    -0.0940 H     1 <1>   0.0800 
 35 H       -0.6410    -4.1450    -1.2970 H     1 <1>   0.0800 
 36 H       -1.4540    -1.7030    -0.6310 H     1 <1>   0.0800 
 37 H       -1.1190    -1.1490     0.9800 H     1 <1>   0.0800 
 38 H       -1.7930    -5.2070     1.2920 H     1 <1>   0.0800 
 39 H       -2.1480    -5.7920    -0.3090 H     1 <1>   0.0800 
 40 H       -3.4530    -1.8760     0.7570 H     1 <1>   0.0800 
 41 H       -2.5910    -2.8140     1.9440 H     1 <1>   0.0800 
 42 H       -3.9390    -4.3010     0.5400 H     1 <1>   0.0800 
 43 H       -3.1960    -3.6590    -0.8990 H     1 <1>   0.0800 
@<TRIPOS>BOND
  1   1   2  2   
  2   2   3  1   
  3   2   4  am  
  4   3   5  1   
  5   4   6  1   
  6   4  20  1   
  7   5   7  1   
  8   5   8  1   
  9   5   9  1   
 10   6  10  1   
 11   6  11  1   
 12   6  21  1   
 13   7  22  1   
 14   7  23  1   
 15   7  24  1   
 16   8  25  1   
 17   8  26  1   
 18   8  27  1   
 19   9  28  1   
 20   9  29  1   
 21   9  30  1   
 22  10  12  1   
 23  10  13  1   
 24  10  31  1   
 25  11  14  1   
 26  11  32  1   
 27  11  33  1   
 28  12  15  1   
 29  12  34  1   
 30  12  35  1   
 31  13  16  1   
 32  13  36  1   
 33  13  37  1   
 34  14  17  ar  
 35  14  18  ar  
 36  15  19  1   
 37  15  38  1   
 38  15  39  1   
 39  16  19  1   
 40  16  40  1   
 41  16  41  1   
 42  19  42  1   
 43  19  43  1   
@<TRIPOS>SUBSTRUCTURE
  1 ****   4 GROUP 4 **** **** 0

# MOE 2024.06 (io_trps.svl 2023.06)
