@<TRIPOS>MOLECULE
NONAME
36 37 1 0 0 
SMALL
USER_CHARGES


@<TRIPOS>ATOM
  1 BR       0.3750     0.1260     1.8900 Br    1 <1>  -0.1110 
  2 C       -1.0940     1.0000     0.9900 C.ar  1 <1>   0.1110 
  3 C       -0.9260     2.2710     0.4520 C.ar  1 <1>   0.0820 
  4 C       -2.2980     0.3250     0.9100 C.ar  1 <1>  -0.1500 
  5 O        0.2500     2.9330     0.5300 O.3   1 <1>  -0.3630 
  6 C       -2.0070     2.8810    -0.1650 C.ar  1 <1>  -0.1500 
  7 C       -3.3670     0.9430     0.2800 C.ar  1 <1>  -0.1500 
  8 C        1.2610     2.5320    -0.3600 C.3   1 <1>   0.1200 
  9 C       -3.2210     2.2160    -0.2520 C.ar  1 <1>  -0.1500 
 10 C        2.5960     2.8890     0.2920 C.3   1 <1>  -0.1600 
 11 C        3.7640     2.4010    -0.5610 C.3   1 <1>   0.3430 
 12 N        5.0510     2.6000     0.1630 N.4   1 <1>  -0.9590 
 13 C        5.4150     4.0570     0.3110 C.3   1 <1>   0.3430 
 14 C        6.1700     1.8540    -0.5130 C.3   1 <1>   0.3430 
 15 C        6.8070     4.2320     0.9470 C.3   1 <1>   0.1200 
 16 C        7.5270     2.1300     0.1630 C.3   1 <1>   0.1200 
 17 O        7.7620     3.5060     0.2300 O.3   1 <1>  -0.5600 
 18 H       -2.3980    -0.6580     1.3330 H     1 <1>   0.1500 
 19 H       -1.8990     3.8710    -0.5710 H     1 <1>   0.1500 
 20 H       -4.3140     0.4350     0.2070 H     1 <1>   0.1500 
 21 H        1.1120     3.0560    -1.2880 H     1 <1>   0.0800 
 22 H        1.1810     1.4710    -0.5270 H     1 <1>   0.0800 
 23 H       -4.0570     2.6920    -0.7350 H     1 <1>   0.1500 
 24 H        2.6340     2.4160     1.2570 H     1 <1>   0.0800 
 25 H        2.6370     3.9570     0.4110 H     1 <1>   0.0800 
 26 H        3.7810     2.9280    -1.5030 H     1 <1>   0.0800 
 27 H        3.6270     1.3510    -0.7660 H     1 <1>   0.0800 
 28 H        4.9480     2.2100     1.1090 H     1 <1>   0.4500 
 29 H        4.6840     4.5610     0.9210 H     1 <1>   0.0800 
 30 H        5.4230     4.5310    -0.6560 H     1 <1>   0.0800 
 31 H        6.2400     2.1580    -1.5450 H     1 <1>   0.0800 
 32 H        5.9730     0.7940    -0.4930 H     1 <1>   0.0800 
 33 H        6.8150     3.9010     1.9710 H     1 <1>   0.0800 
 34 H        7.0990     5.2680     0.9200 H     1 <1>   0.0800 
 35 H        8.3240     1.6900    -0.4130 H     1 <1>   0.0800 
 36 H        7.5590     1.7220     1.1580 H     1 <1>   0.0800 
@<TRIPOS>BOND
  1   1   2  1   
  2   2   3  ar  
  3   2   4  ar  
  4   3   5  1   
  5   3   6  ar  
  6   4   7  ar  
  7   4  18  1   
  8   5   8  1   
  9   6   9  ar  
 10   6  19  1   
 11   7   9  ar  
 12   7  20  1   
 13   8  10  1   
 14   8  21  1   
 15   8  22  1   
 16   9  23  1   
 17  10  11  1   
 18  10  24  1   
 19  10  25  1   
 20  11  12  1   
 21  11  26  1   
 22  11  27  1   
 23  12  13  1   
 24  12  14  1   
 25  12  28  1   
 26  13  15  1   
 27  13  29  1   
 28  13  30  1   
 29  14  16  1   
 30  14  31  1   
 31  14  32  1   
 32  15  17  1   
 33  15  33  1   
 34  15  34  1   
 35  16  17  1   
 36  16  35  1   
 37  16  36  1   
@<TRIPOS>SUBSTRUCTURE
  1 ****  10 GROUP 4 **** **** 0

# MOE 2024.06 (io_trps.svl 2023.06)
