@<TRIPOS>MOLECULE
NONAME
40 40 1 0 0 
SMALL
USER_CHARGES


@<TRIPOS>ATOM
  1 O       -0.6860    -6.4580    -0.7100 O.3   1 <1>  -0.3630 
  2 C        0.5950    -6.5490    -0.2790 C.ar  1 <1>   0.0830 
  3 C       -1.6890    -5.8520     0.0720 C.3   1 <1>   0.1200 
  4 C        1.4750    -7.2380    -1.0960 C.ar  1 <1>  -0.1500 
  5 C        1.0560    -6.0010     0.9130 C.ar  1 <1>  -0.1500 
  6 C       -3.0080    -5.9600    -0.6880 C.3   1 <1>  -0.2400 
  7 C        2.8040    -7.3790    -0.7390 C.ar  1 <1>  -0.1500 
  8 C        2.3860    -6.1390     1.2720 C.ar  1 <1>  -0.1500 
  9 C        3.2680    -6.8210     0.4440 C.ar  1 <1>  -0.1430 
 10 C        4.7250    -6.9400     0.8140 C.3   1 <1>   0.4860 
 11 N        5.3890    -5.7810     0.1680 N.4   1 <1>  -0.9060 
 12 C        6.8740    -5.7240     0.3950 C.3   1 <1>   0.3430 
 13 C        7.5630    -4.5020    -0.2850 C.3   1 <1>   0.3430 
 14 N        9.0480    -4.3890    -0.0290 N.4   1 <1>  -0.9590 
 15 C        9.5660    -3.0840    -0.5670 C.3   1 <1>   0.2630 
 16 C        9.8570    -5.5060    -0.6290 C.3   1 <1>   0.2630 
 17 H       -1.4250    -4.8200     0.2280 H     1 <1>   0.0800 
 18 H       -1.7500    -6.3710     1.0130 H     1 <1>   0.0800 
 19 H        1.1030    -7.6660    -2.0110 H     1 <1>   0.1500 
 20 H        0.3920    -5.4690     1.5690 H     1 <1>   0.1500 
 21 H       -2.9320    -5.4530    -1.6330 H     1 <1>   0.0800 
 22 H       -3.7970    -5.5050    -0.1160 H     1 <1>   0.0800 
 23 H       -3.2550    -6.9930    -0.8530 H     1 <1>   0.0800 
 24 H        3.4530    -7.9310    -1.3980 H     1 <1>   0.1500 
 25 H        2.7110    -5.7090     2.2050 H     1 <1>   0.1500 
 26 H        5.1230    -7.8720     0.4450 H     1 <1>   0.0800 
 27 H        4.8390    -6.9050     1.8870 H     1 <1>   0.0800 
 28 H        4.8930    -4.9500     0.5220 H     1 <1>   0.4500 
 29 H        5.1330    -5.8420    -0.8290 H     1 <1>   0.4500 
 30 H        7.3210    -6.6280     0.0140 H     1 <1>   0.0800 
 31 H        7.0620    -5.6780     1.4560 H     1 <1>   0.0800 
 32 H        7.0870    -3.6040     0.0760 H     1 <1>   0.0800 
 33 H        7.4000    -4.5580    -1.3490 H     1 <1>   0.0800 
 34 H        9.2390    -4.3690     0.9890 H     1 <1>   0.4500 
 35 H        9.4290    -3.0310    -1.6350 H     1 <1>   0.0800 
 36 H       10.6190    -2.9810    -0.3550 H     1 <1>   0.0800 
 37 H        9.0490    -2.2530    -0.1120 H     1 <1>   0.0800 
 38 H        9.7180    -5.5420    -1.6980 H     1 <1>   0.0800 
 39 H        9.5720    -6.4570    -0.2090 H     1 <1>   0.0800 
 40 H       10.9070    -5.3540    -0.4320 H     1 <1>   0.0800 
@<TRIPOS>BOND
  1   1   2  1   
  2   1   3  1   
  3   2   4  ar  
  4   2   5  ar  
  5   3   6  1   
  6   3  17  1   
  7   3  18  1   
  8   4   7  ar  
  9   4  19  1   
 10   5   8  ar  
 11   5  20  1   
 12   6  21  1   
 13   6  22  1   
 14   6  23  1   
 15   7   9  ar  
 16   7  24  1   
 17   8   9  ar  
 18   8  25  1   
 19   9  10  1   
 20  10  11  1   
 21  10  26  1   
 22  10  27  1   
 23  11  12  1   
 24  11  28  1   
 25  11  29  1   
 26  12  13  1   
 27  12  30  1   
 28  12  31  1   
 29  13  14  1   
 30  13  32  1   
 31  13  33  1   
 32  14  15  1   
 33  14  16  1   
 34  14  34  1   
 35  15  35  1   
 36  15  36  1   
 37  15  37  1   
 38  16  38  1   
 39  16  39  1   
 40  16  40  1   
@<TRIPOS>SUBSTRUCTURE
  1 ****   9 GROUP 4 **** **** 0

# MOE 2024.06 (io_trps.svl 2023.06)
