@<TRIPOS>MOLECULE
NONAME
43 44 1 0 0 
SMALL
USER_CHARGES


@<TRIPOS>ATOM
  1 CL      -3.1670    -1.7160    -4.2310 Cl    1 <1>  -0.1770 
  2 C       -3.2370    -2.0640    -2.5210 C.ar  1 <1>   0.1770 
  3 C       -2.2690    -2.8710    -1.9600 C.ar  1 <1>  -0.1500 
  4 C       -4.2550    -1.5230    -1.7650 C.ar  1 <1>  -0.1500 
  5 C       -2.3190    -3.1540    -0.5980 C.ar  1 <1>   0.0830 
  6 C       -4.3250    -1.7950    -0.4050 C.ar  1 <1>  -0.1440 
  7 O       -1.3590    -3.9170     0.0010 O.3   1 <1>  -0.3620 
  8 C       -3.3680    -2.6270     0.1760 C.ar  1 <1>   0.0830 
  9 C       -5.4480    -1.1750     0.4270 C.3   1 <1>   0.5020 
 10 C       -0.1850    -4.3100    -0.6760 C.3   1 <1>   0.0400 
 11 O       -3.5030    -2.8810     1.5080 O.3   1 <1>  -0.3630 
 12 N       -6.7050    -1.7960     0.0000 N.am  1 <1>  -0.7300 
 13 C       -5.4740     0.3440     0.2620 C.2   1 <1>  -0.1240 
 14 C       -3.3910    -4.2070     1.9830 C.3   1 <1>   0.0400 
 15 C       -7.6650    -1.1730    -0.6990 C.2   1 <1>   0.6900 
 16 C       -6.5220     0.9440    -0.3740 C.2   1 <1>  -0.0290 
 17 C       -4.3010     0.9560     0.8120 C.2   1 <1>   0.7060 
 18 O       -8.5830    -1.8450    -1.1240 O.2   1 <1>  -0.5700 
 19 N       -7.5690     0.1910    -0.9200 N.am  1 <1>  -0.4690 
 20 C       -6.6330     2.4640    -0.5210 C.3   1 <1>  -0.1020 
 21 O       -3.7940     1.9710     0.3740 O.2   1 <1>  -0.5700 
 22 O       -3.7140     0.3650     1.8600 O.3   1 <1>  -0.4300 
 23 C       -8.6190     0.8250    -1.7790 C.3   1 <1>   0.0600 
 24 C       -2.5000     0.8380     2.4070 C.3   1 <1>   0.0400 
 25 H       -1.5010    -3.2550    -2.6010 H     1 <1>   0.1500 
 26 H       -4.9870    -0.8950    -2.2430 H     1 <1>   0.1500 
 27 H       -5.3300    -1.4030     1.4710 H     1 <1>   0.0800 
 28 H        0.4460    -4.8300     0.0230 H     1 <1>   0.0800 
 29 H        0.3210    -3.4320    -1.0390 H     1 <1>   0.0800 
 30 H       -0.4490    -4.9680    -1.4850 H     1 <1>   0.0800 
 31 H       -6.7440    -2.8110     0.0260 H     1 <1>   0.3700 
 32 H       -2.3570    -4.4170     2.1880 H     1 <1>   0.0800 
 33 H       -3.7760    -4.8850     1.2420 H     1 <1>   0.0800 
 34 H       -3.9620    -4.2870     2.8900 H     1 <1>   0.0800 
 35 H       -7.6250     2.7950    -0.2730 H     1 <1>   0.0800 
 36 H       -6.4040     2.7540    -1.5300 H     1 <1>   0.0800 
 37 H       -5.9690     2.9890     0.1370 H     1 <1>   0.0800 
 38 H       -9.1300     0.0880    -2.3740 H     1 <1>   0.0800 
 39 H       -8.1720     1.5310    -2.4540 H     1 <1>   0.0800 
 40 H       -9.3400     1.3230    -1.1570 H     1 <1>   0.0800 
 41 H       -2.2200     0.1930     3.2210 H     1 <1>   0.0800 
 42 H       -2.6440     1.8440     2.7610 H     1 <1>   0.0800 
 43 H       -1.7430     0.8170     1.6420 H     1 <1>   0.0800 
@<TRIPOS>BOND
  1   1   2  1   
  2   2   3  ar  
  3   2   4  ar  
  4   3   5  ar  
  5   3  25  1   
  6   4   6  ar  
  7   4  26  1   
  8   5   7  1   
  9   5   8  ar  
 10   6   8  ar  
 11   6   9  1   
 12   7  10  1   
 13   8  11  1   
 14   9  12  1   
 15   9  13  1   
 16   9  27  1   
 17  10  28  1   
 18  10  29  1   
 19  10  30  1   
 20  11  14  1   
 21  12  15  am  
 22  12  31  1   
 23  13  16  2   
 24  13  17  1   
 25  14  32  1   
 26  14  33  1   
 27  14  34  1   
 28  15  18  2   
 29  15  19  am  
 30  16  19  1   
 31  16  20  1   
 32  17  21  2   
 33  17  22  1   
 34  19  23  1   
 35  20  35  1   
 36  20  36  1   
 37  20  37  1   
 38  22  24  1   
 39  23  38  1   
 40  23  39  1   
 41  23  40  1   
 42  24  41  1   
 43  24  42  1   
 44  24  43  1   
@<TRIPOS>SUBSTRUCTURE
  1 ****   6 GROUP 4 **** **** 0

# MOE 2024.06 (io_trps.svl 2023.06)
