@<TRIPOS>MOLECULE
NONAME
48 50 1 0 0 
SMALL
USER_CHARGES


@<TRIPOS>ATOM
  1 O       -0.9030    -1.9180    -1.8860 O.2   1 <1>  -0.5700 
  2 C       -0.0670    -1.8490    -1.0160 C.2   1 <1>   0.5690 
  3 N       -0.3440    -1.4860     0.2660 N.am  1 <1>  -0.7300 
  4 C        1.3890    -2.1820    -1.3520 C.3   1 <1>   0.1710 
  5 C       -1.6270    -1.0900     0.8760 C.3   1 <1>   0.2200 
  6 N        2.3920    -1.5030    -0.4780 N.3   1 <1>  -0.8100 
  7 C       -2.6460    -2.2330     0.7980 C.3   1 <1>  -0.1600 
  8 C       -2.1630     0.1910     0.2250 C.3   1 <1>  -0.1600 
  9 C        3.7330    -2.1100    -0.6440 C.3   1 <1>   0.1100 
 10 C        2.4650    -0.0530    -0.7850 C.3   1 <1>   0.1100 
 11 C       -3.9850    -1.8190     1.4260 C.3   1 <1>  -0.1600 
 12 C       -3.5020     0.6070     0.8530 C.3   1 <1>  -0.1600 
 13 C        4.7970    -1.4190     0.2290 C.3   1 <1>   0.2090 
 14 C        3.5090     0.6770     0.0830 C.3   1 <1>   0.2090 
 15 C       -4.5260    -0.5350     0.7810 C.3   1 <1>  -0.1600 
 16 N        4.8520     0.0480    -0.0500 N.pl3 1 <1>  -0.8380 
 17 C        5.9170     0.7640     0.4580 C.ar  1 <1>   0.4100 
 18 N        6.4260     0.3670     1.6200 N.ar  1 <1>  -0.6200 
 19 C        6.3990     1.8620    -0.2490 C.ar  1 <1>  -0.1500 
 20 C        7.4350     1.0850     2.0840 C.ar  1 <1>   0.1600 
 21 C        7.4480     2.6010     0.2450 C.ar  1 <1>  -0.1500 
 22 C        7.9760     2.1910     1.4520 C.ar  1 <1>  -0.1500 
 23 H        0.4810    -1.4130     0.8690 H     1 <1>   0.3700 
 24 H        1.5720    -1.9320    -2.3820 H     1 <1>   0.0800 
 25 H        1.4960    -3.2470    -1.2490 H     1 <1>   0.0800 
 26 H       -1.4440    -0.8820     1.9170 H     1 <1>   0.0800 
 27 H       -2.2600    -3.0960     1.3100 H     1 <1>   0.0800 
 28 H       -2.8150    -2.4960    -0.2320 H     1 <1>   0.0800 
 29 H       -2.3130     0.0220    -0.8270 H     1 <1>   0.0800 
 30 H       -1.4480     0.9840     0.3450 H     1 <1>   0.0800 
 31 H        4.0400    -2.0450    -1.6740 H     1 <1>   0.0800 
 32 H        3.6900    -3.1500    -0.3710 H     1 <1>   0.0800 
 33 H        1.5040     0.4020    -0.6190 H     1 <1>   0.0800 
 34 H        2.7250     0.0880    -1.8200 H     1 <1>   0.0800 
 35 H       -3.8510    -1.6590     2.4830 H     1 <1>   0.0800 
 36 H       -4.7010    -2.6140     1.3010 H     1 <1>   0.0800 
 37 H       -3.8880     1.4690     0.3360 H     1 <1>   0.0800 
 38 H       -3.3460     0.8810     1.8820 H     1 <1>   0.0800 
 39 H        5.7630    -1.8520     0.0350 H     1 <1>   0.0800 
 40 H        4.5640    -1.5770     1.2680 H     1 <1>   0.0800 
 41 H        3.2030     0.6410     1.1150 H     1 <1>   0.0800 
 42 H        3.5620     1.7100    -0.2140 H     1 <1>   0.0800 
 43 H       -5.4350    -0.2380     1.2750 H     1 <1>   0.0800 
 44 H       -4.7630    -0.7330    -0.2520 H     1 <1>   0.0800 
 45 H        5.9380     2.1130    -1.1850 H     1 <1>   0.1500 
 46 H        7.8560     0.7730     3.0240 H     1 <1>   0.1500 
 47 H        7.8390     3.4540    -0.2820 H     1 <1>   0.1500 
 48 H        8.7980     2.7210     1.8980 H     1 <1>   0.1500 
@<TRIPOS>BOND
  1   1   2  2   
  2   2   3  am  
  3   2   4  1   
  4   3   5  1   
  5   3  23  1   
  6   4   6  1   
  7   4  24  1   
  8   4  25  1   
  9   5   7  1   
 10   5   8  1   
 11   5  26  1   
 12   6   9  1   
 13   6  10  1   
 14   7  11  1   
 15   7  27  1   
 16   7  28  1   
 17   8  12  1   
 18   8  29  1   
 19   8  30  1   
 20   9  13  1   
 21   9  31  1   
 22   9  32  1   
 23  10  14  1   
 24  10  33  1   
 25  10  34  1   
 26  11  15  1   
 27  11  35  1   
 28  11  36  1   
 29  12  15  1   
 30  12  37  1   
 31  12  38  1   
 32  13  16  1   
 33  13  39  1   
 34  13  40  1   
 35  14  16  1   
 36  14  41  1   
 37  14  42  1   
 38  15  43  1   
 39  15  44  1   
 40  16  17  1   
 41  17  18  ar  
 42  17  19  ar  
 43  18  20  ar  
 44  19  21  ar  
 45  19  45  1   
 46  20  22  ar  
 47  20  46  1   
 48  21  22  ar  
 49  21  47  1   
 50  22  48  1   
@<TRIPOS>SUBSTRUCTURE
  1 ****  10 GROUP 4 **** **** 0

# MOE 2024.06 (io_trps.svl 2023.06)
