@<TRIPOS>MOLECULE
NONAME
27 28 1 0 0 
SMALL
USER_CHARGES


@<TRIPOS>ATOM
  1 BR      -0.0930     1.3500     1.0080 Br    1 <1>  -0.1110 
  2 C        1.7740     1.5910     0.6020 C.ar  1 <1>   0.1110 
  3 C        2.3120     0.9170    -0.4790 C.ar  1 <1>  -0.1500 
  4 C        2.5270     2.4300     1.4000 C.ar  1 <1>  -0.1500 
  5 C        3.6550     1.0900    -0.7710 C.ar  1 <1>  -0.1500 
  6 C        3.8680     2.5970     1.1000 C.ar  1 <1>  -0.1500 
  7 C        4.4370     1.9330     0.0210 C.ar  1 <1>   0.0830 
  8 O        5.7570     2.1570    -0.1970 O.3   1 <1>  -0.3630 
  9 C        6.4420     1.5280    -1.2750 C.3   1 <1>   0.1810 
 10 C        7.9100     1.9320    -1.3160 C.2   1 <1>   0.5690 
 11 O        8.6070     1.4660    -2.1870 O.2   1 <1>  -0.5700 
 12 N        8.3870     2.7970    -0.3800 N.am  1 <1>  -0.5790 
 13 C        9.7660     3.2900    -0.2720 C.3   1 <1>   0.0490 
 14 C       10.3180     3.5350     1.0930 C.3   1 <1>  -0.2000 
 15 C        9.9750     4.6900     0.2000 C.3   1 <1>  -0.2000 
 16 H        1.6910     0.2720    -1.0750 H     1 <1>   0.1500 
 17 H        2.0740     2.9380     2.2330 H     1 <1>   0.1500 
 18 H        4.0650     0.5630    -1.6110 H     1 <1>   0.1500 
 19 H        4.4790     3.2440     1.7040 H     1 <1>   0.1500 
 20 H        5.9710     1.8210    -2.1950 H     1 <1>   0.0800 
 21 H        6.3740     0.4630    -1.1470 H     1 <1>   0.0800 
 22 H        7.7300     3.1440     0.3220 H     1 <1>   0.3700 
 23 H       10.4210     2.8960    -1.0340 H     1 <1>   0.1000 
 24 H       11.3570     3.3220     1.2730 H     1 <1>   0.1000 
 25 H        9.6980     3.3300     1.9480 H     1 <1>   0.1000 
 26 H        9.1150     5.2940     0.4300 H     1 <1>   0.1000 
 27 H       10.7810     5.2610    -0.2250 H     1 <1>   0.1000 
@<TRIPOS>BOND
  1   1   2  1   
  2   2   3  ar  
  3   2   4  ar  
  4   3   5  ar  
  5   3  16  1   
  6   4   6  ar  
  7   4  17  1   
  8   5   7  ar  
  9   5  18  1   
 10   6   7  ar  
 11   6  19  1   
 12   7   8  1   
 13   8   9  1   
 14   9  10  1   
 15   9  20  1   
 16   9  21  1   
 17  10  11  2   
 18  10  12  am  
 19  12  13  1   
 20  12  22  1   
 21  13  14  1   
 22  13  15  1   
 23  13  23  1   
 24  14  15  1   
 25  14  24  1   
 26  14  25  1   
 27  15  26  1   
 28  15  27  1   
@<TRIPOS>SUBSTRUCTURE
  1 ****   8 GROUP 4 **** **** 0

# MOE 2024.06 (io_trps.svl 2023.06)
