@<TRIPOS>MOLECULE
NONAME
39 40 1 0 0 
SMALL
USER_CHARGES


@<TRIPOS>ATOM
  1 S        0.2220     0.7580     1.8990 S.o2  1 <1>   1.4470 
  2 O        0.6590    -0.6200     1.9490 O.2   1 <1>  -0.6500 
  3 O       -0.0330     1.4820     3.1260 O.2   1 <1>  -0.6500 
  4 N       -1.1950     0.8150     0.9680 N.am  1 <1>  -0.8490 
  5 C        1.4300     1.6980     0.9150 C.ar  1 <1>  -0.0090 
  6 C       -1.7380     2.1680     0.8070 C.3   1 <1>   0.1960 
  7 C       -1.1130     0.0760    -0.2950 C.3   1 <1>   0.1960 
  8 C        2.1470     1.0880    -0.1080 C.ar  1 <1>  -0.1500 
  9 C        1.6500     3.0500     1.1390 C.ar  1 <1>  -0.1500 
 10 C       -3.1430     2.1250     0.1830 C.3   1 <1>  -0.0800 
 11 C       -2.4990    -0.0310    -0.9360 C.3   1 <1>  -0.1600 
 12 C        3.0510     1.7790    -0.9040 C.ar  1 <1>  -0.0090 
 13 C        2.5480     3.7640     0.3670 C.ar  1 <1>  -0.1500 
 14 C       -3.1300     1.3510    -1.1430 C.3   1 <1>  -0.1600 
 15 C       -3.6890     3.5420    -0.0310 C.3   1 <1>  -0.2400 
 16 S        3.9640     0.9290    -2.2170 S.o2  1 <1>   1.2040 
 17 C        3.2400     3.1300    -0.6480 C.ar  1 <1>  -0.1500 
 18 O        4.5290     1.9060    -3.1190 O.2   1 <1>  -0.6500 
 19 O        3.1410    -0.1430    -2.7300 O.2   1 <1>  -0.6500 
 20 C        5.3140     0.1850    -1.3210 C.3   1 <1>  -0.1350 
 21 H       -1.0840     2.7530     0.1840 H     1 <1>   0.0800 
 22 H       -1.8070     2.6450     1.7710 H     1 <1>   0.0800 
 23 H       -0.7400    -0.9190    -0.1120 H     1 <1>   0.0800 
 24 H       -0.4410     0.5740    -0.9730 H     1 <1>   0.0800 
 25 H        1.9910     0.0360    -0.2920 H     1 <1>   0.1500 
 26 H        1.1150     3.5510     1.9310 H     1 <1>   0.1500 
 27 H       -3.7930     1.6150     0.8760 H     1 <1>   0.0800 
 28 H       -3.1280    -0.6270    -0.2980 H     1 <1>   0.0800 
 29 H       -2.4160    -0.5370    -1.8810 H     1 <1>   0.0800 
 30 H        2.7070     4.8140     0.5550 H     1 <1>   0.1500 
 31 H       -2.5620     1.8950    -1.8780 H     1 <1>   0.0800 
 32 H       -4.1350     1.2380    -1.5130 H     1 <1>   0.0800 
 33 H       -3.0650     4.0940    -0.7120 H     1 <1>   0.0800 
 34 H       -3.7310     4.0720     0.9050 H     1 <1>   0.0800 
 35 H       -4.6850     3.4990    -0.4370 H     1 <1>   0.0800 
 36 H        3.9340     3.6950    -1.2500 H     1 <1>   0.1500 
 37 H        5.9070     0.9400    -0.8420 H     1 <1>   0.0800 
 38 H        5.9420    -0.3640    -1.9960 H     1 <1>   0.0800 
 39 H        4.9430    -0.4910    -0.5760 H     1 <1>   0.0800 
@<TRIPOS>BOND
  1   1   2  2   
  2   1   3  2   
  3   1   4  am  
  4   1   5  1   
  5   4   6  1   
  6   4   7  1   
  7   5   8  ar  
  8   5   9  ar  
  9   6  10  1   
 10   6  21  1   
 11   6  22  1   
 12   7  11  1   
 13   7  23  1   
 14   7  24  1   
 15   8  12  ar  
 16   8  25  1   
 17   9  13  ar  
 18   9  26  1   
 19  10  14  1   
 20  10  15  1   
 21  10  27  1   
 22  11  14  1   
 23  11  28  1   
 24  11  29  1   
 25  12  16  1   
 26  12  17  ar  
 27  13  17  ar  
 28  13  30  1   
 29  14  31  1   
 30  14  32  1   
 31  15  33  1   
 32  15  34  1   
 33  15  35  1   
 34  16  18  2   
 35  16  19  2   
 36  16  20  1   
 37  17  36  1   
 38  20  37  1   
 39  20  38  1   
 40  20  39  1   
@<TRIPOS>SUBSTRUCTURE
  1 ****   5 GROUP 4 **** **** 0

# MOE 2024.06 (io_trps.svl 2023.06)
