@<TRIPOS>MOLECULE
NONAME
32 33 1 0 0 
SMALL
USER_CHARGES


@<TRIPOS>ATOM
  1 O        0.1870     0.2680     0.5830 O.2   1 <1>  -0.5700 
  2 C       -0.0040     1.4410     0.3230 C.2   1 <1>   0.6900 
  3 N        1.0520     2.3120     0.2770 N.am  1 <1>  -0.6600 
  4 N       -1.2580     1.9280     0.0890 N.am  1 <1>  -0.5470 
  5 C        1.0100     3.7150    -0.1880 C.3   1 <1>   0.1400 
  6 C        2.4460     1.8620     0.4830 C.3   1 <1>   0.1400 
  7 C       -2.5090     1.3000    -0.0050 C.ar  1 <1>   0.1170 
  8 C        2.4440     4.2160    -0.0520 C.3   1 <1>  -0.1600 
  9 C        3.3040     2.9580    -0.1380 C.3   1 <1>  -0.1600 
 10 C       -3.6530     2.0660     0.1790 C.ar  1 <1>  -0.1500 
 11 C       -2.6610    -0.0530    -0.2930 C.ar  1 <1>  -0.1500 
 12 C       -4.9160     1.5090     0.0850 C.ar  1 <1>   0.0820 
 13 C       -3.9190    -0.6220    -0.3870 C.ar  1 <1>  -0.1500 
 14 O       -5.9670     2.3460     0.2830 O.3   1 <1>  -0.3630 
 15 C       -5.0490     0.1530    -0.1990 C.ar  1 <1>  -0.1500 
 16 C       -7.2950     1.8730     0.2380 C.3   1 <1>   0.0400 
 17 H       -1.2800     2.9390     0.0590 H     1 <1>   0.3700 
 18 H        0.3360     4.3020     0.4130 H     1 <1>   0.0800 
 19 H        0.7020     3.7360    -1.2200 H     1 <1>   0.0800 
 20 H        2.6190     0.9070     0.0140 H     1 <1>   0.0800 
 21 H        2.6340     1.7830     1.5400 H     1 <1>   0.0800 
 22 H        2.5650     4.6730     0.9140 H     1 <1>   0.0800 
 23 H        2.6910     4.9340    -0.8130 H     1 <1>   0.0800 
 24 H        3.4910     2.7100    -1.1690 H     1 <1>   0.0800 
 25 H        4.2450     3.0660     0.3720 H     1 <1>   0.0800 
 26 H       -3.5700     3.1120     0.4020 H     1 <1>   0.1500 
 27 H       -1.7950    -0.6690    -0.4470 H     1 <1>   0.1500 
 28 H       -4.0140    -1.6710    -0.6080 H     1 <1>   0.1500 
 29 H       -6.0130    -0.3120    -0.2780 H     1 <1>   0.1500 
 30 H       -7.9510     2.7020     0.4320 H     1 <1>   0.0800 
 31 H       -7.4230     1.1200     0.9950 H     1 <1>   0.0800 
 32 H       -7.4900     1.4740    -0.7420 H     1 <1>   0.0800 
@<TRIPOS>BOND
  1   1   2  2   
  2   2   3  am  
  3   2   4  am  
  4   3   5  1   
  5   3   6  1   
  6   4   7  1   
  7   4  17  1   
  8   5   8  1   
  9   5  18  1   
 10   5  19  1   
 11   6   9  1   
 12   6  20  1   
 13   6  21  1   
 14   7  10  ar  
 15   7  11  ar  
 16   8   9  1   
 17   8  22  1   
 18   8  23  1   
 19   9  24  1   
 20   9  25  1   
 21  10  12  ar  
 22  10  26  1   
 23  11  13  ar  
 24  11  27  1   
 25  12  14  1   
 26  12  15  ar  
 27  13  15  ar  
 28  13  28  1   
 29  14  16  1   
 30  15  29  1   
 31  16  30  1   
 32  16  31  1   
 33  16  32  1   
@<TRIPOS>SUBSTRUCTURE
  1 ****   4 GROUP 4 **** **** 0

# MOE 2024.06 (io_trps.svl 2023.06)
