@<TRIPOS>MOLECULE
NONAME
37 38 1 0 0 
SMALL
USER_CHARGES


@<TRIPOS>ATOM
  1 F        0.7390    -0.7190     1.2550 F     1 <1>  -0.1900 
  2 C        1.9680    -0.6540     0.8120 C.ar  1 <1>   0.1900 
  3 C        2.5210     0.5890     0.5640 C.ar  1 <1>  -0.1500 
  4 C        2.6660    -1.8270     0.6060 C.ar  1 <1>  -0.1500 
  5 C        3.8230     0.6680     0.0910 C.ar  1 <1>  -0.1440 
  6 C        3.9640    -1.7430     0.1380 C.ar  1 <1>  -0.1500 
  7 C        4.5530    -0.5090    -0.1180 C.ar  1 <1>   0.1170 
  8 C        4.4260     2.0370    -0.1910 C.3   1 <1>  -0.0960 
  9 N        5.8660    -0.5190    -0.5960 N.am  1 <1>  -0.5470 
 10 C        7.0000    -0.1330     0.0570 C.2   1 <1>   0.5690 
 11 O        6.9540     0.5320     1.0690 O.2   1 <1>  -0.5700 
 12 C        8.3650    -0.5210    -0.5590 C.3   1 <1>  -0.0190 
 13 C        8.6980    -2.0480    -0.5470 C.3   1 <1>  -0.1860 
 14 C        9.5380     0.3220     0.0240 C.3   1 <1>  -0.1600 
 15 C        7.4870    -2.9300    -0.8230 C.2   1 <1>   0.9060 
 16 C        9.5020    -2.4220     0.7150 C.3   1 <1>  -0.1600 
 17 C       10.8900    -0.3950    -0.0660 C.3   1 <1>  -0.1600 
 18 O        7.1160    -3.7810    -0.0120 O.co2 1 <1>  -0.9000 
 19 O        6.8600    -2.7140    -1.8680 O.co2 1 <1>  -0.9000 
 20 C       10.8650    -1.7020     0.7500 C.3   1 <1>  -0.1600 
 21 H        1.9370     1.4720     0.7410 H     1 <1>   0.1500 
 22 H        2.2120    -2.7790     0.8080 H     1 <1>   0.1500 
 23 H        4.5430    -2.6400    -0.0290 H     1 <1>   0.1500 
 24 H        3.6590     2.7810    -0.2960 H     1 <1>   0.0800 
 25 H        5.0010     2.0100    -1.0990 H     1 <1>   0.0800 
 26 H        5.0740     2.3190     0.6190 H     1 <1>   0.0800 
 27 H        6.0490    -1.2820    -1.2790 H     1 <1>   0.3700 
 28 H        8.2840    -0.2580    -1.5980 H     1 <1>   0.0800 
 29 H        9.3420    -2.2410    -1.3830 H     1 <1>   0.0800 
 30 H        9.3650     0.5260     1.0670 H     1 <1>   0.0800 
 31 H        9.5820     1.2690    -0.4840 H     1 <1>   0.0800 
 32 H        9.6530    -3.4870     0.7520 H     1 <1>   0.0800 
 33 H        8.9190    -2.1510     1.5800 H     1 <1>   0.0800 
 34 H       11.6730     0.2450     0.3010 H     1 <1>   0.0800 
 35 H       11.1020    -0.6160    -1.0980 H     1 <1>   0.0800 
 36 H       11.6250    -2.3600     0.3660 H     1 <1>   0.0800 
 37 H       11.1090    -1.4890     1.7770 H     1 <1>   0.0800 
@<TRIPOS>BOND
  1   1   2  1   
  2   2   3  ar  
  3   2   4  ar  
  4   3   5  ar  
  5   3  21  1   
  6   4   6  ar  
  7   4  22  1   
  8   5   7  ar  
  9   5   8  1   
 10   6   7  ar  
 11   6  23  1   
 12   7   9  1   
 13   8  24  1   
 14   8  25  1   
 15   8  26  1   
 16   9  10  am  
 17   9  27  1   
 18  10  11  2   
 19  10  12  1   
 20  12  13  1   
 21  12  14  1   
 22  12  28  1   
 23  13  15  1   
 24  13  16  1   
 25  13  29  1   
 26  14  17  1   
 27  14  30  1   
 28  14  31  1   
 29  15  18  ar  
 30  15  19  ar  
 31  16  20  1   
 32  16  32  1   
 33  16  33  1   
 34  17  20  1   
 35  17  34  1   
 36  17  35  1   
 37  20  36  1   
 38  20  37  1   
@<TRIPOS>SUBSTRUCTURE
  1 ****   9 GROUP 4 **** **** 0

# MOE 2024.06 (io_trps.svl 2023.06)
