@<TRIPOS>MOLECULE
NONAME
26 27 1 0 0 
SMALL
USER_CHARGES


@<TRIPOS>ATOM
  1 CL      -0.4360    -0.0890     0.6600 Cl    1 <1>  -0.1770 
  2 C       -0.1110    -1.7710     0.3370 C.ar  1 <1>   0.1770 
  3 C        1.1550    -2.2670     0.5690 C.ar  1 <1>  -0.1500 
  4 C       -1.1270    -2.5770    -0.1410 C.ar  1 <1>  -0.1500 
  5 C        1.4270    -3.6050     0.3140 C.ar  1 <1>   0.3490 
  6 C       -0.8640    -3.9120    -0.3920 C.ar  1 <1>  -0.1500 
  7 N        2.6960    -4.1630     0.5420 N.pl3 1 <1>  -0.6530 
  8 C        0.4050    -4.4190    -0.1640 C.ar  1 <1>  -0.1500 
  9 C        3.8830    -3.6480     0.2750 C.cat 1 <1>   0.8470 
 10 O        4.0030    -2.4820    -0.2940 O.3   1 <1>  -0.4180 
 11 N        5.0140    -4.2480     0.5400 N.pl3 1 <1>  -0.7940 
 12 C        5.3970    -2.2040    -0.4210 C.3   1 <1>   0.2000 
 13 C        6.1390    -3.4370     0.1110 C.3   1 <1>   0.3290 
 14 C        5.6860    -0.9230     0.3650 C.3   1 <1>  -0.2400 
 15 H        1.9120    -1.6070     0.9490 H     1 <1>   0.1500 
 16 H       -2.1060    -2.1620    -0.3120 H     1 <1>   0.1500 
 17 H       -1.6480    -4.5520    -0.7660 H     1 <1>   0.1500 
 18 H        2.6760    -5.0990     0.9360 H     1 <1>   0.4500 
 19 H        0.5960    -5.4570    -0.3680 H     1 <1>   0.1500 
 20 H        5.1600    -5.1570     0.9830 H     1 <1>   0.4500 
 21 H        5.6140    -2.0560    -1.4660 H     1 <1>   0.0800 
 22 H        6.6990    -3.9240    -0.6700 H     1 <1>   0.0800 
 23 H        6.7880    -3.1930     0.9370 H     1 <1>   0.0800 
 24 H        5.4410    -1.0450     1.4060 H     1 <1>   0.0800 
 25 H        5.1110    -0.1070    -0.0390 H     1 <1>   0.0800 
 26 H        6.7270    -0.6650     0.2860 H     1 <1>   0.0800 
@<TRIPOS>BOND
  1   1   2  1   
  2   2   3  ar  
  3   2   4  ar  
  4   3   5  ar  
  5   3  15  1   
  6   4   6  ar  
  7   4  16  1   
  8   5   7  1   
  9   5   8  ar  
 10   6   8  ar  
 11   6  17  1   
 12   7   9  ar  
 13   7  18  1   
 14   8  19  1   
 15   9  10  1   
 16   9  11  ar  
 17  10  12  1   
 18  11  13  1   
 19  11  20  1   
 20  12  13  1   
 21  12  14  1   
 22  12  21  1   
 23  13  22  1   
 24  13  23  1   
 25  14  24  1   
 26  14  25  1   
 27  14  26  1   
@<TRIPOS>SUBSTRUCTURE
  1 ****   5 GROUP 4 **** **** 0

# MOE 2024.06 (io_trps.svl 2023.06)
