@<TRIPOS>MOLECULE
NONAME
52 53 1 0 0 
SMALL
USER_CHARGES


@<TRIPOS>ATOM
  1 O        4.4560    -4.5710    -0.2480 O.3   1 <1>  -0.3630 
  2 C        5.7710    -4.5710    -0.5970 C.ar  1 <1>   0.0830 
  3 C        3.5920    -3.5070    -0.5800 C.3   1 <1>   0.1200 
  4 C        6.5440    -5.6880    -0.2680 C.ar  1 <1>  -0.1440 
  5 C        6.3570    -3.4980    -1.2670 C.ar  1 <1>  -0.1500 
  6 C        2.1790    -3.8620    -0.1160 C.3   1 <1>  -0.1600 
  7 C        7.8870    -5.7020    -0.6250 C.ar  1 <1>  -0.1500 
  8 C        5.9540    -6.8940     0.4770 C.3   1 <1>   0.0640 
  9 C        7.6940    -3.5310    -1.6120 C.ar  1 <1>  -0.1500 
 10 C        1.6990    -5.1750    -0.7420 C.3   1 <1>   0.1100 
 11 C        8.4610    -4.6350    -1.2920 C.ar  1 <1>  -0.1500 
 12 C        6.6330    -7.0530     1.8510 C.3   1 <1>  -0.1600 
 13 C        6.0700    -8.1590    -0.3870 C.3   1 <1>  -0.2400 
 14 N        0.2680    -5.3920    -0.4650 N.3   1 <1>  -0.8100 
 15 C        5.9770    -8.1150     2.7440 C.3   1 <1>  -0.2400 
 16 C        0.0260    -5.8100     0.9330 C.3   1 <1>   0.1100 
 17 C       -0.3040    -6.3640    -1.4170 C.3   1 <1>   0.1100 
 18 C       -1.4780    -6.0160     1.2070 C.3   1 <1>   0.3430 
 19 C       -1.8120    -6.5720    -1.1730 C.3   1 <1>   0.3430 
 20 N       -2.0960    -6.9930     0.2430 N.4   1 <1>  -0.9590 
 21 C       -3.5620    -7.1390     0.4830 C.3   1 <1>   0.2630 
 22 H        3.6160    -3.3710    -1.6480 H     1 <1>   0.0800 
 23 H        3.9430    -2.6180    -0.0860 H     1 <1>   0.0800 
 24 H        5.7930    -2.6240    -1.5290 H     1 <1>   0.1500 
 25 H        1.5150    -3.0670    -0.4070 H     1 <1>   0.0800 
 26 H        2.1840    -3.9280     0.9560 H     1 <1>   0.0800 
 27 H        8.5010    -6.5510    -0.3830 H     1 <1>   0.1500 
 28 H        4.9070    -6.7300     0.6550 H     1 <1>   0.0800 
 29 H        8.1400    -2.7000    -2.1300 H     1 <1>   0.1500 
 30 H        2.2860    -6.0030    -0.3770 H     1 <1>   0.0800 
 31 H        1.8490    -5.1080    -1.8070 H     1 <1>   0.0800 
 32 H        9.5020    -4.6650    -1.5590 H     1 <1>   0.1500 
 33 H        6.5860    -6.1050     2.3590 H     1 <1>   0.0800 
 34 H        7.6720    -7.2970     1.7200 H     1 <1>   0.0800 
 35 H        7.0960    -8.4590    -0.4940 H     1 <1>   0.0800 
 36 H        5.6650    -7.9670    -1.3640 H     1 <1>   0.0800 
 37 H        5.5170    -8.9690     0.0520 H     1 <1>   0.0800 
 38 H        4.9300    -7.9030     2.8750 H     1 <1>   0.0800 
 39 H        6.4470    -8.1160     3.7120 H     1 <1>   0.0800 
 40 H        6.0850    -9.0970     2.3190 H     1 <1>   0.0800 
 41 H        0.3860    -5.0500     1.6040 H     1 <1>   0.0800 
 42 H        0.5630    -6.7190     1.1460 H     1 <1>   0.0800 
 43 H        0.2120    -7.3060    -1.3390 H     1 <1>   0.0800 
 44 H       -0.1680    -5.9950    -2.4200 H     1 <1>   0.0800 
 45 H       -1.9690    -5.0610     1.1180 H     1 <1>   0.0800 
 46 H       -1.6090    -6.3640     2.2180 H     1 <1>   0.0800 
 47 H       -2.1820    -7.3160    -1.8600 H     1 <1>   0.0800 
 48 H       -2.3180    -5.6440    -1.3840 H     1 <1>   0.0800 
 49 H       -1.6330    -7.9010     0.3900 H     1 <1>   0.4500 
 50 H       -4.0600    -6.1940     0.3320 H     1 <1>   0.0800 
 51 H       -3.7460    -7.4680     1.4930 H     1 <1>   0.0800 
 52 H       -3.9830    -7.8630    -0.1960 H     1 <1>   0.0800 
@<TRIPOS>BOND
  1   1   2  1   
  2   1   3  1   
  3   2   4  ar  
  4   2   5  ar  
  5   3   6  1   
  6   3  22  1   
  7   3  23  1   
  8   4   7  ar  
  9   4   8  1   
 10   5   9  ar  
 11   5  24  1   
 12   6  10  1   
 13   6  25  1   
 14   6  26  1   
 15   7  11  ar  
 16   7  27  1   
 17   8  12  1   
 18   8  13  1   
 19   8  28  1   
 20   9  11  ar  
 21   9  29  1   
 22  10  14  1   
 23  10  30  1   
 24  10  31  1   
 25  11  32  1   
 26  12  15  1   
 27  12  33  1   
 28  12  34  1   
 29  13  35  1   
 30  13  36  1   
 31  13  37  1   
 32  14  16  1   
 33  14  17  1   
 34  15  38  1   
 35  15  39  1   
 36  15  40  1   
 37  16  18  1   
 38  16  41  1   
 39  16  42  1   
 40  17  19  1   
 41  17  43  1   
 42  17  44  1   
 43  18  20  1   
 44  18  45  1   
 45  18  46  1   
 46  19  20  1   
 47  19  47  1   
 48  19  48  1   
 49  20  21  1   
 50  20  49  1   
 51  21  50  1   
 52  21  51  1   
 53  21  52  1   
@<TRIPOS>SUBSTRUCTURE
  1 ****   1 GROUP 4 **** **** 0

# MOE 2024.06 (io_trps.svl 2023.06)
