@<TRIPOS>MOLECULE
NONAME
39 40 1 0 0 
SMALL
USER_CHARGES


@<TRIPOS>ATOM
  1 S       -0.0120    -0.0560    -0.7710 S.o2  1 <1>   1.4470 
  2 O        0.0150    -0.1800    -2.2100 O.2   1 <1>  -0.6500 
  3 O        0.0290    -1.2350     0.0610 O.2   1 <1>  -0.6500 
  4 N       -1.4950     0.6990    -0.4220 N.am  1 <1>  -0.8490 
  5 C        1.2220     1.1470    -0.1970 C.ar  1 <1>  -0.0090 
  6 C       -1.8050     1.8050    -1.3540 C.3   1 <1>   0.1960 
  7 C       -2.5930    -0.2970    -0.4350 C.3   1 <1>   0.1960 
  8 C        1.3150     1.4710     1.1540 C.ar  1 <1>  -0.1500 
  9 C        2.0910     1.7750    -1.0930 C.ar  1 <1>  -0.1500 
 10 C       -3.1300     2.5280    -0.9960 C.3   1 <1>   0.3430 
 11 C       -3.9990     0.3310    -0.2590 C.3   1 <1>   0.3430 
 12 C        2.2460     2.4010     1.5780 C.ar  1 <1>   0.1900 
 13 C        3.0290     2.7070    -0.6690 C.ar  1 <1>  -0.1500 
 14 N       -3.9220     1.8010     0.0590 N.4   1 <1>  -0.9590 
 15 F        2.3050     2.6950     2.8500 F     1 <1>  -0.1900 
 16 C        3.0970     3.0150     0.6750 C.ar  1 <1>   0.1900 
 17 C       -5.2430     2.4410     0.3110 C.3   1 <1>   0.3430 
 18 F        3.9740     3.8950     1.0800 F     1 <1>  -0.1900 
 19 C       -5.8510     1.9230     1.6160 C.3   1 <1>  -0.1600 
 20 C       -7.1530     2.6640     1.9440 C.3   1 <1>  -0.2400 
 21 H       -1.8830     1.4270    -2.3600 H     1 <1>   0.0800 
 22 H       -1.0040     2.5260    -1.3460 H     1 <1>   0.0800 
 23 H       -2.4380    -1.0060     0.3630 H     1 <1>   0.0800 
 24 H       -2.5740    -0.8550    -1.3580 H     1 <1>   0.0800 
 25 H        0.6700     1.0000     1.8760 H     1 <1>   0.1500 
 26 H        2.0390     1.5270    -2.1420 H     1 <1>   0.1500 
 27 H       -3.7190     2.6320    -1.8920 H     1 <1>   0.0800 
 28 H       -2.8980     3.5220    -0.6480 H     1 <1>   0.0800 
 29 H       -4.5140    -0.1950     0.5270 H     1 <1>   0.0800 
 30 H       -4.5610     0.1860    -1.1670 H     1 <1>   0.0800 
 31 H        3.6970     3.1850    -1.3650 H     1 <1>   0.1500 
 32 H       -3.3510     1.8610     0.9160 H     1 <1>   0.4500 
 33 H       -5.9140     2.2460    -0.5100 H     1 <1>   0.0800 
 34 H       -5.1150     3.5090     0.3930 H     1 <1>   0.0800 
 35 H       -5.1590     2.0730     2.4270 H     1 <1>   0.0800 
 36 H       -6.0730     0.8740     1.5370 H     1 <1>   0.0800 
 37 H       -6.9760     3.7190     2.0630 H     1 <1>   0.0800 
 38 H       -7.5670     2.2890     2.8650 H     1 <1>   0.0800 
 39 H       -7.8840     2.5210     1.1670 H     1 <1>   0.0800 
@<TRIPOS>BOND
  1   1   2  2   
  2   1   3  2   
  3   1   4  am  
  4   1   5  1   
  5   4   6  1   
  6   4   7  1   
  7   5   8  ar  
  8   5   9  ar  
  9   6  10  1   
 10   6  21  1   
 11   6  22  1   
 12   7  11  1   
 13   7  23  1   
 14   7  24  1   
 15   8  12  ar  
 16   8  25  1   
 17   9  13  ar  
 18   9  26  1   
 19  10  14  1   
 20  10  27  1   
 21  10  28  1   
 22  11  14  1   
 23  11  29  1   
 24  11  30  1   
 25  12  15  1   
 26  12  16  ar  
 27  13  16  ar  
 28  13  31  1   
 29  14  17  1   
 30  14  32  1   
 31  16  18  1   
 32  17  19  1   
 33  17  33  1   
 34  17  34  1   
 35  19  20  1   
 36  19  35  1   
 37  19  36  1   
 38  20  37  1   
 39  20  38  1   
 40  20  39  1   
@<TRIPOS>SUBSTRUCTURE
  1 ****   4 GROUP 4 **** **** 0

# MOE 2024.06 (io_trps.svl 2023.06)
