@<TRIPOS>MOLECULE
NONAME
41 43 1 0 0 
SMALL
USER_CHARGES


@<TRIPOS>ATOM
  1 S        1.4080     0.2800     0.9690 S.3   1 <1>  -0.3320 
  2 C        1.5410    -1.3130     0.1260 C.ar  1 <1>   0.1020 
  3 C       -0.0750     0.2050     2.0690 C.3   1 <1>  -0.0100 
  4 C        2.4550    -1.4470    -0.9240 C.ar  1 <1>   0.0860 
  5 C        0.7440    -2.3750     0.5280 C.ar  1 <1>  -0.1500 
  6 C        3.3160    -0.3720    -1.3730 C.2   1 <1>   0.5440 
  7 C        2.5230    -2.6850    -1.5620 C.ar  1 <1>  -0.1500 
  8 C        0.8400    -3.5940    -0.1190 C.ar  1 <1>  -0.1500 
  9 O        3.1150     0.1230    -2.4660 O.2   1 <1>  -0.5700 
 10 N        4.3930     0.0640    -0.6300 N.am  1 <1>  -0.6600 
 11 C        1.7300    -3.7470    -1.1670 C.ar  1 <1>  -0.1500 
 12 C        5.2500     1.2130    -1.0610 C.3   1 <1>   0.1400 
 13 C        4.8360    -0.5520     0.6610 C.3   1 <1>   0.1400 
 14 C        6.7370     0.8210    -1.0910 C.3   1 <1>   0.2090 
 15 C        6.3290    -0.9230     0.6230 C.3   1 <1>   0.2090 
 16 N        7.1740     0.2410     0.2130 N.pl3 1 <1>  -0.8380 
 17 C        8.5360     0.1600     0.4260 C.ar  1 <1>   0.4100 
 18 N        9.0990    -1.0400     0.3410 N.ar  1 <1>  -0.6200 
 19 C        9.2530     1.3200     0.7060 C.ar  1 <1>  -0.1500 
 20 C       10.4070    -1.0790     0.5360 C.ar  1 <1>   0.1600 
 21 C       10.6120     1.2650     0.9070 C.ar  1 <1>  -0.1500 
 22 C       11.1990     0.0200     0.8150 C.ar  1 <1>  -0.1500 
 23 H       -0.2160     1.1850     2.4880 H     1 <1>   0.0800 
 24 H        0.1180    -0.5150     2.8440 H     1 <1>   0.0800 
 25 H       -0.9200    -0.0770     1.4680 H     1 <1>   0.0800 
 26 H        0.0480    -2.2760     1.3380 H     1 <1>   0.1500 
 27 H        3.2100    -2.8050    -2.3820 H     1 <1>   0.1500 
 28 H        0.2230    -4.4210     0.1880 H     1 <1>   0.1500 
 29 H        1.8040    -4.6930    -1.6770 H     1 <1>   0.1500 
 30 H        5.1150     2.0260    -0.3690 H     1 <1>   0.0800 
 31 H        4.9580     1.5610    -2.0360 H     1 <1>   0.0800 
 32 H        4.2650    -1.4350     0.8800 H     1 <1>   0.0800 
 33 H        4.6720     0.1530     1.4570 H     1 <1>   0.0800 
 34 H        7.3290     1.6900    -1.3200 H     1 <1>   0.0800 
 35 H        6.8950     0.0970    -1.8720 H     1 <1>   0.0800 
 36 H        6.4780    -1.7320    -0.0710 H     1 <1>   0.0800 
 37 H        6.6390    -1.2600     1.5970 H     1 <1>   0.0800 
 38 H        8.7220     2.2500     0.7680 H     1 <1>   0.1500 
 39 H       10.8750    -2.0460     0.4680 H     1 <1>   0.1500 
 40 H       11.1890     2.1470     1.1260 H     1 <1>   0.1500 
 41 H       12.2570    -0.0980     0.9610 H     1 <1>   0.1500 
@<TRIPOS>BOND
  1   1   2  1   
  2   1   3  1   
  3   2   4  ar  
  4   2   5  ar  
  5   3  23  1   
  6   3  24  1   
  7   3  25  1   
  8   4   6  1   
  9   4   7  ar  
 10   5   8  ar  
 11   5  26  1   
 12   6   9  2   
 13   6  10  am  
 14   7  11  ar  
 15   7  27  1   
 16   8  11  ar  
 17   8  28  1   
 18  10  12  1   
 19  10  13  1   
 20  11  29  1   
 21  12  14  1   
 22  12  30  1   
 23  12  31  1   
 24  13  15  1   
 25  13  32  1   
 26  13  33  1   
 27  14  16  1   
 28  14  34  1   
 29  14  35  1   
 30  15  16  1   
 31  15  36  1   
 32  15  37  1   
 33  16  17  1   
 34  17  18  ar  
 35  17  19  ar  
 36  18  20  ar  
 37  19  21  ar  
 38  19  38  1   
 39  20  22  ar  
 40  20  39  1   
 41  21  22  ar  
 42  21  40  1   
 43  22  41  1   
@<TRIPOS>SUBSTRUCTURE
  1 ****  13 GROUP 4 **** **** 0

# MOE 2024.06 (io_trps.svl 2023.06)
