@<TRIPOS>MOLECULE
NONAME
40 41 1 0 0 
SMALL
USER_CHARGES


@<TRIPOS>ATOM
  1 O       -0.6730     0.7330    -0.0340 O.2   1 <1>  -0.5700 
  2 C       -0.3040     1.8870     0.0960 C.2   1 <1>   0.6900 
  3 N        0.9190     2.1870     0.6840 N.am  1 <1>  -0.4200 
  4 N       -1.1470     2.9220    -0.3060 N.am  1 <1>  -0.4690 
  5 C        0.9790     3.3830     1.3840 C.2   1 <1>   0.6160 
  6 C        2.1040     1.2460     0.5950 C.3   1 <1>   0.3000 
  7 C       -0.9350     4.2160     0.1660 C.2   1 <1>  -0.0290 
  8 C       -2.3060     2.5810    -1.1920 C.3   1 <1>   0.2840 
  9 O        1.7370     3.5550     2.3210 O.2   1 <1>  -0.5700 
 10 C        0.0940     4.4300     1.0100 C.2   1 <1>  -0.1360 
 11 C        2.0570     0.2810     1.7830 C.3   1 <1>  -0.2400 
 12 C        3.4500     2.0030     0.6000 C.3   1 <1>  -0.2400 
 13 C        2.1110     0.4400    -0.7230 C.3   1 <1>  -0.2400 
 14 C       -1.8640     5.3500    -0.2440 C.3   1 <1>  -0.1020 
 15 C       -3.6340     2.6210    -0.4420 C.ar  1 <1>  -0.1440 
 16 C       -4.7000     3.3530    -0.9480 C.ar  1 <1>  -0.1500 
 17 C       -3.8000     1.9230     0.7450 C.ar  1 <1>  -0.1500 
 18 C       -5.9070     3.3940    -0.2730 C.ar  1 <1>  -0.1500 
 19 C       -5.0060     1.9630     1.4220 C.ar  1 <1>  -0.1500 
 20 C       -6.0610     2.7000     0.9140 C.ar  1 <1>  -0.1500 
 21 H       -2.1810     1.6020    -1.6190 H     1 <1>   0.0800 
 22 H       -2.3280     3.2740    -2.0130 H     1 <1>   0.0800 
 23 H        0.2980     5.3880     1.4480 H     1 <1>   0.1500 
 24 H        2.1050     0.8260     2.7090 H     1 <1>   0.0800 
 25 H        2.8890    -0.3980     1.7470 H     1 <1>   0.0800 
 26 H        1.1490    -0.2930     1.7630 H     1 <1>   0.0800 
 27 H        4.2610     1.3390     0.3600 H     1 <1>   0.0800 
 28 H        3.6810     2.4070     1.5670 H     1 <1>   0.0800 
 29 H        3.4400     2.7950    -0.1260 H     1 <1>   0.0800 
 30 H        3.0410    -0.0850    -0.8420 H     1 <1>   0.0800 
 31 H        1.9860     1.0950    -1.5660 H     1 <1>   0.0800 
 32 H        1.3460    -0.3130    -0.7390 H     1 <1>   0.0800 
 33 H       -2.8510     5.1810     0.1450 H     1 <1>   0.0800 
 34 H       -1.9100     5.4350    -1.3140 H     1 <1>   0.0800 
 35 H       -1.5120     6.2870     0.1490 H     1 <1>   0.0800 
 36 H       -4.5980     3.8960    -1.8710 H     1 <1>   0.1500 
 37 H       -2.9870     1.3420     1.1480 H     1 <1>   0.1500 
 38 H       -6.7290     3.9650    -0.6700 H     1 <1>   0.1500 
 39 H       -5.1220     1.4190     2.3430 H     1 <1>   0.1500 
 40 H       -6.9990     2.7310     1.4400 H     1 <1>   0.1500 
@<TRIPOS>BOND
  1   1   2  2   
  2   2   3  am  
  3   2   4  am  
  4   3   5  am  
  5   3   6  1   
  6   4   7  1   
  7   4   8  1   
  8   5   9  2   
  9   5  10  1   
 10   6  11  1   
 11   6  12  1   
 12   6  13  1   
 13   7  10  2   
 14   7  14  1   
 15   8  15  1   
 16   8  21  1   
 17   8  22  1   
 18  10  23  1   
 19  11  24  1   
 20  11  25  1   
 21  11  26  1   
 22  12  27  1   
 23  12  28  1   
 24  12  29  1   
 25  13  30  1   
 26  13  31  1   
 27  13  32  1   
 28  14  33  1   
 29  14  34  1   
 30  14  35  1   
 31  15  16  ar  
 32  15  17  ar  
 33  16  18  ar  
 34  16  36  1   
 35  17  19  ar  
 36  17  37  1   
 37  18  20  ar  
 38  18  38  1   
 39  19  20  ar  
 40  19  39  1   
 41  20  40  1   
@<TRIPOS>SUBSTRUCTURE
  1 ****   4 GROUP 4 **** **** 0

# MOE 2024.06 (io_trps.svl 2023.06)
