@<TRIPOS>MOLECULE
NONAME
30 31 1 0 0 
SMALL
USER_CHARGES


@<TRIPOS>ATOM
  1 S       -0.3240    -0.0050     0.0420 S.3   1 <1>  -0.2860 
  2 C       -0.2110    -1.7950     0.0000 C.2   1 <1>   0.2420 
  3 C        1.4420     0.5340     0.0270 C.3   1 <1>  -0.0100 
  4 N        0.9190    -2.4050    -0.0300 N.2   1 <1>  -0.5650 
  5 N       -1.3270    -2.5750     0.0020 N.pl3 1 <1>   0.0480 
  6 C        0.5540    -3.7130    -0.0490 C.ar  1 <1>   0.2270 
  7 C       -0.8290    -3.8550    -0.0300 C.ar  1 <1>  -0.1520 
  8 C       -2.7070    -2.0150     0.0510 C.3   1 <1>   0.0960 
  9 C        1.3860    -4.8300    -0.0820 C.ar  1 <1>  -0.1500 
 10 C       -1.3910    -5.1390    -0.0440 C.ar  1 <1>  -0.1500 
 11 C       -3.8380    -3.0420    -0.0330 C.3   1 <1>  -0.1600 
 12 C        0.8280    -6.0880    -0.0960 C.ar  1 <1>  -0.1500 
 13 C       -0.5620    -6.2380    -0.0760 C.ar  1 <1>  -0.1500 
 14 C       -5.2130    -2.3530    -0.0190 C.3   1 <1>  -0.2660 
 15 C       -6.3440    -3.3520    -0.0960 C.2   1 <1>   0.9060 
 16 O       -6.9780    -3.4440    -1.1510 O.co2 1 <1>  -0.9000 
 17 O       -6.5820    -4.0430     0.8970 O.co2 1 <1>  -0.9000 
 18 H        1.4610     1.6080     0.0510 H     1 <1>   0.0800 
 19 H        1.8910     0.1560    -0.8730 H     1 <1>   0.0800 
 20 H        1.9180     0.1160     0.8950 H     1 <1>   0.0800 
 21 H       -2.8100    -1.3230    -0.7660 H     1 <1>   0.0800 
 22 H       -2.8070    -1.4610     0.9670 H     1 <1>   0.0800 
 23 H        2.4490    -4.6790    -0.0960 H     1 <1>   0.1500 
 24 H       -2.4550    -5.2840    -0.0300 H     1 <1>   0.1500 
 25 H       -3.7920    -3.7070     0.8130 H     1 <1>   0.0800 
 26 H       -3.7530    -3.6110    -0.9430 H     1 <1>   0.0800 
 27 H        1.4550    -6.9620    -0.1210 H     1 <1>   0.1500 
 28 H       -0.9840    -7.2290    -0.0870 H     1 <1>   0.1500 
 29 H       -5.3070    -1.6840    -0.8540 H     1 <1>   0.0800 
 30 H       -5.3420    -1.7930     0.8870 H     1 <1>   0.0800 
@<TRIPOS>BOND
  1   1   2  1   
  2   1   3  1   
  3   2   4  2   
  4   2   5  1   
  5   3  18  1   
  6   3  19  1   
  7   3  20  1   
  8   4   6  1   
  9   5   7  1   
 10   5   8  1   
 11   6   7  ar  
 12   6   9  ar  
 13   7  10  ar  
 14   8  11  1   
 15   8  21  1   
 16   8  22  1   
 17   9  12  ar  
 18   9  23  1   
 19  10  13  ar  
 20  10  24  1   
 21  11  14  1   
 22  11  25  1   
 23  11  26  1   
 24  12  13  ar  
 25  12  27  1   
 26  13  28  1   
 27  14  15  1   
 28  14  29  1   
 29  14  30  1   
 30  15  16  ar  
 31  15  17  ar  
@<TRIPOS>SUBSTRUCTURE
  1 ****   5 GROUP 4 **** **** 0

# MOE 2024.06 (io_trps.svl 2023.06)
