@<TRIPOS>MOLECULE
NONAME
55 60 1 0 0 
SMALL
USER_CHARGES


@<TRIPOS>ATOM
  1 O       -1.2930     0.2250     1.8000 O.3   1 <1>  -0.6800 
  2 C       -2.3770     0.3520     0.9750 C.3   1 <1>   0.2800 
  3 C       -3.0540     1.6970     1.2730 C.3   1 <1>  -0.1600 
  4 C       -3.3520    -0.8020     1.2520 C.3   1 <1>  -0.1600 
  5 C       -1.9190     0.3100    -0.4890 C.3   1 <1>  -0.1600 
  6 C       -4.2940     1.8590     0.3680 C.3   1 <1>  -0.0800 
  7 C       -4.5940    -0.6480     0.3480 C.3   1 <1>  -0.0800 
  8 C       -3.1480     0.4640    -1.4090 C.3   1 <1>  -0.0800 
  9 C       -5.2740     0.7050     0.6770 C.3   1 <1>   0.4230 
 10 C       -3.8290     1.8150    -1.1080 C.3   1 <1>  -0.1600 
 11 C       -4.1320    -0.6900    -1.1290 C.3   1 <1>  -0.1600 
 12 N       -6.5100     0.8940    -0.1180 N.4   1 <1>  -0.9060 
 13 C       -7.6250    -0.0310     0.1890 C.3   1 <1>   0.4230 
 14 C       -8.7570     0.1780    -0.8430 C.3   1 <1>  -0.0800 
 15 C       -8.1790     0.2120     1.6150 C.3   1 <1>  -0.0800 
 16 C       -9.8700    -0.8570    -0.5660 C.3   1 <1>  -0.1600 
 17 C       -9.3680     1.5950    -0.7180 C.3   1 <1>  -0.1600 
 18 C       -9.2920    -0.8220     1.8840 C.3   1 <1>  -0.1600 
 19 C       -8.7880     1.6300     1.7370 C.3   1 <1>  -0.1600 
 20 C      -10.4160    -0.6430     0.8540 C.3   1 <1>   0.2800 
 21 C       -9.9210     1.8110     0.7060 C.3   1 <1>  -0.0800 
 22 O      -11.3800    -1.5810     1.1050 O.3   1 <1>  -0.6800 
 23 C      -11.0190     0.7630     0.9790 C.3   1 <1>  -0.1600 
 24 H       -0.7800    -0.5690     1.5630 H     1 <1>   0.4000 
 25 H       -3.3410     1.7390     2.3100 H     1 <1>   0.0800 
 26 H       -2.3590     2.4980     1.0890 H     1 <1>   0.0800 
 27 H       -3.6440    -0.7890     2.2890 H     1 <1>   0.0800 
 28 H       -2.8720    -1.7440     1.0510 H     1 <1>   0.0800 
 29 H       -1.4260    -0.6230    -0.6990 H     1 <1>   0.0800 
 30 H       -1.2220     1.1090    -0.6770 H     1 <1>   0.0800 
 31 H       -4.7550     2.8070     0.5870 H     1 <1>   0.0800 
 32 H       -5.2590    -1.4680     0.5550 H     1 <1>   0.0800 
 33 H       -2.8300     0.4350    -2.4390 H     1 <1>   0.0800 
 34 H       -5.5130     0.7330     1.7270 H     1 <1>   0.0800 
 35 H       -3.1270     2.6130    -1.2870 H     1 <1>   0.0800 
 36 H       -4.6520     1.9710    -1.7820 H     1 <1>   0.0800 
 37 H       -3.6430    -1.6290    -1.3260 H     1 <1>   0.0800 
 38 H       -4.9710    -0.6300    -1.7990 H     1 <1>   0.0800 
 39 H       -6.2560     0.8060    -1.1060 H     1 <1>   0.4500 
 40 H       -6.8560     1.8480     0.0200 H     1 <1>   0.4500 
 41 H       -7.2800    -1.0500     0.1160 H     1 <1>   0.0800 
 42 H       -8.3830     0.0190    -1.8400 H     1 <1>   0.0800 
 43 H       -7.4100     0.0710     2.3530 H     1 <1>   0.0800 
 44 H       -9.4780    -1.8560    -0.6580 H     1 <1>   0.0800 
 45 H      -10.6620    -0.7390    -1.2860 H     1 <1>   0.0800 
 46 H       -8.6420     2.3540    -0.9500 H     1 <1>   0.0800 
 47 H      -10.1690     1.7060    -1.4310 H     1 <1>   0.0800 
 48 H       -8.8970    -1.8210     1.8200 H     1 <1>   0.0800 
 49 H       -9.6880    -0.6840     2.8760 H     1 <1>   0.0800 
 50 H       -8.0380     2.3880     1.6000 H     1 <1>   0.0800 
 51 H       -9.1880     1.7640     2.7290 H     1 <1>   0.0800 
 52 H      -10.3410     2.8000     0.7910 H     1 <1>   0.0800 
 53 H      -12.1550    -1.4300     0.5340 H     1 <1>   0.4000 
 54 H      -11.4160     0.9030     1.9700 H     1 <1>   0.0800 
 55 H      -11.8210     0.8890     0.2740 H     1 <1>   0.0800 
@<TRIPOS>BOND
  1   1   2  1   
  2   1  24  1   
  3   2   3  1   
  4   2   4  1   
  5   2   5  1   
  6   3   6  1   
  7   3  25  1   
  8   3  26  1   
  9   4   7  1   
 10   4  27  1   
 11   4  28  1   
 12   5   8  1   
 13   5  29  1   
 14   5  30  1   
 15   6   9  1   
 16   6  10  1   
 17   6  31  1   
 18   7   9  1   
 19   7  11  1   
 20   7  32  1   
 21   8  10  1   
 22   8  11  1   
 23   8  33  1   
 24   9  12  1   
 25   9  34  1   
 26  10  35  1   
 27  10  36  1   
 28  11  37  1   
 29  11  38  1   
 30  12  13  1   
 31  12  39  1   
 32  12  40  1   
 33  13  14  1   
 34  13  15  1   
 35  13  41  1   
 36  14  16  1   
 37  14  17  1   
 38  14  42  1   
 39  15  18  1   
 40  15  19  1   
 41  15  43  1   
 42  16  20  1   
 43  16  44  1   
 44  16  45  1   
 45  17  21  1   
 46  17  46  1   
 47  17  47  1   
 48  18  20  1   
 49  18  48  1   
 50  18  49  1   
 51  19  21  1   
 52  19  50  1   
 53  19  51  1   
 54  20  22  1   
 55  20  23  1   
 56  21  23  1   
 57  21  52  1   
 58  22  53  1   
 59  23  54  1   
 60  23  55  1   
@<TRIPOS>SUBSTRUCTURE
  1 ****  12 GROUP 4 **** **** 0

# MOE 2024.06 (io_trps.svl 2023.06)
