@<TRIPOS>MOLECULE
Structure604
21 21 1 0 0 
SMALL
USER_CHARGES


@<TRIPOS>ATOM
  1 CL      -0.0990     0.4000     1.3000 Cl    1 <1>  -0.1770 
  2 C       -1.5080     0.9090     0.4150 C.ar  1 <1>   0.4870 
  3 N       -1.2990     1.5130    -0.7340 N.ar  1 <1>  -0.6200 
  4 C       -2.7430     0.6660     0.9390 C.ar  1 <1>  -0.1500 
  5 C       -2.4100     1.8710    -1.3500 C.ar  1 <1>   0.4700 
  6 C       -3.8250     1.0880     0.2000 C.ar  1 <1>   0.4100 
  7 N       -3.6570     1.6970    -0.9560 N.ar  1 <1>  -0.6200 
  8 N       -5.0990     0.8780     0.6580 N.pl3 1 <1>  -0.8690 
  9 C       -6.3360     1.2530    -0.0380 C.3   1 <1>   0.2890 
 10 C       -7.2520     1.9280     0.9740 C.3   1 <1>  -0.2400 
 11 C       -6.9650    -0.0180    -0.5960 C.3   1 <1>  -0.2400 
 12 H       -2.8660     0.1710     1.8800 H     1 <1>   0.1500 
 13 H       -2.2820     2.3700    -2.2960 H     1 <1>   0.1500 
 14 H       -5.2410     0.3320     1.5070 H     1 <1>   0.4000 
 15 H       -6.1260     1.9380    -0.8430 H     1 <1>   0.0800 
 16 H       -7.4870     1.2620     1.7830 H     1 <1>   0.0800 
 17 H       -8.1680     2.2240     0.4950 H     1 <1>   0.0800 
 18 H       -6.7750     2.8100     1.3630 H     1 <1>   0.0800 
 19 H       -7.1870    -0.7130     0.1920 H     1 <1>   0.0800 
 20 H       -6.2890    -0.4760    -1.2960 H     1 <1>   0.0800 
 21 H       -7.8760     0.2220    -1.1130 H     1 <1>   0.0800 
@<TRIPOS>BOND
  1   1   2  1   
  2   2   3  ar  
  3   2   4  ar  
  4   3   5  ar  
  5   4   6  ar  
  6   4  12  1   
  7   5   7  ar  
  8   5  13  1   
  9   6   7  ar  
 10   6   8  1   
 11   8   9  1   
 12   8  14  1   
 13   9  10  1   
 14   9  11  1   
 15   9  15  1   
 16  10  16  1   
 17  10  17  1   
 18  10  18  1   
 19  11  19  1   
 20  11  20  1   
 21  11  21  1   
@<TRIPOS>SUBSTRUCTURE
  1 ****   6 GROUP 4 **** **** 0

# MOE 2024.06 (io_trps.svl 2023.06)
