@<TRIPOS>MOLECULE
NONAME
33 34 1 0 0 
SMALL
USER_CHARGES


@<TRIPOS>ATOM
  1 S       -0.0030    -0.0940    -1.3390 S.o2  1 <1>   1.4470 
  2 O        0.2930     1.1720    -1.9760 O.2   1 <1>  -0.6500 
  3 O       -0.5910    -1.1480    -2.1360 O.2   1 <1>  -0.6500 
  4 N       -1.0330     0.2180    -0.0160 N.am  1 <1>  -0.8490 
  5 C        1.4980    -0.7610    -0.5690 C.ar  1 <1>  -0.0090 
  6 C       -0.8840     1.5530     0.5760 C.3   1 <1>   0.1960 
  7 C       -2.4400    -0.0760    -0.3030 C.3   1 <1>   0.1960 
  8 C        2.7580    -0.3370    -0.9790 C.ar  1 <1>  -0.1500 
  9 C        1.4140    -1.7280     0.4410 C.ar  1 <1>  -0.1500 
 10 C        0.4550     1.6960     1.2950 C.3   1 <1>  -0.2400 
 11 C       -2.7530    -1.4930     0.1690 C.3   1 <1>  -0.2400 
 12 C        3.8880    -0.8680    -0.3790 C.ar  1 <1>   0.1170 
 13 C        2.5410    -2.2610     1.0430 C.ar  1 <1>  -0.1500 
 14 N        5.2400    -0.6320    -0.5800 N.am  1 <1>  -0.5470 
 15 C        3.7830    -1.8180     0.6220 C.ar  1 <1>   0.1170 
 16 C        5.9380    -1.4200     0.2710 C.2   1 <1>   0.6900 
 17 N        5.0710    -2.1470     1.0140 N.am  1 <1>  -0.5470 
 18 O        7.1500    -1.4680     0.3530 O.2   1 <1>  -0.5700 
 19 H       -1.6560     1.7030     1.3120 H     1 <1>   0.0800 
 20 H       -0.9940     2.3170    -0.1780 H     1 <1>   0.0800 
 21 H       -2.6500     0.0320    -1.3560 H     1 <1>   0.0800 
 22 H       -3.0900     0.5990     0.2270 H     1 <1>   0.0800 
 23 H        2.8610     0.3990    -1.7560 H     1 <1>   0.1500 
 24 H        0.4380    -2.0610     0.7540 H     1 <1>   0.1500 
 25 H        0.6080     0.8750     1.9720 H     1 <1>   0.0800 
 26 H        0.4550     2.6080     1.8640 H     1 <1>   0.0800 
 27 H        1.2680     1.7520     0.5950 H     1 <1>   0.0800 
 28 H       -2.1670    -2.2150    -0.3710 H     1 <1>   0.0800 
 29 H       -3.7910    -1.7080    -0.0040 H     1 <1>   0.0800 
 30 H       -2.5550    -1.5860     1.2210 H     1 <1>   0.0800 
 31 H        2.4640    -3.0020     1.8180 H     1 <1>   0.1500 
 32 H        5.6910    -0.0080    -1.2450 H     1 <1>   0.3700 
 33 H        5.3780    -2.8180     1.7140 H     1 <1>   0.3700 
@<TRIPOS>BOND
  1   1   2  2   
  2   1   3  2   
  3   1   4  am  
  4   1   5  1   
  5   4   6  1   
  6   4   7  1   
  7   5   8  ar  
  8   5   9  ar  
  9   6  10  1   
 10   6  19  1   
 11   6  20  1   
 12   7  11  1   
 13   7  21  1   
 14   7  22  1   
 15   8  12  ar  
 16   8  23  1   
 17   9  13  ar  
 18   9  24  1   
 19  10  25  1   
 20  10  26  1   
 21  10  27  1   
 22  11  28  1   
 23  11  29  1   
 24  11  30  1   
 25  12  14  1   
 26  12  15  ar  
 27  13  15  ar  
 28  13  31  1   
 29  14  16  am  
 30  14  32  1   
 31  15  17  1   
 32  16  17  am  
 33  16  18  2   
 34  17  33  1   
@<TRIPOS>SUBSTRUCTURE
  1 ****   5 GROUP 4 **** **** 0

# MOE 2024.06 (io_trps.svl 2023.06)
