@<TRIPOS>MOLECULE
NONAME
37 37 1 0 0 
SMALL
USER_CHARGES


@<TRIPOS>ATOM
  1 O        0.3780     0.1570     0.5670 O.2   1 <1>  -0.5700 
  2 C        0.0930     1.1610    -0.0550 C.2   1 <1>   0.7800 
  3 O       -1.1460     1.6500    -0.0700 O.3   1 <1>  -0.4300 
  4 N        0.9940     1.8490    -0.7820 N.am  1 <1>  -0.7300 
  5 C       -2.2720     1.1390     0.6070 C.3   1 <1>   0.2800 
  6 C        2.4910     1.7660    -0.6870 C.3   1 <1>   0.1140 
  7 C       -2.6050    -0.2690     0.0970 C.3   1 <1>  -0.2400 
  8 C       -3.4170     2.0880     0.2490 C.3   1 <1>  -0.2400 
  9 C       -2.0420     1.1740     2.1220 C.3   1 <1>  -0.2400 
 10 C        3.1540     3.0950    -1.1110 C.2   1 <1>   0.9060 
 11 C        3.0000     0.5880    -1.5340 C.3   1 <1>  -0.0170 
 12 O        2.4180     4.0150    -1.5070 O.co2 1 <1>  -0.9000 
 13 O        4.3840     3.2200    -1.0680 O.co2 1 <1>  -0.9000 
 14 C        3.9280    -0.3120    -0.7290 C.ar  1 <1>  -0.1440 
 15 C        5.2710     0.0070    -0.6090 C.ar  1 <1>  -0.1500 
 16 C        3.4390    -1.4470    -0.1020 C.ar  1 <1>  -0.1500 
 17 C        6.1220    -0.8110     0.1150 C.ar  1 <1>  -0.1500 
 18 C        4.2870    -2.2660     0.6220 C.ar  1 <1>  -0.1500 
 19 C        5.6310    -1.9510     0.7290 C.ar  1 <1>  -0.1500 
 20 H        0.7260     2.7700    -1.1540 H     1 <1>   0.3700 
 21 H        2.7540     1.6000     0.3420 H     1 <1>   0.0800 
 22 H       -3.5410    -0.5970     0.5090 H     1 <1>   0.0800 
 23 H       -1.8520    -0.9750     0.3940 H     1 <1>   0.0800 
 24 H       -2.6840    -0.2670    -0.9750 H     1 <1>   0.0800 
 25 H       -3.5740     2.0950    -0.8140 H     1 <1>   0.0800 
 26 H       -3.1870     3.0860     0.5760 H     1 <1>   0.0800 
 27 H       -4.3280     1.7740     0.7260 H     1 <1>   0.0800 
 28 H       -1.2900     0.4650     2.4160 H     1 <1>   0.0800 
 29 H       -2.9490     0.9200     2.6390 H     1 <1>   0.0800 
 30 H       -1.7360     2.1580     2.4290 H     1 <1>   0.0800 
 31 H        3.5280     0.9610    -2.3950 H     1 <1>   0.0800 
 32 H        2.1720     0.0040    -1.8930 H     1 <1>   0.0800 
 33 H        5.6490     0.9040    -1.0750 H     1 <1>   0.1500 
 34 H        2.3910    -1.6850    -0.1730 H     1 <1>   0.1500 
 35 H        7.1610    -0.5520     0.2000 H     1 <1>   0.1500 
 36 H        3.8980    -3.1440     1.1040 H     1 <1>   0.1500 
 37 H        6.2910    -2.5850     1.2910 H     1 <1>   0.1500 
@<TRIPOS>BOND
  1   1   2  2   
  2   2   3  1   
  3   2   4  am  
  4   3   5  1   
  5   4   6  1   
  6   4  20  1   
  7   5   7  1   
  8   5   8  1   
  9   5   9  1   
 10   6  10  1   
 11   6  11  1   
 12   6  21  1   
 13   7  22  1   
 14   7  23  1   
 15   7  24  1   
 16   8  25  1   
 17   8  26  1   
 18   8  27  1   
 19   9  28  1   
 20   9  29  1   
 21   9  30  1   
 22  10  12  ar  
 23  10  13  ar  
 24  11  14  1   
 25  11  31  1   
 26  11  32  1   
 27  14  15  ar  
 28  14  16  ar  
 29  15  17  ar  
 30  15  33  1   
 31  16  18  ar  
 32  16  34  1   
 33  17  19  ar  
 34  17  35  1   
 35  18  19  ar  
 36  18  36  1   
 37  19  37  1   
@<TRIPOS>SUBSTRUCTURE
  1 ****   6 GROUP 4 **** **** 0

# MOE 2024.06 (io_trps.svl 2023.06)
