@<TRIPOS>MOLECULE
NONAME
45 47 1 0 0 
SMALL
USER_CHARGES


@<TRIPOS>ATOM
  1 S       -0.7390     0.4880     2.7360 S.2   1 <1>  -0.6770 
  2 P       -0.7200    -0.6420     1.1520 P.3   1 <1>   1.2200 
  3 O       -1.6200    -1.9550     1.3640 O.3   1 <1>  -0.5510 
  4 O       -1.4890     0.0580    -0.0680 O.3   1 <1>  -0.5510 
  5 C        0.8790    -1.1850     0.4820 C.3   1 <1>   0.4330 
  6 C       -2.3970    -2.4230     0.3140 C.3   1 <1>   0.1200 
  7 C       -2.8740     0.0810    -0.0150 C.3   1 <1>   0.1200 
  8 N        1.7500    -2.0940     1.3050 N.pl3 1 <1>  -0.8690 
  9 C        1.8030    -0.0450     0.0560 C.ar  1 <1>  -0.1440 
 10 C       -3.4470    -1.3600    -0.1000 C.3   1 <1>   0.0000 
 11 C        1.7720    -3.4230     0.9190 C.ar  1 <1>   0.1000 
 12 C        2.1470     0.1160    -1.2790 C.ar  1 <1>  -0.1500 
 13 C        2.3160     0.8390     0.9960 C.ar  1 <1>  -0.1500 
 14 C       -4.6710    -1.4630     0.8250 C.3   1 <1>  -0.2400 
 15 C       -3.8960    -1.6520    -1.5420 C.3   1 <1>  -0.2400 
 16 C        2.7930    -3.9030     0.1090 C.ar  1 <1>  -0.1500 
 17 C        0.7680    -4.2920     1.3240 C.ar  1 <1>  -0.1500 
 18 C        2.9870     1.1450    -1.6680 C.ar  1 <1>  -0.1500 
 19 C        3.1550     1.8680     0.6080 C.ar  1 <1>  -0.1500 
 20 C        2.8010    -5.2230    -0.3020 C.ar  1 <1>  -0.1500 
 21 C        0.7720    -5.6120     0.9140 C.ar  1 <1>  -0.1500 
 22 C        3.4910     2.0220    -0.7250 C.ar  1 <1>  -0.1500 
 23 C        1.7880    -6.0800     0.0970 C.ar  1 <1>  -0.1500 
 24 H        0.6540    -1.7310    -0.4160 H     1 <1>   0.0800 
 25 H       -2.8740    -3.3350     0.6300 H     1 <1>   0.0800 
 26 H       -1.7380    -2.6510    -0.5070 H     1 <1>   0.0800 
 27 H       -3.2300     0.6930    -0.8250 H     1 <1>   0.0800 
 28 H       -3.1550     0.5550     0.9120 H     1 <1>   0.0800 
 29 H        2.6850    -1.6710     1.3430 H     1 <1>   0.4000 
 30 H        1.7680    -0.5560    -2.0300 H     1 <1>   0.1500 
 31 H        2.0670     0.7360     2.0410 H     1 <1>   0.1500 
 32 H       -4.3810    -1.2980     1.8490 H     1 <1>   0.0800 
 33 H       -5.1210    -2.4380     0.7570 H     1 <1>   0.0800 
 34 H       -5.4120    -0.7290     0.5600 H     1 <1>   0.0800 
 35 H       -3.0680    -1.5540    -2.2220 H     1 <1>   0.0800 
 36 H       -4.6650    -0.9620    -1.8470 H     1 <1>   0.0800 
 37 H       -4.2880    -2.6500    -1.6230 H     1 <1>   0.0800 
 38 H        3.5790    -3.2390    -0.2010 H     1 <1>   0.1500 
 39 H       -0.0110    -3.9290     1.9710 H     1 <1>   0.1500 
 40 H        3.2490     1.2650    -2.7050 H     1 <1>   0.1500 
 41 H        3.5440     2.5500     1.3440 H     1 <1>   0.1500 
 42 H        3.5940    -5.5870    -0.9320 H     1 <1>   0.1500 
 43 H       -0.0110    -6.2770     1.2340 H     1 <1>   0.1500 
 44 H        4.1430     2.8240    -1.0270 H     1 <1>   0.1500 
 45 H        1.7930    -7.1070    -0.2220 H     1 <1>   0.1500 
@<TRIPOS>BOND
  1   1   2  2   
  2   2   3  1   
  3   2   4  1   
  4   2   5  1   
  5   3   6  1   
  6   4   7  1   
  7   5   8  1   
  8   5   9  1   
  9   5  24  1   
 10   6  10  1   
 11   6  25  1   
 12   6  26  1   
 13   7  10  1   
 14   7  27  1   
 15   7  28  1   
 16   8  11  1   
 17   8  29  1   
 18   9  12  ar  
 19   9  13  ar  
 20  10  14  1   
 21  10  15  1   
 22  11  16  ar  
 23  11  17  ar  
 24  12  18  ar  
 25  12  30  1   
 26  13  19  ar  
 27  13  31  1   
 28  14  32  1   
 29  14  33  1   
 30  14  34  1   
 31  15  35  1   
 32  15  36  1   
 33  15  37  1   
 34  16  20  ar  
 35  16  38  1   
 36  17  21  ar  
 37  17  39  1   
 38  18  22  ar  
 39  18  40  1   
 40  19  22  ar  
 41  19  41  1   
 42  20  23  ar  
 43  20  42  1   
 44  21  23  ar  
 45  21  43  1   
 46  22  44  1   
 47  23  45  1   
@<TRIPOS>SUBSTRUCTURE
  1 ****   5 GROUP 4 **** **** 0

# MOE 2024.06 (io_trps.svl 2023.06)
