@<TRIPOS>MOLECULE
NONAME
38 38 1 0 0 
SMALL
USER_CHARGES


@<TRIPOS>ATOM
  1 O        0.3010    -0.0850    -1.7050 O.2   1 <1>  -0.5700 
  2 C        0.5460    -0.8830    -0.8200 C.2   1 <1>   0.5440 
  3 N        1.7940    -0.8630    -0.2220 N.am  1 <1>  -0.6600 
  4 C       -0.4770    -1.8360    -0.4370 C.ar  1 <1>   0.0860 
  5 C        2.2830    -1.9350     0.6910 C.3   1 <1>   0.1400 
  6 C        2.7330     0.2700    -0.4550 C.3   1 <1>   0.1400 
  7 C       -1.0110    -1.8630     0.8510 C.ar  1 <1>  -0.1500 
  8 C       -0.9680    -2.7610    -1.3580 C.ar  1 <1>  -0.1500 
  9 C        2.5980    -3.2140    -0.0920 C.3   1 <1>  -0.1600 
 10 C        3.8070    -0.1320    -1.4630 C.3   1 <1>  -0.2400 
 11 C       -1.9720    -2.7890     1.2100 C.ar  1 <1>  -0.1500 
 12 C       -1.9300    -3.6910    -1.0080 C.ar  1 <1>  -0.1500 
 13 C        3.1380    -4.3100     0.8350 C.3   1 <1>  -0.1600 
 14 C       -2.4380    -3.7130     0.2880 C.ar  1 <1>   0.0820 
 15 C        3.4460    -5.5890     0.0510 C.3   1 <1>  -0.2400 
 16 O       -3.3740    -4.5880     0.7170 O.3   1 <1>  -0.3620 
 17 C       -3.9370    -5.5530    -0.1440 C.3   1 <1>   0.0400 
 18 H        1.5420    -2.1410     1.4430 H     1 <1>   0.0800 
 19 H        3.1720    -1.5990     1.1970 H     1 <1>   0.0800 
 20 H        3.1870     0.5620     0.4760 H     1 <1>   0.0800 
 21 H        2.1920     1.1210    -0.8330 H     1 <1>   0.0800 
 22 H       -0.6650    -1.1440     1.5730 H     1 <1>   0.1500 
 23 H       -0.5800    -2.7390    -2.3620 H     1 <1>   0.1500 
 24 H        3.3270    -2.9990    -0.8510 H     1 <1>   0.0800 
 25 H        1.7060    -3.5730    -0.5720 H     1 <1>   0.0800 
 26 H        4.4310    -0.9100    -1.0650 H     1 <1>   0.0800 
 27 H        4.4250     0.7170    -1.6880 H     1 <1>   0.0800 
 28 H        3.3430    -0.4680    -2.3740 H     1 <1>   0.0800 
 29 H       -2.3740    -2.8020     2.2070 H     1 <1>   0.1500 
 30 H       -2.2740    -4.3840    -1.7520 H     1 <1>   0.1500 
 31 H        2.4100    -4.5310     1.5970 H     1 <1>   0.0800 
 32 H        4.0370    -3.9670     1.3190 H     1 <1>   0.0800 
 33 H        2.5550    -5.9640    -0.4220 H     1 <1>   0.0800 
 34 H        3.8240    -6.3460     0.7160 H     1 <1>   0.0800 
 35 H        4.1860    -5.3980    -0.7060 H     1 <1>   0.0800 
 36 H       -4.6560    -6.1220     0.4170 H     1 <1>   0.0800 
 37 H       -3.1560    -6.2010    -0.5000 H     1 <1>   0.0800 
 38 H       -4.4240    -5.0510    -0.9610 H     1 <1>   0.0800 
@<TRIPOS>BOND
  1   1   2  2   
  2   2   3  am  
  3   2   4  1   
  4   3   5  1   
  5   3   6  1   
  6   4   7  ar  
  7   4   8  ar  
  8   5   9  1   
  9   5  18  1   
 10   5  19  1   
 11   6  10  1   
 12   6  20  1   
 13   6  21  1   
 14   7  11  ar  
 15   7  22  1   
 16   8  12  ar  
 17   8  23  1   
 18   9  13  1   
 19   9  24  1   
 20   9  25  1   
 21  10  26  1   
 22  10  27  1   
 23  10  28  1   
 24  11  14  ar  
 25  11  29  1   
 26  12  14  ar  
 27  12  30  1   
 28  13  15  1   
 29  13  31  1   
 30  13  32  1   
 31  14  16  1   
 32  15  33  1   
 33  15  34  1   
 34  15  35  1   
 35  16  17  1   
 36  17  36  1   
 37  17  37  1   
 38  17  38  1   
@<TRIPOS>SUBSTRUCTURE
  1 ****   4 GROUP 4 **** **** 0

# MOE 2024.06 (io_trps.svl 2023.06)
