@<TRIPOS>MOLECULE
NONAME
31 31 1 0 0 
SMALL
USER_CHARGES


@<TRIPOS>ATOM
  1 S        0.0420     0.1180     0.3670 S.3   1 <1>  -0.4600 
  2 C       -1.4840     1.0810     0.1820 C.3   1 <1>   0.1500 
  3 C        1.3410     1.2200    -0.2490 C.3   1 <1>   0.1500 
  4 C       -1.2800     2.4400     0.8780 C.3   1 <1>  -0.0190 
  5 C       -1.8200     1.1440    -1.3140 C.3   1 <1>  -0.2400 
  6 C        1.2320     2.5510     0.4960 C.3   1 <1>  -0.0990 
  7 C        2.6730     0.5130    -0.0060 C.3   1 <1>  -0.2400 
  8 C       -0.1110     3.2080     0.2230 C.2   1 <1>   0.3280 
  9 C       -2.6270     3.1730     1.0560 C.3   1 <1>  -0.2400 
 10 N       -0.1210     4.2560    -0.4970 N.2   1 <1>  -0.5120 
 11 N       -1.2710     4.9470    -0.8620 N.am  1 <1>  -0.3680 
 12 C       -1.3790     6.0610    -1.6450 C.2   1 <1>   0.6900 
 13 O       -2.4680     6.5440    -1.8630 O.2   1 <1>  -0.5700 
 14 N       -0.2800     6.6210    -2.1690 N.am  1 <1>  -0.8000 
 15 H       -2.2420     0.5160     0.6970 H     1 <1>   0.0800 
 16 H        1.1720     1.3560    -1.3040 H     1 <1>   0.0800 
 17 H       -0.9610     2.2190     1.8820 H     1 <1>   0.0800 
 18 H       -1.0860     1.7070    -1.8600 H     1 <1>   0.0800 
 19 H       -2.7800     1.6030    -1.4630 H     1 <1>   0.0800 
 20 H       -1.8610     0.1480    -1.7180 H     1 <1>   0.0800 
 21 H        1.3630     2.4000     1.5520 H     1 <1>   0.0800 
 22 H        2.0190     3.2010     0.1600 H     1 <1>   0.0800 
 23 H        2.8150     0.3280     1.0440 H     1 <1>   0.0800 
 24 H        3.4860     1.1180    -0.3660 H     1 <1>   0.0800 
 25 H        2.6890    -0.4260    -0.5290 H     1 <1>   0.0800 
 26 H       -3.1370     3.3070     0.1200 H     1 <1>   0.0800 
 27 H       -2.4710     4.1300     1.5220 H     1 <1>   0.0800 
 28 H       -3.2710     2.5960     1.6970 H     1 <1>   0.0800 
 29 H       -2.1760     4.6240    -0.5190 H     1 <1>   0.3700 
 30 H       -0.3410     7.4680    -2.7270 H     1 <1>   0.3700 
 31 H        0.6320     6.2230    -1.9550 H     1 <1>   0.3700 
@<TRIPOS>BOND
  1   1   2  1   
  2   1   3  1   
  3   2   4  1   
  4   2   5  1   
  5   2  15  1   
  6   3   6  1   
  7   3   7  1   
  8   3  16  1   
  9   4   8  1   
 10   4   9  1   
 11   4  17  1   
 12   5  18  1   
 13   5  19  1   
 14   5  20  1   
 15   6   8  1   
 16   6  21  1   
 17   6  22  1   
 18   7  23  1   
 19   7  24  1   
 20   7  25  1   
 21   8  10  2   
 22   9  26  1   
 23   9  27  1   
 24   9  28  1   
 25  10  11  1   
 26  11  12  am  
 27  11  29  1   
 28  12  13  2   
 29  12  14  am  
 30  14  30  1   
 31  14  31  1   
@<TRIPOS>SUBSTRUCTURE
  1 ****   8 GROUP 4 **** **** 0

# MOE 2024.06 (io_trps.svl 2023.06)
