@<TRIPOS>MOLECULE
NONAME
38 39 1 0 0 
SMALL
USER_CHARGES


@<TRIPOS>ATOM
  1 CL       0.2320    -2.5190     0.8240 Cl    1 <1>  -0.1400 
  2 C       -0.7860    -1.8880    -0.4480 C.2   1 <1>   0.0020 
  3 C       -2.0250    -1.4370    -0.2270 C.2   1 <1>  -0.2880 
  4 C       -0.0820    -1.9220    -1.7880 C.3   1 <1>  -0.1020 
  5 C       -2.7610    -1.3920     1.1040 C.3   1 <1>   0.1160 
  6 C       -4.0770    -2.1670     1.0100 C.2   1 <1>  -0.1240 
  7 C       -5.2200    -1.4450     0.5400 C.2   1 <1>   0.4690 
  8 C       -4.1900    -3.4840     1.3510 C.2   1 <1>  -0.0380 
  9 O       -5.1300    -0.2690     0.1990 O.2   1 <1>  -0.5700 
 10 C       -6.4910    -2.1210     0.4680 C.ar  1 <1>   0.0860 
 11 N       -5.4060    -4.1090     1.2760 N.pl3 1 <1>  -0.6000 
 12 C       -3.0630    -4.3890     1.8240 C.3   1 <1>  -0.1020 
 13 C       -6.5590    -3.4680     0.8470 C.ar  1 <1>   0.1000 
 14 C       -7.6670    -1.4980     0.0370 C.ar  1 <1>  -0.1500 
 15 C       -7.7720    -4.1510     0.7900 C.ar  1 <1>  -0.1500 
 16 C       -8.8670    -2.1750    -0.0180 C.ar  1 <1>   0.0820 
 17 C       -8.9180    -3.5170     0.3630 C.ar  1 <1>  -0.1500 
 18 O       -9.9480    -1.4750    -0.4510 O.3   1 <1>  -0.3630 
 19 C      -11.2200    -2.0720    -0.5380 C.3   1 <1>   0.1200 
 20 C      -12.2000    -1.0210    -1.0500 C.3   1 <1>  -0.2400 
 21 H       -2.6360    -1.0450    -1.0220 H     1 <1>   0.1500 
 22 H        0.8140    -1.3290    -1.7430 H     1 <1>   0.0800 
 23 H       -0.7210    -1.5290    -2.5580 H     1 <1>   0.0800 
 24 H        0.1810    -2.9340    -2.0360 H     1 <1>   0.0800 
 25 H       -2.9530    -0.3650     1.3620 H     1 <1>   0.0800 
 26 H       -2.1490    -1.7820     1.8940 H     1 <1>   0.0800 
 27 H       -5.4780    -5.0980     1.5380 H     1 <1>   0.4000 
 28 H       -3.1650    -4.5800     2.8760 H     1 <1>   0.0800 
 29 H       -2.0960    -3.9620     1.6440 H     1 <1>   0.0800 
 30 H       -3.1000    -5.3240     1.2960 H     1 <1>   0.0800 
 31 H       -7.6350    -0.4640    -0.2580 H     1 <1>   0.1500 
 32 H       -7.8090    -5.1840     1.0840 H     1 <1>   0.1500 
 33 H       -9.8370    -4.0700     0.3300 H     1 <1>   0.1500 
 34 H      -11.1610    -2.9020    -1.2220 H     1 <1>   0.0800 
 35 H      -11.5060    -2.4120     0.4420 H     1 <1>   0.0800 
 36 H      -11.8960    -0.6760    -2.0220 H     1 <1>   0.0800 
 37 H      -12.2380    -0.1900    -0.3690 H     1 <1>   0.0800 
 38 H      -13.1840    -1.4470    -1.1280 H     1 <1>   0.0800 
@<TRIPOS>BOND
  1   1   2  1   
  2   2   3  2   
  3   2   4  1   
  4   3   5  1   
  5   3  21  1   
  6   4  22  1   
  7   4  23  1   
  8   4  24  1   
  9   5   6  1   
 10   5  25  1   
 11   5  26  1   
 12   6   7  1   
 13   6   8  2   
 14   7   9  2   
 15   7  10  1   
 16   8  11  1   
 17   8  12  1   
 18  10  13  ar  
 19  10  14  ar  
 20  11  13  1   
 21  11  27  1   
 22  12  28  1   
 23  12  29  1   
 24  12  30  1   
 25  13  15  ar  
 26  14  16  ar  
 27  14  31  1   
 28  15  17  ar  
 29  15  32  1   
 30  16  17  ar  
 31  16  18  1   
 32  17  33  1   
 33  18  19  1   
 34  19  20  1   
 35  19  34  1   
 36  19  35  1   
 37  20  36  1   
 38  20  37  1   
 39  20  38  1   
@<TRIPOS>SUBSTRUCTURE
  1 ****  10 GROUP 4 **** **** 0

# MOE 2024.06 (io_trps.svl 2023.06)
