@<TRIPOS>MOLECULE
NONAME
45 46 1 0 0 
SMALL
USER_CHARGES


@<TRIPOS>ATOM
  1 O       -1.0680    -0.6730     1.4620 O.2   1 <1>  -0.5700 
  2 C       -1.1710    -1.7740     0.9710 C.2   1 <1>   0.4950 
  3 C       -2.3550    -2.2350     0.3100 C.2   1 <1>   0.0290 
  4 C        0.0540    -2.6610     1.1190 C.3   1 <1>  -0.0990 
  5 C       -2.3700    -3.5770    -0.2050 C.2   1 <1>   0.4950 
  6 C       -3.4320    -1.3800     0.1900 C.2   1 <1>  -0.0500 
  7 C        0.1700    -3.7160     0.0110 C.3   1 <1>   0.0000 
  8 O       -3.3120    -4.0920    -0.7670 O.2   1 <1>  -0.5700 
  9 C       -1.1580    -4.4830    -0.0560 C.3   1 <1>  -0.0990 
 10 N       -4.6160    -1.6560    -0.4060 N.pl3 1 <1>  -0.8690 
 11 C        1.3100    -4.6900     0.3450 C.3   1 <1>  -0.2400 
 12 C        0.4810    -3.0510    -1.3420 C.3   1 <1>  -0.2400 
 13 C       -5.7740    -0.7420    -0.5310 C.3   1 <1>   0.2090 
 14 C       -6.9660    -1.3120     0.2400 C.3   1 <1>  -0.0220 
 15 C       -8.1940    -0.4160     0.1200 C.2   1 <1>  -0.2760 
 16 C       -9.2860    -0.7780    -0.5630 C.2   1 <1>  -0.2880 
 17 C       -8.0860     0.9230     0.8450 C.3   1 <1>  -0.0220 
 18 C      -10.5250     0.0880    -0.7240 C.3   1 <1>  -0.0220 
 19 C       -9.4570     1.5960     1.0040 C.3   1 <1>  -0.1600 
 20 C      -10.2560     1.5400    -0.3050 C.3   1 <1>  -0.1600 
 21 H        0.9330    -2.0410     1.1200 H     1 <1>   0.0800 
 22 H       -0.0040    -3.1380     2.0800 H     1 <1>   0.0800 
 23 H       -3.3400    -0.3870     0.6060 H     1 <1>   0.1500 
 24 H       -1.2950    -5.0650     0.8380 H     1 <1>   0.0800 
 25 H       -1.1340    -5.1700    -0.8840 H     1 <1>   0.0800 
 26 H       -4.7520    -2.5980    -0.8210 H     1 <1>   0.4000 
 27 H        2.2480    -4.1660     0.4090 H     1 <1>   0.0800 
 28 H        1.3990    -5.4450    -0.4160 H     1 <1>   0.0800 
 29 H        1.1350    -5.1810     1.2870 H     1 <1>   0.0800 
 30 H       -0.2830    -2.3540    -1.6360 H     1 <1>   0.0800 
 31 H        0.5650    -3.7950    -2.1160 H     1 <1>   0.0800 
 32 H        1.4140    -2.5170    -1.2930 H     1 <1>   0.0800 
 33 H       -5.5110     0.2250    -0.1410 H     1 <1>   0.0800 
 34 H       -6.0330    -0.6330    -1.5700 H     1 <1>   0.0800 
 35 H       -7.1950    -2.2850    -0.1560 H     1 <1>   0.0800 
 36 H       -6.7020    -1.4280     1.2760 H     1 <1>   0.0800 
 37 H       -9.3780    -1.7290    -1.0600 H     1 <1>   0.1500 
 38 H       -7.6590     0.7780     1.8230 H     1 <1>   0.0800 
 39 H       -7.4340     1.5730     0.2880 H     1 <1>   0.0800 
 40 H      -10.8470     0.0720    -1.7510 H     1 <1>   0.0800 
 41 H      -11.3140    -0.3250    -0.1200 H     1 <1>   0.0800 
 42 H      -10.0100     1.0870     1.7740 H     1 <1>   0.0800 
 43 H       -9.3220     2.6180     1.3110 H     1 <1>   0.0800 
 44 H       -9.6920     2.0300    -1.0800 H     1 <1>   0.0800 
 45 H      -11.1890     2.0620    -0.1910 H     1 <1>   0.0800 
@<TRIPOS>BOND
  1   1   2  2   
  2   2   3  1   
  3   2   4  1   
  4   3   5  1   
  5   3   6  2   
  6   4   7  1   
  7   4  21  1   
  8   4  22  1   
  9   5   8  2   
 10   5   9  1   
 11   6  10  1   
 12   6  23  1   
 13   7   9  1   
 14   7  11  1   
 15   7  12  1   
 16   9  24  1   
 17   9  25  1   
 18  10  13  1   
 19  10  26  1   
 20  11  27  1   
 21  11  28  1   
 22  11  29  1   
 23  12  30  1   
 24  12  31  1   
 25  12  32  1   
 26  13  14  1   
 27  13  33  1   
 28  13  34  1   
 29  14  15  1   
 30  14  35  1   
 31  14  36  1   
 32  15  16  2   
 33  15  17  1   
 34  16  18  1   
 35  16  37  1   
 36  17  19  1   
 37  17  38  1   
 38  17  39  1   
 39  18  20  1   
 40  18  40  1   
 41  18  41  1   
 42  19  20  1   
 43  19  42  1   
 44  19  43  1   
 45  20  44  1   
 46  20  45  1   
@<TRIPOS>SUBSTRUCTURE
  1 ****  10 GROUP 4 **** **** 0

# MOE 2024.06 (io_trps.svl 2023.06)
