@<TRIPOS>MOLECULE
NONAME
36 36 1 0 0 
SMALL
USER_CHARGES


@<TRIPOS>ATOM
  1 S        0.1290    -0.2170     0.8670 S.o2  1 <1>   1.4470 
  2 O       -1.1340    -0.8810     1.1110 O.2   1 <1>  -0.6500 
  3 O        1.1750    -0.4040     1.8520 O.2   1 <1>  -0.6500 
  4 N        0.6810    -0.9200    -0.5790 N.am  1 <1>  -0.8490 
  5 C       -0.0390     1.5730     0.4840 C.ar  1 <1>  -0.0090 
  6 C        1.0960    -2.3380    -0.3910 C.3   1 <1>   0.2570 
  7 C       -0.2980    -0.8100    -1.6660 C.3   1 <1>   0.1160 
  8 C        1.0270     2.2880    -0.0850 C.ar  1 <1>  -0.1440 
  9 C       -1.2200     2.2860     0.7470 C.ar  1 <1>  -0.1440 
 10 C        2.6010    -2.5560    -0.1580 C.2   1 <1>   0.5690 
 11 C        0.8950     3.6290    -0.4080 C.ar  1 <1>  -0.1500 
 12 C        2.3880     1.6580    -0.3800 C.3   1 <1>  -0.0970 
 13 C       -1.3300     3.6280     0.4160 C.ar  1 <1>  -0.1500 
 14 C       -2.4420     1.6590     1.4100 C.3   1 <1>  -0.0960 
 15 O        3.2170    -3.2750    -0.9060 O.2   1 <1>  -0.5700 
 16 N        3.2370    -1.9740     0.8770 N.am  1 <1>  -0.8000 
 17 C       -0.2800     4.3070    -0.1650 C.ar  1 <1>  -0.1430 
 18 C       -0.4150     5.7750    -0.5270 C.3   1 <1>  -0.0970 
 19 H        0.8460    -2.9060    -1.2710 H     1 <1>   0.0800 
 20 H        0.5550    -2.7800     0.4270 H     1 <1>   0.0800 
 21 H       -0.5620     0.2220    -1.8260 H     1 <1>   0.0800 
 22 H       -1.1920    -1.3640    -1.4300 H     1 <1>   0.0800 
 23 H        0.1220    -1.1910    -2.5810 H     1 <1>   0.0800 
 24 H        1.7170     4.1590    -0.8560 H     1 <1>   0.1500 
 25 H        3.1320     2.4130    -0.5580 H     1 <1>   0.0800 
 26 H        2.7300     1.0660     0.4480 H     1 <1>   0.0800 
 27 H        2.3320     1.0390    -1.2570 H     1 <1>   0.0800 
 28 H       -2.2440     4.1600     0.6130 H     1 <1>   0.1500 
 29 H       -2.9040     0.9500     0.7470 H     1 <1>   0.0800 
 30 H       -3.1770     2.4020     1.6620 H     1 <1>   0.0800 
 31 H       -2.1620     1.1620     2.3220 H     1 <1>   0.0800 
 32 H        4.2340    -2.1150     1.0270 H     1 <1>   0.3700 
 33 H        2.7440    -1.3340     1.5190 H     1 <1>   0.3700 
 34 H        0.5390     6.2670    -0.4640 H     1 <1>   0.0800 
 35 H       -1.0940     6.2680     0.1460 H     1 <1>   0.0800 
 36 H       -0.7890     5.8700    -1.5300 H     1 <1>   0.0800 
@<TRIPOS>BOND
  1   1   2  2   
  2   1   3  2   
  3   1   4  am  
  4   1   5  1   
  5   4   6  1   
  6   4   7  1   
  7   5   8  ar  
  8   5   9  ar  
  9   6  10  1   
 10   6  19  1   
 11   6  20  1   
 12   7  21  1   
 13   7  22  1   
 14   7  23  1   
 15   8  11  ar  
 16   8  12  1   
 17   9  13  ar  
 18   9  14  1   
 19  10  15  2   
 20  10  16  am  
 21  11  17  ar  
 22  11  24  1   
 23  12  25  1   
 24  12  26  1   
 25  12  27  1   
 26  13  17  ar  
 27  13  28  1   
 28  14  29  1   
 29  14  30  1   
 30  14  31  1   
 31  16  32  1   
 32  16  33  1   
 33  17  18  1   
 34  18  34  1   
 35  18  35  1   
 36  18  36  1   
@<TRIPOS>SUBSTRUCTURE
  1 ****   5 GROUP 4 **** **** 0

# MOE 2024.06 (io_trps.svl 2023.06)
