@<TRIPOS>MOLECULE
NONAME
41 43 1 0 0 
SMALL
USER_CHARGES


@<TRIPOS>ATOM
  1 S       -1.2550     2.3100    -1.4420 S.3   1 <1>  -0.0800 
  2 C       -1.5590     1.0730    -0.2300 C.2   1 <1>  -0.1400 
  3 C        0.2010     2.8270    -0.6120 C.2   1 <1>  -0.1100 
  4 C       -0.5970     1.0900     0.7140 C.2   1 <1>  -0.1500 
  5 C       -2.7960     0.2220    -0.4170 C.3   1 <1>   0.5230 
  6 C        0.4030     2.0900     0.4950 C.2   1 <1>  -0.1500 
  7 N       -3.9810     1.1160    -0.4090 N.4   1 <1>  -0.9590 
  8 C       -4.1510     1.8110     0.9210 C.3   1 <1>   0.3430 
  9 C       -5.2440     0.4000    -0.8120 C.3   1 <1>   0.3430 
 10 C       -5.3740     2.7490     0.9390 C.3   1 <1>   0.2090 
 11 C       -6.4720     1.3310    -0.8050 C.3   1 <1>   0.2090 
 12 N       -6.6080     2.0280     0.5080 N.pl3 1 <1>  -0.8380 
 13 C       -7.7890     2.7710     0.6470 C.ar  1 <1>   0.1000 
 14 C       -8.0860     3.9240    -0.1040 C.ar  1 <1>   0.0830 
 15 C       -8.7110     2.3310     1.5860 C.ar  1 <1>  -0.1500 
 16 O       -7.1680     4.3530    -1.0290 O.3   1 <1>  -0.3620 
 17 C       -9.2890     4.5920     0.1090 C.ar  1 <1>  -0.1500 
 18 C       -9.9020     3.0000     1.7910 C.ar  1 <1>  -0.1500 
 19 C       -7.3880     5.5230    -1.7880 C.3   1 <1>   0.0400 
 20 C      -10.1920     4.1320     1.0520 C.ar  1 <1>  -0.1500 
 21 H        0.7620     3.6380    -1.0460 H     1 <1>   0.1500 
 22 H       -0.5300     0.4410     1.5710 H     1 <1>   0.1500 
 23 H       -2.8680    -0.5040     0.3760 H     1 <1>   0.0800 
 24 H       -2.7270    -0.2980    -1.3580 H     1 <1>   0.0800 
 25 H        1.2290     2.2070     1.1770 H     1 <1>   0.1500 
 26 H       -3.7940     1.8530    -1.1010 H     1 <1>   0.4500 
 27 H       -3.2690     2.3860     1.1520 H     1 <1>   0.0800 
 28 H       -4.2820     1.0780     1.6990 H     1 <1>   0.0800 
 29 H       -5.4370    -0.4080    -0.1250 H     1 <1>   0.0800 
 30 H       -5.1310    -0.0210    -1.7980 H     1 <1>   0.0800 
 31 H       -5.1920     3.5890     0.2930 H     1 <1>   0.0800 
 32 H       -5.5190     3.1280     1.9370 H     1 <1>   0.0800 
 33 H       -7.3620     0.7530    -0.9880 H     1 <1>   0.0800 
 34 H       -6.3820     2.0530    -1.5980 H     1 <1>   0.0800 
 35 H       -8.4860     1.4520     2.1610 H     1 <1>   0.1500 
 36 H       -9.5510     5.4730    -0.4440 H     1 <1>   0.1500 
 37 H      -10.6040     2.6420     2.5250 H     1 <1>   0.1500 
 38 H       -6.5390     5.6720    -2.4300 H     1 <1>   0.0800 
 39 H       -7.4910     6.3600    -1.1200 H     1 <1>   0.0800 
 40 H       -8.2750     5.3930    -2.3830 H     1 <1>   0.0800 
 41 H      -11.1190     4.6540     1.2110 H     1 <1>   0.1500 
@<TRIPOS>BOND
  1   1   2  1   
  2   1   3  1   
  3   2   4  2   
  4   2   5  1   
  5   3   6  2   
  6   3  21  1   
  7   4   6  1   
  8   4  22  1   
  9   5   7  1   
 10   5  23  1   
 11   5  24  1   
 12   6  25  1   
 13   7   8  1   
 14   7   9  1   
 15   7  26  1   
 16   8  10  1   
 17   8  27  1   
 18   8  28  1   
 19   9  11  1   
 20   9  29  1   
 21   9  30  1   
 22  10  12  1   
 23  10  31  1   
 24  10  32  1   
 25  11  12  1   
 26  11  33  1   
 27  11  34  1   
 28  12  13  1   
 29  13  14  ar  
 30  13  15  ar  
 31  14  16  1   
 32  14  17  ar  
 33  15  18  ar  
 34  15  35  1   
 35  16  19  1   
 36  17  20  ar  
 37  17  36  1   
 38  18  20  ar  
 39  18  37  1   
 40  19  38  1   
 41  19  39  1   
 42  19  40  1   
 43  20  41  1   
@<TRIPOS>SUBSTRUCTURE
  1 ****  10 GROUP 4 **** **** 0

# MOE 2024.06 (io_trps.svl 2023.06)
