@<TRIPOS>MOLECULE
NONAME
37 38 1 0 0 
SMALL
USER_CHARGES


@<TRIPOS>ATOM
  1 S        0.0120    -0.2710    -0.1600 S.3   1 <1>  -0.3710 
  2 C       -1.5030     0.6580     0.0890 C.2   1 <1>   0.6510 
  3 C        1.3000     1.0470    -0.2920 C.3   1 <1>   0.0700 
  4 N       -1.3930     1.9300     0.1230 N.2   1 <1>  -0.6210 
  5 N       -2.6640    -0.0780     0.2250 N.am  1 <1>  -0.2370 
  6 C        2.6540     0.3680    -0.5100 C.3   1 <1>  -0.1600 
  7 C       -2.5290     2.6630     0.3120 C.2   1 <1>   0.0210 
  8 C       -3.8320     0.6520     0.4250 C.2   1 <1>   0.6160 
  9 C       -2.6840    -1.4840     0.1590 C.ar  1 <1>   0.1170 
 10 C        3.7790     1.4010    -0.6310 C.3   1 <1>  -0.2400 
 11 O       -2.3790     3.8880     0.3340 O.3   1 <1>  -0.8500 
 12 C       -3.7630     2.0420     0.4660 C.2   1 <1>  -0.1240 
 13 O       -4.9020     0.0240     0.5620 O.2   1 <1>  -0.5700 
 14 C       -2.5510    -2.2480     1.3130 C.ar  1 <1>  -0.1500 
 15 C       -2.8360    -2.1330    -1.0610 C.ar  1 <1>  -0.1500 
 16 C       -5.0190     2.8820     0.6760 C.3   1 <1>  -0.0220 
 17 C       -2.5650    -3.6300     1.2490 C.ar  1 <1>  -0.1500 
 18 C       -2.8500    -3.5150    -1.1280 C.ar  1 <1>  -0.1500 
 19 C       -5.7250     3.1440    -0.6570 C.3   1 <1>  -0.2400 
 20 C       -2.7140    -4.2650     0.0280 C.ar  1 <1>  -0.1500 
 21 H        1.2720     1.6130     0.6230 H     1 <1>   0.0800 
 22 H        1.0250     1.6800    -1.1180 H     1 <1>   0.0800 
 23 H        2.6110    -0.2230    -1.4090 H     1 <1>   0.0800 
 24 H        2.8560    -0.2890     0.3180 H     1 <1>   0.0800 
 25 H        3.5950     2.0580    -1.4630 H     1 <1>   0.0800 
 26 H        4.7210     0.9050    -0.7830 H     1 <1>   0.0800 
 27 H        3.8410     1.9910     0.2670 H     1 <1>   0.0800 
 28 H       -2.4390    -1.7510     2.2600 H     1 <1>   0.1500 
 29 H       -2.9430    -1.5460    -1.9550 H     1 <1>   0.1500 
 30 H       -4.7460     3.8220     1.1240 H     1 <1>   0.0800 
 31 H       -5.6860     2.3810     1.3530 H     1 <1>   0.0800 
 32 H       -2.4610    -4.2100     2.1490 H     1 <1>   0.1500 
 33 H       -2.9670    -4.0050    -2.0790 H     1 <1>   0.1500 
 34 H       -5.0470     3.6550    -1.3190 H     1 <1>   0.0800 
 35 H       -6.5920     3.7580    -0.5030 H     1 <1>   0.0800 
 36 H       -6.0220     2.2150    -1.1080 H     1 <1>   0.0800 
 37 H       -2.7240    -5.3400    -0.0230 H     1 <1>   0.1500 
@<TRIPOS>BOND
  1   1   2  1   
  2   1   3  1   
  3   2   4  2   
  4   2   5  1   
  5   3   6  1   
  6   3  21  1   
  7   3  22  1   
  8   4   7  1   
  9   5   8  am  
 10   5   9  1   
 11   6  10  1   
 12   6  23  1   
 13   6  24  1   
 14   7  11  1   
 15   7  12  2   
 16   8  12  1   
 17   8  13  2   
 18   9  14  ar  
 19   9  15  ar  
 20  10  25  1   
 21  10  26  1   
 22  10  27  1   
 23  12  16  1   
 24  14  17  ar  
 25  14  28  1   
 26  15  18  ar  
 27  15  29  1   
 28  16  19  1   
 29  16  30  1   
 30  16  31  1   
 31  17  20  ar  
 32  17  32  1   
 33  18  20  ar  
 34  18  33  1   
 35  19  34  1   
 36  19  35  1   
 37  19  36  1   
 38  20  37  1   
@<TRIPOS>SUBSTRUCTURE
  1 ****   5 GROUP 4 **** **** 0

# MOE 2024.06 (io_trps.svl 2023.06)
