@<TRIPOS>MOLECULE
NONAME
30 30 1 0 0 
SMALL
USER_CHARGES


@<TRIPOS>ATOM
  1 S        0.1750     0.0680     0.3800 S.o2  1 <1>   1.4470 
  2 O        0.6120     1.4280     0.5820 O.2   1 <1>  -0.6500 
  3 O        0.6990    -1.0010     1.1940 O.2   1 <1>  -0.6500 
  4 N        0.7870    -0.2960    -1.1130 N.am  1 <1>  -0.9780 
  5 C       -1.6230    -0.0420     0.1700 C.ar  1 <1>  -0.0090 
  6 C       -2.3340    -1.1630     0.5850 C.ar  1 <1>  -0.1500 
  7 C       -2.3390     0.9850    -0.4330 C.ar  1 <1>  -0.1500 
  8 C       -3.7030    -1.2520     0.4100 C.ar  1 <1>  -0.1500 
  9 C       -3.7090     0.9010    -0.6090 C.ar  1 <1>  -0.1500 
 10 C       -4.4160    -0.2180    -0.1880 C.ar  1 <1>   0.1170 
 11 N       -5.8020    -0.2660    -0.4010 N.am  1 <1>  -0.5470 
 12 C       -6.7720    -0.9380     0.3010 C.2   1 <1>   0.5690 
 13 O       -6.5320    -1.5640     1.2980 O.2   1 <1>  -0.5700 
 14 C       -8.1800    -0.8730    -0.1940 C.3   1 <1>  -0.0190 
 15 C       -8.9710     0.0580     0.6730 C.3   1 <1>   1.0200 
 16 C       -8.8070    -2.2370    -0.2390 C.3   1 <1>   1.0200 
 17 F       -8.4250     1.2670     0.6650 F     1 <1>  -0.3400 
 18 F      -10.2090     0.2320     0.2350 F     1 <1>  -0.3400 
 19 F       -9.0730    -0.2850     1.9470 F     1 <1>  -0.3400 
 20 F       -9.0810    -2.7920     0.9310 F     1 <1>  -0.3400 
 21 F       -9.9480    -2.2260    -0.9120 F     1 <1>  -0.3400 
 22 F       -8.0330    -3.0970    -0.8870 F     1 <1>  -0.3400 
 23 H        1.2500    -1.1890    -0.9620 H     1 <1>   0.4200 
 24 H        1.5280     0.3900    -1.2320 H     1 <1>   0.4200 
 25 H       -1.8090    -1.9790     1.0540 H     1 <1>   0.1500 
 26 H       -1.8130     1.8640    -0.7670 H     1 <1>   0.1500 
 27 H       -4.2150    -2.1380     0.7420 H     1 <1>   0.1500 
 28 H       -4.2290     1.7190    -1.0740 H     1 <1>   0.1500 
 29 H       -6.1150     0.3490    -1.1510 H     1 <1>   0.3700 
 30 H       -8.1850    -0.4840    -1.1920 H     1 <1>   0.0800 
@<TRIPOS>BOND
  1   1   2  2   
  2   1   3  2   
  3   1   4  am  
  4   1   5  1   
  5   4  23  1   
  6   4  24  1   
  7   5   6  ar  
  8   5   7  ar  
  9   6   8  ar  
 10   6  25  1   
 11   7   9  ar  
 12   7  26  1   
 13   8  10  ar  
 14   8  27  1   
 15   9  10  ar  
 16   9  28  1   
 17  10  11  1   
 18  11  12  am  
 19  11  29  1   
 20  12  13  2   
 21  12  14  1   
 22  14  15  1   
 23  14  16  1   
 24  14  30  1   
 25  15  17  1   
 26  15  18  1   
 27  15  19  1   
 28  16  20  1   
 29  16  21  1   
 30  16  22  1   
@<TRIPOS>SUBSTRUCTURE
  1 ****  11 GROUP 4 **** **** 0

# MOE 2024.06 (io_trps.svl 2023.06)
