@<TRIPOS>MOLECULE
NONAME
42 43 1 0 0 
SMALL
USER_CHARGES


@<TRIPOS>ATOM
  1 CL       1.9240    -0.6390     1.6500 Cl    1 <1>  -0.1770 
  2 C        0.9590    -1.9470     1.0090 C.ar  1 <1>   0.1770 
  3 C        1.2090    -2.4160    -0.2720 C.ar  1 <1>  -0.1440 
  4 C       -0.0290    -2.4990     1.8030 C.ar  1 <1>  -0.1500 
  5 C        0.4430    -3.4660    -0.7600 C.ar  1 <1>  -0.1500 
  6 C        2.2950    -1.7850    -1.1110 C.3   1 <1>   0.4870 
  7 C       -0.7850    -3.5460     1.3080 C.ar  1 <1>  -0.1500 
  8 C       -0.5480    -4.0270     0.0300 C.ar  1 <1>  -0.1500 
  9 N        3.5950    -2.2160    -0.5490 N.4   1 <1>  -0.9060 
 10 C        4.7860    -1.6530    -1.2130 C.3   1 <1>   0.4230 
 11 C        6.0130    -2.4140    -0.7020 C.3   1 <1>  -0.1600 
 12 C        4.8830    -0.1500    -0.9190 C.3   1 <1>  -0.1600 
 13 C        7.3050    -1.8070    -1.2490 C.3   1 <1>   0.1400 
 14 C        6.1910     0.4300    -1.4590 C.3   1 <1>   0.1400 
 15 N        7.3180    -0.3630    -0.9130 N.am  1 <1>  -0.6600 
 16 C        8.2930     0.2200    -0.1400 C.2   1 <1>   0.7800 
 17 O        8.2710     1.3990     0.1550 O.2   1 <1>  -0.5700 
 18 O        9.2810    -0.5560     0.3050 O.3   1 <1>  -0.4300 
 19 C       10.3190    -0.0230     1.0960 C.3   1 <1>   0.1200 
 20 C       11.2810    -1.1550     1.4390 C.3   1 <1>  -0.2400 
 21 H       -0.2040    -2.1160     2.7940 H     1 <1>   0.1500 
 22 H        0.5970    -3.8600    -1.7510 H     1 <1>   0.1500 
 23 H        2.2020    -0.7110    -1.0690 H     1 <1>   0.0800 
 24 H        2.2020    -2.1020    -2.1370 H     1 <1>   0.0800 
 25 H       -1.5600    -3.9870     1.9140 H     1 <1>   0.1500 
 26 H       -1.1440    -4.8410    -0.3490 H     1 <1>   0.1500 
 27 H        3.6300    -3.2410    -0.5600 H     1 <1>   0.4500 
 28 H        3.6090    -1.9390     0.4410 H     1 <1>   0.4500 
 29 H        4.7160    -1.7980    -2.2800 H     1 <1>   0.0800 
 30 H        5.9660    -3.4440    -1.0080 H     1 <1>   0.0800 
 31 H        6.0590    -2.3770     0.3730 H     1 <1>   0.0800 
 32 H        4.8540     0.0300     0.1420 H     1 <1>   0.0800 
 33 H        4.0710     0.3830    -1.3790 H     1 <1>   0.0800 
 34 H        7.3580    -1.9210    -2.3190 H     1 <1>   0.0800 
 35 H        8.1550    -2.3130    -0.8220 H     1 <1>   0.0800 
 36 H        6.2770     1.4660    -1.1720 H     1 <1>   0.0800 
 37 H        6.2160     0.3830    -2.5350 H     1 <1>   0.0800 
 38 H        9.8870     0.4020     1.9870 H     1 <1>   0.0800 
 39 H       10.8160     0.7490     0.5320 H     1 <1>   0.0800 
 40 H       10.7700    -1.9210     1.9950 H     1 <1>   0.0800 
 41 H       12.0860    -0.7750     2.0420 H     1 <1>   0.0800 
 42 H       11.6950    -1.5750     0.5400 H     1 <1>   0.0800 
@<TRIPOS>BOND
  1   1   2  1   
  2   2   3  ar  
  3   2   4  ar  
  4   3   5  ar  
  5   3   6  1   
  6   4   7  ar  
  7   4  21  1   
  8   5   8  ar  
  9   5  22  1   
 10   6   9  1   
 11   6  23  1   
 12   6  24  1   
 13   7   8  ar  
 14   7  25  1   
 15   8  26  1   
 16   9  10  1   
 17   9  27  1   
 18   9  28  1   
 19  10  11  1   
 20  10  12  1   
 21  10  29  1   
 22  11  13  1   
 23  11  30  1   
 24  11  31  1   
 25  12  14  1   
 26  12  32  1   
 27  12  33  1   
 28  13  15  1   
 29  13  34  1   
 30  13  35  1   
 31  14  15  1   
 32  14  36  1   
 33  14  37  1   
 34  15  16  am  
 35  16  17  2   
 36  16  18  1   
 37  18  19  1   
 38  19  20  1   
 39  19  38  1   
 40  19  39  1   
 41  20  40  1   
 42  20  41  1   
 43  20  42  1   
@<TRIPOS>SUBSTRUCTURE
  1 ****  10 GROUP 4 **** **** 0

# MOE 2024.06 (io_trps.svl 2023.06)
