@<TRIPOS>MOLECULE
NONAME
52 55 1 0 0 
SMALL
USER_CHARGES


@<TRIPOS>ATOM
  1 O       -1.1130    -0.1960    -1.1120 O.3   1 <1>  -0.5320 
  2 C       -2.1320     0.5520    -0.6630 C.ar  1 <1>   0.0830 
  3 C       -2.3440     0.6560     0.6990 C.ar  1 <1>  -0.1500 
  4 C       -2.9620     1.2120    -1.5550 C.ar  1 <1>  -0.1500 
  5 C       -3.3920     1.4240     1.1750 C.ar  1 <1>  -0.1500 
  6 C       -4.0090     1.9790    -1.0740 C.ar  1 <1>  -0.1500 
  7 C       -4.2310     2.0890     0.2920 C.ar  1 <1>  -0.1430 
  8 C       -5.3820     2.9240     0.8240 C.3   1 <1>  -0.0170 
  9 C       -6.6050     2.0200     1.0670 C.3   1 <1>  -0.1600 
 10 C       -7.8720     2.7160     1.5820 C.3   1 <1>   0.4230 
 11 N       -8.3080     3.7170     0.5930 N.4   1 <1>  -0.9060 
 12 C       -7.6580     3.4030     2.9290 C.3   1 <1>  -0.2400 
 13 C       -9.6910     4.2280     0.7600 C.3   1 <1>   0.4230 
 14 C      -10.7350     3.1300     0.4450 C.3   1 <1>  -0.0800 
 15 C       -9.9010     5.4240    -0.1940 C.3   1 <1>  -0.0800 
 16 C      -10.6330     2.6810    -1.0320 C.3   1 <1>  -0.1600 
 17 C      -12.1420     3.7140     0.6840 C.3   1 <1>  -0.1600 
 18 C       -9.8000     4.9770    -1.6730 C.3   1 <1>  -0.1600 
 19 C      -11.3110     6.0010     0.0470 C.3   1 <1>  -0.1600 
 20 C      -10.8500     3.8880    -1.9650 C.3   1 <1>  -0.0800 
 21 C      -12.3760     4.9250    -0.2390 C.3   1 <1>  -0.0800 
 22 C      -12.2520     4.4710    -1.7050 C.3   1 <1>  -0.1600 
 23 H       -1.0370    -0.2010    -2.0810 H     1 <1>   0.4500 
 24 H       -1.6880     0.1380     1.3760 H     1 <1>   0.1500 
 25 H       -2.7950     1.1310    -2.6130 H     1 <1>   0.1500 
 26 H       -3.5440     1.4980     2.2380 H     1 <1>   0.1500 
 27 H       -4.6460     2.4880    -1.7760 H     1 <1>   0.1500 
 28 H       -5.6070     3.6990     0.1130 H     1 <1>   0.0800 
 29 H       -5.0690     3.3950     1.7390 H     1 <1>   0.0800 
 30 H       -6.3250     1.2660     1.7830 H     1 <1>   0.0800 
 31 H       -6.8420     1.4960     0.1570 H     1 <1>   0.0800 
 32 H       -8.6360     1.9630     1.6950 H     1 <1>   0.0800 
 33 H       -8.2630     3.3090    -0.3450 H     1 <1>   0.4500 
 34 H       -7.6610     4.5090     0.6100 H     1 <1>   0.4500 
 35 H       -6.9800     4.2340     2.8520 H     1 <1>   0.0800 
 36 H       -7.2440     2.6990     3.6300 H     1 <1>   0.0800 
 37 H       -8.5920     3.7450     3.3370 H     1 <1>   0.0800 
 38 H       -9.8320     4.5690     1.7730 H     1 <1>   0.0800 
 39 H      -10.6100     2.2860     1.0990 H     1 <1>   0.0800 
 40 H       -9.1780     6.1940     0.0120 H     1 <1>   0.0800 
 41 H      -11.3880     1.9390    -1.2340 H     1 <1>   0.0800 
 42 H       -9.6830     2.2210    -1.2370 H     1 <1>   0.0800 
 43 H      -12.2530     4.0140     1.7120 H     1 <1>   0.0800 
 44 H      -12.8900     2.9630     0.4870 H     1 <1>   0.0800 
 45 H       -8.8160     4.6130    -1.9060 H     1 <1>   0.0800 
 46 H       -9.9790     5.8230    -2.3160 H     1 <1>   0.0800 
 47 H      -11.4060     6.3450     1.0630 H     1 <1>   0.0800 
 48 H      -11.4760     6.8500    -0.5950 H     1 <1>   0.0800 
 49 H      -10.7780     3.5750    -2.9940 H     1 <1>   0.0800 
 50 H      -13.3610     5.3310    -0.0680 H     1 <1>   0.0800 
 51 H      -13.0030     3.7300    -1.9220 H     1 <1>   0.0800 
 52 H      -12.4300     5.3060    -2.3620 H     1 <1>   0.0800 
@<TRIPOS>BOND
  1   1   2  1   
  2   1  23  1   
  3   2   3  ar  
  4   2   4  ar  
  5   3   5  ar  
  6   3  24  1   
  7   4   6  ar  
  8   4  25  1   
  9   5   7  ar  
 10   5  26  1   
 11   6   7  ar  
 12   6  27  1   
 13   7   8  1   
 14   8   9  1   
 15   8  28  1   
 16   8  29  1   
 17   9  10  1   
 18   9  30  1   
 19   9  31  1   
 20  10  11  1   
 21  10  12  1   
 22  10  32  1   
 23  11  13  1   
 24  11  33  1   
 25  11  34  1   
 26  12  35  1   
 27  12  36  1   
 28  12  37  1   
 29  13  14  1   
 30  13  15  1   
 31  13  38  1   
 32  14  16  1   
 33  14  17  1   
 34  14  39  1   
 35  15  18  1   
 36  15  19  1   
 37  15  40  1   
 38  16  20  1   
 39  16  41  1   
 40  16  42  1   
 41  17  21  1   
 42  17  43  1   
 43  17  44  1   
 44  18  20  1   
 45  18  45  1   
 46  18  46  1   
 47  19  21  1   
 48  19  47  1   
 49  19  48  1   
 50  20  22  1   
 51  20  49  1   
 52  21  22  1   
 53  21  50  1   
 54  22  51  1   
 55  22  52  1   
@<TRIPOS>SUBSTRUCTURE
  1 ****  11 GROUP 4 **** **** 0

# MOE 2024.06 (io_trps.svl 2023.06)
