@<TRIPOS>MOLECULE
NONAME
49 53 1 0 0 
SMALL
USER_CHARGES


@<TRIPOS>ATOM
  1 S       -0.3600     0.4680    -1.0090 S.3   1 <1>  -0.0800 
  2 C       -1.4730    -0.9010    -0.9480 C.ar  1 <1>   0.2970 
  3 C        0.9530    -0.5260    -0.3880 C.2   1 <1>  -0.1400 
  4 N       -2.7370    -0.8000    -1.3000 N.ar  1 <1>  -0.5670 
  5 C       -0.8360    -2.0330    -0.4940 C.ar  1 <1>   0.0000 
  6 C        0.5500    -1.7840    -0.1590 C.2   1 <1>  -0.1810 
  7 C        2.3220     0.0770    -0.1620 C.3   1 <1>   0.0200 
  8 C       -3.3850    -1.9400    -1.1730 C.ar  1 <1>   0.4700 
  9 C       -1.6470    -3.1720    -0.4420 C.ar  1 <1>   0.4100 
 10 C        1.5050    -2.8160     0.4200 C.3   1 <1>   0.0210 
 11 C        3.3330    -1.0520     0.1080 C.3   1 <1>  -0.1600 
 12 N       -2.9280    -3.1170    -0.7680 N.ar  1 <1>  -0.6200 
 13 N       -1.1630    -4.4090    -0.0860 N.pl3 1 <1>  -0.8380 
 14 C        2.7530    -2.1420     1.0370 C.3   1 <1>  -0.0800 
 15 C       -0.4100    -5.1900    -1.1130 C.3   1 <1>   0.2090 
 16 C       -1.9320    -5.2550     0.8800 C.3   1 <1>   0.2090 
 17 C        3.8210    -3.1900     1.3720 C.3   1 <1>  -0.2400 
 18 C       -1.3220    -6.2030    -1.8230 C.3   1 <1>   0.1400 
 19 C       -2.8030    -6.3120     0.1720 C.3   1 <1>   0.1400 
 20 N       -2.0090    -7.0870    -0.8330 N.am  1 <1>  -0.6600 
 21 C       -1.6970    -8.4280    -0.7140 C.2   1 <1>   0.7150 
 22 O       -0.6550    -8.8140    -1.2170 O.2   1 <1>  -0.5700 
 23 C       -2.5300    -9.3880    -0.0150 C.2   1 <1>   0.0550 
 24 O       -3.8170    -9.1690     0.2520 O.3   1 <1>  -0.2800 
 25 C       -2.2070   -10.6270     0.4530 C.2   1 <1>  -0.1500 
 26 C       -4.3100   -10.2180     0.8710 C.2   1 <1>  -0.0100 
 27 C       -3.3600   -11.1620     1.0290 C.2   1 <1>  -0.1500 
 28 H        2.2720     0.7400     0.6840 H     1 <1>   0.0800 
 29 H        2.6250     0.6440    -1.0250 H     1 <1>   0.0800 
 30 H       -4.4290    -1.9140    -1.4380 H     1 <1>   0.1500 
 31 H        1.8030    -3.4850    -0.3670 H     1 <1>   0.0800 
 32 H        1.0030    -3.3880     1.1800 H     1 <1>   0.0800 
 33 H        4.2230    -0.6300     0.5400 H     1 <1>   0.0800 
 34 H        3.6030    -1.5040    -0.8310 H     1 <1>   0.0800 
 35 H        2.4490    -1.6670     1.9550 H     1 <1>   0.0800 
 36 H        0.4010    -5.7160    -0.6390 H     1 <1>   0.0800 
 37 H        0.0090    -4.5190    -1.8430 H     1 <1>   0.0800 
 38 H       -2.5620    -4.6260     1.4850 H     1 <1>   0.0800 
 39 H       -1.2390    -5.7520     1.5350 H     1 <1>   0.0800 
 40 H        4.1670    -3.6810     0.4790 H     1 <1>   0.0800 
 41 H        3.4190    -3.9320     2.0390 H     1 <1>   0.0800 
 42 H        4.6620    -2.7240     1.8550 H     1 <1>   0.0800 
 43 H       -0.7400    -6.7860    -2.5150 H     1 <1>   0.0800 
 44 H       -2.0640    -5.6660    -2.3880 H     1 <1>   0.0800 
 45 H       -3.6170    -5.8180    -0.3290 H     1 <1>   0.0800 
 46 H       -3.2180    -6.9580     0.9210 H     1 <1>   0.0800 
 47 H       -1.2500   -11.1140     0.3890 H     1 <1>   0.1500 
 48 H       -5.3460   -10.2150     1.1650 H     1 <1>   0.1500 
 49 H       -3.4420   -12.1300     1.4920 H     1 <1>   0.1500 
@<TRIPOS>BOND
  1   1   2  1   
  2   1   3  1   
  3   2   4  ar  
  4   2   5  ar  
  5   3   6  2   
  6   3   7  1   
  7   4   8  ar  
  8   5   6  1   
  9   5   9  ar  
 10   6  10  1   
 11   7  11  1   
 12   7  28  1   
 13   7  29  1   
 14   8  12  ar  
 15   8  30  1   
 16   9  12  ar  
 17   9  13  1   
 18  10  14  1   
 19  10  31  1   
 20  10  32  1   
 21  11  14  1   
 22  11  33  1   
 23  11  34  1   
 24  13  15  1   
 25  13  16  1   
 26  14  17  1   
 27  14  35  1   
 28  15  18  1   
 29  15  36  1   
 30  15  37  1   
 31  16  19  1   
 32  16  38  1   
 33  16  39  1   
 34  17  40  1   
 35  17  41  1   
 36  17  42  1   
 37  18  20  1   
 38  18  43  1   
 39  18  44  1   
 40  19  20  1   
 41  19  45  1   
 42  19  46  1   
 43  20  21  am  
 44  21  22  2   
 45  21  23  1   
 46  23  24  1   
 47  23  25  2   
 48  24  26  1   
 49  25  27  1   
 50  25  47  1   
 51  26  27  2   
 52  26  48  1   
 53  27  49  1   
@<TRIPOS>SUBSTRUCTURE
  1 ****  13 GROUP 4 **** **** 0

# MOE 2024.06 (io_trps.svl 2023.06)
