@<TRIPOS>MOLECULE
NONAME
33 33 1 0 0 
SMALL
USER_CHARGES


@<TRIPOS>ATOM
  1 F       -6.4190     1.5320    -0.4060 F     1 <1>  -0.1900 
  2 C       -5.3330     2.2360    -0.2570 C.ar  1 <1>   0.1900 
  3 C       -5.4400     3.5710     0.0780 C.ar  1 <1>  -0.1500 
  4 C       -4.1080     1.6250    -0.4390 C.ar  1 <1>  -0.1500 
  5 C       -4.2810     4.3100     0.2340 C.ar  1 <1>  -0.1500 
  6 C       -2.9590     2.3800    -0.2790 C.ar  1 <1>  -0.1500 
  7 C       -3.0130     3.7380     0.0610 C.ar  1 <1>   0.0860 
  8 C       -1.8130     4.5380     0.2320 C.2   1 <1>   0.6340 
  9 O       -1.8320     5.7170     0.5190 O.2   1 <1>  -0.5700 
 10 O       -0.6230     3.9480     0.0640 O.3   1 <1>  -0.4300 
 11 C        0.5740     4.6760     0.2160 C.3   1 <1>   0.1200 
 12 C        1.7440     3.7270    -0.0340 C.3   1 <1>  -0.1600 
 13 C        3.0680     4.4740     0.1230 C.3   1 <1>   0.3430 
 14 N        4.2180     3.5850    -0.2160 N.4   1 <1>  -0.9590 
 15 C        4.4360     2.5150     0.8110 C.3   1 <1>   0.2630 
 16 C        5.4660     4.3900    -0.3930 C.3   1 <1>   0.2630 
 17 H       -6.4100     4.0160     0.2120 H     1 <1>   0.1500 
 18 H       -4.0630     0.5820    -0.7000 H     1 <1>   0.1500 
 19 H       -4.3530     5.3530     0.4960 H     1 <1>   0.1500 
 20 H       -2.0040     1.9050    -0.4210 H     1 <1>   0.1500 
 21 H        0.5970     5.0760     1.2170 H     1 <1>   0.0800 
 22 H        0.5650     5.4870    -0.4950 H     1 <1>   0.0800 
 23 H        1.6610     3.3380    -1.0330 H     1 <1>   0.0800 
 24 H        1.6820     2.9220     0.6760 H     1 <1>   0.0800 
 25 H        3.1670     4.8380     1.1330 H     1 <1>   0.0800 
 26 H        3.0650     5.3240    -0.5410 H     1 <1>   0.0800 
 27 H        4.0050     3.1280    -1.1170 H     1 <1>   0.4500 
 28 H        4.6340     2.9550     1.7750 H     1 <1>   0.0800 
 29 H        5.2750     1.8970     0.5350 H     1 <1>   0.0800 
 30 H        3.5640     1.8860     0.8910 H     1 <1>   0.0800 
 31 H        5.7250     4.8900     0.5270 H     1 <1>   0.0800 
 32 H        5.3280     5.1330    -1.1620 H     1 <1>   0.0800 
 33 H        6.2870     3.7520    -0.6790 H     1 <1>   0.0800 
@<TRIPOS>BOND
  1   1   2  1   
  2   2   3  ar  
  3   2   4  ar  
  4   3   5  ar  
  5   3  17  1   
  6   4   6  ar  
  7   4  18  1   
  8   5   7  ar  
  9   5  19  1   
 10   6   7  ar  
 11   6  20  1   
 12   7   8  1   
 13   8   9  2   
 14   8  10  1   
 15  10  11  1   
 16  11  12  1   
 17  11  21  1   
 18  11  22  1   
 19  12  13  1   
 20  12  23  1   
 21  12  24  1   
 22  13  14  1   
 23  13  25  1   
 24  13  26  1   
 25  14  15  1   
 26  14  16  1   
 27  14  27  1   
 28  15  28  1   
 29  15  29  1   
 30  15  30  1   
 31  16  31  1   
 32  16  32  1   
 33  16  33  1   
@<TRIPOS>SUBSTRUCTURE
  1 ****  10 GROUP 4 **** **** 0

# MOE 2024.06 (io_trps.svl 2023.06)
