@<TRIPOS>MOLECULE
NONAME
35 36 1 0 0 
SMALL
USER_CHARGES


@<TRIPOS>ATOM
  1 O        0.7380     0.2800    -0.7480 O.3   1 <1>  -0.6800 
  2 C        2.0390     0.6620    -0.4580 C.3   1 <1>   0.1200 
  3 C        2.1270     2.2030    -0.4770 C.3   1 <1>   0.4230 
  4 N        3.4900     2.7210    -0.2020 N.4   1 <1>  -0.9590 
  5 C        1.2670     2.8780     0.5900 C.3   1 <1>  -0.1600 
  6 C        3.3210     4.1370     0.2080 C.3   1 <1>   0.3430 
  7 C        4.4510     2.5600    -1.3250 C.3   1 <1>   0.4860 
  8 C        2.0010     4.1680     0.9670 C.3   1 <1>  -0.1600 
  9 C        5.8150     3.0060    -0.8430 C.ar  1 <1>  -0.1430 
 10 C        6.5560     2.1950     0.0050 C.ar  1 <1>  -0.1500 
 11 C        6.3290     4.2320    -1.2380 C.ar  1 <1>  -0.1500 
 12 C        7.7950     2.6070     0.4680 C.ar  1 <1>  -0.1430 
 13 C        7.5660     4.6450    -0.7800 C.ar  1 <1>  -0.1500 
 14 C        8.2950     3.8360     0.0720 C.ar  1 <1>  -0.1500 
 15 C        8.6080     1.7190     1.3930 C.3   1 <1>  -0.0970 
 16 H        0.6270    -0.6950    -0.7190 H     1 <1>   0.4000 
 17 H        2.6790     0.2300    -1.2060 H     1 <1>   0.0800 
 18 H        2.2900     0.2730     0.5140 H     1 <1>   0.0800 
 19 H        1.8120     2.5540    -1.4470 H     1 <1>   0.0800 
 20 H        3.8730     2.2290     0.6120 H     1 <1>   0.4500 
 21 H        1.1700     2.2420     1.4520 H     1 <1>   0.0800 
 22 H        0.2800     3.0720     0.2040 H     1 <1>   0.0800 
 23 H        3.2470     4.7660    -0.6650 H     1 <1>   0.0800 
 24 H        4.1450     4.4730     0.8190 H     1 <1>   0.0800 
 25 H        4.1440     3.1540    -2.1700 H     1 <1>   0.0800 
 26 H        4.5020     1.5280    -1.6310 H     1 <1>   0.0800 
 27 H        2.1850     4.2030     2.0270 H     1 <1>   0.0800 
 28 H        1.4360     5.0410     0.6910 H     1 <1>   0.0800 
 29 H        6.1840     1.2320     0.3110 H     1 <1>   0.1500 
 30 H        5.7820     4.8780    -1.9050 H     1 <1>   0.1500 
 31 H        7.9690     5.5960    -1.0860 H     1 <1>   0.1500 
 32 H        9.2590     4.1660     0.4210 H     1 <1>   0.1500 
 33 H        7.9630     1.1160     2.0070 H     1 <1>   0.0800 
 34 H        9.2270     2.3150     2.0400 H     1 <1>   0.0800 
 35 H        9.2410     1.0710     0.8130 H     1 <1>   0.0800 
@<TRIPOS>BOND
  1   1   2  1   
  2   1  16  1   
  3   2   3  1   
  4   2  17  1   
  5   2  18  1   
  6   3   4  1   
  7   3   5  1   
  8   3  19  1   
  9   4   6  1   
 10   4   7  1   
 11   4  20  1   
 12   5   8  1   
 13   5  21  1   
 14   5  22  1   
 15   6   8  1   
 16   6  23  1   
 17   6  24  1   
 18   7   9  1   
 19   7  25  1   
 20   7  26  1   
 21   8  27  1   
 22   8  28  1   
 23   9  10  ar  
 24   9  11  ar  
 25  10  12  ar  
 26  10  29  1   
 27  11  13  ar  
 28  11  30  1   
 29  12  14  ar  
 30  12  15  1   
 31  13  14  ar  
 32  13  31  1   
 33  14  32  1   
 34  15  33  1   
 35  15  34  1   
 36  15  35  1   
@<TRIPOS>SUBSTRUCTURE
  1 ****   4 GROUP 4 **** **** 0

# MOE 2024.06 (io_trps.svl 2023.06)
