@<TRIPOS>MOLECULE
NONAME
50 52 1 0 0 
SMALL
USER_CHARGES


@<TRIPOS>ATOM
  1 O       -3.0220     8.5820    -0.1980 O.2   1 <1>  -0.5750 
  2 C       -3.7830     7.6390    -0.2340 C.2   1 <1>   0.7900 
  3 O       -5.0840     7.8690    -0.4320 O.3   1 <1>  -0.4350 
  4 C       -3.3410     6.2650    -0.0830 C.2   1 <1>   0.2710 
  5 C       -5.5980     9.1780    -0.6070 C.3   1 <1>   0.0320 
  6 N       -4.1460     5.1350     0.1900 N.pl3 1 <1>  -0.6410 
  7 C       -2.0660     5.7790    -0.1720 C.2   1 <1>   0.1750 
  8 C       -3.3510     4.0780     0.2420 C.cat 1 <1>   1.0690 
  9 C       -5.4270     4.6780     0.4980 C.ar  1 <1>   0.3810 
 10 N       -2.0880     4.4220     0.0300 N.pl3 1 <1>  -0.7040 
 11 C       -0.7340     6.4600    -0.4480 C.3   1 <1>  -0.0800 
 12 N       -4.0000     2.9280     0.5070 N.pl3 1 <1>  -0.5800 
 13 C       -5.3290     3.3040     0.6980 C.ar  1 <1>   0.3050 
 14 C       -6.6530     5.3200     0.6350 C.ar  1 <1>  -0.1570 
 15 C       -3.4480     1.5530     0.6950 C.3   1 <1>   0.1600 
 16 C       -6.4480     2.5510     1.0430 C.ar  1 <1>  -0.1570 
 17 C       -7.7640     4.5700     0.9680 C.ar  1 <1>  -0.1570 
 18 C       -3.9220     0.5850    -0.4150 C.3   1 <1>   0.3370 
 19 C       -7.6630     3.1950     1.1710 C.ar  1 <1>  -0.1570 
 20 N       -3.5910    -0.8550    -0.1490 N.4   1 <1>  -0.9610 
 21 C       -2.1300    -1.1500    -0.1690 C.3   1 <1>   0.3370 
 22 C       -4.3040    -1.7200    -1.1310 C.3   1 <1>   0.3370 
 23 C       -1.6540    -1.3370     1.2640 C.3   1 <1>  -0.2470 
 24 C       -4.4190    -3.1310    -0.5680 C.3   1 <1>  -0.2470 
 25 H       -5.1360     9.6260    -1.4700 H     1 <1>   0.0720 
 26 H       -5.3830     9.7610     0.2730 H     1 <1>   0.0720 
 27 H       -6.6620     9.1130    -0.7530 H     1 <1>   0.0720 
 28 H       -1.2760     3.8050     0.0450 H     1 <1>   0.4450 
 29 H       -0.8550     7.5030    -0.6770 H     1 <1>   0.0720 
 30 H       -0.2460     5.9950    -1.2850 H     1 <1>   0.0720 
 31 H       -0.0940     6.3800     0.4130 H     1 <1>   0.0720 
 32 H       -6.7470     6.3790     0.4900 H     1 <1>   0.1430 
 33 H       -3.7760     1.1850     1.6530 H     1 <1>   0.0720 
 34 H       -2.3730     1.5990     0.6980 H     1 <1>   0.0720 
 35 H       -6.3800     1.4930     1.2140 H     1 <1>   0.1430 
 36 H       -8.7260     5.0490     1.0770 H     1 <1>   0.1430 
 37 H       -3.4860     0.8800    -1.3550 H     1 <1>   0.0720 
 38 H       -4.9920     0.6750    -0.5040 H     1 <1>   0.0720 
 39 H       -8.5500     2.6390     1.4360 H     1 <1>   0.1430 
 40 H       -3.9450    -1.1400     0.7750 H     1 <1>   0.4450 
 41 H       -1.5870    -0.3530    -0.6480 H     1 <1>   0.0720 
 42 H       -1.9420    -2.0590    -0.7190 H     1 <1>   0.0720 
 43 H       -3.7770    -1.7340    -2.0720 H     1 <1>   0.0720 
 44 H       -5.2970    -1.3370    -1.3040 H     1 <1>   0.0720 
 45 H       -1.7920    -0.4510     1.8540 H     1 <1>   0.0720 
 46 H       -0.6030    -1.5680     1.2570 H     1 <1>   0.0720 
 47 H       -2.1640    -2.1630     1.7280 H     1 <1>   0.0720 
 48 H       -3.4550    -3.5870    -0.4360 H     1 <1>   0.0720 
 49 H       -4.9740    -3.7400    -1.2600 H     1 <1>   0.0720 
 50 H       -4.9510    -3.1290     0.3670 H     1 <1>   0.0720 
@<TRIPOS>BOND
  1   1   2  2   
  2   2   3  1   
  3   2   4  1   
  4   3   5  1   
  5   4   6  1   
  6   4   7  2   
  7   5  25  1   
  8   5  26  1   
  9   5  27  1   
 10   6   8  ar  
 11   6   9  1   
 12   7  10  1   
 13   7  11  1   
 14   8  10  ar  
 15   8  12  ar  
 16   9  13  ar  
 17   9  14  ar  
 18  10  28  1   
 19  11  29  1   
 20  11  30  1   
 21  11  31  1   
 22  12  13  1   
 23  12  15  1   
 24  13  16  ar  
 25  14  17  ar  
 26  14  32  1   
 27  15  18  1   
 28  15  33  1   
 29  15  34  1   
 30  16  19  ar  
 31  16  35  1   
 32  17  19  ar  
 33  17  36  1   
 34  18  20  1   
 35  18  37  1   
 36  18  38  1   
 37  19  39  1   
 38  20  21  1   
 39  20  22  1   
 40  20  40  1   
 41  21  23  1   
 42  21  41  1   
 43  21  42  1   
 44  22  24  1   
 45  22  43  1   
 46  22  44  1   
 47  23  45  1   
 48  23  46  1   
 49  23  47  1   
 50  24  48  1   
 51  24  49  1   
 52  24  50  1   
@<TRIPOS>SUBSTRUCTURE
  1 ****  12 GROUP 4 **** **** 0

# MOE 2024.06 (io_trps.svl 2023.06)
