@<TRIPOS>MOLECULE
NONAME
51 54 1 0 0 
SMALL
USER_CHARGES


@<TRIPOS>ATOM
  1 S       -0.9950     0.7630     1.3490 S.o2  1 <1>   1.4470 
  2 O       -1.1100    -0.1720     2.4490 O.2   1 <1>  -0.6500 
  3 O       -1.1560     2.1750     1.6240 O.2   1 <1>  -0.6500 
  4 N        0.5530     0.5390     0.6950 N.am  1 <1>  -0.8490 
  5 C       -2.1120     0.2630    -0.0020 C.ar  1 <1>  -0.0090 
  6 C        1.5750     1.1760     1.5290 C.3   1 <1>   0.1960 
  7 C        0.8610    -0.8790     0.4780 C.3   1 <1>   0.1960 
  8 C       -2.2200     0.9590    -1.2100 C.ar  1 <1>  -0.1440 
  9 C       -2.8860    -0.8800     0.1580 C.ar  1 <1>  -0.1500 
 10 C        2.9440     1.1030     0.8420 C.3   1 <1>  -0.1600 
 11 C        2.1970    -1.0220    -0.2580 C.3   1 <1>  -0.1600 
 12 C       -3.0750     0.5020    -2.2020 C.ar  1 <1>  -0.1500 
 13 C       -1.4130     2.2220    -1.4840 C.3   1 <1>  -0.0970 
 14 C       -3.7530    -1.3510    -0.8230 C.ar  1 <1>   0.0860 
 15 C        3.3330    -0.3440     0.5160 C.3   1 <1>  -0.1600 
 16 C       -3.8280    -0.6390    -2.0120 C.ar  1 <1>  -0.1500 
 17 C       -4.5370    -2.5430    -0.6120 C.2   1 <1>   0.2780 
 18 N       -4.1910    -3.6120    -1.2600 N.2   1 <1>  -0.5120 
 19 C       -5.6510    -2.4980     0.3070 C.ar  1 <1>   0.0860 
 20 N       -4.8950    -4.7580    -1.0320 N.am  1 <1>  -0.2980 
 21 C       -6.3640    -3.6810     0.5540 C.ar  1 <1>   0.0860 
 22 C       -6.0660    -1.3300     0.9650 C.ar  1 <1>  -0.1500 
 23 C       -5.9530    -4.8670    -0.1410 C.2   1 <1>   0.5440 
 24 C       -4.4620    -5.9520    -1.7940 C.3   1 <1>   0.0600 
 25 C       -7.4380    -3.6660     1.4490 C.ar  1 <1>  -0.1500 
 26 C       -7.1270    -1.3320     1.8430 C.ar  1 <1>  -0.1500 
 27 O       -6.5090    -5.9430     0.0320 O.2   1 <1>  -0.5700 
 28 C       -7.8180    -2.5080     2.0890 C.ar  1 <1>  -0.1500 
 29 H        1.6160     0.6930     2.4920 H     1 <1>   0.0800 
 30 H        1.3250     2.2130     1.6850 H     1 <1>   0.0800 
 31 H        0.0880    -1.3350    -0.1180 H     1 <1>   0.0800 
 32 H        0.9080    -1.3960     1.4230 H     1 <1>   0.0800 
 33 H       -2.8140    -1.4380     1.0760 H     1 <1>   0.1500 
 34 H        3.6870     1.5430     1.4820 H     1 <1>   0.0800 
 35 H        2.9050     1.6820    -0.0640 H     1 <1>   0.0800 
 36 H        2.1040    -0.5790    -1.2340 H     1 <1>   0.0800 
 37 H        2.4220    -2.0660    -0.3900 H     1 <1>   0.0800 
 38 H       -3.1580     1.0330    -3.1350 H     1 <1>   0.1500 
 39 H       -0.3610     2.0310    -1.3710 H     1 <1>   0.0800 
 40 H       -1.6990     3.0030    -0.8010 H     1 <1>   0.0800 
 41 H       -1.5770     2.5800    -2.4840 H     1 <1>   0.0800 
 42 H        3.5130    -0.8810     1.4320 H     1 <1>   0.0800 
 43 H        4.2380    -0.3600    -0.0660 H     1 <1>   0.0800 
 44 H       -4.4810    -0.9910    -2.7930 H     1 <1>   0.1500 
 45 H       -5.5530    -0.4000     0.7890 H     1 <1>   0.1500 
 46 H       -3.6370    -5.7020    -2.4360 H     1 <1>   0.0800 
 47 H       -5.2820    -6.3110    -2.3910 H     1 <1>   0.0800 
 48 H       -4.1590    -6.7230    -1.1090 H     1 <1>   0.0800 
 49 H       -7.9740    -4.5830     1.6340 H     1 <1>   0.1500 
 50 H       -7.4260    -0.4250     2.3400 H     1 <1>   0.1500 
 51 H       -8.6480    -2.5120     2.7770 H     1 <1>   0.1500 
@<TRIPOS>BOND
  1   1   2  2   
  2   1   3  2   
  3   1   4  am  
  4   1   5  1   
  5   4   6  1   
  6   4   7  1   
  7   5   8  ar  
  8   5   9  ar  
  9   6  10  1   
 10   6  29  1   
 11   6  30  1   
 12   7  11  1   
 13   7  31  1   
 14   7  32  1   
 15   8  12  ar  
 16   8  13  1   
 17   9  14  ar  
 18   9  33  1   
 19  10  15  1   
 20  10  34  1   
 21  10  35  1   
 22  11  15  1   
 23  11  36  1   
 24  11  37  1   
 25  12  16  ar  
 26  12  38  1   
 27  13  39  1   
 28  13  40  1   
 29  13  41  1   
 30  14  16  ar  
 31  14  17  1   
 32  15  42  1   
 33  15  43  1   
 34  16  44  1   
 35  17  18  2   
 36  17  19  1   
 37  18  20  1   
 38  19  21  ar  
 39  19  22  ar  
 40  20  23  am  
 41  20  24  1   
 42  21  23  1   
 43  21  25  ar  
 44  22  26  ar  
 45  22  45  1   
 46  23  27  2   
 47  24  46  1   
 48  24  47  1   
 49  24  48  1   
 50  25  28  ar  
 51  25  49  1   
 52  26  28  ar  
 53  26  50  1   
 54  28  51  1   
@<TRIPOS>SUBSTRUCTURE
  1 ****   9 GROUP 4 **** **** 0

# MOE 2024.06 (io_trps.svl 2023.06)
