@<TRIPOS>MOLECULE
NONAME
46 48 1 0 0 
SMALL
USER_CHARGES


@<TRIPOS>ATOM
  1 CL      -0.6100    -0.4160    -2.2340 Cl    1 <1>  -0.1770 
  2 C       -1.9710    -0.8750    -1.2470 C.ar  1 <1>   0.1770 
  3 C       -2.5030     0.0390    -0.3580 C.ar  1 <1>  -0.1500 
  4 C       -2.4990    -2.1460    -1.3670 C.ar  1 <1>  -0.1500 
  5 C       -3.5870    -0.3250     0.4230 C.ar  1 <1>  -0.1500 
  6 C       -3.5830    -2.5080    -0.5850 C.ar  1 <1>  -0.1500 
  7 C       -4.1360    -1.5970     0.3090 C.ar  1 <1>  -0.1430 
  8 C       -5.3340    -1.9880     1.1550 C.3   1 <1>   0.4870 
  9 N       -6.5450    -2.0020     0.2930 N.4   1 <1>  -0.9590 
 10 C       -6.8470    -0.6370    -0.2810 C.3   1 <1>   0.3430 
 11 C       -7.7450    -2.5560     1.0210 C.3   1 <1>   0.3430 
 12 C       -8.0990    -0.6260    -1.1830 C.3   1 <1>   0.2090 
 13 C       -9.0030    -2.6140     0.1300 C.3   1 <1>   0.2090 
 14 N       -9.2580    -1.3040    -0.5330 N.pl3 1 <1>  -0.8380 
 15 C      -10.3030    -0.5280    -0.0280 C.ar  1 <1>   0.1000 
 16 C      -11.6110    -0.6630    -0.5080 C.ar  1 <1>  -0.1430 
 17 C      -10.0440     0.3830     0.9900 C.ar  1 <1>  -0.1500 
 18 C      -12.6340     0.0980     0.0530 C.ar  1 <1>  -0.1430 
 19 C      -11.9140    -1.6430    -1.6430 C.3   1 <1>  -0.0970 
 20 C      -11.0570     1.1450     1.5340 C.ar  1 <1>  -0.1500 
 21 C      -12.3480     0.9990     1.0670 C.ar  1 <1>  -0.1500 
 22 C      -14.0810    -0.0220    -0.4080 C.3   1 <1>  -0.0970 
 23 H       -2.0650     1.0200    -0.2810 H     1 <1>   0.1500 
 24 H       -2.0570    -2.8380    -2.0630 H     1 <1>   0.1500 
 25 H       -3.9890     0.3940     1.1180 H     1 <1>   0.1500 
 26 H       -3.9780    -3.5060    -0.6820 H     1 <1>   0.1500 
 27 H       -5.4590    -1.2850     1.9630 H     1 <1>   0.0800 
 28 H       -5.1660    -2.9660     1.5770 H     1 <1>   0.0800 
 29 H       -6.3440    -2.6160    -0.5060 H     1 <1>   0.4500 
 30 H       -6.0050    -0.2850    -0.8560 H     1 <1>   0.0800 
 31 H       -7.0090     0.0620     0.5220 H     1 <1>   0.0800 
 32 H       -7.9710    -1.9330     1.8700 H     1 <1>   0.0800 
 33 H       -7.5320    -3.5470     1.3850 H     1 <1>   0.0800 
 34 H       -7.8810    -1.1220    -2.1130 H     1 <1>   0.0800 
 35 H       -8.3650     0.3920    -1.4160 H     1 <1>   0.0800 
 36 H       -9.8550    -2.8810     0.7330 H     1 <1>   0.0800 
 37 H       -8.8870    -3.3730    -0.6230 H     1 <1>   0.0800 
 38 H       -9.0490     0.4990     1.3650 H     1 <1>   0.1500 
 39 H      -11.0460    -1.8230    -2.2500 H     1 <1>   0.0800 
 40 H      -12.6740    -1.2570    -2.2950 H     1 <1>   0.0800 
 41 H      -12.2470    -2.5790    -1.2330 H     1 <1>   0.0800 
 42 H      -10.8490     1.8500     2.3200 H     1 <1>   0.1500 
 43 H      -13.1320     1.5950     1.5010 H     1 <1>   0.1500 
 44 H      -14.3800    -1.0540    -0.4350 H     1 <1>   0.0800 
 45 H      -14.1890     0.4030    -1.3900 H     1 <1>   0.0800 
 46 H      -14.7440     0.4980     0.2600 H     1 <1>   0.0800 
@<TRIPOS>BOND
  1   1   2  1   
  2   2   3  ar  
  3   2   4  ar  
  4   3   5  ar  
  5   3  23  1   
  6   4   6  ar  
  7   4  24  1   
  8   5   7  ar  
  9   5  25  1   
 10   6   7  ar  
 11   6  26  1   
 12   7   8  1   
 13   8   9  1   
 14   8  27  1   
 15   8  28  1   
 16   9  10  1   
 17   9  11  1   
 18   9  29  1   
 19  10  12  1   
 20  10  30  1   
 21  10  31  1   
 22  11  13  1   
 23  11  32  1   
 24  11  33  1   
 25  12  14  1   
 26  12  34  1   
 27  12  35  1   
 28  13  14  1   
 29  13  36  1   
 30  13  37  1   
 31  14  15  1   
 32  15  16  ar  
 33  15  17  ar  
 34  16  18  ar  
 35  16  19  1   
 36  17  20  ar  
 37  17  38  1   
 38  18  21  ar  
 39  18  22  1   
 40  19  39  1   
 41  19  40  1   
 42  19  41  1   
 43  20  21  ar  
 44  20  42  1   
 45  21  43  1   
 46  22  44  1   
 47  22  45  1   
 48  22  46  1   
@<TRIPOS>SUBSTRUCTURE
  1 ****  10 GROUP 4 **** **** 0

# MOE 2024.06 (io_trps.svl 2023.06)
