@<TRIPOS>MOLECULE
NONAME
33 35 1 0 0 
SMALL
USER_CHARGES


@<TRIPOS>ATOM
  1 S        0.1230    -0.2140     0.4100 S.3   1 <1>  -0.0800 
  2 C        1.4400     0.9020     0.2010 C.2   1 <1>   0.4620 
  3 C       -0.9220     0.9780    -0.2990 C.2   1 <1>   0.1980 
  4 N        1.0460     2.0020    -0.3410 N.2   1 <1>  -0.3380 
  5 N        2.7150     0.5610     0.6030 N.pl3 1 <1>  -0.8220 
  6 N       -0.2900     2.0400    -0.6220 N.2   1 <1>  -0.3380 
  7 C       -2.4040     0.6150    -0.4390 C.3   1 <1>   1.2000 
  8 C        3.1260    -0.7620     1.1840 C.3   1 <1>   0.2090 
  9 C        3.8520     1.5300     0.4610 C.3   1 <1>   0.2090 
 10 F       -2.9740     0.3560     0.7340 F     1 <1>  -0.3400 
 11 F       -3.1360     1.5720    -1.0010 F     1 <1>  -0.3400 
 12 F       -2.5880    -0.4730    -1.1820 F     1 <1>  -0.3400 
 13 C        4.3450    -1.3570     0.4530 C.3   1 <1>   0.2090 
 14 C        5.0560     0.9010    -0.2660 C.3   1 <1>   0.2090 
 15 N        5.4780    -0.3810     0.3750 N.pl3 1 <1>  -0.8380 
 16 C        6.7280    -0.8620     0.0380 C.ar  1 <1>   0.4100 
 17 N        6.7810    -1.9280    -0.7540 N.ar  1 <1>  -0.6200 
 18 C        7.8630    -0.2180     0.5250 C.ar  1 <1>  -0.1500 
 19 C        7.9930    -2.3540    -1.0680 C.ar  1 <1>   0.1600 
 20 C        9.1170    -0.6710     0.1890 C.ar  1 <1>  -0.1500 
 21 C        9.1730    -1.7760    -0.6360 C.ar  1 <1>  -0.1500 
 22 H        2.3220    -1.4730     1.1390 H     1 <1>   0.0800 
 23 H        3.3820    -0.6220     2.2200 H     1 <1>   0.0800 
 24 H        4.1650     1.8460     1.4410 H     1 <1>   0.0800 
 25 H        3.5370     2.4040    -0.0800 H     1 <1>   0.0800 
 26 H        4.0550    -1.6450    -0.5430 H     1 <1>   0.0800 
 27 H        4.6750    -2.2420     0.9700 H     1 <1>   0.0800 
 28 H        5.8760     1.5960    -0.2620 H     1 <1>   0.0800 
 29 H        4.7870     0.7110    -1.2910 H     1 <1>   0.0800 
 30 H        7.7370     0.6310     1.1680 H     1 <1>   0.1500 
 31 H        8.0490    -3.2170    -1.7100 H     1 <1>   0.1500 
 32 H       10.0100    -0.1920     0.5520 H     1 <1>   0.1500 
 33 H       10.1200    -2.1840    -0.9380 H     1 <1>   0.1500 
@<TRIPOS>BOND
  1   1   2  1   
  2   1   3  1   
  3   2   4  2   
  4   2   5  1   
  5   3   6  2   
  6   3   7  1   
  7   4   6  1   
  8   5   8  1   
  9   5   9  1   
 10   7  10  1   
 11   7  11  1   
 12   7  12  1   
 13   8  13  1   
 14   8  22  1   
 15   8  23  1   
 16   9  14  1   
 17   9  24  1   
 18   9  25  1   
 19  13  15  1   
 20  13  26  1   
 21  13  27  1   
 22  14  15  1   
 23  14  28  1   
 24  14  29  1   
 25  15  16  1   
 26  16  17  ar  
 27  16  18  ar  
 28  17  19  ar  
 29  18  20  ar  
 30  18  30  1   
 31  19  21  ar  
 32  19  31  1   
 33  20  21  ar  
 34  20  32  1   
 35  21  33  1   
@<TRIPOS>SUBSTRUCTURE
  1 ****   5 GROUP 4 **** **** 0

# MOE 2024.06 (io_trps.svl 2023.06)
