@<TRIPOS>MOLECULE
NONAME
49 51 1 0 0 
SMALL
USER_CHARGES


@<TRIPOS>ATOM
  1 O       -0.2200    -0.6040     0.7870 O.2   1 <1>  -0.5700 
  2 C       -0.7850    -1.4740     0.1500 C.2   1 <1>   0.5440 
  3 N       -0.0500    -2.5390    -0.3350 N.am  1 <1>  -0.6600 
  4 C       -2.2110    -1.3570    -0.0720 C.ar  1 <1>   0.0860 
  5 C       -0.6510    -3.8290    -0.7770 C.3   1 <1>   0.1400 
  6 C        1.4410    -2.5470    -0.2840 C.3   1 <1>   0.1400 
  7 C       -3.0900    -1.1900     0.9980 C.ar  1 <1>  -0.1500 
  8 C       -2.7630    -1.3920    -1.3540 C.ar  1 <1>  -0.1500 
  9 C       -0.1820    -4.9610     0.1430 C.3   1 <1>  -0.1600 
 10 C        1.9220    -3.6670     0.6450 C.3   1 <1>  -0.1600 
 11 C       -4.4510    -1.0660     0.8000 C.ar  1 <1>  -0.1500 
 12 C       -4.1240    -1.2660    -1.5560 C.ar  1 <1>  -0.1500 
 13 C        1.3490    -5.0290     0.2300 C.3   1 <1>  -0.1600 
 14 C       -4.9860    -1.0890    -0.4820 C.ar  1 <1>   0.1170 
 15 N       -6.3520    -0.9280    -0.7030 N.am  1 <1>  -0.5470 
 16 C       -7.1530     0.1430    -0.4530 C.2   1 <1>   0.5690 
 17 O       -8.3150     0.1020    -0.7620 O.2   1 <1>  -0.5700 
 18 C       -6.6010     1.4060     0.1840 C.3   1 <1>  -0.0990 
 19 C       -5.7600     2.2230    -0.8040 C.3   1 <1>  -0.0170 
 20 C       -5.0420     3.3460    -0.0760 C.ar  1 <1>  -0.1430 
 21 C       -5.6450     4.5850     0.0780 C.ar  1 <1>  -0.1500 
 22 C       -3.7750     3.1340     0.4460 C.ar  1 <1>  -0.1500 
 23 C       -4.9870     5.6020     0.7480 C.ar  1 <1>  -0.1500 
 24 C       -3.1170     4.1510     1.1150 C.ar  1 <1>  -0.1500 
 25 C       -3.7220     5.3860     1.2660 C.ar  1 <1>  -0.1500 
 26 H       -0.3420    -4.0290    -1.7890 H     1 <1>   0.0800 
 27 H       -1.7250    -3.7840    -0.7550 H     1 <1>   0.0800 
 28 H        1.8170    -1.6010     0.0650 H     1 <1>   0.0800 
 29 H        1.8220    -2.7070    -1.2770 H     1 <1>   0.0800 
 30 H       -2.6840    -1.1550     1.9950 H     1 <1>   0.1500 
 31 H       -2.1030    -1.5120    -2.1960 H     1 <1>   0.1500 
 32 H       -0.5640    -5.8980    -0.2220 H     1 <1>   0.0800 
 33 H       -0.5920    -4.8010     1.1250 H     1 <1>   0.0800 
 34 H        1.6170    -3.4320     1.6500 H     1 <1>   0.0800 
 35 H        2.9960    -3.7040     0.6280 H     1 <1>   0.0800 
 36 H       -5.1060    -0.9480     1.6460 H     1 <1>   0.1500 
 37 H       -4.5230    -1.2910    -2.5550 H     1 <1>   0.1500 
 38 H        1.7500    -5.3080    -0.7290 H     1 <1>   0.0800 
 39 H        1.6410    -5.7790     0.9450 H     1 <1>   0.0800 
 40 H       -6.8340    -1.6680    -1.2150 H     1 <1>   0.3700 
 41 H       -6.0120     1.1490     1.0410 H     1 <1>   0.0800 
 42 H       -7.4220     2.0080     0.5290 H     1 <1>   0.0800 
 43 H       -6.3940     2.6260    -1.5740 H     1 <1>   0.0800 
 44 H       -5.0290     1.5950    -1.2810 H     1 <1>   0.0800 
 45 H       -6.6280     4.7620    -0.3210 H     1 <1>   0.1500 
 46 H       -3.2940     2.1770     0.3360 H     1 <1>   0.1500 
 47 H       -5.4590     6.5620     0.8640 H     1 <1>   0.1500 
 48 H       -2.1330     3.9790     1.5170 H     1 <1>   0.1500 
 49 H       -3.2100     6.1770     1.7860 H     1 <1>   0.1500 
@<TRIPOS>BOND
  1   1   2  2   
  2   2   3  am  
  3   2   4  1   
  4   3   5  1   
  5   3   6  1   
  6   4   7  ar  
  7   4   8  ar  
  8   5   9  1   
  9   5  26  1   
 10   5  27  1   
 11   6  10  1   
 12   6  28  1   
 13   6  29  1   
 14   7  11  ar  
 15   7  30  1   
 16   8  12  ar  
 17   8  31  1   
 18   9  13  1   
 19   9  32  1   
 20   9  33  1   
 21  10  13  1   
 22  10  34  1   
 23  10  35  1   
 24  11  14  ar  
 25  11  36  1   
 26  12  14  ar  
 27  12  37  1   
 28  13  38  1   
 29  13  39  1   
 30  14  15  1   
 31  15  16  am  
 32  15  40  1   
 33  16  17  2   
 34  16  18  1   
 35  18  19  1   
 36  18  41  1   
 37  18  42  1   
 38  19  20  1   
 39  19  43  1   
 40  19  44  1   
 41  20  21  ar  
 42  20  22  ar  
 43  21  23  ar  
 44  21  45  1   
 45  22  24  ar  
 46  22  46  1   
 47  23  25  ar  
 48  23  47  1   
 49  24  25  ar  
 50  24  48  1   
 51  25  49  1   
@<TRIPOS>SUBSTRUCTURE
  1 ****   7 GROUP 4 **** **** 0

# MOE 2024.06 (io_trps.svl 2023.06)
