@<TRIPOS>MOLECULE
NONAME
31 32 1 0 0 
SMALL
USER_CHARGES


@<TRIPOS>ATOM
  1 S       -0.2000     0.0060     0.9360 S.3   1 <1>  -0.0800 
  2 C        1.0370     0.8670     0.0260 C.2   1 <1>   0.4340 
  3 C       -1.3790     1.1550     0.3350 C.ar  1 <1>   0.0400 
  4 S        2.7210     0.3010     0.1780 S.3   1 <1>  -0.1970 
  5 N        0.6510     1.8920    -0.6200 N.2   1 <1>  -0.5650 
  6 C       -0.7230     2.0700    -0.4720 C.ar  1 <1>   0.2270 
  7 C       -2.7380     1.1970     0.5860 C.ar  1 <1>  -0.1500 
  8 C        2.6750    -1.4710    -0.0280 C.2   1 <1>   0.7710 
  9 C       -1.4710     3.0810    -1.0580 C.ar  1 <1>  -0.1500 
 10 C       -3.4680     2.2140    -0.0080 C.ar  1 <1>  -0.1500 
 11 O        1.6480    -1.9570    -0.4470 O.2   1 <1>  -0.5700 
 12 N        3.8040    -2.1940     0.2820 N.am  1 <1>  -0.6600 
 13 C       -2.8360     3.1490    -0.8250 C.ar  1 <1>  -0.1500 
 14 C        5.0590    -1.5890     0.8070 C.3   1 <1>   0.1400 
 15 C        3.7580    -3.6820     0.2510 C.3   1 <1>   0.1400 
 16 C        5.9070    -1.0350    -0.3380 C.3   1 <1>  -0.2400 
 17 C        4.4360    -4.2090    -1.0100 C.3   1 <1>  -0.2400 
 18 H       -3.2030     0.4630     1.2190 H     1 <1>   0.1500 
 19 H       -0.9750     3.7970    -1.6860 H     1 <1>   0.1500 
 20 H       -4.5290     2.2830     0.1610 H     1 <1>   0.1500 
 21 H       -3.4160     3.9340    -1.2790 H     1 <1>   0.1500 
 22 H        5.6250    -2.3320     1.3430 H     1 <1>   0.0800 
 23 H        4.8250    -0.8020     1.5040 H     1 <1>   0.0800 
 24 H        2.7340    -4.0170     0.2650 H     1 <1>   0.0800 
 25 H        4.2400    -4.0830     1.1270 H     1 <1>   0.0800 
 26 H        6.1860    -1.8150    -1.0200 H     1 <1>   0.0800 
 27 H        6.8060    -0.5990     0.0600 H     1 <1>   0.0800 
 28 H        5.3740    -0.2720    -0.8750 H     1 <1>   0.0800 
 29 H        3.9960    -3.7590    -1.8820 H     1 <1>   0.0800 
 30 H        4.2990    -5.2740    -1.0730 H     1 <1>   0.0800 
 31 H        5.4900    -4.0080    -0.9900 H     1 <1>   0.0800 
@<TRIPOS>BOND
  1   1   2  1   
  2   1   3  1   
  3   2   4  1   
  4   2   5  2   
  5   3   6  ar  
  6   3   7  ar  
  7   4   8  1   
  8   5   6  1   
  9   6   9  ar  
 10   7  10  ar  
 11   7  18  1   
 12   8  11  2   
 13   8  12  am  
 14   9  13  ar  
 15   9  19  1   
 16  10  13  ar  
 17  10  20  1   
 18  12  14  1   
 19  12  15  1   
 20  13  21  1   
 21  14  16  1   
 22  14  22  1   
 23  14  23  1   
 24  15  17  1   
 25  15  24  1   
 26  15  25  1   
 27  16  26  1   
 28  16  27  1   
 29  16  28  1   
 30  17  29  1   
 31  17  30  1   
 32  17  31  1   
@<TRIPOS>SUBSTRUCTURE
  1 ****   2 GROUP 4 **** **** 0

# MOE 2024.06 (io_trps.svl 2023.06)
