@<TRIPOS>MOLECULE
NONAME
46 48 1 0 0 
SMALL
USER_CHARGES


@<TRIPOS>ATOM
  1 O        0.6170     0.1390     0.5920 O.2   1 <1>  -0.5700 
  2 C        0.9570    -0.8710     1.1790 C.2   1 <1>   0.6900 
  3 N        2.2540    -1.0280     1.5900 N.am  1 <1>  -0.6600 
  4 N        0.0590    -1.8570     1.4720 N.am  1 <1>  -0.5470 
  5 C        3.2060     0.1290     1.5830 C.3   1 <1>   0.1400 
  6 C        2.9440    -2.3570     1.6610 C.3   1 <1>   0.1400 
  7 C       -1.2710    -2.0470     1.0690 C.ar  1 <1>   0.1170 
  8 C        4.2690    -0.0270     0.4830 C.3   1 <1>   0.2090 
  9 C        4.0280    -2.4880     0.5750 C.3   1 <1>   0.2090 
 10 C       -2.1140    -2.8100     1.8690 C.ar  1 <1>  -0.1500 
 11 C       -1.7800    -1.5190    -0.1130 C.ar  1 <1>  -0.1500 
 12 N        4.9770    -1.3340     0.6110 N.pl3 1 <1>  -0.8380 
 13 C       -3.4270    -3.0370     1.5000 C.ar  1 <1>  -0.1500 
 14 C       -3.0940    -1.7400    -0.4870 C.ar  1 <1>  -0.1500 
 15 C        6.1850    -1.4610    -0.0480 C.ar  1 <1>   0.4100 
 16 C       -3.9280    -2.5050     0.3230 C.ar  1 <1>   0.0820 
 17 N        6.2260    -2.2710    -1.1010 N.ar  1 <1>  -0.6200 
 18 C        7.2910    -0.7440     0.4030 C.ar  1 <1>  -0.1500 
 19 O       -5.2290    -2.7750     0.0350 O.3   1 <1>  -0.3630 
 20 C        7.3930    -2.3600    -1.7170 C.ar  1 <1>   0.1600 
 21 C        8.4980    -0.8460    -0.2470 C.ar  1 <1>  -0.1500 
 22 C       -5.8380    -2.2400    -1.1160 C.3   1 <1>   0.1200 
 23 C        8.5400    -1.6830    -1.3430 C.ar  1 <1>  -0.1500 
 24 C       -7.2910    -2.7020    -1.1390 C.3   1 <1>  -0.2400 
 25 H        0.3880    -2.4720     2.2070 H     1 <1>   0.3700 
 26 H        3.6980     0.1840     2.5370 H     1 <1>   0.0800 
 27 H        2.6760     1.0540     1.4350 H     1 <1>   0.0800 
 28 H        2.2420    -3.1610     1.5390 H     1 <1>   0.0800 
 29 H        3.4080    -2.4610     2.6260 H     1 <1>   0.0800 
 30 H        4.9750     0.7820     0.5510 H     1 <1>   0.0800 
 31 H        3.7920     0.0280    -0.4810 H     1 <1>   0.0800 
 32 H        3.5610    -2.5340    -0.3940 H     1 <1>   0.0800 
 33 H        4.5750    -3.4040     0.7230 H     1 <1>   0.0800 
 34 H       -1.7460    -3.2280     2.7870 H     1 <1>   0.1500 
 35 H       -1.1450    -0.9300    -0.7500 H     1 <1>   0.1500 
 36 H       -4.0770    -3.6260     2.1220 H     1 <1>   0.1500 
 37 H       -3.4420    -1.3110    -1.4060 H     1 <1>   0.1500 
 38 H        7.1830    -0.1190     1.2680 H     1 <1>   0.1500 
 39 H        7.4360    -3.0120    -2.5720 H     1 <1>   0.1500 
 40 H        9.3670    -0.3030     0.0810 H     1 <1>   0.1500 
 41 H       -5.3090    -2.6030    -1.9810 H     1 <1>   0.0800 
 42 H       -5.7800    -1.1660    -1.0650 H     1 <1>   0.0800 
 43 H        9.4510    -1.8110    -1.8990 H     1 <1>   0.1500 
 44 H       -7.3360    -3.7760    -1.1740 H     1 <1>   0.0800 
 45 H       -7.7850    -2.3090    -2.0090 H     1 <1>   0.0800 
 46 H       -7.8050    -2.3490    -0.2630 H     1 <1>   0.0800 
@<TRIPOS>BOND
  1   1   2  2   
  2   2   3  am  
  3   2   4  am  
  4   3   5  1   
  5   3   6  1   
  6   4   7  1   
  7   4  25  1   
  8   5   8  1   
  9   5  26  1   
 10   5  27  1   
 11   6   9  1   
 12   6  28  1   
 13   6  29  1   
 14   7  10  ar  
 15   7  11  ar  
 16   8  12  1   
 17   8  30  1   
 18   8  31  1   
 19   9  12  1   
 20   9  32  1   
 21   9  33  1   
 22  10  13  ar  
 23  10  34  1   
 24  11  14  ar  
 25  11  35  1   
 26  12  15  1   
 27  13  16  ar  
 28  13  36  1   
 29  14  16  ar  
 30  14  37  1   
 31  15  17  ar  
 32  15  18  ar  
 33  16  19  1   
 34  17  20  ar  
 35  18  21  ar  
 36  18  38  1   
 37  19  22  1   
 38  20  23  ar  
 39  20  39  1   
 40  21  23  ar  
 41  21  40  1   
 42  22  24  1   
 43  22  41  1   
 44  22  42  1   
 45  23  43  1   
 46  24  44  1   
 47  24  45  1   
 48  24  46  1   
@<TRIPOS>SUBSTRUCTURE
  1 ****   2 GROUP 4 **** **** 0

# MOE 2024.06 (io_trps.svl 2023.06)
