@<TRIPOS>MOLECULE
NONAME
34 35 1 0 0 
SMALL
USER_CHARGES


@<TRIPOS>ATOM
  1 O       -0.7660     0.3820     0.9950 O.co2 1 <1>  -0.9000 
  2 C       -1.4970     0.7270     0.0640 C.2   1 <1>   0.9060 
  3 O       -1.2930     1.7430    -0.6080 O.co2 1 <1>  -0.9000 
  4 C       -2.7230    -0.0970    -0.2390 C.3   1 <1>  -0.2660 
  5 C       -4.0000     0.7470    -0.0600 C.3   1 <1>  -0.0990 
  6 C       -5.3280     0.0230    -0.2860 C.2   1 <1>   0.5690 
  7 O       -5.2980    -1.0830    -0.7760 O.2   1 <1>  -0.5700 
  8 N       -6.5150     0.6560     0.0610 N.am  1 <1>  -0.4770 
  9 C       -7.7800     0.0020     0.0940 C.ar  1 <1>   0.1170 
 10 C       -6.4800     2.1450     0.2510 C.3   1 <1>   0.1400 
 11 C       -8.9470     0.6930    -0.2360 C.ar  1 <1>  -0.1440 
 12 C       -7.9070    -1.3330     0.4720 C.ar  1 <1>  -0.1500 
 13 C       -7.8610     2.7970     0.3860 C.3   1 <1>  -0.1600 
 14 C      -10.1790     0.0590    -0.2220 C.ar  1 <1>  -0.1500 
 15 C       -8.8560     2.1640    -0.5830 C.3   1 <1>  -0.0170 
 16 C       -9.1360    -1.9650     0.4900 C.ar  1 <1>  -0.1500 
 17 C      -10.2820    -1.2740     0.1390 C.ar  1 <1>  -0.1430 
 18 C      -11.6320    -1.9660     0.1490 C.3   1 <1>  -0.0970 
 19 H       -2.7410    -0.9430     0.4210 H     1 <1>   0.0800 
 20 H       -2.6480    -0.4490    -1.2500 H     1 <1>   0.0800 
 21 H       -3.9410     1.5750    -0.7430 H     1 <1>   0.0800 
 22 H       -3.9870     1.1370     0.9410 H     1 <1>   0.0800 
 23 H       -5.9920     2.5790    -0.6050 H     1 <1>   0.0800 
 24 H       -5.8970     2.3800     1.1250 H     1 <1>   0.0800 
 25 H       -7.0320    -1.8890     0.7540 H     1 <1>   0.1500 
 26 H       -7.7800     3.8530     0.2010 H     1 <1>   0.0800 
 27 H       -8.2140     2.6650     1.3940 H     1 <1>   0.0800 
 28 H      -11.0660     0.6040    -0.4900 H     1 <1>   0.1500 
 29 H       -9.8160     2.6390    -0.4850 H     1 <1>   0.0800 
 30 H       -8.5160     2.2750    -1.5980 H     1 <1>   0.0800 
 31 H       -9.1940    -3.0000     0.7760 H     1 <1>   0.1500 
 32 H      -12.4100    -1.2690     0.4040 H     1 <1>   0.0800 
 33 H      -11.6410    -2.7630     0.8710 H     1 <1>   0.0800 
 34 H      -11.8360    -2.3760    -0.8240 H     1 <1>   0.0800 
@<TRIPOS>BOND
  1   1   2  ar  
  2   2   3  ar  
  3   2   4  1   
  4   4   5  1   
  5   4  19  1   
  6   4  20  1   
  7   5   6  1   
  8   5  21  1   
  9   5  22  1   
 10   6   7  2   
 11   6   8  am  
 12   8   9  1   
 13   8  10  1   
 14   9  11  ar  
 15   9  12  ar  
 16  10  13  1   
 17  10  23  1   
 18  10  24  1   
 19  11  14  ar  
 20  11  15  1   
 21  12  16  ar  
 22  12  25  1   
 23  13  15  1   
 24  13  26  1   
 25  13  27  1   
 26  14  17  ar  
 27  14  28  1   
 28  15  29  1   
 29  15  30  1   
 30  16  17  ar  
 31  16  31  1   
 32  17  18  1   
 33  18  32  1   
 34  18  33  1   
 35  18  34  1   
@<TRIPOS>SUBSTRUCTURE
  1 ****   8 GROUP 4 **** **** 0

# MOE 2024.06 (io_trps.svl 2023.06)
