@<TRIPOS>MOLECULE
NONAME
40 41 1 0 0 
SMALL
USER_CHARGES


@<TRIPOS>ATOM
  1 O       -1.4780    -0.8840     0.7860 O.2   1 <1>  -0.5700 
  2 C       -1.6210    -1.4240    -0.2910 C.2   1 <1>   0.6900 
  3 N       -2.8530    -1.7510    -0.7660 N.am  1 <1>  -0.5470 
  4 N       -0.5610    -1.7410    -1.0790 N.am  1 <1>  -0.7300 
  5 C       -4.1070    -1.4770    -0.2000 C.ar  1 <1>   0.1170 
  6 C        0.8760    -1.5110    -0.8100 C.3   1 <1>   0.2200 
  7 C       -4.9180    -2.5410     0.2070 C.ar  1 <1>  -0.1430 
  8 C       -4.5770    -0.1670    -0.0630 C.ar  1 <1>  -0.1430 
  9 C        1.3380    -2.2650     0.4430 C.3   1 <1>  -0.1600 
 10 C        1.1860    -0.0120    -0.7180 C.3   1 <1>  -0.1600 
 11 C       -6.1720    -2.2910     0.7390 C.ar  1 <1>  -0.1500 
 12 C       -4.4420    -3.9840     0.0930 C.3   1 <1>  -0.0970 
 13 C       -5.8330     0.0620     0.4750 C.ar  1 <1>  -0.1500 
 14 C       -3.7450     1.0350    -0.4950 C.3   1 <1>  -0.0970 
 15 C        2.8340    -2.0320     0.7020 C.3   1 <1>  -0.1600 
 16 C        2.6820     0.2230    -0.4580 C.3   1 <1>  -0.1600 
 17 C       -6.6300    -0.9940     0.8740 C.ar  1 <1>  -0.1500 
 18 C        3.1510    -0.5320     0.7950 C.3   1 <1>  -0.1600 
 19 H       -2.8490    -2.5070    -1.4370 H     1 <1>   0.3700 
 20 H       -0.7630    -1.9780    -2.0460 H     1 <1>   0.3700 
 21 H        1.4270    -1.9070    -1.6460 H     1 <1>   0.0800 
 22 H        1.1540    -3.3170     0.3200 H     1 <1>   0.0800 
 23 H        0.7850    -1.9220     1.3000 H     1 <1>   0.0800 
 24 H        0.6240     0.4250     0.0890 H     1 <1>   0.0800 
 25 H        0.9000     0.4750    -1.6330 H     1 <1>   0.0800 
 26 H       -6.8010    -3.1030     1.0560 H     1 <1>   0.1500 
 27 H       -3.4930    -4.0970     0.5880 H     1 <1>   0.0800 
 28 H       -4.3380    -4.2580    -0.9400 H     1 <1>   0.0800 
 29 H       -5.1410    -4.6580     0.5550 H     1 <1>   0.0800 
 30 H       -6.1990     1.0670     0.5890 H     1 <1>   0.1500 
 31 H       -3.2810     0.8490    -1.4460 H     1 <1>   0.0800 
 32 H       -2.9780     1.2250     0.2340 H     1 <1>   0.0800 
 33 H       -4.3550     1.9150    -0.5860 H     1 <1>   0.0800 
 34 H        3.4090    -2.4700    -0.0960 H     1 <1>   0.0800 
 35 H        3.1190    -2.5170     1.6200 H     1 <1>   0.0800 
 36 H        2.8630     1.2770    -0.3300 H     1 <1>   0.0800 
 37 H        3.2510    -0.1090    -1.3090 H     1 <1>   0.0800 
 38 H       -7.6040    -0.8070     1.2900 H     1 <1>   0.1500 
 39 H        4.2100    -0.3940     0.9240 H     1 <1>   0.0800 
 40 H        2.6580    -0.1210     1.6600 H     1 <1>   0.0800 
@<TRIPOS>BOND
  1   1   2  2   
  2   2   3  am  
  3   2   4  am  
  4   3   5  1   
  5   3  19  1   
  6   4   6  1   
  7   4  20  1   
  8   5   7  ar  
  9   5   8  ar  
 10   6   9  1   
 11   6  10  1   
 12   6  21  1   
 13   7  11  ar  
 14   7  12  1   
 15   8  13  ar  
 16   8  14  1   
 17   9  15  1   
 18   9  22  1   
 19   9  23  1   
 20  10  16  1   
 21  10  24  1   
 22  10  25  1   
 23  11  17  ar  
 24  11  26  1   
 25  12  27  1   
 26  12  28  1   
 27  12  29  1   
 28  13  17  ar  
 29  13  30  1   
 30  14  31  1   
 31  14  32  1   
 32  14  33  1   
 33  15  18  1   
 34  15  34  1   
 35  15  35  1   
 36  16  18  1   
 37  16  36  1   
 38  16  37  1   
 39  17  38  1   
 40  18  39  1   
 41  18  40  1   
@<TRIPOS>SUBSTRUCTURE
  1 ****   2 GROUP 4 **** **** 0

# MOE 2024.06 (io_trps.svl 2023.06)
