@<TRIPOS>MOLECULE
NONAME
50 52 1 0 0 
SMALL
USER_CHARGES


@<TRIPOS>ATOM
  1 S       -0.6220     0.6890     0.8620 S.o2  1 <1>   1.4470 
  2 O       -1.1880     0.9280     2.1720 O.2   1 <1>  -0.6500 
  3 O       -0.4620    -0.6700     0.3920 O.2   1 <1>  -0.6500 
  4 N       -1.6100     1.4860    -0.2600 N.am  1 <1>  -0.8490 
  5 C        0.9680     1.5500     0.7050 C.ar  1 <1>  -0.0090 
  6 C       -2.8190     0.6890    -0.5650 C.3   1 <1>   0.1960 
  7 C       -2.0110     2.8350     0.1980 C.3   1 <1>   0.1960 
  8 C        1.5700     2.1690     1.7960 C.ar  1 <1>  -0.1500 
  9 C        1.6320     1.6110    -0.5150 C.ar  1 <1>  -0.1500 
 10 C       -3.7150     1.3690    -1.6180 C.3   1 <1>   0.2090 
 11 C       -2.8900     3.5700    -0.8330 C.3   1 <1>   0.2090 
 12 C        2.7870     2.8150     1.6760 C.ar  1 <1>  -0.1500 
 13 C        2.8490     2.2570    -0.6420 C.ar  1 <1>  -0.1500 
 14 N       -4.0900     2.7480    -1.1770 N.pl3 1 <1>  -0.8380 
 15 C        3.4480     2.8600     0.4560 C.ar  1 <1>   0.1170 
 16 C       -5.3410     3.0550    -0.6840 C.ar  1 <1>   0.7200 
 17 N        4.6790     3.5140     0.3570 N.am  1 <1>  -0.5470 
 18 N       -5.5890     4.3370    -0.4270 N.ar  1 <1>  -0.6200 
 19 N       -6.1890     2.0440    -0.5000 N.ar  1 <1>  -0.6200 
 20 C        5.8670     3.1000    -0.1540 C.2   1 <1>   0.5690 
 21 C       -6.7780     4.6220     0.0390 C.ar  1 <1>   0.1670 
 22 C       -7.3720     2.3500    -0.0320 C.ar  1 <1>   0.1670 
 23 O        6.8100     3.8470    -0.1560 O.2   1 <1>  -0.5700 
 24 C        6.0410     1.7030    -0.7030 C.3   1 <1>  -0.1790 
 25 C       -7.7210     3.6470     0.2570 C.ar  1 <1>  -0.1500 
 26 C       -7.0710     6.0790     0.3280 C.3   1 <1>  -0.0970 
 27 C       -8.3430     1.2080     0.1780 C.3   1 <1>  -0.0970 
 28 H       -3.3950     0.5350     0.3330 H     1 <1>   0.0800 
 29 H       -2.5300    -0.2770    -0.9430 H     1 <1>   0.0800 
 30 H       -1.1330     3.4280     0.3850 H     1 <1>   0.0800 
 31 H       -2.5660     2.7620     1.1190 H     1 <1>   0.0800 
 32 H        1.0790     2.1390     2.7560 H     1 <1>   0.1500 
 33 H        1.1830     1.1430    -1.3770 H     1 <1>   0.1500 
 34 H       -4.5860     0.7630    -1.7960 H     1 <1>   0.0800 
 35 H       -3.1770     1.4330    -2.5470 H     1 <1>   0.0800 
 36 H       -2.3190     3.7490    -1.7270 H     1 <1>   0.0800 
 37 H       -3.1730     4.5280    -0.4330 H     1 <1>   0.0800 
 38 H        3.2330     3.2810     2.5370 H     1 <1>   0.1500 
 39 H        3.3340     2.2960    -1.6010 H     1 <1>   0.1500 
 40 H        4.7460     4.4360     0.7890 H     1 <1>   0.3700 
 41 H        5.6930     1.6680    -1.7170 H     1 <1>   0.0800 
 42 H        5.4950     0.9960    -0.1070 H     1 <1>   0.0800 
 43 H        7.0810     1.4380    -0.6840 H     1 <1>   0.0800 
 44 H       -8.6940     3.8890     0.6390 H     1 <1>   0.1500 
 45 H       -6.3710     6.4480     1.0550 H     1 <1>   0.0800 
 46 H       -8.0680     6.2050     0.7060 H     1 <1>   0.0800 
 47 H       -6.9650     6.6510    -0.5760 H     1 <1>   0.0800 
 48 H       -8.5100     0.7030    -0.7560 H     1 <1>   0.0800 
 49 H       -9.2840     1.5640     0.5550 H     1 <1>   0.0800 
 50 H       -7.9280     0.5080     0.8800 H     1 <1>   0.0800 
@<TRIPOS>BOND
  1   1   2  2   
  2   1   3  2   
  3   1   4  am  
  4   1   5  1   
  5   4   6  1   
  6   4   7  1   
  7   5   8  ar  
  8   5   9  ar  
  9   6  10  1   
 10   6  28  1   
 11   6  29  1   
 12   7  11  1   
 13   7  30  1   
 14   7  31  1   
 15   8  12  ar  
 16   8  32  1   
 17   9  13  ar  
 18   9  33  1   
 19  10  14  1   
 20  10  34  1   
 21  10  35  1   
 22  11  14  1   
 23  11  36  1   
 24  11  37  1   
 25  12  15  ar  
 26  12  38  1   
 27  13  15  ar  
 28  13  39  1   
 29  14  16  1   
 30  15  17  1   
 31  16  18  ar  
 32  16  19  ar  
 33  17  20  am  
 34  17  40  1   
 35  18  21  ar  
 36  19  22  ar  
 37  20  23  2   
 38  20  24  1   
 39  21  25  ar  
 40  21  26  1   
 41  22  25  ar  
 42  22  27  1   
 43  24  41  1   
 44  24  42  1   
 45  24  43  1   
 46  25  44  1   
 47  26  45  1   
 48  26  46  1   
 49  26  47  1   
 50  27  48  1   
 51  27  49  1   
 52  27  50  1   
@<TRIPOS>SUBSTRUCTURE
  1 ****   7 GROUP 4 **** **** 0

# MOE 2024.06 (io_trps.svl 2023.06)
