@<TRIPOS>MOLECULE
NONAME
57 59 1 0 0 
SMALL
USER_CHARGES


@<TRIPOS>ATOM
  1 O        1.2020     0.9450     1.1850 O.2   1 <1>  -0.5700 
  2 C        0.8180     1.6750     0.2910 C.2   1 <1>   0.5440 
  3 N        1.5370     1.7210    -0.8870 N.am  1 <1>  -0.6600 
  4 C       -0.3690     2.4850     0.4980 C.ar  1 <1>   0.0860 
  5 C        1.5060     2.8780    -1.8220 C.3   1 <1>   0.1400 
  6 C        2.5820     0.7090    -1.2010 C.3   1 <1>   0.1400 
  7 C       -1.4200     2.4930    -0.4150 C.ar  1 <1>  -0.1500 
  8 C       -0.5060     3.2850     1.6280 C.ar  1 <1>  -0.1500 
  9 C        2.8690     3.5760    -1.8000 C.3   1 <1>  -0.1600 
 10 C        3.9570     1.3770    -1.1590 C.3   1 <1>  -0.1600 
 11 C       -2.5440     3.2770    -0.2210 C.ar  1 <1>  -0.1500 
 12 C       -1.6270     4.0690     1.8240 C.ar  1 <1>  -0.1500 
 13 C        4.0200     2.5950    -2.1020 C.3   1 <1>  -0.0190 
 14 C       -2.6700     4.0870     0.9040 C.ar  1 <1>  -0.1430 
 15 C        5.3770     3.2890    -2.0460 C.2   1 <1>   0.5690 
 16 C       -3.9020     4.9800     1.1680 C.3   1 <1>   0.1430 
 17 O        6.0190     3.4060    -3.0610 O.2   1 <1>  -0.5700 
 18 N        5.8330     3.7630    -0.8610 N.am  1 <1>  -0.7300 
 19 C       -4.9620     4.8940     0.0560 C.3   1 <1>  -0.2400 
 20 C       -3.4610     6.4480     1.2730 C.3   1 <1>  -0.2400 
 21 C       -4.5730     4.5540     2.4820 C.3   1 <1>  -0.2400 
 22 C        7.1460     4.3950    -0.6670 C.3   1 <1>   0.2840 
 23 C        7.5790     4.1420     0.7650 C.ar  1 <1>  -0.1430 
 24 C        8.1040     2.9270     1.1560 C.ar  1 <1>  -0.1500 
 25 C        7.4640     5.1040     1.7480 C.ar  1 <1>  -0.1500 
 26 C        8.4800     2.7370     2.4750 C.ar  1 <1>   0.1600 
 27 C        7.8700     4.8120     3.0400 C.ar  1 <1>   0.1600 
 28 N        8.3750     3.6510     3.4260 N.ar  1 <1>  -0.6200 
 29 H        0.7440     3.5840    -1.5420 H     1 <1>   0.0800 
 30 H        1.2880     2.5230    -2.8150 H     1 <1>   0.0800 
 31 H        2.3960     0.3040    -2.1800 H     1 <1>   0.0800 
 32 H        2.5490    -0.1050    -0.4950 H     1 <1>   0.0800 
 33 H       -1.3520     1.8700    -1.2890 H     1 <1>   0.1500 
 34 H        0.2830     3.2830     2.3600 H     1 <1>   0.1500 
 35 H        3.0080     4.0230    -0.8310 H     1 <1>   0.0800 
 36 H        2.8730     4.3670    -2.5290 H     1 <1>   0.0800 
 37 H        4.7070     0.6600    -1.4450 H     1 <1>   0.0800 
 38 H        4.1570     1.6720    -0.1440 H     1 <1>   0.0800 
 39 H       -3.3140     3.2330    -0.9670 H     1 <1>   0.1500 
 40 H       -1.6790     4.6700     2.7150 H     1 <1>   0.1500 
 41 H        3.8900     2.2370    -3.1080 H     1 <1>   0.0800 
 42 H        5.2940     3.6200    -0.0060 H     1 <1>   0.3700 
 43 H       -4.5480     5.2060    -0.8860 H     1 <1>   0.0800 
 44 H       -5.7970     5.5330     0.2800 H     1 <1>   0.0800 
 45 H       -5.3300     3.8880    -0.0370 H     1 <1>   0.0800 
 46 H       -2.9600     6.7470     0.3700 H     1 <1>   0.0800 
 47 H       -2.7870     6.5930     2.0970 H     1 <1>   0.0800 
 48 H       -4.3100     7.0900     1.4220 H     1 <1>   0.0800 
 49 H       -4.8550     3.5170     2.4310 H     1 <1>   0.0800 
 50 H       -5.4550     5.1400     2.6670 H     1 <1>   0.0800 
 51 H       -3.9080     4.6800     3.3160 H     1 <1>   0.0800 
 52 H        7.0660     5.4520    -0.8580 H     1 <1>   0.0800 
 53 H        7.8620     3.9770    -1.3550 H     1 <1>   0.0800 
 54 H        8.2210     2.1280     0.4460 H     1 <1>   0.1500 
 55 H        7.0630     6.0760     1.5250 H     1 <1>   0.1500 
 56 H        8.8880     1.7830     2.7640 H     1 <1>   0.1500 
 57 H        7.7740     5.5730     3.7960 H     1 <1>   0.1500 
@<TRIPOS>BOND
  1   1   2  2   
  2   2   3  am  
  3   2   4  1   
  4   3   5  1   
  5   3   6  1   
  6   4   7  ar  
  7   4   8  ar  
  8   5   9  1   
  9   5  29  1   
 10   5  30  1   
 11   6  10  1   
 12   6  31  1   
 13   6  32  1   
 14   7  11  ar  
 15   7  33  1   
 16   8  12  ar  
 17   8  34  1   
 18   9  13  1   
 19   9  35  1   
 20   9  36  1   
 21  10  13  1   
 22  10  37  1   
 23  10  38  1   
 24  11  14  ar  
 25  11  39  1   
 26  12  14  ar  
 27  12  40  1   
 28  13  15  1   
 29  13  41  1   
 30  14  16  1   
 31  15  17  2   
 32  15  18  am  
 33  16  19  1   
 34  16  20  1   
 35  16  21  1   
 36  18  22  1   
 37  18  42  1   
 38  19  43  1   
 39  19  44  1   
 40  19  45  1   
 41  20  46  1   
 42  20  47  1   
 43  20  48  1   
 44  21  49  1   
 45  21  50  1   
 46  21  51  1   
 47  22  23  1   
 48  22  52  1   
 49  22  53  1   
 50  23  24  ar  
 51  23  25  ar  
 52  24  26  ar  
 53  24  54  1   
 54  25  27  ar  
 55  25  55  1   
 56  26  28  ar  
 57  26  56  1   
 58  27  28  ar  
 59  27  57  1   
@<TRIPOS>SUBSTRUCTURE
  1 ****   3 GROUP 4 **** **** 0

# MOE 2024.06 (io_trps.svl 2023.06)
