@<TRIPOS>MOLECULE
NONAME
39 39 1 0 0 
SMALL
USER_CHARGES


@<TRIPOS>ATOM
  1 O        0.7350     1.1620    -2.1520 O.2   1 <1>  -0.5700 
  2 C        0.1290     0.3260    -1.5280 C.2   1 <1>   0.5690 
  3 N        0.4890    -0.0910    -0.2870 N.am  1 <1>  -0.7300 
  4 C       -1.1000    -0.2930    -2.1750 C.3   1 <1>   0.0440 
  5 C        1.5700     0.3210     0.6130 C.3   1 <1>   0.5000 
  6 C       -1.7400    -1.3860    -1.3220 C.ar  1 <1>  -0.1440 
  7 C        1.0870    -0.1140     1.9590 C.1   1 <1>  -0.2000 
  8 C        2.8510    -0.4820     0.2870 C.3   1 <1>  -0.1600 
  9 C        1.7590     1.8580     0.6100 C.3   1 <1>  -0.1600 
 10 C       -1.3330    -2.7040    -1.4530 C.ar  1 <1>  -0.1500 
 11 C       -2.7160    -1.0670    -0.3910 C.ar  1 <1>  -0.1500 
 12 C        0.6920    -0.4700     3.0240 C.1   1 <1>  -0.1770 
 13 C        3.5070    -0.2090    -1.0790 C.3   1 <1>  -0.2400 
 14 C        2.7690     2.4100     1.6350 C.3   1 <1>  -0.2400 
 15 C       -1.8930    -3.6900    -0.6610 C.ar  1 <1>  -0.1500 
 16 C       -3.2760    -2.0540     0.4000 C.ar  1 <1>  -0.1500 
 17 C       -2.8660    -3.3710     0.2710 C.ar  1 <1>  -0.1430 
 18 C       -3.4810    -4.4540     1.1390 C.3   1 <1>  -0.0970 
 19 H       -0.0980    -0.8090     0.1430 H     1 <1>   0.3700 
 20 H       -0.8120    -0.6970    -3.1270 H     1 <1>   0.0800 
 21 H       -1.8130     0.4890    -2.3580 H     1 <1>   0.0800 
 22 H        2.6190    -1.5300     0.3490 H     1 <1>   0.0800 
 23 H        3.5800    -0.2840     1.0520 H     1 <1>   0.0800 
 24 H        0.8030     2.3140     0.7990 H     1 <1>   0.0800 
 25 H        2.0810     2.1790    -0.3630 H     1 <1>   0.0800 
 26 H       -0.5750    -2.9700    -2.1700 H     1 <1>   0.1500 
 27 H       -3.0440    -0.0480    -0.2740 H     1 <1>   0.1500 
 28 H        0.3320    -0.7910     3.9860 H     1 <1>   0.1770 
 29 H        2.8380    -0.4650    -1.8800 H     1 <1>   0.0800 
 30 H        4.3970    -0.8030    -1.1820 H     1 <1>   0.0800 
 31 H        3.7800     0.8270    -1.1770 H     1 <1>   0.0800 
 32 H        2.4820     2.1520     2.6390 H     1 <1>   0.0800 
 33 H        2.8070     3.4830     1.5620 H     1 <1>   0.0800 
 34 H        3.7560     2.0280     1.4440 H     1 <1>   0.0800 
 35 H       -1.5680    -4.7100    -0.7750 H     1 <1>   0.1500 
 36 H       -4.0330    -1.7920     1.1180 H     1 <1>   0.1500 
 37 H       -2.7680    -5.2370     1.3240 H     1 <1>   0.0800 
 38 H       -4.3370    -4.8740     0.6430 H     1 <1>   0.0800 
 39 H       -3.7910    -4.0480     2.0850 H     1 <1>   0.0800 
@<TRIPOS>BOND
  1   1   2  2   
  2   2   3  am  
  3   2   4  1   
  4   3   5  1   
  5   3  19  1   
  6   4   6  1   
  7   4  20  1   
  8   4  21  1   
  9   5   7  1   
 10   5   8  1   
 11   5   9  1   
 12   6  10  ar  
 13   6  11  ar  
 14   7  12  3   
 15   8  13  1   
 16   8  22  1   
 17   8  23  1   
 18   9  14  1   
 19   9  24  1   
 20   9  25  1   
 21  10  15  ar  
 22  10  26  1   
 23  11  16  ar  
 24  11  27  1   
 25  12  28  1   
 26  13  29  1   
 27  13  30  1   
 28  13  31  1   
 29  14  32  1   
 30  14  33  1   
 31  14  34  1   
 32  15  17  ar  
 33  15  35  1   
 34  16  17  ar  
 35  16  36  1   
 36  17  18  1   
 37  18  37  1   
 38  18  38  1   
 39  18  39  1   
@<TRIPOS>SUBSTRUCTURE
  1 ****   3 GROUP 4 **** **** 0

# MOE 2024.06 (io_trps.svl 2023.06)
