@<TRIPOS>MOLECULE
NONAME
29 29 1 0 0 
SMALL
USER_CHARGES


@<TRIPOS>ATOM
  1 S       -4.1170    -0.4230    -0.3110 S.o2  1 <1>   1.0900 
  2 O       -4.6200    -0.8100     0.9870 O.2   1 <1>  -0.6500 
  3 O       -4.2020    -1.3020    -1.4530 O.2   1 <1>  -0.6500 
  4 C       -2.4480     0.1410    -0.1130 C.3   1 <1>  -0.0550 
  5 C       -4.7800     1.1830    -0.7120 C.3   1 <1>  -0.0550 
  6 C       -2.5380     1.6170     0.2750 C.3   1 <1>   0.1900 
  7 C       -3.6380     2.2070    -0.6270 C.3   1 <1>  -0.1600 
  8 N       -1.2460     2.3040     0.0730 N.3   1 <1>  -0.8100 
  9 C       -0.1530     1.7350     0.9310 C.3   1 <1>   0.1710 
 10 C       -1.3380     3.7610     0.3090 C.3   1 <1>   0.0300 
 11 C        1.2580     2.2800     0.6720 C.2   1 <1>   0.6590 
 12 O        1.7660     3.0910     1.4060 O.2   1 <1>  -0.5700 
 13 O        1.8940     1.7940    -0.3900 O.3   1 <1>  -0.4300 
 14 C        3.1920     2.2260    -0.7390 C.3   1 <1>   0.0400 
 15 H       -1.9280     0.0580    -1.0480 H     1 <1>   0.0800 
 16 H       -1.9450    -0.4390     0.6360 H     1 <1>   0.0800 
 17 H       -5.5450     1.4360    -0.0030 H     1 <1>   0.0800 
 18 H       -5.2120     1.1850    -1.6950 H     1 <1>   0.0800 
 19 H       -2.8430     1.6970     1.3070 H     1 <1>   0.0800 
 20 H       -4.0090     3.1410    -0.2440 H     1 <1>   0.0800 
 21 H       -3.2360     2.3600    -1.6150 H     1 <1>   0.0800 
 22 H       -0.0880     0.6740     0.7850 H     1 <1>   0.0800 
 23 H       -0.3890     1.9090     1.9660 H     1 <1>   0.0800 
 24 H       -2.0130     4.2190    -0.3920 H     1 <1>   0.0800 
 25 H       -0.3780     4.2290     0.1690 H     1 <1>   0.0800 
 26 H       -1.6780     3.9620     1.3110 H     1 <1>   0.0800 
 27 H        3.4980     1.7030    -1.6270 H     1 <1>   0.0800 
 28 H        3.8630     2.0070     0.0730 H     1 <1>   0.0800 
 29 H        3.1670     3.2870    -0.9240 H     1 <1>   0.0800 
@<TRIPOS>BOND
  1   1   2  2   
  2   1   3  2   
  3   1   4  1   
  4   1   5  1   
  5   4   6  1   
  6   4  15  1   
  7   4  16  1   
  8   5   7  1   
  9   5  17  1   
 10   5  18  1   
 11   6   7  1   
 12   6   8  1   
 13   6  19  1   
 14   7  20  1   
 15   7  21  1   
 16   8   9  1   
 17   8  10  1   
 18   9  11  1   
 19   9  22  1   
 20   9  23  1   
 21  10  24  1   
 22  10  25  1   
 23  10  26  1   
 24  11  12  2   
 25  11  13  1   
 26  13  14  1   
 27  14  27  1   
 28  14  28  1   
 29  14  29  1   
@<TRIPOS>SUBSTRUCTURE
  1 ****   8 GROUP 4 **** **** 0

# MOE 2024.06 (io_trps.svl 2023.06)
