@<TRIPOS>MOLECULE
NONAME
35 36 1 0 0 
SMALL
USER_CHARGES


@<TRIPOS>ATOM
  1 F       -1.7390     0.4120     2.1340 F     1 <1>  -0.1900 
  2 C       -2.2510     1.0530     1.1190 C.ar  1 <1>   0.1900 
  3 C       -3.3770     0.5340     0.5110 C.ar  1 <1>  -0.1500 
  4 C       -1.6520     2.2220     0.6940 C.ar  1 <1>  -0.1500 
  5 C       -3.9340     1.2160    -0.5630 C.ar  1 <1>  -0.1440 
  6 C       -2.2050     2.8930    -0.3830 C.ar  1 <1>  -0.1500 
  7 C       -3.3380     2.3920    -1.0070 C.ar  1 <1>  -0.1500 
  8 C       -5.1840     0.6840    -1.2390 C.3   1 <1>   0.4870 
  9 N       -6.3440     0.9230    -0.3390 N.4   1 <1>  -0.9590 
 10 C       -7.5540     0.1870    -0.8280 C.3   1 <1>   0.3430 
 11 C       -6.6080     2.3830    -0.1630 C.3   1 <1>   0.3430 
 12 C       -8.7450     0.3570     0.1250 C.3   1 <1>  -0.0190 
 13 C       -7.7570     2.5840     0.8280 C.3   1 <1>  -0.1600 
 14 C       -9.9490    -0.3440    -0.4830 C.2   1 <1>   0.5690 
 15 C       -9.0310     1.8490     0.3850 C.3   1 <1>  -0.1600 
 16 O       -9.9340    -0.6340    -1.6500 O.2   1 <1>  -0.5700 
 17 N      -11.0160    -0.6410     0.2770 N.am  1 <1>  -0.8000 
 18 H       -3.7880    -0.3870     0.8850 H     1 <1>   0.1500 
 19 H       -0.7740     2.5930     1.1940 H     1 <1>   0.1500 
 20 H       -1.7490     3.8050    -0.7350 H     1 <1>   0.1500 
 21 H       -3.7430     2.9330    -1.8470 H     1 <1>   0.1500 
 22 H       -5.0650    -0.3720    -1.4210 H     1 <1>   0.0800 
 23 H       -5.3340     1.1780    -2.1850 H     1 <1>   0.0800 
 24 H       -6.0800     0.5540     0.5820 H     1 <1>   0.4500 
 25 H       -7.3350    -0.8640    -0.9320 H     1 <1>   0.0800 
 26 H       -7.8360     0.5610    -1.8000 H     1 <1>   0.0800 
 27 H       -6.8720     2.8240    -1.1120 H     1 <1>   0.0800 
 28 H       -5.7250     2.8790     0.2080 H     1 <1>   0.0800 
 29 H       -8.5130    -0.1340     1.0520 H     1 <1>   0.0800 
 30 H       -7.9660     3.6370     0.9080 H     1 <1>   0.0800 
 31 H       -7.4510     2.2450     1.8030 H     1 <1>   0.0800 
 32 H       -9.7910     1.9520     1.1420 H     1 <1>   0.0800 
 33 H       -9.4080     2.3020    -0.5170 H     1 <1>   0.0800 
 34 H      -11.8190    -1.1060    -0.1560 H     1 <1>   0.3700 
 35 H      -11.1240    -0.4130     1.2660 H     1 <1>   0.3700 
@<TRIPOS>BOND
  1   1   2  1   
  2   2   3  ar  
  3   2   4  ar  
  4   3   5  ar  
  5   3  18  1   
  6   4   6  ar  
  7   4  19  1   
  8   5   7  ar  
  9   5   8  1   
 10   6   7  ar  
 11   6  20  1   
 12   7  21  1   
 13   8   9  1   
 14   8  22  1   
 15   8  23  1   
 16   9  10  1   
 17   9  11  1   
 18   9  24  1   
 19  10  12  1   
 20  10  25  1   
 21  10  26  1   
 22  11  13  1   
 23  11  27  1   
 24  11  28  1   
 25  12  14  1   
 26  12  15  1   
 27  12  29  1   
 28  13  15  1   
 29  13  30  1   
 30  13  31  1   
 31  14  16  2   
 32  14  17  am  
 33  15  32  1   
 34  15  33  1   
 35  17  34  1   
 36  17  35  1   
@<TRIPOS>SUBSTRUCTURE
  1 ****   9 GROUP 4 **** **** 0

# MOE 2024.06 (io_trps.svl 2023.06)
