@<TRIPOS>MOLECULE
NONAME
37 38 1 0 0 
SMALL
USER_CHARGES


@<TRIPOS>ATOM
  1 O       -1.6200    -0.2710    -0.2760 O.2   1 <1>  -0.5700 
  2 C       -2.5030    -0.8540     0.3030 C.2   1 <1>   0.6590 
  3 O       -2.2830    -1.9760     0.9690 O.3   1 <1>  -0.4300 
  4 C       -3.9400    -0.3420     0.3290 C.3   1 <1>  -0.0190 
  5 C       -1.0020    -2.5700     1.0550 C.3   1 <1>   0.0400 
  6 C       -4.2070     1.0450    -0.3570 C.3   1 <1>   0.5030 
  7 C       -4.9750    -1.4410    -0.0650 C.3   1 <1>  -0.1600 
  8 N       -3.3400     1.2900    -1.5250 N.4   1 <1>  -0.8530 
  9 C       -5.6700     1.1330    -0.8840 C.3   1 <1>   0.0000 
 10 C       -3.9010     2.1970     0.6040 C.3   1 <1>  -0.2400 
 11 C       -6.2840    -0.8730    -0.6640 C.3   1 <1>   0.0000 
 12 C       -6.8220     0.4640    -0.0400 C.3   1 <1>   0.0000 
 13 C       -5.9190    -0.0240    -1.9140 C.3   1 <1>   0.0000 
 14 C       -8.2430     0.8740    -0.5050 C.3   1 <1>  -0.2400 
 15 C       -6.8320     0.5700     1.5000 C.3   1 <1>  -0.2400 
 16 H       -4.0860    -0.1830     1.3770 H     1 <1>   0.0800 
 17 H       -1.0790    -3.4640     1.6480 H     1 <1>   0.0800 
 18 H       -0.3240    -1.8760     1.5220 H     1 <1>   0.0800 
 19 H       -0.6600    -2.8130     0.0640 H     1 <1>   0.0800 
 20 H       -4.5390    -2.1120    -0.7860 H     1 <1>   0.0800 
 21 H       -5.2130    -2.0340     0.8030 H     1 <1>   0.0800 
 22 H       -3.6230     0.7110    -2.3190 H     1 <1>   0.4500 
 23 H       -2.3690     1.0230    -1.2770 H     1 <1>   0.4500 
 24 H       -3.3560     2.2740    -1.7990 H     1 <1>   0.4500 
 25 H       -5.9320     2.1030    -1.2710 H     1 <1>   0.0000 
 26 H       -4.5150     2.1310     1.4840 H     1 <1>   0.0800 
 27 H       -4.1030     3.1500     0.1470 H     1 <1>   0.0800 
 28 H       -2.8730     2.1710     0.9240 H     1 <1>   0.0800 
 29 H       -7.0370    -1.6160    -0.8580 H     1 <1>   0.0000 
 30 H       -6.7330     0.1390    -2.5970 H     1 <1>   0.0000 
 31 H       -5.0560    -0.3900    -2.4410 H     1 <1>   0.0000 
 32 H       -8.9670     0.1710    -0.1290 H     1 <1>   0.0800 
 33 H       -8.3720     0.9250    -1.5690 H     1 <1>   0.0800 
 34 H       -8.4920     1.8440    -0.1120 H     1 <1>   0.0800 
 35 H       -6.0020     0.1270     2.0000 H     1 <1>   0.0800 
 36 H       -7.7030     0.0660     1.8840 H     1 <1>   0.0800 
 37 H       -6.9010     1.6010     1.7990 H     1 <1>   0.0800 
@<TRIPOS>BOND
  1   1   2  2   
  2   2   3  1   
  3   2   4  1   
  4   3   5  1   
  5   4   6  1   
  6   4   7  1   
  7   4  16  1   
  8   5  17  1   
  9   5  18  1   
 10   5  19  1   
 11   6   8  1   
 12   6   9  1   
 13   6  10  1   
 14   7  11  1   
 15   7  20  1   
 16   7  21  1   
 17   8  22  1   
 18   8  23  1   
 19   8  24  1   
 20   9  12  1   
 21   9  13  1   
 22   9  25  1   
 23  10  26  1   
 24  10  27  1   
 25  10  28  1   
 26  11  12  1   
 27  11  13  1   
 28  11  29  1   
 29  12  14  1   
 30  12  15  1   
 31  13  30  1   
 32  13  31  1   
 33  14  32  1   
 34  14  33  1   
 35  14  34  1   
 36  15  35  1   
 37  15  36  1   
 38  15  37  1   
@<TRIPOS>SUBSTRUCTURE
  1 ****   4 GROUP 4 **** **** 0

# MOE 2024.06 (io_trps.svl 2023.06)
