@<TRIPOS>MOLECULE
NONAME
39 41 1 0 0 
SMALL
USER_CHARGES


@<TRIPOS>ATOM
  1 F       -0.8440    -0.3250    -1.7200 F     1 <1>  -0.1900 
  2 C       -1.8470    -0.8420    -1.0650 C.ar  1 <1>   0.1900 
  3 C       -2.0870    -0.4210     0.2280 C.ar  1 <1>  -0.1500 
  4 C       -2.6310    -1.7920    -1.6880 C.ar  1 <1>  -0.1500 
  5 C       -3.1560    -0.9690     0.9180 C.ar  1 <1>  -0.1500 
  6 C       -3.6970    -2.3360    -0.9900 C.ar  1 <1>  -0.1500 
  7 C       -3.9670    -1.9230     0.3110 C.ar  1 <1>  -0.1430 
  8 C       -5.1460    -2.5070     1.0670 C.3   1 <1>   0.4870 
  9 N       -6.4010    -1.9390     0.5080 N.4   1 <1>  -0.9590 
 10 C       -6.4740    -0.4420     0.6880 C.3   1 <1>   0.3430 
 11 C       -7.6270    -2.6020     1.0790 C.3   1 <1>   0.3430 
 12 C       -7.7670     0.1570     0.0990 C.3   1 <1>   0.2090 
 13 C       -8.9310    -2.0260     0.4920 C.3   1 <1>   0.2090 
 14 N       -8.9840    -0.5390     0.6160 N.pl3 1 <1>  -0.8380 
 15 C      -10.1650     0.0110     0.1680 C.ar  1 <1>   0.4100 
 16 N      -10.4080    -0.1100    -1.1300 N.ar  1 <1>  -0.6200 
 17 C      -11.0200     0.6480     1.0620 C.ar  1 <1>  -0.1500 
 18 C      -11.5450     0.4240    -1.5490 C.ar  1 <1>   0.1600 
 19 C      -12.1980     1.1960     0.6110 C.ar  1 <1>  -0.1500 
 20 C      -12.4590     1.0750    -0.7390 C.ar  1 <1>  -0.1500 
 21 H       -1.4460     0.3180     0.6780 H     1 <1>   0.1500 
 22 H       -2.4030    -2.0960    -2.6950 H     1 <1>   0.1500 
 23 H       -3.3390    -0.6440     1.9290 H     1 <1>   0.1500 
 24 H       -4.3020    -3.0850    -1.4750 H     1 <1>   0.1500 
 25 H       -5.0640    -2.2720     2.1160 H     1 <1>   0.0800 
 26 H       -5.1410    -3.5800     0.9560 H     1 <1>   0.0800 
 27 H       -6.3890    -2.1080    -0.5060 H     1 <1>   0.4500 
 28 H       -5.6280     0.0280     0.2120 H     1 <1>   0.0800 
 29 H       -6.4400    -0.2000     1.7370 H     1 <1>   0.0800 
 30 H       -7.6510    -2.4600     2.1470 H     1 <1>   0.0800 
 31 H       -7.5970    -3.6620     0.8860 H     1 <1>   0.0800 
 32 H       -7.7400     0.0870    -0.9760 H     1 <1>   0.0800 
 33 H       -7.8240     1.2010     0.3540 H     1 <1>   0.0800 
 34 H       -9.7740    -2.4510     1.0110 H     1 <1>   0.0800 
 35 H       -9.0150    -2.3050    -0.5450 H     1 <1>   0.0800 
 36 H      -10.7460     0.7010     2.0980 H     1 <1>   0.1500 
 37 H      -11.7630     0.3370    -2.6000 H     1 <1>   0.1500 
 38 H      -12.8830     1.6960     1.2750 H     1 <1>   0.1500 
 39 H      -13.3620     1.4820    -1.1580 H     1 <1>   0.1500 
@<TRIPOS>BOND
  1   1   2  1   
  2   2   3  ar  
  3   2   4  ar  
  4   3   5  ar  
  5   3  21  1   
  6   4   6  ar  
  7   4  22  1   
  8   5   7  ar  
  9   5  23  1   
 10   6   7  ar  
 11   6  24  1   
 12   7   8  1   
 13   8   9  1   
 14   8  25  1   
 15   8  26  1   
 16   9  10  1   
 17   9  11  1   
 18   9  27  1   
 19  10  12  1   
 20  10  28  1   
 21  10  29  1   
 22  11  13  1   
 23  11  30  1   
 24  11  31  1   
 25  12  14  1   
 26  12  32  1   
 27  12  33  1   
 28  13  14  1   
 29  13  34  1   
 30  13  35  1   
 31  14  15  1   
 32  15  16  ar  
 33  15  17  ar  
 34  16  18  ar  
 35  17  19  ar  
 36  17  36  1   
 37  18  20  ar  
 38  18  37  1   
 39  19  20  ar  
 40  19  38  1   
 41  20  39  1   
@<TRIPOS>SUBSTRUCTURE
  1 ****  10 GROUP 4 **** **** 0

# MOE 2024.06 (io_trps.svl 2023.06)
