@<TRIPOS>MOLECULE
NONAME
36 37 1 0 0 
SMALL
USER_CHARGES


@<TRIPOS>ATOM
  1 CL       0.1390    -0.3020    -0.7660 Cl    1 <1>  -0.1770 
  2 C        1.6040    -1.1230    -0.3210 C.ar  1 <1>   0.7970 
  3 N        2.6570    -0.3720    -0.2200 N.ar  1 <1>  -0.6200 
  4 N        1.4970    -2.4000    -0.1370 N.ar  1 <1>  -0.6200 
  5 C        3.7300    -1.0440     0.1150 C.ar  1 <1>   0.7200 
  6 C        2.6320    -2.9660     0.1950 C.ar  1 <1>   0.7200 
  7 N        3.7680    -2.3320     0.3370 N.ar  1 <1>  -0.6200 
  8 N        4.9040    -0.3370     0.2450 N.pl3 1 <1>  -0.8380 
  9 N        2.6280    -4.3290     0.4070 N.pl3 1 <1>  -0.8380 
 10 C        6.2300    -0.9830     0.5050 C.3   1 <1>   0.2090 
 11 C        4.9980     1.1550     0.1450 C.3   1 <1>   0.2090 
 12 C        1.4590    -5.1830     0.0540 C.3   1 <1>   0.2090 
 13 C        3.7110    -5.0010     1.1770 C.3   1 <1>   0.2090 
 14 C        7.3010    -0.4400    -0.4570 C.3   1 <1>   0.1200 
 15 C        6.1420     1.5680    -0.7990 C.3   1 <1>   0.1200 
 16 C        1.4620    -5.4640    -1.4460 C.3   1 <1>  -0.2400 
 17 C        4.6920    -5.6600     0.2140 C.3   1 <1>  -0.2400 
 18 O        7.3480     0.9600    -0.4260 O.3   1 <1>  -0.5600 
 19 H        6.1770    -2.0510     0.3890 H     1 <1>   0.0800 
 20 H        6.5290    -0.7780     1.5180 H     1 <1>   0.0800 
 21 H        5.1880     1.5600     1.1240 H     1 <1>   0.0800 
 22 H        4.0820     1.5870    -0.2150 H     1 <1>   0.0800 
 23 H        0.5430    -4.6880     0.3330 H     1 <1>   0.0800 
 24 H        1.5030    -6.1130     0.5940 H     1 <1>   0.0800 
 25 H        3.2880    -5.7380     1.8380 H     1 <1>   0.0800 
 26 H        4.2330    -4.2850     1.7910 H     1 <1>   0.0800 
 27 H        7.0910    -0.7550    -1.4640 H     1 <1>   0.0800 
 28 H        8.2720    -0.8070    -0.1760 H     1 <1>   0.0800 
 29 H        6.2850     2.6320    -0.7620 H     1 <1>   0.0800 
 30 H        5.9110     1.2840    -1.8100 H     1 <1>   0.0800 
 31 H        1.3750    -4.5450    -1.9960 H     1 <1>   0.0800 
 32 H        0.6280    -6.0920    -1.6970 H     1 <1>   0.0800 
 33 H        2.3680    -5.9640    -1.7340 H     1 <1>   0.0800 
 34 H        4.2090    -6.4460    -0.3350 H     1 <1>   0.0800 
 35 H        5.5110    -6.0820     0.7660 H     1 <1>   0.0800 
 36 H        5.0790    -4.9270    -0.4710 H     1 <1>   0.0800 
@<TRIPOS>BOND
  1   1   2  1   
  2   2   3  ar  
  3   2   4  ar  
  4   3   5  ar  
  5   4   6  ar  
  6   5   7  ar  
  7   5   8  1   
  8   6   7  ar  
  9   6   9  1   
 10   8  10  1   
 11   8  11  1   
 12   9  12  1   
 13   9  13  1   
 14  10  14  1   
 15  10  19  1   
 16  10  20  1   
 17  11  15  1   
 18  11  21  1   
 19  11  22  1   
 20  12  16  1   
 21  12  23  1   
 22  12  24  1   
 23  13  17  1   
 24  13  25  1   
 25  13  26  1   
 26  14  18  1   
 27  14  27  1   
 28  14  28  1   
 29  15  18  1   
 30  15  29  1   
 31  15  30  1   
 32  16  31  1   
 33  16  32  1   
 34  16  33  1   
 35  17  34  1   
 36  17  35  1   
 37  17  36  1   
@<TRIPOS>SUBSTRUCTURE
  1 ****   7 GROUP 4 **** **** 0

# MOE 2024.06 (io_trps.svl 2023.06)
