@<TRIPOS>MOLECULE
NONAME
46 47 1 0 0 
SMALL
USER_CHARGES


@<TRIPOS>ATOM
  1 CL      -0.5210    -1.0280    -0.2700 Cl    1 <1>  -0.1770 
  2 C       -1.6640     0.2860    -0.1130 C.ar  1 <1>   0.1770 
  3 C       -1.2150     1.5750     0.1340 C.ar  1 <1>  -0.1440 
  4 C       -3.0080    -0.0020    -0.2430 C.ar  1 <1>  -0.1500 
  5 C       -2.1570     2.5850     0.2490 C.ar  1 <1>  -0.1500 
  6 C        0.2680     1.8830     0.2790 C.3   1 <1>  -0.0960 
  7 C       -3.9550     1.0070    -0.1260 C.ar  1 <1>   0.1170 
  8 C       -3.5070     2.3030     0.1180 C.ar  1 <1>  -0.1500 
  9 N       -5.3110     0.6830    -0.2770 N.am  1 <1>  -0.5470 
 10 C       -6.4280     1.3050     0.1950 C.2   1 <1>   0.6900 
 11 O       -6.3790     2.2450     0.9620 O.2   1 <1>  -0.5700 
 12 N       -7.6340     0.8410    -0.2170 N.am  1 <1>  -0.7300 
 13 C       -8.9070     1.3970     0.2620 C.3   1 <1>   0.2200 
 14 C       -9.9880     0.3210     0.2410 C.3   1 <1>  -0.1600 
 15 C       -9.3050     2.5820    -0.6140 C.3   1 <1>  -0.1600 
 16 C      -11.3260     0.9130     0.6790 C.3   1 <1>   0.3430 
 17 C      -10.6470     3.1450    -0.1570 C.3   1 <1>   0.3430 
 18 N      -11.6880     2.0740    -0.1940 N.4   1 <1>  -0.9590 
 19 C      -13.0180     2.6450     0.1590 C.3   1 <1>   0.3430 
 20 C      -14.1400     1.6940    -0.2610 C.3   1 <1>  -0.1600 
 21 C      -15.5140     2.3260    -0.0090 C.3   1 <1>  -0.2400 
 22 H       -3.3080    -1.0150    -0.4310 H     1 <1>   0.1500 
 23 H       -1.8480     3.5980     0.4410 H     1 <1>   0.1500 
 24 H        0.7880     1.6160    -0.6240 H     1 <1>   0.0800 
 25 H        0.6810     1.3210     1.0970 H     1 <1>   0.0800 
 26 H        0.4280     2.9290     0.4680 H     1 <1>   0.0800 
 27 H       -4.2150     3.1060     0.2070 H     1 <1>   0.1500 
 28 H       -5.4880    -0.2190    -0.7050 H     1 <1>   0.3700 
 29 H       -7.6720     0.1980    -1.0050 H     1 <1>   0.3700 
 30 H       -8.7750     1.7390     1.2780 H     1 <1>   0.0800 
 31 H       -9.7180    -0.4670     0.9220 H     1 <1>   0.0800 
 32 H      -10.0880    -0.1000    -0.7440 H     1 <1>   0.0800 
 33 H       -9.3650     2.2910    -1.6470 H     1 <1>   0.0800 
 34 H       -8.5600     3.3530    -0.5240 H     1 <1>   0.0800 
 35 H      -11.2550     1.2390     1.7050 H     1 <1>   0.0800 
 36 H      -12.0870     0.1510     0.6210 H     1 <1>   0.0800 
 37 H      -10.9300     3.9610    -0.8040 H     1 <1>   0.0800 
 38 H      -10.5500     3.5280     0.8470 H     1 <1>   0.0800 
 39 H      -11.7470     1.7350    -1.1640 H     1 <1>   0.4500 
 40 H      -13.1550     3.5830    -0.3550 H     1 <1>   0.0800 
 41 H      -13.0730     2.8340     1.2200 H     1 <1>   0.0800 
 42 H      -14.0860     0.7760     0.2970 H     1 <1>   0.0800 
 43 H      -14.0560     1.4690    -1.3100 H     1 <1>   0.0800 
 44 H      -15.6500     2.5470     1.0360 H     1 <1>   0.0800 
 45 H      -16.2920     1.6460    -0.3120 H     1 <1>   0.0800 
 46 H      -15.6270     3.2360    -0.5730 H     1 <1>   0.0800 
@<TRIPOS>BOND
  1   1   2  1   
  2   2   3  ar  
  3   2   4  ar  
  4   3   5  ar  
  5   3   6  1   
  6   4   7  ar  
  7   4  22  1   
  8   5   8  ar  
  9   5  23  1   
 10   6  24  1   
 11   6  25  1   
 12   6  26  1   
 13   7   8  ar  
 14   7   9  1   
 15   8  27  1   
 16   9  10  am  
 17   9  28  1   
 18  10  11  2   
 19  10  12  am  
 20  12  13  1   
 21  12  29  1   
 22  13  14  1   
 23  13  15  1   
 24  13  30  1   
 25  14  16  1   
 26  14  31  1   
 27  14  32  1   
 28  15  17  1   
 29  15  33  1   
 30  15  34  1   
 31  16  18  1   
 32  16  35  1   
 33  16  36  1   
 34  17  18  1   
 35  17  37  1   
 36  17  38  1   
 37  18  19  1   
 38  18  39  1   
 39  19  20  1   
 40  19  40  1   
 41  19  41  1   
 42  20  21  1   
 43  20  42  1   
 44  20  43  1   
 45  21  44  1   
 46  21  45  1   
 47  21  46  1   
@<TRIPOS>SUBSTRUCTURE
  1 ****  10 GROUP 4 **** **** 0

# MOE 2024.06 (io_trps.svl 2023.06)
