@<TRIPOS>MOLECULE
NONAME
34 36 1 0 0 
SMALL
USER_CHARGES


@<TRIPOS>ATOM
  1 O       -0.8990     0.3560    -0.8000 O.3   1 <1>  -0.3630 
  2 C       -1.5010    -0.7460    -0.3440 C.ar  1 <1>   0.0820 
  3 C       -1.2280     1.4050     0.1090 C.3   1 <1>   0.4000 
  4 C       -2.1830    -0.4700     0.8040 C.ar  1 <1>   0.0820 
  5 C       -1.4860    -2.0140    -0.8880 C.ar  1 <1>  -0.1500 
  6 O       -2.0440     0.8210     1.1230 O.3   1 <1>  -0.3630 
  7 C       -2.8900    -1.4490     1.4730 C.ar  1 <1>  -0.1500 
  8 C       -2.1820    -3.0230    -0.2280 C.ar  1 <1>  -0.1440 
  9 C       -2.8820    -2.7330     0.9440 C.ar  1 <1>  -0.1500 
 10 C       -2.1730    -4.4400    -0.7800 C.3   1 <1>  -0.0160 
 11 C       -1.1920    -5.3420    -0.0060 C.3   1 <1>  -0.0800 
 12 C        0.2500    -4.8000    -0.0500 C.3   1 <1>  -0.1600 
 13 C       -1.2290    -6.7800    -0.5510 C.3   1 <1>  -0.1600 
 14 C        1.2360    -5.7370     0.6450 C.3   1 <1>   0.3430 
 15 C       -0.2160    -7.6830     0.1560 C.3   1 <1>   0.3430 
 16 N        1.1450    -7.0930     0.0390 N.4   1 <1>  -0.9060 
 17 H       -1.7850     2.1680    -0.4060 H     1 <1>   0.0800 
 18 H       -0.3290     1.7970     0.5510 H     1 <1>   0.0800 
 19 H       -0.9430    -2.1930    -1.7980 H     1 <1>   0.1500 
 20 H       -3.4250    -1.2090     2.3740 H     1 <1>   0.1500 
 21 H       -3.4300    -3.5080     1.4510 H     1 <1>   0.1500 
 22 H       -1.9110    -4.4170    -1.8230 H     1 <1>   0.0800 
 23 H       -3.1700    -4.8420    -0.7100 H     1 <1>   0.0800 
 24 H       -1.5120    -5.3630     1.0240 H     1 <1>   0.0800 
 25 H        0.2920    -3.8450     0.4460 H     1 <1>   0.0800 
 26 H        0.5590    -4.6430    -1.0690 H     1 <1>   0.0800 
 27 H       -1.0300    -6.7830    -1.6090 H     1 <1>   0.0800 
 28 H       -2.2140    -7.1910    -0.4100 H     1 <1>   0.0800 
 29 H        0.9990    -5.7890     1.6960 H     1 <1>   0.0800 
 30 H        2.2370    -5.3490     0.5420 H     1 <1>   0.0800 
 31 H       -0.2350    -8.6660    -0.2880 H     1 <1>   0.0800 
 32 H       -0.4850    -7.7760     1.1970 H     1 <1>   0.0800 
 33 H        1.8340    -7.7160     0.4790 H     1 <1>   0.4500 
 34 H        1.3910    -7.0240    -0.9560 H     1 <1>   0.4500 
@<TRIPOS>BOND
  1   1   2  1   
  2   1   3  1   
  3   2   4  ar  
  4   2   5  ar  
  5   3   6  1   
  6   3  17  1   
  7   3  18  1   
  8   4   6  1   
  9   4   7  ar  
 10   5   8  ar  
 11   5  19  1   
 12   7   9  ar  
 13   7  20  1   
 14   8   9  ar  
 15   8  10  1   
 16   9  21  1   
 17  10  11  1   
 18  10  22  1   
 19  10  23  1   
 20  11  12  1   
 21  11  13  1   
 22  11  24  1   
 23  12  14  1   
 24  12  25  1   
 25  12  26  1   
 26  13  15  1   
 27  13  27  1   
 28  13  28  1   
 29  14  16  1   
 30  14  29  1   
 31  14  30  1   
 32  15  16  1   
 33  15  31  1   
 34  15  32  1   
 35  16  33  1   
 36  16  34  1   
@<TRIPOS>SUBSTRUCTURE
  1 ****   8 GROUP 4 **** **** 0

# MOE 2024.06 (io_trps.svl 2023.06)
