@<TRIPOS>MOLECULE
NONAME
47 48 1 0 0 
SMALL
USER_CHARGES


@<TRIPOS>ATOM
  1 O      -11.1990     2.6630     1.1170 O.3   1 <1>  -0.5600 
  2 C      -11.0690     1.6120     0.2010 C.3   1 <1>   0.2000 
  3 C      -11.9050     3.7990     0.6990 C.3   1 <1>   0.2000 
  4 C      -10.3760     2.0780    -1.1050 C.3   1 <1>   0.3430 
  5 C      -12.4400     0.9700    -0.0400 C.3   1 <1>  -0.2400 
  6 C      -11.4810     4.2690    -0.7190 C.3   1 <1>   0.3430 
  7 C      -11.6650     4.8700     1.7600 C.3   1 <1>  -0.2400 
  8 N      -10.2590     3.5690    -1.2350 N.4   1 <1>  -0.9590 
  9 C       -9.8500     3.9860    -2.6120 C.3   1 <1>   0.3430 
 10 C       -9.1460     5.3490    -2.6250 C.3   1 <1>   0.1200 
 11 O       -8.0230     5.2780    -1.7740 O.3   1 <1>  -0.3630 
 12 C       -7.9950     6.1180    -0.7140 C.ar  1 <1>   0.0820 
 13 C       -8.1130     5.6020     0.5740 C.ar  1 <1>   0.0820 
 14 C       -7.8370     7.4820    -0.9020 C.ar  1 <1>  -0.1500 
 15 O       -8.2880     4.2760     0.7600 O.3   1 <1>  -0.3630 
 16 C       -8.0920     6.4500     1.6670 C.ar  1 <1>  -0.1500 
 17 C       -7.8130     8.3280     0.1950 C.ar  1 <1>  -0.1500 
 18 C       -7.1100     3.5140     0.8620 C.3   1 <1>   0.2580 
 19 C       -7.9420     7.8140     1.4760 C.ar  1 <1>  -0.1500 
 20 C       -7.5140     2.0530     0.8250 C.2   1 <1>  -0.2880 
 21 C       -7.1020     1.1560    -0.0770 C.2   1 <1>  -0.3000 
 22 H      -10.4380     0.8770     0.6720 H     1 <1>   0.0800 
 23 H      -12.9540     3.5580     0.6970 H     1 <1>   0.0800 
 24 H      -10.9290     1.6820    -1.9390 H     1 <1>   0.0800 
 25 H       -9.3920     1.6430    -1.1410 H     1 <1>   0.0800 
 26 H      -13.0960     1.6190    -0.5910 H     1 <1>   0.0800 
 27 H      -12.8950     0.7180     0.9030 H     1 <1>   0.0800 
 28 H      -12.3220     0.0610    -0.6020 H     1 <1>   0.0800 
 29 H      -11.3100     5.3320    -0.6920 H     1 <1>   0.0800 
 30 H      -12.3040     4.0930    -1.3900 H     1 <1>   0.0800 
 31 H      -10.6210     5.1040     1.8340 H     1 <1>   0.0800 
 32 H      -12.0100     4.5170     2.7160 H     1 <1>   0.0800 
 33 H      -12.2050     5.7680     1.5190 H     1 <1>   0.0800 
 34 H       -9.4920     3.8370    -0.5770 H     1 <1>   0.4500 
 35 H      -10.7120     4.0170    -3.2570 H     1 <1>   0.0800 
 36 H       -9.1620     3.2610    -3.0160 H     1 <1>   0.0800 
 37 H       -9.8080     6.1320    -2.2990 H     1 <1>   0.0800 
 38 H       -8.7920     5.5780    -3.6150 H     1 <1>   0.0800 
 39 H       -7.7250     7.8820    -1.8940 H     1 <1>   0.1500 
 40 H       -8.1930     6.0480     2.6600 H     1 <1>   0.1500 
 41 H       -7.6900     9.3890     0.0540 H     1 <1>   0.1500 
 42 H       -6.6240     3.7590     1.7910 H     1 <1>   0.0800 
 43 H       -6.4630     3.7600     0.0360 H     1 <1>   0.0800 
 44 H       -7.9220     8.4770     2.3250 H     1 <1>   0.1500 
 45 H       -8.1820     1.8050     1.6340 H     1 <1>   0.1500 
 46 H       -7.3930     0.1180    -0.0710 H     1 <1>   0.1500 
 47 H       -6.4280     1.3750    -0.8890 H     1 <1>   0.1500 
@<TRIPOS>BOND
  1   1   2  1   
  2   1   3  1   
  3   2   4  1   
  4   2   5  1   
  5   2  22  1   
  6   3   6  1   
  7   3   7  1   
  8   3  23  1   
  9   4   8  1   
 10   4  24  1   
 11   4  25  1   
 12   5  26  1   
 13   5  27  1   
 14   5  28  1   
 15   6   8  1   
 16   6  29  1   
 17   6  30  1   
 18   7  31  1   
 19   7  32  1   
 20   7  33  1   
 21   8   9  1   
 22   8  34  1   
 23   9  10  1   
 24   9  35  1   
 25   9  36  1   
 26  10  11  1   
 27  10  37  1   
 28  10  38  1   
 29  11  12  1   
 30  12  13  ar  
 31  12  14  ar  
 32  13  15  1   
 33  13  16  ar  
 34  14  17  ar  
 35  14  39  1   
 36  15  18  1   
 37  16  19  ar  
 38  16  40  1   
 39  17  19  ar  
 40  17  41  1   
 41  18  20  1   
 42  18  42  1   
 43  18  43  1   
 44  19  44  1   
 45  20  21  2   
 46  20  45  1   
 47  21  46  1   
 48  21  47  1   
@<TRIPOS>SUBSTRUCTURE
  1 ****  15 GROUP 4 **** **** 0

# MOE 2024.06 (io_trps.svl 2023.06)
