@<TRIPOS>MOLECULE
NONAME
26 26 1 0 0 
SMALL
USER_CHARGES


@<TRIPOS>ATOM
  1 CL       0.9760     0.9990    -1.8910 Cl    1 <1>  -0.1770 
  2 C        0.4830     2.1990    -0.7170 C.ar  1 <1>   0.1770 
  3 C        1.3170     2.5810     0.3390 C.ar  1 <1>   0.0860 
  4 C       -0.7790     2.7370    -0.8900 C.ar  1 <1>  -0.1500 
  5 C        2.6540     2.0590     0.5590 C.2   1 <1>   0.5440 
  6 C        0.7980     3.5300     1.2220 C.ar  1 <1>  -0.1500 
  7 C       -1.2630     3.6820    -0.0020 C.ar  1 <1>  -0.1440 
  8 O        3.0850     1.9420     1.6900 O.2   1 <1>  -0.5700 
  9 N        3.4860     1.7290    -0.4730 N.am  1 <1>  -0.7300 
 10 C       -0.4630     4.0730     1.0580 C.ar  1 <1>  -0.1500 
 11 C       -2.6460     4.2830    -0.1780 C.3   1 <1>  -0.0970 
 12 C        4.8430     1.1500    -0.3160 C.3   1 <1>   0.1400 
 13 C        5.8670     2.2620    -0.0820 C.3   1 <1>   0.1200 
 14 O        7.1230     1.7010     0.1000 O.3   1 <1>  -0.6800 
 15 H       -1.3790     2.4110    -1.7210 H     1 <1>   0.1500 
 16 H        1.4020     3.8470     2.0570 H     1 <1>   0.1500 
 17 H        3.1170     1.7430    -1.4280 H     1 <1>   0.3700 
 18 H       -0.8220     4.8050     1.7620 H     1 <1>   0.1500 
 19 H       -3.2410     3.6850    -0.8450 H     1 <1>   0.0800 
 20 H       -2.5640     5.2750    -0.5840 H     1 <1>   0.0800 
 21 H       -3.1500     4.3360     0.7700 H     1 <1>   0.0800 
 22 H        5.0990     0.5980    -1.2040 H     1 <1>   0.0800 
 23 H        4.8410     0.4780     0.5260 H     1 <1>   0.0800 
 24 H        5.6200     2.8300     0.7990 H     1 <1>   0.0800 
 25 H        5.9170     2.9140    -0.9360 H     1 <1>   0.0800 
 26 H        7.1650     1.2380     0.9600 H     1 <1>   0.4000 
@<TRIPOS>BOND
  1   1   2  1   
  2   2   3  ar  
  3   2   4  ar  
  4   3   5  1   
  5   3   6  ar  
  6   4   7  ar  
  7   4  15  1   
  8   5   8  2   
  9   5   9  am  
 10   6  10  ar  
 11   6  16  1   
 12   7  10  ar  
 13   7  11  1   
 14   9  12  1   
 15   9  17  1   
 16  10  18  1   
 17  11  19  1   
 18  11  20  1   
 19  11  21  1   
 20  12  13  1   
 21  12  22  1   
 22  12  23  1   
 23  13  14  1   
 24  13  24  1   
 25  13  25  1   
 26  14  26  1   
@<TRIPOS>SUBSTRUCTURE
  1 ****   3 GROUP 4 **** **** 0

# MOE 2024.06 (io_trps.svl 2023.06)
