@<TRIPOS>MOLECULE
NONAME
47 48 1 0 0 
SMALL
USER_CHARGES


@<TRIPOS>ATOM
  1 O       -0.5330    -0.2340     0.8730 O.3   1 <1>  -0.3630 
  2 C       -1.8610    -0.4150     0.6580 C.ar  1 <1>   0.0830 
  3 C        0.4300    -0.7860     0.0060 C.3   1 <1>   0.1200 
  4 C       -2.3860    -1.1420    -0.4060 C.ar  1 <1>  -0.1500 
  5 C       -2.7230     0.1690     1.5680 C.ar  1 <1>  -0.1500 
  6 C        1.8150    -0.3990     0.5240 C.3   1 <1>  -0.1600 
  7 C       -3.7580    -1.2830    -0.5580 C.ar  1 <1>  -0.1440 
  8 C       -4.0910     0.0330     1.4220 C.ar  1 <1>  -0.1500 
  9 C        2.9230    -0.9600    -0.3760 C.3   1 <1>  -0.1600 
 10 C       -4.6180    -0.6910     0.3630 C.ar  1 <1>  -0.1430 
 11 C       -4.2930    -2.0860    -1.7360 C.3   1 <1>  -0.0970 
 12 C        4.3100    -0.5650     0.1490 C.3   1 <1>  -0.1600 
 13 C       -6.1290    -0.8180     0.2370 C.3   1 <1>  -0.0970 
 14 C        5.4310    -1.1100    -0.7430 C.3   1 <1>   0.0210 
 15 C        6.7860    -0.6900    -0.2020 C.2   1 <1>  -0.1810 
 16 C        7.4770     0.4820    -0.5070 C.2   1 <1>   0.1080 
 17 C        7.5880    -1.3430     0.6690 C.2   1 <1>  -0.3320 
 18 N        8.6120     0.5600     0.1110 N.2   1 <1>  -0.7070 
 19 C        7.0040     1.5690    -1.4470 C.3   1 <1>  -0.0590 
 20 N        8.6800    -0.5690     0.8370 N.pl3 1 <1>   0.3000 
 21 C        7.3980    -2.6740     1.3770 C.3   1 <1>  -0.0600 
 22 H        0.2660    -0.3860    -0.9800 H     1 <1>   0.0800 
 23 H        0.3080    -1.8550     0.0030 H     1 <1>   0.0800 
 24 H       -1.7360    -1.6030    -1.1230 H     1 <1>   0.1500 
 25 H       -2.3170     0.7300     2.3890 H     1 <1>   0.1500 
 26 H        1.9340    -0.7830     1.5230 H     1 <1>   0.0800 
 27 H        1.8880     0.6740     0.5570 H     1 <1>   0.0800 
 28 H       -4.7420     0.4950     2.1410 H     1 <1>   0.1500 
 29 H        2.7980    -0.5810    -1.3760 H     1 <1>   0.0800 
 30 H        2.8470    -2.0340    -0.4110 H     1 <1>   0.0800 
 31 H       -3.4910    -2.4690    -2.3410 H     1 <1>   0.0800 
 32 H       -4.9130    -1.4630    -2.3540 H     1 <1>   0.0800 
 33 H       -4.8730    -2.9180    -1.3800 H     1 <1>   0.0800 
 34 H        4.4430    -0.9460     1.1470 H     1 <1>   0.0800 
 35 H        4.3870     0.5080     0.1950 H     1 <1>   0.0800 
 36 H       -6.4160    -1.8530     0.2780 H     1 <1>   0.0800 
 37 H       -6.4580    -0.3980    -0.6970 H     1 <1>   0.0800 
 38 H       -6.6280    -0.2980     1.0340 H     1 <1>   0.0800 
 39 H        5.3170    -0.7440    -1.7470 H     1 <1>   0.0800 
 40 H        5.3780    -2.1830    -0.7790 H     1 <1>   0.0800 
 41 H        6.0050     1.8660    -1.1920 H     1 <1>   0.0800 
 42 H        7.0250     1.2060    -2.4570 H     1 <1>   0.0800 
 43 H        7.6510     2.4230    -1.3690 H     1 <1>   0.0800 
 44 H        9.4840    -0.7790     1.4380 H     1 <1>   0.2700 
 45 H        6.4430    -3.1010     1.1330 H     1 <1>   0.0800 
 46 H        7.4440    -2.5340     2.4420 H     1 <1>   0.0800 
 47 H        8.1680    -3.3640     1.0800 H     1 <1>   0.0800 
@<TRIPOS>BOND
  1   1   2  1   
  2   1   3  1   
  3   2   4  ar  
  4   2   5  ar  
  5   3   6  1   
  6   3  22  1   
  7   3  23  1   
  8   4   7  ar  
  9   4  24  1   
 10   5   8  ar  
 11   5  25  1   
 12   6   9  1   
 13   6  26  1   
 14   6  27  1   
 15   7  10  ar  
 16   7  11  1   
 17   8  10  ar  
 18   8  28  1   
 19   9  12  1   
 20   9  29  1   
 21   9  30  1   
 22  10  13  1   
 23  11  31  1   
 24  11  32  1   
 25  11  33  1   
 26  12  14  1   
 27  12  34  1   
 28  12  35  1   
 29  13  36  1   
 30  13  37  1   
 31  13  38  1   
 32  14  15  1   
 33  14  39  1   
 34  14  40  1   
 35  15  16  1   
 36  15  17  2   
 37  16  18  2   
 38  16  19  1   
 39  17  20  1   
 40  17  21  1   
 41  18  20  1   
 42  19  41  1   
 43  19  42  1   
 44  19  43  1   
 45  20  44  1   
 46  21  45  1   
 47  21  46  1   
 48  21  47  1   
@<TRIPOS>SUBSTRUCTURE
  1 ****   6 GROUP 4 **** **** 0

# MOE 2024.06 (io_trps.svl 2023.06)
