@<TRIPOS>MOLECULE
NONAME
42 42 1 0 0 
SMALL
USER_CHARGES


@<TRIPOS>ATOM
  1 O       -7.1290     1.1680    -0.4740 O.3   1 <1>  -0.6800 
  2 C       -6.2350     2.2360    -0.4510 C.3   1 <1>   0.3440 
  3 C       -4.8970     1.7290     0.0620 C.ar  1 <1>  -0.1440 
  4 C       -6.7980     3.3690     0.4550 C.3   1 <1>   0.4230 
  5 C       -4.8150     0.9780     1.2290 C.ar  1 <1>  -0.1500 
  6 C       -3.7340     2.0250    -0.6350 C.ar  1 <1>  -0.1500 
  7 N       -8.2900     3.3750     0.4890 N.4   1 <1>  -0.9060 
  8 C       -6.2690     4.7540     0.0750 C.3   1 <1>  -0.2400 
  9 C       -3.5880     0.5370     1.6920 C.ar  1 <1>  -0.1500 
 10 C       -2.5080     1.5830    -0.1710 C.ar  1 <1>  -0.1500 
 11 C       -8.9830     3.7700    -0.7470 C.3   1 <1>   0.5430 
 12 C       -2.4340     0.8400     0.9930 C.ar  1 <1>  -0.1500 
 13 C      -10.4270     3.6760    -0.4370 C.1   1 <1>  -0.2000 
 14 C      -11.5830     3.5940    -0.1710 C.1   1 <1>  -0.2000 
 15 C      -13.0380     3.4900     0.1500 C.3   1 <1>   0.2000 
 16 C      -13.3100     4.1900     1.4850 C.3   1 <1>  -0.2400 
 17 C      -13.8450     4.1640    -0.9640 C.3   1 <1>  -0.2400 
 18 C      -13.4260     2.0120     0.2500 C.3   1 <1>  -0.2400 
 19 H       -6.6500     0.3670    -0.7830 H     1 <1>   0.4000 
 20 H       -6.1300     2.5850    -1.4650 H     1 <1>   0.0800 
 21 H       -6.4480     3.1570     1.4530 H     1 <1>   0.0800 
 22 H       -5.6990     0.7230     1.7880 H     1 <1>   0.1500 
 23 H       -3.7620     2.6000    -1.5450 H     1 <1>   0.1500 
 24 H       -8.6620     3.9270     1.2660 H     1 <1>   0.4500 
 25 H       -8.5690     2.3950     0.6440 H     1 <1>   0.4500 
 26 H       -6.4890     5.0020    -0.9480 H     1 <1>   0.0800 
 27 H       -5.1990     4.7670     0.1910 H     1 <1>   0.0800 
 28 H       -6.6750     5.5080     0.7270 H     1 <1>   0.0800 
 29 H       -3.5270    -0.0460     2.5960 H     1 <1>   0.1500 
 30 H       -1.6070     1.8150    -0.7140 H     1 <1>   0.1500 
 31 H       -8.7320     3.1020    -1.5550 H     1 <1>   0.0800 
 32 H       -8.7330     4.7820    -1.0220 H     1 <1>   0.0800 
 33 H       -1.4790     0.4960     1.3530 H     1 <1>   0.1500 
 34 H      -12.7450     3.7290     2.2740 H     1 <1>   0.0800 
 35 H      -14.3550     4.1300     1.7340 H     1 <1>   0.0800 
 36 H      -13.0350     5.2290     1.4280 H     1 <1>   0.0800 
 37 H      -13.5760     5.2020    -1.0480 H     1 <1>   0.0800 
 38 H      -14.8980     4.1020    -0.7560 H     1 <1>   0.0800 
 39 H      -13.6550     3.6860    -1.9080 H     1 <1>   0.0800 
 40 H      -12.8630     1.5260     1.0250 H     1 <1>   0.0800 
 41 H      -13.2310     1.5090    -0.6810 H     1 <1>   0.0800 
 42 H      -14.4730     1.9130     0.4770 H     1 <1>   0.0800 
@<TRIPOS>BOND
  1   1   2  1   
  2   1  19  1   
  3   2   3  1   
  4   2   4  1   
  5   2  20  1   
  6   3   5  ar  
  7   3   6  ar  
  8   4   7  1   
  9   4   8  1   
 10   4  21  1   
 11   5   9  ar  
 12   5  22  1   
 13   6  10  ar  
 14   6  23  1   
 15   7  11  1   
 16   7  24  1   
 17   7  25  1   
 18   8  26  1   
 19   8  27  1   
 20   8  28  1   
 21   9  12  ar  
 22   9  29  1   
 23  10  12  ar  
 24  10  30  1   
 25  11  13  1   
 26  11  31  1   
 27  11  32  1   
 28  12  33  1   
 29  13  14  3   
 30  14  15  1   
 31  15  16  1   
 32  15  17  1   
 33  15  18  1   
 34  16  34  1   
 35  16  35  1   
 36  16  36  1   
 37  17  37  1   
 38  17  38  1   
 39  17  39  1   
 40  18  40  1   
 41  18  41  1   
 42  18  42  1   
@<TRIPOS>SUBSTRUCTURE
  1 ****   7 GROUP 4 **** **** 0

# MOE 2024.06 (io_trps.svl 2023.06)
