@<TRIPOS>MOLECULE
NONAME
39 40 1 0 0 
SMALL
USER_CHARGES


@<TRIPOS>ATOM
  1 CL      -0.8960     3.9430    -2.4520 Cl    1 <1>  -0.1770 
  2 C       -1.4730     3.3360    -0.9140 C.ar  1 <1>   0.1770 
  3 C       -0.6600     3.4040     0.2100 C.ar  1 <1>   0.0830 
  4 C       -2.7410     2.7940    -0.8550 C.ar  1 <1>  -0.1500 
  5 O        0.5770     3.9440     0.0740 O.3   1 <1>  -0.3630 
  6 C       -1.1530     2.9140     1.4150 C.ar  1 <1>  -0.1500 
  7 C       -3.2420     2.3030     0.3440 C.ar  1 <1>  -0.0090 
  8 C        1.5260     3.9360     1.1330 C.3   1 <1>   0.1810 
  9 C       -2.4270     2.3720     1.4700 C.ar  1 <1>  -0.1500 
 10 S       -4.8990     1.5720     0.4310 S.o2  1 <1>   1.4470 
 11 C        2.8630     4.4990     0.6690 C.2   1 <1>   0.5690 
 12 O       -5.3990     1.6510     1.7870 O.2   1 <1>  -0.6500 
 13 O       -4.8860     0.2980    -0.2520 O.2   1 <1>  -0.6500 
 14 N       -5.8390     2.6290    -0.4990 N.am  1 <1>  -0.8490 
 15 O        3.7530     4.6060     1.4780 O.2   1 <1>  -0.5700 
 16 N        3.0170     4.8600    -0.6340 N.am  1 <1>  -0.7300 
 17 C       -7.0350     1.9660    -1.0560 C.3   1 <1>   0.1960 
 18 C       -6.2050     3.8680     0.1960 C.3   1 <1>   0.1960 
 19 C        4.2460     5.4210    -1.2450 C.3   1 <1>   0.0600 
 20 C       -8.1790     2.9400    -1.4200 C.3   1 <1>   0.1200 
 21 C       -6.9490     4.8440    -0.7450 C.3   1 <1>   0.1200 
 22 O       -7.6860     4.2040    -1.7560 O.3   1 <1>  -0.5600 
 23 H       -3.3410     2.7530    -1.7480 H     1 <1>   0.1500 
 24 H       -0.5680     2.9450     2.3160 H     1 <1>   0.1500 
 25 H        1.6660     2.9230     1.4610 H     1 <1>   0.0800 
 26 H        1.1460     4.5390     1.9370 H     1 <1>   0.0800 
 27 H       -2.7980     1.9920     2.4090 H     1 <1>   0.1500 
 28 H        2.2050     4.7410    -1.2510 H     1 <1>   0.3700 
 29 H       -7.4210     1.2460    -0.3530 H     1 <1>   0.0800 
 30 H       -6.7430     1.4230    -1.9380 H     1 <1>   0.0800 
 31 H       -5.3240     4.3540     0.5800 H     1 <1>   0.0800 
 32 H       -6.8400     3.6380     1.0360 H     1 <1>   0.0800 
 33 H        5.0260     5.5030    -0.5070 H     1 <1>   0.0800 
 34 H        4.0400     6.4000    -1.6430 H     1 <1>   0.0800 
 35 H        4.5830     4.7780    -2.0390 H     1 <1>   0.0800 
 36 H       -8.8540     3.0530    -0.5890 H     1 <1>   0.0800 
 37 H       -8.7360     2.5630    -2.2590 H     1 <1>   0.0800 
 38 H       -6.2390     5.4850    -1.2350 H     1 <1>   0.0800 
 39 H       -7.6230     5.4620    -0.1780 H     1 <1>   0.0800 
@<TRIPOS>BOND
  1   1   2  1   
  2   2   3  ar  
  3   2   4  ar  
  4   3   5  1   
  5   3   6  ar  
  6   4   7  ar  
  7   4  23  1   
  8   5   8  1   
  9   6   9  ar  
 10   6  24  1   
 11   7   9  ar  
 12   7  10  1   
 13   8  11  1   
 14   8  25  1   
 15   8  26  1   
 16   9  27  1   
 17  10  12  2   
 18  10  13  2   
 19  10  14  am  
 20  11  15  2   
 21  11  16  am  
 22  14  17  1   
 23  14  18  1   
 24  16  19  1   
 25  16  28  1   
 26  17  20  1   
 27  17  29  1   
 28  17  30  1   
 29  18  21  1   
 30  18  31  1   
 31  18  32  1   
 32  19  33  1   
 33  19  34  1   
 34  19  35  1   
 35  20  22  1   
 36  20  36  1   
 37  20  37  1   
 38  21  22  1   
 39  21  38  1   
 40  21  39  1   
@<TRIPOS>SUBSTRUCTURE
  1 ****   4 GROUP 4 **** **** 0

# MOE 2024.06 (io_trps.svl 2023.06)
