@<TRIPOS>MOLECULE
NONAME
34 35 1 0 0 
SMALL
USER_CHARGES


@<TRIPOS>ATOM
  1 S       -0.5800     0.4700     0.4670 S.3   1 <1>  -0.4600 
  2 C        0.5330     1.8940     0.3170 C.3   1 <1>   0.2140 
  3 C       -2.2280     1.2360     0.6790 C.3   1 <1>   0.1310 
  4 C        1.9270     1.3770    -0.0010 C.ar  1 <1>  -0.1440 
  5 C       -3.2290     0.2810     1.3240 C.2   1 <1>   0.5690 
  6 C        2.6260     0.6450     0.9520 C.ar  1 <1>  -0.1500 
  7 C        2.5060     1.6340    -1.2380 C.ar  1 <1>  -0.1500 
  8 O       -3.6830     0.6160     2.3940 O.2   1 <1>  -0.5700 
  9 N       -3.6250    -0.8850     0.7130 N.am  1 <1>  -0.6600 
 10 C        3.8980     0.1720     0.6780 C.ar  1 <1>  -0.1500 
 11 C        3.7780     1.1670    -1.5250 C.ar  1 <1>  -0.1500 
 12 C       -4.5550    -1.8400     1.3860 C.3   1 <1>   0.1400 
 13 C       -3.1210    -1.3910    -0.6010 C.3   1 <1>   0.1400 
 14 C        4.4500     0.4440    -0.5580 C.ar  1 <1>   0.1900 
 15 C       -5.6310    -2.3370     0.4080 C.3   1 <1>   0.1200 
 16 C       -4.2780    -1.9250    -1.4630 C.3   1 <1>   0.1200 
 17 F        5.6500     0.0010    -0.8240 F     1 <1>  -0.1900 
 18 O       -5.0450    -2.8550    -0.7530 O.3   1 <1>  -0.5600 
 19 H        0.5160     2.4190     1.2550 H     1 <1>   0.0800 
 20 H        0.1520     2.5220    -0.4680 H     1 <1>   0.0800 
 21 H       -2.5710     1.5460    -0.2900 H     1 <1>   0.0800 
 22 H       -2.0960     2.0960     1.3090 H     1 <1>   0.0800 
 23 H        2.1750     0.4360     1.9080 H     1 <1>   0.1500 
 24 H        1.9710     2.1960    -1.9840 H     1 <1>   0.1500 
 25 H        4.4500    -0.3970     1.4040 H     1 <1>   0.1500 
 26 H        4.2420     1.3560    -2.4760 H     1 <1>   0.1500 
 27 H       -5.0340    -1.3730     2.2290 H     1 <1>   0.0800 
 28 H       -3.9920    -2.6810     1.7510 H     1 <1>   0.0800 
 29 H       -2.4170    -2.1860    -0.4240 H     1 <1>   0.0800 
 30 H       -2.6150    -0.6160    -1.1450 H     1 <1>   0.0800 
 31 H       -6.2930    -1.5340     0.1340 H     1 <1>   0.0800 
 32 H       -6.2100    -3.1220     0.8620 H     1 <1>   0.0800 
 33 H       -3.8910    -2.4190    -2.3370 H     1 <1>   0.0800 
 34 H       -4.9190    -1.1200    -1.7780 H     1 <1>   0.0800 
@<TRIPOS>BOND
  1   1   2  1   
  2   1   3  1   
  3   2   4  1   
  4   2  19  1   
  5   2  20  1   
  6   3   5  1   
  7   3  21  1   
  8   3  22  1   
  9   4   6  ar  
 10   4   7  ar  
 11   5   8  2   
 12   5   9  am  
 13   6  10  ar  
 14   6  23  1   
 15   7  11  ar  
 16   7  24  1   
 17   9  12  1   
 18   9  13  1   
 19  10  14  ar  
 20  10  25  1   
 21  11  14  ar  
 22  11  26  1   
 23  12  15  1   
 24  12  27  1   
 25  12  28  1   
 26  13  16  1   
 27  13  29  1   
 28  13  30  1   
 29  14  17  1   
 30  15  18  1   
 31  15  31  1   
 32  15  32  1   
 33  16  18  1   
 34  16  33  1   
 35  16  34  1   
@<TRIPOS>SUBSTRUCTURE
  1 ****   1 GROUP 4 **** **** 0

# MOE 2024.06 (io_trps.svl 2023.06)
