@<TRIPOS>MOLECULE
NONAME
41 41 1 0 0 
SMALL
USER_CHARGES


@<TRIPOS>ATOM
  1 O        1.1750     1.9160     2.3930 O.2   1 <1>  -0.5700 
  2 C        0.6310     2.3610     1.4070 C.2   1 <1>   0.5690 
  3 N        1.2540     2.3670     0.1720 N.am  1 <1>  -0.6600 
  4 C       -0.7800     2.9050     1.6200 C.3   1 <1>   0.1810 
  5 C        2.2320     1.3050    -0.2110 C.3   1 <1>   0.2200 
  6 C        1.1380     3.4580    -0.8420 C.3   1 <1>   0.2200 
  7 O       -1.7360     2.1380     0.9040 O.3   1 <1>  -0.3630 
  8 C        1.7210    -0.0920     0.1490 C.3   1 <1>  -0.2400 
  9 C        3.6000     1.5950     0.4060 C.3   1 <1>  -0.2400 
 10 C        1.4270     4.8260    -0.2220 C.3   1 <1>  -0.2400 
 11 C       -0.1970     3.4120    -1.5820 C.3   1 <1>  -0.2400 
 12 C       -3.0330     2.5280     0.8340 C.ar  1 <1>   0.0820 
 13 C       -3.8340     1.8610    -0.0780 C.ar  1 <1>  -0.1500 
 14 C       -3.5780     3.5440     1.6130 C.ar  1 <1>  -0.1500 
 15 C       -5.1690     2.2000    -0.2290 C.ar  1 <1>  -0.1440 
 16 C       -4.9110     3.8850     1.4640 C.ar  1 <1>  -0.1500 
 17 C       -5.7030     3.2160     0.5460 C.ar  1 <1>  -0.1500 
 18 C       -6.0460     1.4710    -1.2310 C.3   1 <1>  -0.0970 
 19 H       -0.8510     3.9240     1.3020 H     1 <1>   0.0800 
 20 H       -1.0250     2.8400     2.6640 H     1 <1>   0.0800 
 21 H        2.3440     1.3120    -1.2820 H     1 <1>   0.0800 
 22 H        1.9040     3.3060    -1.5840 H     1 <1>   0.0800 
 23 H        1.7120    -0.2440     1.2130 H     1 <1>   0.0800 
 24 H        2.3640    -0.8360    -0.2840 H     1 <1>   0.0800 
 25 H        0.7280    -0.2320    -0.2380 H     1 <1>   0.0800 
 26 H        3.5520     1.5440     1.4780 H     1 <1>   0.0800 
 27 H        3.9410     2.5710     0.1140 H     1 <1>   0.0800 
 28 H        4.3150     0.8680     0.0660 H     1 <1>   0.0800 
 29 H        2.3650     4.7970     0.3040 H     1 <1>   0.0800 
 30 H        0.6550     5.1400     0.4510 H     1 <1>   0.0800 
 31 H        1.5030     5.5620    -1.0020 H     1 <1>   0.0800 
 32 H       -1.0010     3.7880    -0.9800 H     1 <1>   0.0800 
 33 H       -0.4200     2.4040    -1.8830 H     1 <1>   0.0800 
 34 H       -0.1400     4.0240    -2.4640 H     1 <1>   0.0800 
 35 H       -3.3970     1.0760    -0.6680 H     1 <1>   0.1500 
 36 H       -2.9900     4.0730     2.3380 H     1 <1>   0.1500 
 37 H       -5.3360     4.6700     2.0640 H     1 <1>   0.1500 
 38 H       -6.7380     3.4890     0.4370 H     1 <1>   0.1500 
 39 H       -5.5260     0.6320    -1.6570 H     1 <1>   0.0800 
 40 H       -6.3270     2.1410    -2.0230 H     1 <1>   0.0800 
 41 H       -6.9350     1.1100    -0.7460 H     1 <1>   0.0800 
@<TRIPOS>BOND
  1   1   2  2   
  2   2   3  am  
  3   2   4  1   
  4   3   5  1   
  5   3   6  1   
  6   4   7  1   
  7   4  19  1   
  8   4  20  1   
  9   5   8  1   
 10   5   9  1   
 11   5  21  1   
 12   6  10  1   
 13   6  11  1   
 14   6  22  1   
 15   7  12  1   
 16   8  23  1   
 17   8  24  1   
 18   8  25  1   
 19   9  26  1   
 20   9  27  1   
 21   9  28  1   
 22  10  29  1   
 23  10  30  1   
 24  10  31  1   
 25  11  32  1   
 26  11  33  1   
 27  11  34  1   
 28  12  13  ar  
 29  12  14  ar  
 30  13  15  ar  
 31  13  35  1   
 32  14  16  ar  
 33  14  36  1   
 34  15  17  ar  
 35  15  18  1   
 36  16  17  ar  
 37  16  37  1   
 38  17  38  1   
 39  18  39  1   
 40  18  40  1   
 41  18  41  1   
@<TRIPOS>SUBSTRUCTURE
  1 ****   7 GROUP 4 **** **** 0

# MOE 2024.06 (io_trps.svl 2023.06)
