@<TRIPOS>MOLECULE
NONAME
35 36 1 0 0 
SMALL
USER_CHARGES


@<TRIPOS>ATOM
  1 CL      -0.4150     0.4530     1.5180 Cl    1 <1>  -0.1770 
  2 C        0.5330     1.7990     0.9210 C.ar  1 <1>   0.1770 
  3 C       -0.1120     2.8950     0.3420 C.ar  1 <1>   0.1000 
  4 C        1.9070     1.7320     1.0430 C.ar  1 <1>  -0.1500 
  5 N       -1.5170     2.9130     0.2410 N.pl3 1 <1>  -0.6000 
  6 C        0.6800     3.9440    -0.1200 C.ar  1 <1>  -0.1500 
  7 C        2.6590     2.7900     0.5730 C.ar  1 <1>   0.1770 
  8 C       -2.3640     3.8540    -0.2680 C.2   1 <1>  -0.0500 
  9 C        2.0600     3.8940    -0.0060 C.ar  1 <1>  -0.1500 
 10 CL       4.3980     2.7340     0.7140 Cl    1 <1>  -0.1770 
 11 C       -3.7390     3.7730    -0.3240 C.2   1 <1>   0.0290 
 12 C       -4.4820     4.8580    -0.8940 C.2   1 <1>   0.4950 
 13 C       -4.4660     2.6370     0.1710 C.2   1 <1>   0.4950 
 14 O       -3.9600     5.8500    -1.3440 O.2   1 <1>  -0.5700 
 15 C       -5.9990     4.8210    -0.9850 C.3   1 <1>  -0.0990 
 16 O       -3.9440     1.6650     0.6690 O.2   1 <1>  -0.5700 
 17 C       -5.9820     2.5750     0.0810 C.3   1 <1>  -0.0990 
 18 C       -6.6470     3.9580     0.1060 C.3   1 <1>   0.0000 
 19 C       -6.4790     4.6160     1.4880 C.3   1 <1>  -0.2400 
 20 C       -8.1500     3.8120    -0.1800 C.3   1 <1>  -0.2400 
 21 H        2.3790     0.8790     1.4910 H     1 <1>   0.1500 
 22 H       -1.9770     2.0610     0.6200 H     1 <1>   0.4000 
 23 H        0.2280     4.8060    -0.5730 H     1 <1>   0.1500 
 24 H       -1.8980     4.7420    -0.6610 H     1 <1>   0.1500 
 25 H        2.6710     4.7050    -0.3630 H     1 <1>   0.1500 
 26 H       -6.3750     5.8270    -0.9220 H     1 <1>   0.0800 
 27 H       -6.2570     4.4430    -1.9580 H     1 <1>   0.0800 
 28 H       -6.2340     2.0600    -0.8280 H     1 <1>   0.0800 
 29 H       -6.3550     1.9820     0.8980 H     1 <1>   0.0800 
 30 H       -5.4440     4.7490     1.7500 H     1 <1>   0.0800 
 31 H       -6.9380     4.0100     2.2510 H     1 <1>   0.0800 
 32 H       -6.9510     5.5830     1.5050 H     1 <1>   0.0800 
 33 H       -8.6310     4.7740    -0.1780 H     1 <1>   0.0800 
 34 H       -8.6200     3.2000     0.5710 H     1 <1>   0.0800 
 35 H       -8.3180     3.3540    -1.1390 H     1 <1>   0.0800 
@<TRIPOS>BOND
  1   1   2  1   
  2   2   3  ar  
  3   2   4  ar  
  4   3   5  1   
  5   3   6  ar  
  6   4   7  ar  
  7   4  21  1   
  8   5   8  1   
  9   5  22  1   
 10   6   9  ar  
 11   6  23  1   
 12   7   9  ar  
 13   7  10  1   
 14   8  11  2   
 15   8  24  1   
 16   9  25  1   
 17  11  12  1   
 18  11  13  1   
 19  12  14  2   
 20  12  15  1   
 21  13  16  2   
 22  13  17  1   
 23  15  18  1   
 24  15  26  1   
 25  15  27  1   
 26  17  18  1   
 27  17  28  1   
 28  17  29  1   
 29  18  19  1   
 30  18  20  1   
 31  19  30  1   
 32  19  31  1   
 33  19  32  1   
 34  20  33  1   
 35  20  34  1   
 36  20  35  1   
@<TRIPOS>SUBSTRUCTURE
  1 ****   8 GROUP 4 **** **** 0

# MOE 2024.06 (io_trps.svl 2023.06)
