@<TRIPOS>MOLECULE
NONAME
41 42 1 0 0 
SMALL
USER_CHARGES


@<TRIPOS>ATOM
  1 O       -0.0430     1.7470    -1.7050 O.2   1 <1>  -0.5700 
  2 C       -0.2430     2.1940    -0.5920 C.2   1 <1>   0.6900 
  3 N        0.7190     2.9210     0.0470 N.am  1 <1>  -0.6600 
  4 N       -1.4310     2.0410     0.0580 N.am  1 <1>  -0.5470 
  5 C        1.2970     4.0770    -0.6960 C.3   1 <1>   0.2200 
  6 C        1.6590     2.2630     0.9960 C.3   1 <1>   0.2200 
  7 C       -2.6060     1.3410    -0.2480 C.ar  1 <1>   0.1170 
  8 C        2.8380     4.0330    -0.7410 C.3   1 <1>  -0.1600 
  9 C        0.7970     5.3670    -0.0500 C.3   1 <1>  -0.2400 
 10 C        2.8510     1.6800     0.2150 C.3   1 <1>  -0.1600 
 11 C        0.9860     1.1980     1.8670 C.3   1 <1>  -0.2400 
 12 C       -3.7510     1.6200     0.4860 C.ar  1 <1>  -0.1500 
 13 C       -2.6820     0.3690    -1.2410 C.ar  1 <1>  -0.1500 
 14 C        3.3450     2.5960    -0.9220 C.3   1 <1>  -0.1600 
 15 C       -4.9430     0.9600     0.2440 C.ar  1 <1>   0.0820 
 16 C       -3.8670    -0.2980    -1.4940 C.ar  1 <1>  -0.1500 
 17 O       -6.0020     1.3080     1.0190 O.3   1 <1>  -0.3630 
 18 C       -5.0010    -0.0070    -0.7560 C.ar  1 <1>  -0.1500 
 19 C       -7.2630     0.7030     0.8460 C.3   1 <1>   0.0400 
 20 H       -1.4490     2.5830     0.9150 H     1 <1>   0.3700 
 21 H        0.9380     4.0450    -1.7120 H     1 <1>   0.0800 
 22 H        2.0320     3.0260     1.6590 H     1 <1>   0.0800 
 23 H        3.2480     4.4450     0.1640 H     1 <1>   0.0800 
 24 H        3.1820     4.6460    -1.5560 H     1 <1>   0.0800 
 25 H        1.1180     5.4270     0.9740 H     1 <1>   0.0800 
 26 H       -0.2770     5.4010    -0.0890 H     1 <1>   0.0800 
 27 H        1.1810     6.2160    -0.5840 H     1 <1>   0.0800 
 28 H        2.5750     0.7280    -0.2050 H     1 <1>   0.0800 
 29 H        3.6550     1.5040     0.9080 H     1 <1>   0.0800 
 30 H        0.6200     0.3840     1.2680 H     1 <1>   0.0800 
 31 H        0.1750     1.6300     2.4240 H     1 <1>   0.0800 
 32 H        1.6990     0.8020     2.5680 H     1 <1>   0.0800 
 33 H       -3.7270     2.3640     1.2590 H     1 <1>   0.1500 
 34 H       -1.8120     0.1250    -1.8220 H     1 <1>   0.1500 
 35 H        4.4200     2.5780    -0.9730 H     1 <1>   0.0800 
 36 H        2.9640     2.2190    -1.8570 H     1 <1>   0.0800 
 37 H       -3.9040    -1.0440    -2.2690 H     1 <1>   0.1500 
 38 H       -5.9080    -0.5380    -0.9720 H     1 <1>   0.1500 
 39 H       -7.9410     1.1360     1.5590 H     1 <1>   0.0800 
 40 H       -7.1710    -0.3540     1.0230 H     1 <1>   0.0800 
 41 H       -7.6100     0.8990    -0.1540 H     1 <1>   0.0800 
@<TRIPOS>BOND
  1   1   2  2   
  2   2   3  am  
  3   2   4  am  
  4   3   5  1   
  5   3   6  1   
  6   4   7  1   
  7   4  20  1   
  8   5   8  1   
  9   5   9  1   
 10   5  21  1   
 11   6  10  1   
 12   6  11  1   
 13   6  22  1   
 14   7  12  ar  
 15   7  13  ar  
 16   8  14  1   
 17   8  23  1   
 18   8  24  1   
 19   9  25  1   
 20   9  26  1   
 21   9  27  1   
 22  10  14  1   
 23  10  28  1   
 24  10  29  1   
 25  11  30  1   
 26  11  31  1   
 27  11  32  1   
 28  12  15  ar  
 29  12  33  1   
 30  13  16  ar  
 31  13  34  1   
 32  14  35  1   
 33  14  36  1   
 34  15  17  1   
 35  15  18  ar  
 36  16  18  ar  
 37  16  37  1   
 38  17  19  1   
 39  18  38  1   
 40  19  39  1   
 41  19  40  1   
 42  19  41  1   
@<TRIPOS>SUBSTRUCTURE
  1 ****   4 GROUP 4 **** **** 0

# MOE 2024.06 (io_trps.svl 2023.06)
