@<TRIPOS>MOLECULE
NONAME
39 40 1 0 0 
SMALL
USER_CHARGES


@<TRIPOS>ATOM
  1 S        0.0040    -0.4490    -0.5890 S.o2  1 <1>   1.3330 
  2 O        0.1810    -1.4340    -1.6330 O.2   1 <1>  -0.6500 
  3 O       -0.5750     0.8380    -0.9020 O.2   1 <1>  -0.6500 
  4 N        1.5210    -0.1710     0.1130 N.am  1 <1>  -0.8490 
  5 C       -0.9140    -1.1800     0.7740 C.3   1 <1>  -0.0550 
  6 C        2.4110    -1.3490     0.0360 C.3   1 <1>   0.1960 
  7 C        2.2090     0.9840    -0.5010 C.3   1 <1>   0.1960 
  8 C       -2.3080    -1.7340     0.4170 C.3   1 <1>  -0.1600 
  9 C        3.7510    -1.1230     0.7590 C.3   1 <1>   0.2090 
 10 C        3.5530     1.3060     0.1790 C.3   1 <1>   0.2090 
 11 C       -3.3220    -0.6300     0.0900 C.3   1 <1>  -0.1600 
 12 N        4.4460     0.1040     0.2550 N.pl3 1 <1>  -0.8380 
 13 C       -4.7130    -1.2200    -0.1550 C.3   1 <1>  -0.2400 
 14 C        5.8170     0.1820     0.1170 C.ar  1 <1>   0.7200 
 15 N        6.3280     1.3660    -0.2220 N.ar  1 <1>  -0.6200 
 16 N        6.5160    -0.9310     0.3370 N.ar  1 <1>  -0.6200 
 17 C        7.6300     1.4270    -0.3490 C.ar  1 <1>   0.1600 
 18 C        7.8160    -0.8420     0.2030 C.ar  1 <1>   0.1600 
 19 C        8.4350     0.3330    -0.1440 C.ar  1 <1>  -0.1500 
 20 H       -1.0140    -0.4550     1.5570 H     1 <1>   0.0800 
 21 H       -0.3370    -1.9930     1.1670 H     1 <1>   0.0800 
 22 H        2.6180    -1.5860    -0.9950 H     1 <1>   0.0800 
 23 H        1.9230    -2.2000     0.4760 H     1 <1>   0.0800 
 24 H        1.5850     1.8580    -0.4270 H     1 <1>   0.0800 
 25 H        2.3810     0.7910    -1.5470 H     1 <1>   0.0800 
 26 H       -2.6720    -2.3010     1.2560 H     1 <1>   0.0800 
 27 H       -2.2210    -2.4060    -0.4210 H     1 <1>   0.0800 
 28 H        4.3600    -1.9980     0.6150 H     1 <1>   0.0800 
 29 H        3.5720    -1.0150     1.8140 H     1 <1>   0.0800 
 30 H        3.3660     1.6640     1.1750 H     1 <1>   0.0800 
 31 H        4.0230     2.1010    -0.3730 H     1 <1>   0.0800 
 32 H       -3.0160    -0.0940    -0.7930 H     1 <1>   0.0800 
 33 H       -3.3750     0.0740     0.9030 H     1 <1>   0.0800 
 34 H       -4.6890    -1.9090    -0.9800 H     1 <1>   0.0800 
 35 H       -5.4090    -0.4330    -0.3890 H     1 <1>   0.0800 
 36 H       -5.0650    -1.7370     0.7210 H     1 <1>   0.0800 
 37 H        8.0670     2.3720    -0.6220 H     1 <1>   0.1500 
 38 H        8.4040    -1.7280     0.3740 H     1 <1>   0.1500 
 39 H        9.5010     0.3950    -0.2510 H     1 <1>   0.1500 
@<TRIPOS>BOND
  1   1   2  2   
  2   1   3  2   
  3   1   4  am  
  4   1   5  1   
  5   4   6  1   
  6   4   7  1   
  7   5   8  1   
  8   5  20  1   
  9   5  21  1   
 10   6   9  1   
 11   6  22  1   
 12   6  23  1   
 13   7  10  1   
 14   7  24  1   
 15   7  25  1   
 16   8  11  1   
 17   8  26  1   
 18   8  27  1   
 19   9  12  1   
 20   9  28  1   
 21   9  29  1   
 22  10  12  1   
 23  10  30  1   
 24  10  31  1   
 25  11  13  1   
 26  11  32  1   
 27  11  33  1   
 28  12  14  1   
 29  13  34  1   
 30  13  35  1   
 31  13  36  1   
 32  14  15  ar  
 33  14  16  ar  
 34  15  17  ar  
 35  16  18  ar  
 36  17  19  ar  
 37  17  37  1   
 38  18  19  ar  
 39  18  38  1   
 40  19  39  1   
@<TRIPOS>SUBSTRUCTURE
  1 ****   4 GROUP 4 **** **** 0

# MOE 2024.06 (io_trps.svl 2023.06)
