@<TRIPOS>MOLECULE
NONAME
43 45 1 0 0 
SMALL
USER_CHARGES


@<TRIPOS>ATOM
  1 O       -0.1330     0.6370    -0.4510 O.3   1 <1>  -0.3630 
  2 C        1.1000     1.1400    -0.1950 C.ar  1 <1>   0.0830 
  3 C       -1.2910     1.2060     0.1230 C.3   1 <1>   0.1200 
  4 C        2.1790     0.4230    -0.6920 C.ar  1 <1>  -0.1500 
  5 C        1.3240     2.3130     0.5300 C.ar  1 <1>  -0.1500 
  6 C       -2.5260     0.3770    -0.2550 C.3   1 <1>   0.2000 
  7 C        3.4630     0.8760    -0.4560 C.ar  1 <1>  -0.1440 
  8 C        2.6170     2.7580     0.7600 C.ar  1 <1>  -0.1500 
  9 O       -2.8550     0.6120    -1.5830 O.3   1 <1>  -0.6800 
 10 C       -3.7340     0.7260     0.6190 C.3   1 <1>   0.0960 
 11 C        3.6790     2.0260     0.2610 C.ar  1 <1>  -0.1430 
 12 C        4.7630     0.2540    -0.9010 C.3   1 <1>  -0.0170 
 13 N       -4.8690    -0.1690     0.3120 N.pl3 1 <1>   0.3140 
 14 C        5.1520     2.3230     0.3890 C.3   1 <1>  -0.0170 
 15 C        5.8220     1.0230    -0.0910 C.3   1 <1>  -0.1600 
 16 N       -5.5160    -0.0890    -0.8680 N.2   1 <1>  -0.7070 
 17 C       -5.3810    -1.1560     1.0840 C.2   1 <1>  -0.3320 
 18 C       -6.4210    -1.0130    -0.8170 C.2   1 <1>   0.1080 
 19 C       -6.3870    -1.7160     0.3800 C.2   1 <1>  -0.1500 
 20 C       -4.8930    -1.5380     2.4720 C.3   1 <1>  -0.0600 
 21 C       -7.3830    -1.2660    -1.9530 C.3   1 <1>  -0.0590 
 22 H       -1.3940     2.2160    -0.2320 H     1 <1>   0.0800 
 23 H       -1.1550     1.2000     1.1900 H     1 <1>   0.0800 
 24 H        2.0040    -0.4750    -1.2540 H     1 <1>   0.1500 
 25 H        0.5090     2.8930     0.9170 H     1 <1>   0.1500 
 26 H       -2.2980    -0.6700    -0.1450 H     1 <1>   0.0800 
 27 H        2.7950     3.6600     1.3170 H     1 <1>   0.1500 
 28 H       -3.7830     0.2950    -1.7360 H     1 <1>   0.4000 
 29 H       -4.0370     1.7410     0.4420 H     1 <1>   0.0800 
 30 H       -3.4800     0.6200     1.6560 H     1 <1>   0.0800 
 31 H        4.8940     0.4190    -1.9550 H     1 <1>   0.0800 
 32 H        4.7900    -0.8000    -0.6880 H     1 <1>   0.0800 
 33 H        5.4220     2.5550     1.4040 H     1 <1>   0.0800 
 34 H        5.4080     3.1440    -0.2570 H     1 <1>   0.0800 
 35 H        6.7050     1.2200    -0.6730 H     1 <1>   0.0800 
 36 H        6.0920     0.4360     0.7690 H     1 <1>   0.0800 
 37 H       -7.0350    -2.5280     0.6560 H     1 <1>   0.1500 
 38 H       -5.0030    -0.7100     3.1480 H     1 <1>   0.0800 
 39 H       -3.8590    -1.8330     2.4360 H     1 <1>   0.0800 
 40 H       -5.4690    -2.3640     2.8500 H     1 <1>   0.0800 
 41 H       -7.9480    -0.3730    -2.1490 H     1 <1>   0.0800 
 42 H       -8.0580    -2.0630    -1.7040 H     1 <1>   0.0800 
 43 H       -6.8330    -1.5320    -2.8360 H     1 <1>   0.0800 
@<TRIPOS>BOND
  1   1   2  1   
  2   1   3  1   
  3   2   4  ar  
  4   2   5  ar  
  5   3   6  1   
  6   3  22  1   
  7   3  23  1   
  8   4   7  ar  
  9   4  24  1   
 10   5   8  ar  
 11   5  25  1   
 12   6   9  1   
 13   6  10  1   
 14   6  26  1   
 15   7  11  ar  
 16   7  12  1   
 17   8  11  ar  
 18   8  27  1   
 19   9  28  1   
 20  10  13  1   
 21  10  29  1   
 22  10  30  1   
 23  11  14  1   
 24  12  15  1   
 25  12  31  1   
 26  12  32  1   
 27  13  16  1   
 28  13  17  1   
 29  14  15  1   
 30  14  33  1   
 31  14  34  1   
 32  15  35  1   
 33  15  36  1   
 34  16  18  2   
 35  17  19  2   
 36  17  20  1   
 37  18  19  1   
 38  18  21  1   
 39  19  37  1   
 40  20  38  1   
 41  20  39  1   
 42  20  40  1   
 43  21  41  1   
 44  21  42  1   
 45  21  43  1   
@<TRIPOS>SUBSTRUCTURE
  1 ****   3 GROUP 4 **** **** 0

# MOE 2024.06 (io_trps.svl 2023.06)
