@<TRIPOS>MOLECULE
22873
47 47 1 0 0 
SMALL
USER_CHARGES


@<TRIPOS>ATOM
  1 S       -0.2940     0.6500    -1.7990 S.o2  1 <1>   1.4470 
  2 O        0.3340    -0.0570    -2.8950 O.2   1 <1>  -0.6500 
  3 O       -0.8920     1.9430    -2.0570 O.2   1 <1>  -0.6500 
  4 N        0.9020     0.8740    -0.6130 N.am  1 <1>  -0.8490 
  5 C       -1.5260    -0.4000    -0.9800 C.ar  1 <1>  -0.0090 
  6 C        1.5980    -0.3710    -0.2560 C.3   1 <1>   0.1960 
  7 C        1.8320     1.9410    -0.9870 C.3   1 <1>   0.1960 
  8 C       -1.4070    -1.7820    -0.9920 C.ar  1 <1>  -0.1500 
  9 C       -2.5960     0.1490    -0.2830 C.ar  1 <1>  -0.1500 
 10 C        1.2450    -0.7320     1.1820 C.3   1 <1>  -0.2400 
 11 C        2.5870     2.4490     0.2410 C.3   1 <1>  -0.2400 
 12 C       -2.2870    -2.6070    -0.3060 C.ar  1 <1>   0.1170 
 13 C       -3.5150    -0.6510     0.3740 C.ar  1 <1>  -0.1500 
 14 N       -2.1170    -4.0000    -0.2680 N.am  1 <1>  -0.5470 
 15 C       -3.3690    -2.0330     0.3650 C.ar  1 <1>   0.0830 
 16 C       -0.9720    -4.7550    -0.2630 C.2   1 <1>   0.6160 
 17 O       -4.2400    -2.8790     0.9910 O.3   1 <1>  -0.3630 
 18 O        0.1120    -4.2080    -0.2930 O.2   1 <1>  -0.5700 
 19 C       -1.1100    -6.1950    -0.2170 C.2   1 <1>  -0.1360 
 20 C       -5.3130    -2.3860     1.7630 C.3   1 <1>   0.0400 
 21 C       -0.2460    -7.1850     0.0930 C.2   1 <1>  -0.2760 
 22 C       -0.6510    -8.6510     0.0420 C.3   1 <1>  -0.1020 
 23 C        1.2060    -7.0100     0.5270 C.3   1 <1>  -0.1020 
 24 H        1.3190    -1.1830    -0.9070 H     1 <1>   0.0800 
 25 H        2.6660    -0.2580    -0.3420 H     1 <1>   0.0800 
 26 H        2.5160     1.5920    -1.7440 H     1 <1>   0.0800 
 27 H        1.2850     2.7740    -1.3970 H     1 <1>   0.0800 
 28 H       -0.5980    -2.2270    -1.5450 H     1 <1>   0.1500 
 29 H       -2.7090     1.2210    -0.2580 H     1 <1>   0.1500 
 30 H        0.1860    -0.8790     1.2870 H     1 <1>   0.0800 
 31 H        1.5650     0.0450     1.8520 H     1 <1>   0.0800 
 32 H        1.7390    -1.6470     1.4540 H     1 <1>   0.0800 
 33 H        3.2380     1.6950     0.6430 H     1 <1>   0.0800 
 34 H        1.8870     2.7590     0.9970 H     1 <1>   0.0800 
 35 H        3.1870     3.2970    -0.0340 H     1 <1>   0.0800 
 36 H       -4.3300    -0.1750     0.8860 H     1 <1>   0.1500 
 37 H       -2.9590    -4.4850     0.0410 H     1 <1>   0.3700 
 38 H       -2.1050    -6.4850    -0.4930 H     1 <1>   0.1500 
 39 H       -5.8380    -3.2250     2.1820 H     1 <1>   0.0800 
 40 H       -5.9730    -1.8240     1.1270 H     1 <1>   0.0800 
 41 H       -4.9210    -1.7700     2.5540 H     1 <1>   0.0800 
 42 H       -0.5450    -9.0990     1.0140 H     1 <1>   0.0800 
 43 H       -0.0260    -9.1830    -0.6540 H     1 <1>   0.0800 
 44 H       -1.6740    -8.7620    -0.2720 H     1 <1>   0.0800 
 45 H        1.3680    -7.4900     1.4750 H     1 <1>   0.0800 
 46 H        1.4770    -5.9780     0.6360 H     1 <1>   0.0800 
 47 H        1.8630    -7.4520    -0.2010 H     1 <1>   0.0800 
@<TRIPOS>BOND
  1   1   2  2   
  2   1   3  2   
  3   1   4  am  
  4   1   5  1   
  5   4   6  1   
  6   4   7  1   
  7   5   8  ar  
  8   5   9  ar  
  9   6  10  1   
 10   6  24  1   
 11   6  25  1   
 12   7  11  1   
 13   7  26  1   
 14   7  27  1   
 15   8  12  ar  
 16   8  28  1   
 17   9  13  ar  
 18   9  29  1   
 19  10  30  1   
 20  10  31  1   
 21  10  32  1   
 22  11  33  1   
 23  11  34  1   
 24  11  35  1   
 25  12  14  1   
 26  12  15  ar  
 27  13  15  ar  
 28  13  36  1   
 29  14  16  am  
 30  14  37  1   
 31  15  17  1   
 32  16  18  2   
 33  16  19  1   
 34  17  20  1   
 35  19  21  2   
 36  19  38  1   
 37  20  39  1   
 38  20  40  1   
 39  20  41  1   
 40  21  22  1   
 41  21  23  1   
 42  22  42  1   
 43  22  43  1   
 44  22  44  1   
 45  23  45  1   
 46  23  46  1   
 47  23  47  1   
@<TRIPOS>SUBSTRUCTURE
  1 ****   8 GROUP 4 **** **** 0

# MOE 2024.06 (io_trps.svl 2023.06)
