@<TRIPOS>MOLECULE
NONAME
31 34 1 0 0 
SMALL
USER_CHARGES


@<TRIPOS>ATOM
  1 I       -0.2540     0.3550     1.6520 I     1 <1>  -0.0810 
  2 C       -0.0840    -1.4570     0.5260 C.ar  1 <1>   0.0810 
  3 C       -1.1950    -1.9940    -0.1270 C.ar  1 <1>   0.1170 
  4 C        1.1650    -2.0480     0.4840 C.ar  1 <1>  -0.1500 
  5 N       -2.4710    -1.4010    -0.0860 N.am  1 <1>  -0.2370 
  6 C       -1.0040    -3.1700    -0.8430 C.ar  1 <1>  -0.1500 
  7 C        1.3240    -3.2200    -0.2360 C.ar  1 <1>  -0.1500 
  8 C       -3.4370    -1.6410     0.8750 C.2   1 <1>   0.5690 
  9 C       -2.9310    -0.4350    -0.9620 C.2   1 <1>   0.5690 
 10 C        0.2410    -3.7770    -0.8970 C.ar  1 <1>  -0.1500 
 11 O       -3.3210    -2.2450     1.9090 O.2   1 <1>  -0.5700 
 12 C       -4.7170    -1.0280     0.3750 C.3   1 <1>  -0.0190 
 13 O       -2.4650    -0.1160    -2.0240 O.2   1 <1>  -0.5700 
 14 C       -4.1230     0.2090    -0.3070 C.3   1 <1>  -0.0190 
 15 C       -6.0800    -0.4970     0.8950 C.3   1 <1>   0.0580 
 16 C       -5.3690     1.0670    -0.6000 C.3   1 <1>   0.0580 
 17 C       -6.9470    -0.6110    -0.3530 C.2   1 <1>  -0.2880 
 18 C       -5.9330     1.0290     0.8360 C.3   1 <1>  -0.1600 
 19 C       -6.4900     0.2680    -1.2480 C.2   1 <1>  -0.2880 
 20 H        1.9990    -1.6060     1.0000 H     1 <1>   0.1500 
 21 H       -1.8340    -3.6140    -1.3640 H     1 <1>   0.1500 
 22 H        2.2890    -3.6970    -0.2820 H     1 <1>   0.1500 
 23 H        0.3690    -4.6870    -1.4580 H     1 <1>   0.1500 
 24 H       -4.9810    -1.7550    -0.3780 H     1 <1>   0.0800 
 25 H       -3.6010     0.8070     0.4260 H     1 <1>   0.0800 
 26 H       -6.4860    -0.9240     1.7970 H     1 <1>   0.0800 
 27 H       -5.2020     2.0610    -0.9790 H     1 <1>   0.0800 
 28 H       -7.7370    -1.3400    -0.4140 H     1 <1>   0.1500 
 29 H       -5.2780     1.4180     1.5970 H     1 <1>   0.0800 
 30 H       -6.8850     1.5290     0.9110 H     1 <1>   0.0800 
 31 H       -6.7910     0.4680    -2.2640 H     1 <1>   0.1500 
@<TRIPOS>BOND
  1   1   2  1   
  2   2   3  ar  
  3   2   4  ar  
  4   3   5  1   
  5   3   6  ar  
  6   4   7  ar  
  7   4  20  1   
  8   5   8  am  
  9   5   9  am  
 10   6  10  ar  
 11   6  21  1   
 12   7  10  ar  
 13   7  22  1   
 14   8  11  2   
 15   8  12  1   
 16   9  13  2   
 17   9  14  1   
 18  10  23  1   
 19  12  14  1   
 20  12  15  1   
 21  12  24  1   
 22  14  16  1   
 23  14  25  1   
 24  15  17  1   
 25  15  18  1   
 26  15  26  1   
 27  16  18  1   
 28  16  19  1   
 29  16  27  1   
 30  17  19  2   
 31  17  28  1   
 32  18  29  1   
 33  18  30  1   
 34  19  31  1   
@<TRIPOS>SUBSTRUCTURE
  1 ****   5 GROUP 4 **** **** 0

# MOE 2024.06 (io_trps.svl 2023.06)
