@<TRIPOS>MOLECULE
NONAME
47 48 1 0 0 
SMALL
USER_CHARGES


@<TRIPOS>ATOM
  1 O        0.5570    -0.8230    -1.1220 O.3   1 <1>  -0.3630 
  2 C        1.7360    -1.1550    -0.5430 C.ar  1 <1>   0.0830 
  3 C       -0.1840     0.2970    -0.6930 C.3   1 <1>   0.0400 
  4 C        2.3640    -2.2940    -1.0160 C.ar  1 <1>  -0.1500 
  5 C        2.3320    -0.4230     0.4800 C.ar  1 <1>  -0.1500 
  6 C        3.5730    -2.7040    -0.4840 C.ar  1 <1>  -0.1500 
  7 C        3.5430    -0.8330     1.0110 C.ar  1 <1>  -0.1500 
  8 C        4.1720    -1.9720     0.5300 C.ar  1 <1>  -0.1430 
  9 C        5.5100    -2.4050     1.0950 C.3   1 <1>  -0.0170 
 10 C        6.6140    -1.7700     0.2530 C.3   1 <1>   0.3430 
 11 N        7.9590    -2.1760     0.7490 N.4   1 <1>  -0.9060 
 12 C        9.0710    -1.6240    -0.0450 C.3   1 <1>   0.4230 
 13 C       10.3190    -2.4520     0.2760 C.3   1 <1>  -0.1600 
 14 C        9.2410    -0.1480     0.3150 C.3   1 <1>  -0.2400 
 15 C       11.5310    -2.0980    -0.5980 C.3   1 <1>  -0.0170 
 16 C       12.6560    -3.0740    -0.3100 C.ar  1 <1>  -0.1430 
 17 C       12.8090    -4.2170    -1.0810 C.ar  1 <1>  -0.1500 
 18 C       13.5370    -2.8360     0.7350 C.ar  1 <1>  -0.1500 
 19 C       13.8270    -5.1130    -0.8070 C.ar  1 <1>  -0.1500 
 20 C       14.5550    -3.7330     1.0090 C.ar  1 <1>  -0.1500 
 21 C       14.7000    -4.8720     0.2380 C.ar  1 <1>  -0.1500 
 22 H       -1.0810     0.3500    -1.2830 H     1 <1>   0.0800 
 23 H        0.4050     1.1840    -0.8430 H     1 <1>   0.0800 
 24 H       -0.4370     0.1710     0.3450 H     1 <1>   0.0800 
 25 H        1.8940    -2.8570    -1.8030 H     1 <1>   0.1500 
 26 H        1.8670     0.4620     0.8720 H     1 <1>   0.1500 
 27 H        4.0320    -3.5970    -0.8710 H     1 <1>   0.1500 
 28 H        3.9820    -0.2530     1.8050 H     1 <1>   0.1500 
 29 H        5.5780    -3.4780     1.0600 H     1 <1>   0.0800 
 30 H        5.5860    -2.0860     2.1190 H     1 <1>   0.0800 
 31 H        6.5100    -0.6980     0.2940 H     1 <1>   0.0800 
 32 H        6.4920    -2.0770    -0.7740 H     1 <1>   0.0800 
 33 H        8.0310    -3.2010     0.7350 H     1 <1>   0.4500 
 34 H        8.0810    -1.8830     1.7250 H     1 <1>   0.4500 
 35 H        8.8490    -1.7200    -1.0970 H     1 <1>   0.0800 
 36 H       10.1010    -3.4930     0.1120 H     1 <1>   0.0800 
 37 H       10.5940    -2.3260     1.3090 H     1 <1>   0.0800 
 38 H        9.5060    -0.0270     1.3510 H     1 <1>   0.0800 
 39 H        8.3480     0.4120     0.1080 H     1 <1>   0.0800 
 40 H       10.0250     0.2880    -0.2790 H     1 <1>   0.0800 
 41 H       11.8770    -1.0990    -0.3940 H     1 <1>   0.0800 
 42 H       11.2730    -2.1510    -1.6420 H     1 <1>   0.0800 
 43 H       12.1420    -4.4190    -1.9000 H     1 <1>   0.1500 
 44 H       13.4400    -1.9540     1.3420 H     1 <1>   0.1500 
 45 H       13.9430    -5.9990    -1.4090 H     1 <1>   0.1500 
 46 H       15.2360    -3.5440     1.8200 H     1 <1>   0.1500 
 47 H       15.4920    -5.5690     0.4510 H     1 <1>   0.1500 
@<TRIPOS>BOND
  1   1   2  1   
  2   1   3  1   
  3   2   4  ar  
  4   2   5  ar  
  5   3  22  1   
  6   3  23  1   
  7   3  24  1   
  8   4   6  ar  
  9   4  25  1   
 10   5   7  ar  
 11   5  26  1   
 12   6   8  ar  
 13   6  27  1   
 14   7   8  ar  
 15   7  28  1   
 16   8   9  1   
 17   9  10  1   
 18   9  29  1   
 19   9  30  1   
 20  10  11  1   
 21  10  31  1   
 22  10  32  1   
 23  11  12  1   
 24  11  33  1   
 25  11  34  1   
 26  12  13  1   
 27  12  14  1   
 28  12  35  1   
 29  13  15  1   
 30  13  36  1   
 31  13  37  1   
 32  14  38  1   
 33  14  39  1   
 34  14  40  1   
 35  15  16  1   
 36  15  41  1   
 37  15  42  1   
 38  16  17  ar  
 39  16  18  ar  
 40  17  19  ar  
 41  17  43  1   
 42  18  20  ar  
 43  18  44  1   
 44  19  21  ar  
 45  19  45  1   
 46  20  21  ar  
 47  20  46  1   
 48  21  47  1   
@<TRIPOS>SUBSTRUCTURE
  1 ****  11 GROUP 4 **** **** 0

# MOE 2024.06 (io_trps.svl 2023.06)
