@<TRIPOS>MOLECULE
NONAME
36 36 1 0 0 
SMALL
USER_CHARGES


@<TRIPOS>ATOM
  1 O       -0.8850    -0.7010     0.2660 O.3   1 <1>  -0.5600 
  2 C       -0.7490     0.4800    -0.4720 C.3   1 <1>   0.1200 
  3 C       -2.1580    -1.2720     0.1580 C.3   1 <1>   0.1200 
  4 C       -1.7770     1.5260    -0.0050 C.3   1 <1>   0.1100 
  5 C       -3.2360    -0.2850     0.6400 C.3   1 <1>   0.1100 
  6 N       -3.1510     0.9990    -0.0920 N.3   1 <1>  -0.8100 
  7 C       -4.1240     1.9860     0.3990 C.3   1 <1>   0.3100 
  8 C       -5.5100     1.5480     0.0710 C.1   1 <1>  -0.2000 
  9 C       -6.6000     1.1550    -0.2100 C.1   1 <1>  -0.2000 
 10 C       -7.9320     0.5940    -0.6050 C.3   1 <1>   0.4800 
 11 O       -7.2850    -0.2780    -1.4370 O.3   1 <1>  -0.6800 
 12 C       -8.3810    -0.6280     0.3540 C.3   1 <1>  -0.0800 
 13 C       -8.7140     1.6490     0.2320 C.3   1 <1>  -0.2400 
 14 C       -7.2900    -1.6200     0.8550 C.3   1 <1>  -0.2400 
 15 C       -9.5310    -1.4490    -0.2760 C.3   1 <1>  -0.2400 
 16 H       -0.8890     0.2540    -1.5150 H     1 <1>   0.0800 
 17 H        0.2510     0.8450    -0.3250 H     1 <1>   0.0800 
 18 H       -2.1710    -2.1620     0.7600 H     1 <1>   0.0800 
 19 H       -2.3290    -1.5430    -0.8690 H     1 <1>   0.0800 
 20 H       -1.6890     2.4010    -0.6250 H     1 <1>   0.0800 
 21 H       -1.5500     1.8050     1.0110 H     1 <1>   0.0800 
 22 H       -3.1100    -0.1190     1.6960 H     1 <1>   0.0800 
 23 H       -4.2020    -0.7310     0.4820 H     1 <1>   0.0800 
 24 H       -3.9460     2.9340    -0.0790 H     1 <1>   0.0800 
 25 H       -4.0200     2.1130     1.4630 H     1 <1>   0.0800 
 26 H       -6.3350    -0.0850    -1.3150 H     1 <1>   0.4000 
 27 H       -8.7950    -0.3020     1.2940 H     1 <1>   0.0800 
 28 H       -8.3960     1.7530     1.2590 H     1 <1>   0.0800 
 29 H       -9.7700     1.4430     0.2220 H     1 <1>   0.0800 
 30 H       -8.6050     2.6180    -0.2240 H     1 <1>   0.0800 
 31 H       -6.8750    -2.2020     0.0510 H     1 <1>   0.0800 
 32 H       -7.7160    -2.3060     1.5650 H     1 <1>   0.0800 
 33 H       -6.4950    -1.0910     1.3480 H     1 <1>   0.0800 
 34 H       -9.1910    -1.9760    -1.1500 H     1 <1>   0.0800 
 35 H      -10.3410    -0.8040    -0.5640 H     1 <1>   0.0800 
 36 H       -9.9070    -2.1710     0.4270 H     1 <1>   0.0800 
@<TRIPOS>BOND
  1   1   2  1   
  2   1   3  1   
  3   2   4  1   
  4   2  16  1   
  5   2  17  1   
  6   3   5  1   
  7   3  18  1   
  8   3  19  1   
  9   4   6  1   
 10   4  20  1   
 11   4  21  1   
 12   5   6  1   
 13   5  22  1   
 14   5  23  1   
 15   6   7  1   
 16   7   8  1   
 17   7  24  1   
 18   7  25  1   
 19   8   9  3   
 20   9  10  1   
 21  10  11  1   
 22  10  12  1   
 23  10  13  1   
 24  11  26  1   
 25  12  14  1   
 26  12  15  1   
 27  12  27  1   
 28  13  28  1   
 29  13  29  1   
 30  13  30  1   
 31  14  31  1   
 32  14  32  1   
 33  14  33  1   
 34  15  34  1   
 35  15  35  1   
 36  15  36  1   
@<TRIPOS>SUBSTRUCTURE
  1 ****   8 GROUP 4 **** **** 0

# MOE 2024.06 (io_trps.svl 2023.06)
