@<TRIPOS>MOLECULE
NONAME
48 49 1 0 0 
SMALL
USER_CHARGES


@<TRIPOS>ATOM
  1 CL      -4.3100     2.2900     3.2290 Cl    1 <1>  -0.1770 
  2 C       -3.2220     1.8630     1.9240 C.ar  1 <1>   0.1770 
  3 C       -2.9890     2.7580     0.8850 C.ar  1 <1>   0.0830 
  4 C       -2.6280     0.6150     1.9430 C.ar  1 <1>  -0.1500 
  5 O       -3.5860     3.9770     0.9000 O.3   1 <1>  -0.3630 
  6 C       -2.1400     2.3820    -0.1490 C.ar  1 <1>  -0.1500 
  7 C       -1.7870     0.2480     0.9040 C.ar  1 <1>  -0.1500 
  8 C       -4.3460     4.3790    -0.2350 C.3   1 <1>   0.1810 
  9 C       -1.5470     1.1300    -0.1370 C.ar  1 <1>  -0.1500 
 10 C       -5.5820     3.5020    -0.4090 C.2   1 <1>   0.5690 
 11 O       -5.9680     3.2460    -1.5250 O.2   1 <1>  -0.5700 
 12 N       -6.2030     3.0180     0.7060 N.am  1 <1>  -0.7300 
 13 C       -7.2780     2.0150     0.7970 C.3   1 <1>   0.2200 
 14 C       -6.8070     0.6990     0.1760 C.3   1 <1>  -0.1600 
 15 C       -8.5440     2.5220     0.1040 C.3   1 <1>  -0.1600 
 16 C       -7.8980    -0.3750     0.1770 C.3   1 <1>   0.5030 
 17 C       -9.6700     1.4840     0.1020 C.3   1 <1>   0.5030 
 18 N       -9.1700     0.1680    -0.3280 N.4   1 <1>  -0.9060 
 19 C       -7.5170    -1.4890    -0.7970 C.3   1 <1>  -0.2400 
 20 C       -8.0910    -1.0020     1.5600 C.3   1 <1>  -0.2400 
 21 C      -10.3610     1.3770     1.4650 C.3   1 <1>  -0.2400 
 22 C      -10.7240     1.8750    -0.9320 C.3   1 <1>  -0.2400 
 23 H       -2.8180    -0.0580     2.7590 H     1 <1>   0.1500 
 24 H       -1.9270     3.0600    -0.9550 H     1 <1>   0.1500 
 25 H       -1.3160    -0.7210     0.9080 H     1 <1>   0.1500 
 26 H       -3.7300     4.3350    -1.1130 H     1 <1>   0.0800 
 27 H       -4.6530     5.3960    -0.0780 H     1 <1>   0.0800 
 28 H       -0.8890     0.8420    -0.9400 H     1 <1>   0.1500 
 29 H       -5.7310     3.2210     1.5970 H     1 <1>   0.3700 
 30 H       -7.4860     1.8610     1.8430 H     1 <1>   0.0800 
 31 H       -5.9470     0.3390     0.7130 H     1 <1>   0.0800 
 32 H       -6.5000     0.8760    -0.8380 H     1 <1>   0.0800 
 33 H       -8.3160     2.7800    -0.9140 H     1 <1>   0.0800 
 34 H       -8.8820     3.4200     0.5920 H     1 <1>   0.0800 
 35 H       -9.9030    -0.5250    -0.1740 H     1 <1>   0.4500 
 36 H       -9.0500     0.2420    -1.3410 H     1 <1>   0.4500 
 37 H       -7.3950    -1.1110    -1.7970 H     1 <1>   0.0800 
 38 H       -8.2550    -2.2720    -0.8040 H     1 <1>   0.0800 
 39 H       -6.5790    -1.9280    -0.5030 H     1 <1>   0.0800 
 40 H       -7.2250    -1.5890     1.8130 H     1 <1>   0.0800 
 41 H       -8.1880    -0.2670     2.3340 H     1 <1>   0.0800 
 42 H       -8.9440    -1.6560     1.5780 H     1 <1>   0.0800 
 43 H      -11.0570     0.5580     1.4870 H     1 <1>   0.0800 
 44 H      -10.9160     2.2790     1.6580 H     1 <1>   0.0800 
 45 H       -9.6650     1.2770     2.2720 H     1 <1>   0.0800 
 46 H      -10.3010     1.9380    -1.9200 H     1 <1>   0.0800 
 47 H      -11.1290     2.8440    -0.6940 H     1 <1>   0.0800 
 48 H      -11.5410     1.1740    -0.9430 H     1 <1>   0.0800 
@<TRIPOS>BOND
  1   1   2  1   
  2   2   3  ar  
  3   2   4  ar  
  4   3   5  1   
  5   3   6  ar  
  6   4   7  ar  
  7   4  23  1   
  8   5   8  1   
  9   6   9  ar  
 10   6  24  1   
 11   7   9  ar  
 12   7  25  1   
 13   8  10  1   
 14   8  26  1   
 15   8  27  1   
 16   9  28  1   
 17  10  11  2   
 18  10  12  am  
 19  12  13  1   
 20  12  29  1   
 21  13  14  1   
 22  13  15  1   
 23  13  30  1   
 24  14  16  1   
 25  14  31  1   
 26  14  32  1   
 27  15  17  1   
 28  15  33  1   
 29  15  34  1   
 30  16  18  1   
 31  16  19  1   
 32  16  20  1   
 33  17  18  1   
 34  17  21  1   
 35  17  22  1   
 36  18  35  1   
 37  18  36  1   
 38  19  37  1   
 39  19  38  1   
 40  19  39  1   
 41  20  40  1   
 42  20  41  1   
 43  20  42  1   
 44  21  43  1   
 45  21  44  1   
 46  21  45  1   
 47  22  46  1   
 48  22  47  1   
 49  22  48  1   
@<TRIPOS>SUBSTRUCTURE
  1 ****  14 GROUP 4 **** **** 0

# MOE 2024.06 (io_trps.svl 2023.06)
