@<TRIPOS>MOLECULE
NONAME
34 35 1 0 0 
SMALL
USER_CHARGES


@<TRIPOS>ATOM
  1 F        5.0830    -0.4680    -1.7530 F     1 <1>  -0.1900 
  2 C        4.6240    -1.4240    -0.9890 C.ar  1 <1>   0.1900 
  3 C        5.3130    -1.7650     0.1650 C.ar  1 <1>  -0.1440 
  4 C        3.4560    -2.0540    -1.3730 C.ar  1 <1>  -0.1500 
  5 C        4.7940    -2.7830     0.9480 C.ar  1 <1>  -0.1500 
  6 C        6.5970    -1.0510     0.5610 C.3   1 <1>  -0.0960 
  7 C        2.9430    -3.0670    -0.5770 C.ar  1 <1>  -0.1430 
  8 C        3.6220    -3.4280     0.5790 C.ar  1 <1>  -0.1500 
  9 C        1.6510    -3.7700    -0.9600 C.3   1 <1>  -0.0160 
 10 C        0.4780    -3.2680    -0.1040 C.3   1 <1>   0.4230 
 11 N       -0.7400    -4.0690    -0.3970 N.4   1 <1>  -0.9060 
 12 C        0.1660    -1.7820    -0.3470 C.3   1 <1>  -0.1600 
 13 C       -1.8990    -3.6960     0.4590 C.3   1 <1>   0.3430 
 14 C       -1.0490    -1.3090     0.4630 C.3   1 <1>  -0.1600 
 15 C       -2.2540    -2.2270     0.2220 C.3   1 <1>  -0.1600 
 16 H        2.9740    -1.7430    -2.2820 H     1 <1>   0.1500 
 17 H        5.3020    -3.0820     1.8490 H     1 <1>   0.1500 
 18 H        6.4080     0.0000     0.6880 H     1 <1>   0.0800 
 19 H        7.3380    -1.1780    -0.2080 H     1 <1>   0.0800 
 20 H        6.9890    -1.4430     1.4820 H     1 <1>   0.0800 
 21 H        3.2530    -4.2190     1.2100 H     1 <1>   0.1500 
 22 H        1.7880    -4.8260    -0.8070 H     1 <1>   0.0800 
 23 H        1.4480    -3.6060    -2.0040 H     1 <1>   0.0800 
 24 H        0.7400    -3.3940     0.9350 H     1 <1>   0.0800 
 25 H       -0.5330    -5.0680    -0.2810 H     1 <1>   0.4500 
 26 H       -0.9980    -3.9180    -1.3780 H     1 <1>   0.4500 
 27 H       -0.0060    -1.6100    -1.3960 H     1 <1>   0.0800 
 28 H        1.0160    -1.1860    -0.0620 H     1 <1>   0.0800 
 29 H       -1.6490    -3.8410     1.4980 H     1 <1>   0.0800 
 30 H       -2.7500    -4.3160     0.2250 H     1 <1>   0.0800 
 31 H       -1.3000    -0.2970     0.1890 H     1 <1>   0.0800 
 32 H       -0.8020    -1.3080     1.5120 H     1 <1>   0.0800 
 33 H       -3.0530    -1.9460     0.8870 H     1 <1>   0.0800 
 34 H       -2.6170    -2.1020    -0.7840 H     1 <1>   0.0800 
@<TRIPOS>BOND
  1   1   2  1   
  2   2   3  ar  
  3   2   4  ar  
  4   3   5  ar  
  5   3   6  1   
  6   4   7  ar  
  7   4  16  1   
  8   5   8  ar  
  9   5  17  1   
 10   6  18  1   
 11   6  19  1   
 12   6  20  1   
 13   7   8  ar  
 14   7   9  1   
 15   8  21  1   
 16   9  10  1   
 17   9  22  1   
 18   9  23  1   
 19  10  11  1   
 20  10  12  1   
 21  10  24  1   
 22  11  13  1   
 23  11  25  1   
 24  11  26  1   
 25  12  14  1   
 26  12  27  1   
 27  12  28  1   
 28  13  15  1   
 29  13  29  1   
 30  13  30  1   
 31  14  15  1   
 32  14  31  1   
 33  14  32  1   
 34  15  33  1   
 35  15  34  1   
@<TRIPOS>SUBSTRUCTURE
  1 ****   7 GROUP 4 **** **** 0

# MOE 2024.06 (io_trps.svl 2023.06)
