@<TRIPOS>MOLECULE
NONAME
36 36 1 0 0 
SMALL
USER_CHARGES


@<TRIPOS>ATOM
  1 O       -6.5950     1.3070    -1.3300 O.3   1 <1>  -0.6800 
  2 C       -6.6130     0.1000    -0.6840 C.3   1 <1>   0.4800 
  3 C       -5.3460     0.0350     0.0960 C.1   1 <1>  -0.2000 
  4 C       -6.6710    -0.9900    -1.7460 C.3   1 <1>  -0.2400 
  5 C       -7.8320     0.0860     0.2290 C.3   1 <1>  -0.2400 
  6 C       -4.3060     0.1160     0.6670 C.1   1 <1>  -0.2000 
  7 C       -2.9890     0.4200     1.2750 C.3   1 <1>   0.5430 
  8 N       -2.3760     1.4850     0.4430 N.4   1 <1>  -0.9590 
  9 C       -0.9290     1.6620     0.7260 C.3   1 <1>   0.4860 
 10 C       -3.1390     2.7770     0.5150 C.3   1 <1>   0.2630 
 11 C       -0.3340     2.5410    -0.3550 C.ar  1 <1>  -0.1430 
 12 C       -0.1020     2.0280    -1.6240 C.ar  1 <1>  -0.1500 
 13 C       -0.0250     3.8670    -0.0880 C.ar  1 <1>  -0.1500 
 14 C        0.4210     2.8370    -2.6170 C.ar  1 <1>  -0.1500 
 15 C        0.4970     4.6750    -1.0820 C.ar  1 <1>  -0.1500 
 16 C        0.7190     4.1610    -2.3470 C.ar  1 <1>  -0.1500 
 17 H       -7.4090     1.3900    -1.8580 H     1 <1>   0.4000 
 18 H       -7.5730    -0.9130    -2.3250 H     1 <1>   0.0800 
 19 H       -6.6540    -1.9570    -1.2760 H     1 <1>   0.0800 
 20 H       -5.8200    -0.9190    -2.4000 H     1 <1>   0.0800 
 21 H       -8.7380     0.1680    -0.3420 H     1 <1>   0.0800 
 22 H       -7.7790     0.8960     0.9350 H     1 <1>   0.0800 
 23 H       -7.8620    -0.8380     0.7790 H     1 <1>   0.0800 
 24 H       -2.3770    -0.4680     1.2660 H     1 <1>   0.0800 
 25 H       -3.1140     0.7540     2.2920 H     1 <1>   0.0800 
 26 H       -2.4570     1.1640    -0.5300 H     1 <1>   0.4500 
 27 H       -0.4270     0.7090     0.7200 H     1 <1>   0.0800 
 28 H       -0.7880     2.1200     1.6920 H     1 <1>   0.0800 
 29 H       -3.1200     3.1740     1.5170 H     1 <1>   0.0800 
 30 H       -4.1670     2.6230     0.2240 H     1 <1>   0.0800 
 31 H       -2.7070     3.5040    -0.1540 H     1 <1>   0.0800 
 32 H       -0.3190     1.0000    -1.8590 H     1 <1>   0.1500 
 33 H       -0.1840     4.2890     0.8900 H     1 <1>   0.1500 
 34 H        0.6010     2.4400    -3.6020 H     1 <1>   0.1500 
 35 H        0.7360     5.7050    -0.8760 H     1 <1>   0.1500 
 36 H        1.1250     4.7900    -3.1210 H     1 <1>   0.1500 
@<TRIPOS>BOND
  1   1   2  1   
  2   1  17  1   
  3   2   3  1   
  4   2   4  1   
  5   2   5  1   
  6   3   6  3   
  7   4  18  1   
  8   4  19  1   
  9   4  20  1   
 10   5  21  1   
 11   5  22  1   
 12   5  23  1   
 13   6   7  1   
 14   7   8  1   
 15   7  24  1   
 16   7  25  1   
 17   8   9  1   
 18   8  10  1   
 19   8  26  1   
 20   9  11  1   
 21   9  27  1   
 22   9  28  1   
 23  10  29  1   
 24  10  30  1   
 25  10  31  1   
 26  11  12  ar  
 27  11  13  ar  
 28  12  14  ar  
 29  12  32  1   
 30  13  15  ar  
 31  13  33  1   
 32  14  16  ar  
 33  14  34  1   
 34  15  16  ar  
 35  15  35  1   
 36  16  36  1   
@<TRIPOS>SUBSTRUCTURE
  1 ****   8 GROUP 4 **** **** 0

# MOE 2024.06 (io_trps.svl 2023.06)
