@<TRIPOS>MOLECULE
NONAME
27 28 1 0 0 
SMALL
USER_CHARGES


@<TRIPOS>ATOM
  1 F       -1.7560    -1.0260    -0.5260 F     1 <1>  -0.3400 
  2 C       -1.7060     0.2980    -0.6710 C.3   1 <1>   0.6000 
  3 F       -0.5340     0.6470    -0.1440 F     1 <1>  -0.3400 
  4 C       -2.8960     0.9920     0.0670 C.3   1 <1>   0.5600 
  5 O       -4.1120     0.5950    -0.5480 O.3   1 <1>  -0.3630 
  6 O       -3.0140     0.5590     1.3820 O.3   1 <1>  -0.6800 
  7 C       -2.7760     2.5180     0.0680 C.3   1 <1>  -0.0990 
  8 C       -5.2770     1.2030    -0.2300 C.ar  1 <1>   0.0830 
  9 C       -4.0470     3.1680     0.5620 C.2   1 <1>   0.4230 
 10 C       -5.2860     2.4740     0.3540 C.ar  1 <1>   0.0860 
 11 C       -6.4570     0.5310    -0.4950 C.ar  1 <1>  -0.1500 
 12 O       -3.9580     4.2620     1.0580 O.2   1 <1>  -0.5700 
 13 C       -6.5250     3.0250     0.6890 C.ar  1 <1>  -0.1500 
 14 C       -7.6770     1.0950    -0.1660 C.ar  1 <1>   0.0830 
 15 C       -7.7050     2.3520     0.4360 C.ar  1 <1>  -0.1500 
 16 O       -8.7840     0.3760    -0.4540 O.3   1 <1>  -0.3630 
 17 C      -10.0790     0.8460    -0.1540 C.3   1 <1>   0.0400 
 18 H       -1.6730     0.5230    -1.7200 H     1 <1>   0.0800 
 19 H       -3.0650    -0.4170     1.3750 H     1 <1>   0.4000 
 20 H       -2.5770     2.8700    -0.9260 H     1 <1>   0.0800 
 21 H       -1.9540     2.8140     0.6940 H     1 <1>   0.0800 
 22 H       -6.4320    -0.4410    -0.9530 H     1 <1>   0.1500 
 23 H       -6.5500     3.9980     1.1510 H     1 <1>   0.1500 
 24 H       -8.6340     2.8160     0.7090 H     1 <1>   0.1500 
 25 H      -10.7860     0.1020    -0.4730 H     1 <1>   0.0800 
 26 H      -10.2500     1.7650    -0.6880 H     1 <1>   0.0800 
 27 H      -10.1600     0.9950     0.9080 H     1 <1>   0.0800 
@<TRIPOS>BOND
  1   1   2  1   
  2   2   3  1   
  3   2   4  1   
  4   2  18  1   
  5   4   5  1   
  6   4   6  1   
  7   4   7  1   
  8   5   8  1   
  9   6  19  1   
 10   7   9  1   
 11   7  20  1   
 12   7  21  1   
 13   8  10  ar  
 14   8  11  ar  
 15   9  10  1   
 16   9  12  2   
 17  10  13  ar  
 18  11  14  ar  
 19  11  22  1   
 20  13  15  ar  
 21  13  23  1   
 22  14  15  ar  
 23  14  16  1   
 24  15  24  1   
 25  16  17  1   
 26  17  25  1   
 27  17  26  1   
 28  17  27  1   
@<TRIPOS>SUBSTRUCTURE
  1 ****   8 GROUP 4 **** **** 0

# MOE 2024.06 (io_trps.svl 2023.06)
