@<TRIPOS>MOLECULE
NONAME
47 48 1 0 0 
SMALL
USER_CHARGES


@<TRIPOS>ATOM
  1 O        0.0140     2.2360    -2.4020 O.2   1 <1>  -0.5700 
  2 C       -0.0690     2.3650    -1.1950 C.2   1 <1>   0.5440 
  3 N        0.9860     1.9610    -0.4260 N.am  1 <1>  -0.7300 
  4 C       -1.2550     2.9440    -0.5940 C.ar  1 <1>   0.0860 
  5 C        2.2690     1.4220    -0.9180 C.3   1 <1>   0.1400 
  6 C       -1.7350     2.5880     0.6770 C.ar  1 <1>   0.0820 
  7 C       -1.9750     3.9180    -1.2870 C.ar  1 <1>  -0.1500 
  8 C        3.4140     2.1170    -0.1840 C.3   1 <1>  -0.1600 
  9 O       -1.1370     1.6290     1.4160 O.3   1 <1>  -0.3620 
 10 C       -2.8440     3.2060     1.2340 C.ar  1 <1>  -0.1500 
 11 C       -3.0950     4.5230    -0.7500 C.ar  1 <1>   0.0820 
 12 C        4.7760     1.6180    -0.6790 C.3   1 <1>  -0.0170 
 13 C       -1.4820     0.2960     1.1070 C.3   1 <1>   0.0400 
 14 C       -3.5370     4.1840     0.5320 C.ar  1 <1>   0.0820 
 15 O       -3.7180     5.4630    -1.5050 O.3   1 <1>  -0.3630 
 16 C        5.9010     2.3150     0.0690 C.ar  1 <1>  -0.1440 
 17 O       -4.6200     4.8250     1.0480 O.3   1 <1>  -0.3630 
 18 C       -4.9940     5.1250    -2.0000 C.3   1 <1>   0.0400 
 19 C        6.3900     3.5310    -0.3820 C.ar  1 <1>  -0.1500 
 20 C        6.4450     1.7440     1.2090 C.ar  1 <1>  -0.1500 
 21 C       -5.0080     4.6700     2.3950 C.3   1 <1>   0.0400 
 22 C        7.4140     4.1690     0.2970 C.ar  1 <1>  -0.1500 
 23 C        7.4690     2.3800     1.8890 C.ar  1 <1>  -0.1500 
 24 C        7.9540     3.5930     1.4340 C.ar  1 <1>  -0.1500 
 25 H        0.8580     1.9850     0.5900 H     1 <1>   0.3700 
 26 H        2.3540     1.5920    -1.9790 H     1 <1>   0.0800 
 27 H        2.2970     0.3610    -0.7390 H     1 <1>   0.0800 
 28 H       -1.6480     4.2130    -2.2690 H     1 <1>   0.1500 
 29 H        3.3330     1.9290     0.8720 H     1 <1>   0.0800 
 30 H        3.3480     3.1780    -0.3500 H     1 <1>   0.0800 
 31 H       -3.1460     2.9010     2.2160 H     1 <1>   0.1500 
 32 H        4.8740     1.8130    -1.7340 H     1 <1>   0.0800 
 33 H        4.8520     0.5550    -0.5340 H     1 <1>   0.0800 
 34 H       -0.9570    -0.3550     1.7830 H     1 <1>   0.0800 
 35 H       -1.1940     0.0820     0.0920 H     1 <1>   0.0800 
 36 H       -2.5440     0.1740     1.2270 H     1 <1>   0.0800 
 37 H       -5.3070     5.9010    -2.6750 H     1 <1>   0.0800 
 38 H       -5.6860     5.0540    -1.1810 H     1 <1>   0.0800 
 39 H       -4.9290     4.1860    -2.5210 H     1 <1>   0.0800 
 40 H        5.9750     3.9870    -1.2640 H     1 <1>   0.1500 
 41 H        6.0750     0.8020     1.5720 H     1 <1>   0.1500 
 42 H       -5.8340     5.3320     2.5820 H     1 <1>   0.0800 
 43 H       -4.1800     4.9330     3.0290 H     1 <1>   0.0800 
 44 H       -5.3120     3.6510     2.5560 H     1 <1>   0.0800 
 45 H        7.7890     5.1120    -0.0580 H     1 <1>   0.1500 
 46 H        7.8880     1.9320     2.7730 H     1 <1>   0.1500 
 47 H        8.7500     4.0890     1.9620 H     1 <1>   0.1500 
@<TRIPOS>BOND
  1   1   2  2   
  2   2   3  am  
  3   2   4  1   
  4   3   5  1   
  5   3  25  1   
  6   4   6  ar  
  7   4   7  ar  
  8   5   8  1   
  9   5  26  1   
 10   5  27  1   
 11   6   9  1   
 12   6  10  ar  
 13   7  11  ar  
 14   7  28  1   
 15   8  12  1   
 16   8  29  1   
 17   8  30  1   
 18   9  13  1   
 19  10  14  ar  
 20  10  31  1   
 21  11  14  ar  
 22  11  15  1   
 23  12  16  1   
 24  12  32  1   
 25  12  33  1   
 26  13  34  1   
 27  13  35  1   
 28  13  36  1   
 29  14  17  1   
 30  15  18  1   
 31  16  19  ar  
 32  16  20  ar  
 33  17  21  1   
 34  18  37  1   
 35  18  38  1   
 36  18  39  1   
 37  19  22  ar  
 38  19  40  1   
 39  20  23  ar  
 40  20  41  1   
 41  21  42  1   
 42  21  43  1   
 43  21  44  1   
 44  22  24  ar  
 45  22  45  1   
 46  23  24  ar  
 47  23  46  1   
 48  24  47  1   
@<TRIPOS>SUBSTRUCTURE
  1 ****   3 GROUP 4 **** **** 0

# MOE 2024.06 (io_trps.svl 2023.06)
