@<TRIPOS>MOLECULE
NONAME
40 41 1 0 0 
SMALL
USER_CHARGES


@<TRIPOS>ATOM
  1 O       -0.4380    -0.7500     1.6350 O.2   1 <1>  -0.5700 
  2 C       -0.9850    -1.1730     0.6370 C.2   1 <1>   0.7160 
  3 N       -1.9200    -0.4060     0.0200 N.am  1 <1>  -0.7300 
  4 C       -0.6680    -2.4680     0.0980 C.2   1 <1>  -0.0860 
  5 C       -2.7060     0.6340     0.6800 C.3   1 <1>   0.3640 
  6 C        0.5150    -3.0990    -0.0560 C.2   1 <1>  -0.0400 
  7 C       -1.5460    -3.4180    -0.4060 C.2   1 <1>   0.1080 
  8 C       -4.1670     0.2210     0.5490 C.ar  1 <1>  -0.1440 
  9 C       -2.3980     1.9780     0.0260 C.3   1 <1>  -0.2400 
 10 O        0.3800    -4.2810    -0.6070 O.3   1 <1>  -0.0190 
 11 C        1.9130    -2.6370     0.3070 C.3   1 <1>  -0.0600 
 12 N       -0.9070    -4.4490    -0.8120 N.2   1 <1>  -0.4100 
 13 C       -3.0590    -3.3130    -0.4650 C.3   1 <1>  -0.0590 
 14 C       -4.8280     0.2380    -0.6730 C.ar  1 <1>  -0.1500 
 15 C       -4.8520    -0.2160     1.6730 C.ar  1 <1>  -0.1500 
 16 C       -6.1460    -0.1720    -0.7650 C.ar  1 <1>  -0.1500 
 17 C       -6.1700    -0.6270     1.5800 C.ar  1 <1>  -0.1500 
 18 C       -6.8260    -0.6080     0.3600 C.ar  1 <1>  -0.1440 
 19 C       -8.2730    -1.0600     0.2580 C.3   1 <1>  -0.0170 
 20 C       -8.3490    -2.5570    -0.0460 C.3   1 <1>  -0.2400 
 21 H       -2.3630    -0.7750    -0.8170 H     1 <1>   0.3700 
 22 H       -2.4390     0.6890     1.7230 H     1 <1>   0.0800 
 23 H       -2.5630     1.9470    -1.0340 H     1 <1>   0.0800 
 24 H       -1.3730     2.2440     0.2150 H     1 <1>   0.0800 
 25 H       -3.0290     2.7370     0.4530 H     1 <1>   0.0800 
 26 H        1.8920    -1.6510     0.7330 H     1 <1>   0.0800 
 27 H        2.5310    -2.6220    -0.5730 H     1 <1>   0.0800 
 28 H        2.3430    -3.3130     1.0230 H     1 <1>   0.0800 
 29 H       -3.4420    -2.8840     0.4430 H     1 <1>   0.0800 
 30 H       -3.4880    -4.2920    -0.5860 H     1 <1>   0.0800 
 31 H       -3.3570    -2.7050    -1.2990 H     1 <1>   0.0800 
 32 H       -4.3260     0.5690    -1.5640 H     1 <1>   0.1500 
 33 H       -4.3610    -0.2450     2.6310 H     1 <1>   0.1500 
 34 H       -6.6430    -0.1520    -1.7190 H     1 <1>   0.1500 
 35 H       -6.6840    -0.9640     2.4630 H     1 <1>   0.1500 
 36 H       -8.7720    -0.5070    -0.5200 H     1 <1>   0.0800 
 37 H       -8.7840    -0.8520     1.1820 H     1 <1>   0.0800 
 38 H       -7.8560    -2.7720    -0.9780 H     1 <1>   0.0800 
 39 H       -9.3750    -2.8700    -0.1160 H     1 <1>   0.0800 
 40 H       -7.8680    -3.1190     0.7360 H     1 <1>   0.0800 
@<TRIPOS>BOND
  1   1   2  2   
  2   2   3  am  
  3   2   4  1   
  4   3   5  1   
  5   3  21  1   
  6   4   6  2   
  7   4   7  1   
  8   5   8  1   
  9   5   9  1   
 10   5  22  1   
 11   6  10  1   
 12   6  11  1   
 13   7  12  2   
 14   7  13  1   
 15   8  14  ar  
 16   8  15  ar  
 17   9  23  1   
 18   9  24  1   
 19   9  25  1   
 20  10  12  1   
 21  11  26  1   
 22  11  27  1   
 23  11  28  1   
 24  13  29  1   
 25  13  30  1   
 26  13  31  1   
 27  14  16  ar  
 28  14  32  1   
 29  15  17  ar  
 30  15  33  1   
 31  16  18  ar  
 32  16  34  1   
 33  17  18  ar  
 34  17  35  1   
 35  18  19  1   
 36  19  20  1   
 37  19  36  1   
 38  19  37  1   
 39  20  38  1   
 40  20  39  1   
 41  20  40  1   
@<TRIPOS>SUBSTRUCTURE
  1 ****   3 GROUP 4 **** **** 0

# MOE 2024.06 (io_trps.svl 2023.06)
