@<TRIPOS>MOLECULE
NONAME
49 51 1 0 0 
SMALL
USER_CHARGES


@<TRIPOS>ATOM
  1 S       -0.1230     1.1780     1.6240 S.o2  1 <1>   1.4470 
  2 O       -1.1380     2.1570     1.9490 O.2   1 <1>  -0.6500 
  3 O        0.2530     0.1990     2.6210 O.2   1 <1>  -0.6500 
  4 N       -0.6910     0.3150     0.2790 N.am  1 <1>  -0.8490 
  5 C        1.3460     2.0370     0.9940 C.ar  1 <1>  -0.0090 
  6 C        0.1770    -0.8210    -0.0930 C.3   1 <1>   0.1960 
  7 C       -2.0580    -0.1780     0.5070 C.3   1 <1>   0.1960 
  8 C        2.5550     1.3690     0.8820 C.ar  1 <1>  -0.1500 
  9 C        1.2970     3.3600     0.5720 C.ar  1 <1>  -0.1500 
 10 C       -0.4010    -1.6010    -1.2870 C.3   1 <1>   0.1200 
 11 C       -2.5780    -0.9690    -0.7070 C.3   1 <1>   0.1200 
 12 C        3.6790     1.9600     0.3240 C.ar  1 <1>   0.1170 
 13 C        2.4170     3.9930     0.0570 C.ar  1 <1>  -0.1500 
 14 O       -1.7090    -2.0210    -1.0190 O.3   1 <1>  -0.5600 
 15 N        4.8680     1.2370     0.1410 N.am  1 <1>  -0.5470 
 16 C        3.6150     3.2990    -0.0680 C.ar  1 <1>   0.0820 
 17 C        5.0570    -0.0870    -0.1720 C.2   1 <1>   0.5440 
 18 O        4.7550     3.8610    -0.5670 O.3   1 <1>  -0.3630 
 19 O        4.0980    -0.8210    -0.3280 O.2   1 <1>  -0.5700 
 20 C        6.4130    -0.5750    -0.3280 C.ar  1 <1>   0.0860 
 21 C        4.7740     5.1940    -1.0290 C.3   1 <1>   0.0400 
 22 C        6.8750    -1.1840    -1.5030 C.ar  1 <1>  -0.1430 
 23 C        7.3150    -0.4260     0.7270 C.ar  1 <1>  -0.1500 
 24 C        8.1880    -1.6170    -1.5960 C.ar  1 <1>  -0.1500 
 25 C        5.9510    -1.3790    -2.6990 C.3   1 <1>  -0.0970 
 26 C        8.6230    -0.8590     0.6290 C.ar  1 <1>  -0.1500 
 27 C        9.0620    -1.4560    -0.5370 C.ar  1 <1>  -0.1500 
 28 H        0.2910    -1.4960     0.7390 H     1 <1>   0.0800 
 29 H        1.1530    -0.4650    -0.3700 H     1 <1>   0.0800 
 30 H       -2.7170     0.6550     0.6840 H     1 <1>   0.0800 
 31 H       -2.0810    -0.8110     1.3790 H     1 <1>   0.0800 
 32 H        2.6200     0.3540     1.2330 H     1 <1>   0.1500 
 33 H        0.3690     3.9020     0.6500 H     1 <1>   0.1500 
 34 H        0.1930    -2.4760    -1.4810 H     1 <1>   0.0800 
 35 H       -0.4100    -0.9850    -2.1700 H     1 <1>   0.0800 
 36 H       -2.6650    -0.3260    -1.5650 H     1 <1>   0.0800 
 37 H       -3.5420    -1.3920    -0.4890 H     1 <1>   0.0800 
 38 H        2.3290     5.0200    -0.2410 H     1 <1>   0.1500 
 39 H        5.6790     1.8390    -0.0090 H     1 <1>   0.3700 
 40 H        5.7650     5.4100    -1.3860 H     1 <1>   0.0800 
 41 H        4.5300     5.8510    -0.2130 H     1 <1>   0.0800 
 42 H        4.0670     5.2960    -1.8330 H     1 <1>   0.0800 
 43 H        6.9800     0.0310     1.6420 H     1 <1>   0.1500 
 44 H        8.5430    -2.0870    -2.4980 H     1 <1>   0.1500 
 45 H        5.4670    -0.4530    -2.9530 H     1 <1>   0.0800 
 46 H        5.1950    -2.1070    -2.4600 H     1 <1>   0.0800 
 47 H        6.4940    -1.7230    -3.5600 H     1 <1>   0.0800 
 48 H        9.2990    -0.7340     1.4570 H     1 <1>   0.1500 
 49 H       10.0800    -1.7970    -0.6200 H     1 <1>   0.1500 
@<TRIPOS>BOND
  1   1   2  2   
  2   1   3  2   
  3   1   4  am  
  4   1   5  1   
  5   4   6  1   
  6   4   7  1   
  7   5   8  ar  
  8   5   9  ar  
  9   6  10  1   
 10   6  28  1   
 11   6  29  1   
 12   7  11  1   
 13   7  30  1   
 14   7  31  1   
 15   8  12  ar  
 16   8  32  1   
 17   9  13  ar  
 18   9  33  1   
 19  10  14  1   
 20  10  34  1   
 21  10  35  1   
 22  11  14  1   
 23  11  36  1   
 24  11  37  1   
 25  12  15  1   
 26  12  16  ar  
 27  13  16  ar  
 28  13  38  1   
 29  15  17  am  
 30  15  39  1   
 31  16  18  1   
 32  17  19  2   
 33  17  20  1   
 34  18  21  1   
 35  20  22  ar  
 36  20  23  ar  
 37  21  40  1   
 38  21  41  1   
 39  21  42  1   
 40  22  24  ar  
 41  22  25  1   
 42  23  26  ar  
 43  23  43  1   
 44  24  27  ar  
 45  24  44  1   
 46  25  45  1   
 47  25  46  1   
 48  25  47  1   
 49  26  27  ar  
 50  26  48  1   
 51  27  49  1   
@<TRIPOS>SUBSTRUCTURE
  1 ****   8 GROUP 4 **** **** 0

# MOE 2024.06 (io_trps.svl 2023.06)
