@<TRIPOS>MOLECULE
NONAME
51 53 1 0 0 
SMALL
USER_CHARGES


@<TRIPOS>ATOM
  1 O        0.5650     0.9520     0.5080 O.2   1 <1>  -0.5740 
  2 C        1.1010     2.0400     0.4860 C.2   1 <1>   0.6860 
  3 N        0.3780     3.1830     0.8110 N.am  1 <1>  -0.4250 
  4 N        2.4370     2.1420     0.1160 N.am  1 <1>  -0.4410 
  5 C        0.9360     4.4480     0.6910 C.2   1 <1>   0.7000 
  6 C       -1.0320     3.0410     1.2960 C.3   1 <1>   0.1330 
  7 C        2.9900     3.4020     0.0110 C.2   1 <1>   0.4210 
  8 C        3.2320     0.9160    -0.1940 C.3   1 <1>   0.0520 
  9 O        0.2750     5.4460     0.9180 O.2   1 <1>  -0.5740 
 10 C        2.3000     4.5390     0.2800 C.2   1 <1>   0.2710 
 11 C       -2.0080     3.0060     0.1200 C.3   1 <1>   0.1130 
 12 N        4.2620     3.7220    -0.3680 N.pl3 1 <1>  -0.7030 
 13 N        3.1940     5.6010     0.0580 N.pl3 1 <1>  -0.6330 
 14 O       -3.2970     2.9370     0.6340 O.3   1 <1>  -0.5640 
 15 C        4.3410     5.0570    -0.3240 C.cat 1 <1>   1.0690 
 16 C        3.3910     6.9660     0.0880 C.2   1 <1>   0.2340 
 17 C       -4.2880     2.8700    -0.3390 C.3   1 <1>   0.0320 
 18 N        5.2790     5.9800    -0.5550 N.pl3 1 <1>  -0.5720 
 19 C        4.6730     7.2000    -0.2870 C.2   1 <1>   0.1580 
 20 C        2.2690     7.9010     0.4940 C.3   1 <1>  -0.1090 
 21 C        6.6810     5.7380    -0.9690 C.3   1 <1>   0.1610 
 22 C        5.4260     8.5130    -0.4250 C.3   1 <1>  -0.1090 
 23 C        7.5310     5.4310     0.2650 C.3   1 <1>  -0.1670 
 24 C        8.9850     5.1470    -0.1270 C.3   1 <1>  -0.1670 
 25 C        9.8310     4.8300     1.1080 C.3   1 <1>  -0.2460 
 26 H       -1.2860     3.8650     1.9400 H     1 <1>   0.0720 
 27 H       -1.1330     2.1330     1.8650 H     1 <1>   0.0720 
 28 H        2.8250     0.0620     0.3240 H     1 <1>   0.0720 
 29 H        4.2530     1.0370     0.1200 H     1 <1>   0.0720 
 30 H        3.2000     0.7200    -1.2520 H     1 <1>   0.0720 
 31 H       -1.8340     2.1330    -0.4870 H     1 <1>   0.0720 
 32 H       -1.9260     3.9030    -0.4680 H     1 <1>   0.0720 
 33 H        5.0230     3.0980    -0.6240 H     1 <1>   0.4450 
 34 H       -5.2410     2.8190     0.1580 H     1 <1>   0.0720 
 35 H       -4.1420     1.9860    -0.9350 H     1 <1>   0.0720 
 36 H       -4.2450     3.7540    -0.9520 H     1 <1>   0.0720 
 37 H        1.4330     7.7830    -0.1720 H     1 <1>   0.0720 
 38 H        2.5880     8.9260     0.4640 H     1 <1>   0.0720 
 39 H        1.9440     7.6730     1.4940 H     1 <1>   0.0720 
 40 H        7.0700     6.6040    -1.4760 H     1 <1>   0.0720 
 41 H        6.7180     4.9090    -1.6550 H     1 <1>   0.0720 
 42 H        6.2890     8.5130     0.2160 H     1 <1>   0.0720 
 43 H        4.8020     9.3440    -0.1510 H     1 <1>   0.0720 
 44 H        5.7460     8.6520    -1.4420 H     1 <1>   0.0720 
 45 H        7.1370     4.5720     0.7800 H     1 <1>   0.0720 
 46 H        7.5090     6.2730     0.9350 H     1 <1>   0.0720 
 47 H        9.4040     6.0060    -0.6260 H     1 <1>   0.0720 
 48 H        9.0310     4.3130    -0.8060 H     1 <1>   0.0720 
 49 H        9.8260     5.6580     1.7940 H     1 <1>   0.0720 
 50 H       10.8500     4.6410     0.8150 H     1 <1>   0.0720 
 51 H        9.4570     3.9570     1.6130 H     1 <1>   0.0720 
@<TRIPOS>BOND
  1   1   2  2   
  2   2   3  am  
  3   2   4  am  
  4   3   5  am  
  5   3   6  1   
  6   4   7  1   
  7   4   8  1   
  8   5   9  2   
  9   5  10  1   
 10   6  11  1   
 11   6  26  1   
 12   6  27  1   
 13   7  10  2   
 14   7  12  1   
 15   8  28  1   
 16   8  29  1   
 17   8  30  1   
 18  10  13  1   
 19  11  14  1   
 20  11  31  1   
 21  11  32  1   
 22  12  15  ar  
 23  12  33  1   
 24  13  15  ar  
 25  13  16  1   
 26  14  17  1   
 27  15  18  ar  
 28  16  19  2   
 29  16  20  1   
 30  17  34  1   
 31  17  35  1   
 32  17  36  1   
 33  18  19  1   
 34  18  21  1   
 35  19  22  1   
 36  20  37  1   
 37  20  38  1   
 38  20  39  1   
 39  21  23  1   
 40  21  40  1   
 41  21  41  1   
 42  22  42  1   
 43  22  43  1   
 44  22  44  1   
 45  23  24  1   
 46  23  45  1   
 47  23  46  1   
 48  24  25  1   
 49  24  47  1   
 50  24  48  1   
 51  25  49  1   
 52  25  50  1   
 53  25  51  1   
@<TRIPOS>SUBSTRUCTURE
  1 ****  10 GROUP 4 **** **** 0

# MOE 2024.06 (io_trps.svl 2023.06)
