@<TRIPOS>MOLECULE
NONAME
54 56 1 0 0 
SMALL
USER_CHARGES


@<TRIPOS>ATOM
  1 S        1.0900     1.6920     1.3700 S.o2  1 <1>   1.3330 
  2 O        1.3770     0.9280     0.1820 O.2   1 <1>  -0.6500 
  3 O        2.1400     2.0740     2.2830 O.2   1 <1>  -0.6500 
  4 N        0.2970     3.1530     0.9010 N.am  1 <1>  -0.6930 
  5 C       -0.1740     0.8660     2.3120 C.3   1 <1>  -0.1350 
  6 C       -0.9290     3.1160     0.2460 C.ar  1 <1>   0.1990 
  7 C        1.1960     4.3100     0.5960 C.3   1 <1>   0.2570 
  8 C       -2.0530     3.6500     0.8640 C.ar  1 <1>  -0.1500 
  9 C       -1.0630     2.5500    -1.0170 C.ar  1 <1>  -0.1500 
 10 C        1.9510     4.2080    -0.7420 C.2   1 <1>   0.5690 
 11 C       -3.2890     3.6080     0.2440 C.ar  1 <1>  -0.1500 
 12 C       -2.2950     2.5040    -1.6440 C.ar  1 <1>  -0.1500 
 13 O        1.3290     4.5390    -1.7280 O.2   1 <1>  -0.5700 
 14 N        3.2680     3.8100    -0.8420 N.am  1 <1>  -0.6600 
 15 C       -3.4130     3.0250    -1.0120 C.ar  1 <1>   0.0830 
 16 C        4.2040     3.5450     0.2910 C.3   1 <1>   0.1400 
 17 C        3.9000     3.6230    -2.1810 C.3   1 <1>   0.1400 
 18 O       -4.6080     2.9670    -1.6580 O.3   1 <1>  -0.1650 
 19 C        4.7890     2.1320     0.1820 C.3   1 <1>  -0.1600 
 20 C        4.4540     2.2010    -2.3030 C.3   1 <1>  -0.1600 
 21 C       -5.7540     2.6550    -1.0030 C.ar  1 <1>   0.0830 
 22 C        5.4530     1.8900    -1.1800 C.3   1 <1>  -0.0800 
 23 C       -6.9260     3.2760    -1.4070 C.ar  1 <1>  -0.1500 
 24 C       -5.7840     1.7310     0.0350 C.ar  1 <1>  -0.1500 
 25 C        5.9530     0.4450    -1.2870 C.3   1 <1>  -0.2400 
 26 C       -8.1210     2.9880    -0.7710 C.ar  1 <1>  -0.1500 
 27 C       -6.9800     1.4440     0.6710 C.ar  1 <1>  -0.1500 
 28 C       -8.1470     2.0730     0.2700 C.ar  1 <1>  -0.1500 
 29 H        0.2070    -0.0560     2.7050 H     1 <1>   0.0800 
 30 H       -1.0200     0.6500     1.6890 H     1 <1>   0.0800 
 31 H       -0.4910     1.4840     3.1280 H     1 <1>   0.0800 
 32 H        1.8770     4.4600     1.4080 H     1 <1>   0.0800 
 33 H        0.5880     5.1960     0.5420 H     1 <1>   0.0800 
 34 H       -1.9530     4.1010     1.8340 H     1 <1>   0.1500 
 35 H       -0.1940     2.1520    -1.5130 H     1 <1>   0.1500 
 36 H       -4.1530     4.0310     0.7270 H     1 <1>   0.1500 
 37 H       -2.3910     2.0690    -2.6220 H     1 <1>   0.1500 
 38 H        3.7240     3.6550     1.2420 H     1 <1>   0.0800 
 39 H        5.0050     4.2630     0.2470 H     1 <1>   0.0800 
 40 H        4.6960     4.3390    -2.2960 H     1 <1>   0.0800 
 41 H        3.1880     3.7910    -2.9710 H     1 <1>   0.0800 
 42 H        4.0010     1.4170     0.3340 H     1 <1>   0.0800 
 43 H        5.5090     1.9910     0.9690 H     1 <1>   0.0800 
 44 H        4.9330     2.0920    -3.2590 H     1 <1>   0.0800 
 45 H        3.6290     1.5090    -2.2650 H     1 <1>   0.0800 
 46 H        6.2970     2.5520    -1.2760 H     1 <1>   0.0800 
 47 H       -6.8970     3.9830    -2.2170 H     1 <1>   0.1500 
 48 H       -4.8820     1.2320     0.3410 H     1 <1>   0.1500 
 49 H        5.1320    -0.2450    -1.1960 H     1 <1>   0.0800 
 50 H        6.6640     0.2370    -0.5070 H     1 <1>   0.0800 
 51 H        6.4320     0.2840    -2.2360 H     1 <1>   0.0800 
 52 H       -9.0290     3.4730    -1.0840 H     1 <1>   0.1500 
 53 H       -7.0050     0.7300     1.4760 H     1 <1>   0.1500 
 54 H       -9.0760     1.8500     0.7650 H     1 <1>   0.1500 
@<TRIPOS>BOND
  1   1   2  2   
  2   1   3  2   
  3   1   4  am  
  4   1   5  1   
  5   4   6  1   
  6   4   7  1   
  7   5  29  1   
  8   5  30  1   
  9   5  31  1   
 10   6   8  ar  
 11   6   9  ar  
 12   7  10  1   
 13   7  32  1   
 14   7  33  1   
 15   8  11  ar  
 16   8  34  1   
 17   9  12  ar  
 18   9  35  1   
 19  10  13  2   
 20  10  14  am  
 21  11  15  ar  
 22  11  36  1   
 23  12  15  ar  
 24  12  37  1   
 25  14  16  1   
 26  14  17  1   
 27  15  18  1   
 28  16  19  1   
 29  16  38  1   
 30  16  39  1   
 31  17  20  1   
 32  17  40  1   
 33  17  41  1   
 34  18  21  1   
 35  19  22  1   
 36  19  42  1   
 37  19  43  1   
 38  20  22  1   
 39  20  44  1   
 40  20  45  1   
 41  21  23  ar  
 42  21  24  ar  
 43  22  25  1   
 44  22  46  1   
 45  23  26  ar  
 46  23  47  1   
 47  24  27  ar  
 48  24  48  1   
 49  25  49  1   
 50  25  50  1   
 51  25  51  1   
 52  26  28  ar  
 53  26  52  1   
 54  27  28  ar  
 55  27  53  1   
 56  28  54  1   
@<TRIPOS>SUBSTRUCTURE
  1 ****   6 GROUP 4 **** **** 0

# MOE 2024.06 (io_trps.svl 2023.06)
