@<TRIPOS>MOLECULE
NONAME
48 49 1 0 0 
SMALL
USER_CHARGES


@<TRIPOS>ATOM
  1 O        0.2300     1.4160     2.7860 O.2   1 <1>  -0.5700 
  2 C        0.2850     1.7280     1.6110 C.2   1 <1>   0.5440 
  3 N        1.3660     1.3270     0.8900 N.am  1 <1>  -0.7300 
  4 C       -0.7770     2.5070     0.9950 C.ar  1 <1>   0.0860 
  5 C        2.6450     0.8870     1.4480 C.3   1 <1>   0.3640 
  6 C       -0.5820     3.3470    -0.1150 C.ar  1 <1>   0.0830 
  7 C       -2.0680     2.4360     1.5230 C.ar  1 <1>  -0.1500 
  8 C        3.6980     1.9220     1.0640 C.ar  1 <1>  -0.1440 
  9 C        2.9720    -0.4940     0.8910 C.3   1 <1>  -0.2400 
 10 O        0.6500     3.4700    -0.6700 O.3   1 <1>  -0.3620 
 11 C       -1.6460     4.0620    -0.6760 C.ar  1 <1>   0.0830 
 12 C       -3.1210     3.1440     0.9800 C.ar  1 <1>  -0.1500 
 13 C        3.9320     2.2510    -0.2650 C.ar  1 <1>  -0.1500 
 14 C        4.4210     2.5670     2.0540 C.ar  1 <1>  -0.1500 
 15 C        1.4050     4.5990    -0.2840 C.3   1 <1>   0.0400 
 16 O       -1.3900     4.8450    -1.7640 O.3   1 <1>  -0.3630 
 17 C       -2.9150     3.9560    -0.1200 C.ar  1 <1>  -0.1500 
 18 C        4.8670     3.2220    -0.6080 C.ar  1 <1>   0.0830 
 19 C        5.3640     3.5260     1.7280 C.ar  1 <1>  -0.1500 
 20 C       -2.4190     5.5190    -2.4540 C.3   1 <1>   0.0400 
 21 O        5.0980     3.5860    -1.9030 O.3   1 <1>  -0.3630 
 22 C        5.5960     3.8630     0.3980 C.ar  1 <1>   0.0830 
 23 C        4.3110     3.0960    -2.9650 C.3   1 <1>   0.0400 
 24 O        6.5100     4.8060     0.0290 O.3   1 <1>  -0.3630 
 25 C        7.3490     5.4350     0.9700 C.3   1 <1>   0.0400 
 26 H        1.4530     1.7560    -0.0350 H     1 <1>   0.3700 
 27 H        2.5710     0.8230     2.5210 H     1 <1>   0.0800 
 28 H       -2.2440     1.8070     2.3800 H     1 <1>   0.1500 
 29 H        3.0090    -0.4790    -0.1820 H     1 <1>   0.0800 
 30 H        2.2250    -1.1980     1.2110 H     1 <1>   0.0800 
 31 H        3.9260    -0.8150     1.2650 H     1 <1>   0.0800 
 32 H       -4.1040     3.0640     1.4130 H     1 <1>   0.1500 
 33 H        3.3710     1.7440    -1.0250 H     1 <1>   0.1500 
 34 H        4.2490     2.3290     3.0900 H     1 <1>   0.1500 
 35 H        2.3180     4.6090    -0.8500 H     1 <1>   0.0800 
 36 H        1.6260     4.5270     0.7660 H     1 <1>   0.0800 
 37 H        0.8380     5.4900    -0.4890 H     1 <1>   0.0800 
 38 H       -3.7530     4.4930    -0.5210 H     1 <1>   0.1500 
 39 H        5.9020     4.0010     2.5250 H     1 <1>   0.1500 
 40 H       -1.9800     6.0310    -3.2910 H     1 <1>   0.0800 
 41 H       -2.8770     6.2320    -1.7910 H     1 <1>   0.0800 
 42 H       -3.1370     4.7980    -2.8030 H     1 <1>   0.0800 
 43 H        4.6400     3.5740    -3.8700 H     1 <1>   0.0800 
 44 H        3.2790     3.3380    -2.7790 H     1 <1>   0.0800 
 45 H        4.4520     2.0330    -3.0420 H     1 <1>   0.0800 
 46 H        8.0040     6.1010     0.4380 H     1 <1>   0.0800 
 47 H        7.9270     4.6840     1.4790 H     1 <1>   0.0800 
 48 H        6.7420     5.9930     1.6610 H     1 <1>   0.0800 
@<TRIPOS>BOND
  1   1   2  2   
  2   2   3  am  
  3   2   4  1   
  4   3   5  1   
  5   3  26  1   
  6   4   6  ar  
  7   4   7  ar  
  8   5   8  1   
  9   5   9  1   
 10   5  27  1   
 11   6  10  1   
 12   6  11  ar  
 13   7  12  ar  
 14   7  28  1   
 15   8  13  ar  
 16   8  14  ar  
 17   9  29  1   
 18   9  30  1   
 19   9  31  1   
 20  10  15  1   
 21  11  16  1   
 22  11  17  ar  
 23  12  17  ar  
 24  12  32  1   
 25  13  18  ar  
 26  13  33  1   
 27  14  19  ar  
 28  14  34  1   
 29  15  35  1   
 30  15  36  1   
 31  15  37  1   
 32  16  20  1   
 33  17  38  1   
 34  18  21  1   
 35  18  22  ar  
 36  19  22  ar  
 37  19  39  1   
 38  20  40  1   
 39  20  41  1   
 40  20  42  1   
 41  21  23  1   
 42  22  24  1   
 43  23  43  1   
 44  23  44  1   
 45  23  45  1   
 46  24  25  1   
 47  25  46  1   
 48  25  47  1   
 49  25  48  1   
@<TRIPOS>SUBSTRUCTURE
  1 ****  10 GROUP 4 **** **** 0

# MOE 2024.06 (io_trps.svl 2023.06)
