@<TRIPOS>MOLECULE
NONAME
46 47 1 0 0 
SMALL
USER_CHARGES


@<TRIPOS>ATOM
  1 BR      -0.2680    -0.0490    -0.0440 Br    1 <1>  -0.1110 
  2 C       -2.0600    -0.7840    -0.0150 C.ar  1 <1>   0.1110 
  3 C       -2.2330    -2.1490    -0.2260 C.ar  1 <1>  -0.1440 
  4 C       -3.1140     0.0890     0.2160 C.ar  1 <1>  -0.1440 
  5 C       -3.5300    -2.6630    -0.2050 C.ar  1 <1>  -0.1440 
  6 C       -0.9990    -3.0180    -0.4730 C.3   1 <1>  -0.0960 
  7 C       -4.3920    -0.4360     0.2370 C.ar  1 <1>  -0.1500 
  8 C       -2.8940     1.5780     0.4370 C.3   1 <1>  -0.0960 
  9 C       -4.5970    -1.7950     0.0380 C.ar  1 <1>   0.0830 
 10 C       -3.7940    -4.1510    -0.4380 C.3   1 <1>  -0.0960 
 11 O       -5.8620    -2.2670     0.0720 O.3   1 <1>  -0.3630 
 12 C       -6.5130    -2.2340     1.3320 C.3   1 <1>   0.1810 
 13 C       -7.8620    -2.9470     1.2840 C.2   1 <1>   0.5690 
 14 O       -7.9840    -3.9290     1.9820 O.2   1 <1>  -0.5700 
 15 N       -8.9020    -2.4810     0.5090 N.am  1 <1>  -0.6600 
 16 C      -10.2330    -3.1470     0.5280 C.3   1 <1>   0.1400 
 17 C       -8.8080    -1.3300    -0.4340 C.3   1 <1>   0.1400 
 18 C      -11.3160    -2.1240     0.8850 C.3   1 <1>  -0.1600 
 19 C       -9.8770    -0.2920    -0.0870 C.3   1 <1>  -0.1600 
 20 C      -11.2880    -0.9120    -0.0630 C.3   1 <1>  -0.0190 
 21 C      -12.3510     0.1140     0.3270 C.2   1 <1>   0.5690 
 22 O      -12.1890     0.8330     1.2790 O.2   1 <1>  -0.5700 
 23 N      -13.4800     0.2120    -0.3980 N.am  1 <1>  -0.8000 
 24 H       -0.3190    -2.9270     0.3560 H     1 <1>   0.0800 
 25 H       -0.4990    -2.6910    -1.3670 H     1 <1>   0.0800 
 26 H       -1.2300    -4.0580    -0.5880 H     1 <1>   0.0800 
 27 H       -5.2370     0.2050     0.4000 H     1 <1>   0.1500 
 28 H       -2.2680     1.7340     1.2970 H     1 <1>   0.0800 
 29 H       -3.8270     2.0860     0.6000 H     1 <1>   0.0800 
 30 H       -2.4180     2.0110    -0.4250 H     1 <1>   0.0800 
 31 H       -3.4020    -4.4460    -1.3940 H     1 <1>   0.0800 
 32 H       -4.8410    -4.3920    -0.4300 H     1 <1>   0.0800 
 33 H       -3.3200    -4.7310     0.3330 H     1 <1>   0.0800 
 34 H       -6.6570    -1.2110     1.6250 H     1 <1>   0.0800 
 35 H       -5.8770    -2.7230     2.0480 H     1 <1>   0.0800 
 36 H      -10.2500    -3.9490     1.2470 H     1 <1>   0.0800 
 37 H      -10.4270    -3.5700    -0.4420 H     1 <1>   0.0800 
 38 H       -8.9580    -1.6910    -1.4370 H     1 <1>   0.0800 
 39 H       -7.8410    -0.8650    -0.3950 H     1 <1>   0.0800 
 40 H      -11.1610    -1.7950     1.8990 H     1 <1>   0.0800 
 41 H      -12.2800    -2.5990     0.8410 H     1 <1>   0.0800 
 42 H       -9.8460     0.5060    -0.8060 H     1 <1>   0.0800 
 43 H       -9.6490     0.1300     0.8770 H     1 <1>   0.0800 
 44 H      -11.5110    -1.2590    -1.0560 H     1 <1>   0.0800 
 45 H      -14.1840     0.8970    -0.1200 H     1 <1>   0.3700 
 46 H      -13.7000    -0.3660    -1.2070 H     1 <1>   0.3700 
@<TRIPOS>BOND
  1   1   2  1   
  2   2   3  ar  
  3   2   4  ar  
  4   3   5  ar  
  5   3   6  1   
  6   4   7  ar  
  7   4   8  1   
  8   5   9  ar  
  9   5  10  1   
 10   6  24  1   
 11   6  25  1   
 12   6  26  1   
 13   7   9  ar  
 14   7  27  1   
 15   8  28  1   
 16   8  29  1   
 17   8  30  1   
 18   9  11  1   
 19  10  31  1   
 20  10  32  1   
 21  10  33  1   
 22  11  12  1   
 23  12  13  1   
 24  12  34  1   
 25  12  35  1   
 26  13  14  2   
 27  13  15  am  
 28  15  16  1   
 29  15  17  1   
 30  16  18  1   
 31  16  36  1   
 32  16  37  1   
 33  17  19  1   
 34  17  38  1   
 35  17  39  1   
 36  18  20  1   
 37  18  40  1   
 38  18  41  1   
 39  19  20  1   
 40  19  42  1   
 41  19  43  1   
 42  20  21  1   
 43  20  44  1   
 44  21  22  2   
 45  21  23  am  
 46  23  45  1   
 47  23  46  1   
@<TRIPOS>SUBSTRUCTURE
  1 ****  11 GROUP 4 **** **** 0

# MOE 2024.06 (io_trps.svl 2023.06)
