@<TRIPOS>MOLECULE
NONAME
54 57 1 0 0 
SMALL
USER_CHARGES


@<TRIPOS>ATOM
  1 S        0.1770     0.1420    -1.8460 S.3   1 <1>  -0.4600 
  2 C        0.0950    -1.6720    -1.7750 C.3   1 <1>   0.4750 
  3 C        1.6820     0.4730    -2.8080 C.3   1 <1>   0.1310 
  4 C       -1.0440    -2.0110    -0.8180 C.ar  1 <1>  -0.1440 
  5 C        1.4220    -2.3310    -1.3810 C.2   1 <1>  -0.1810 
  6 C        2.8680     0.5300    -1.8670 C.2   1 <1>   0.5690 
  7 C       -2.2770    -2.4160    -1.3100 C.ar  1 <1>  -0.1500 
  8 C       -0.8630    -1.9300     0.5560 C.ar  1 <1>  -0.1500 
  9 C        2.6690    -1.8570    -1.0990 C.2   1 <1>  -0.0880 
 10 C        1.5350    -3.7140    -1.2310 C.2   1 <1>   0.1080 
 11 O        3.5450     1.5270    -1.8160 O.2   1 <1>  -0.5700 
 12 N        3.1890    -0.5400    -1.0980 N.am  1 <1>  -0.4940 
 13 C       -3.3060    -2.7430    -0.4440 C.ar  1 <1>  -0.1500 
 14 C       -1.8920    -2.2570     1.4210 C.ar  1 <1>  -0.1500 
 15 N        3.4330    -2.9430    -0.7940 N.pl3 1 <1>   0.3140 
 16 N        2.7220    -4.0850    -0.8860 N.2   1 <1>  -0.7070 
 17 C        0.4390    -4.7430    -1.4250 C.3   1 <1>  -0.0590 
 18 C       -3.1190    -2.6670     0.9260 C.ar  1 <1>  -0.1430 
 19 C        4.8750    -2.9520    -0.4160 C.3   1 <1>   0.1760 
 20 C       -4.2430    -3.0260     1.8800 C.3   1 <1>  -0.0970 
 21 C        5.6820    -3.9290    -1.2810 C.3   1 <1>  -0.1600 
 22 C        5.0560    -3.2910     1.0760 C.3   1 <1>  -0.1600 
 23 C        7.1780    -3.8570    -0.9100 C.3   1 <1>   0.2800 
 24 C        6.4140    -3.9500     1.3480 C.3   1 <1>   0.1200 
 25 O        7.3470    -3.4750     0.4250 O.3   1 <1>  -0.5600 
 26 C        7.8880    -2.7760    -1.7270 C.3   1 <1>  -0.2400 
 27 C        7.8810    -5.2010    -1.1140 C.3   1 <1>  -0.2400 
 28 H       -0.1610    -1.9850    -2.7700 H     1 <1>   0.0800 
 29 H        1.5450     1.4220    -3.2920 H     1 <1>   0.0800 
 30 H        1.7970    -0.3070    -3.5360 H     1 <1>   0.0800 
 31 H       -2.4470    -2.4780    -2.3700 H     1 <1>   0.1500 
 32 H        0.0850    -1.6110     0.9550 H     1 <1>   0.1500 
 33 H        3.9770    -0.3390    -0.4810 H     1 <1>   0.3700 
 34 H       -4.2550    -3.0570    -0.8410 H     1 <1>   0.1500 
 35 H       -1.7320    -2.1910     2.4820 H     1 <1>   0.1500 
 36 H       -0.1360    -4.5240    -2.3050 H     1 <1>   0.0800 
 37 H       -0.2090    -4.7470    -0.5670 H     1 <1>   0.0800 
 38 H        0.8720    -5.7210    -1.5320 H     1 <1>   0.0800 
 39 H        5.2750    -1.9700    -0.5860 H     1 <1>   0.0800 
 40 H       -4.2210    -2.3830     2.7410 H     1 <1>   0.0800 
 41 H       -4.1330    -4.0450     2.2030 H     1 <1>   0.0800 
 42 H       -5.1980    -2.9140     1.3990 H     1 <1>   0.0800 
 43 H        5.5470    -3.7090    -2.3240 H     1 <1>   0.0800 
 44 H        5.3170    -4.9280    -1.1150 H     1 <1>   0.0800 
 45 H        4.2870    -3.9690     1.4040 H     1 <1>   0.0800 
 46 H        4.9750    -2.3920     1.6580 H     1 <1>   0.0800 
 47 H        6.3530    -5.0210     1.2560 H     1 <1>   0.0800 
 48 H        6.7660    -3.7070     2.3360 H     1 <1>   0.0800 
 49 H        7.4310    -1.8180    -1.5660 H     1 <1>   0.0800 
 50 H        7.8400    -3.0070    -2.7750 H     1 <1>   0.0800 
 51 H        8.9230    -2.7180    -1.4410 H     1 <1>   0.0800 
 52 H        7.4110    -5.9740    -0.5360 H     1 <1>   0.0800 
 53 H        8.9130    -5.1260    -0.8230 H     1 <1>   0.0800 
 54 H        7.8390    -5.4840    -2.1500 H     1 <1>   0.0800 
@<TRIPOS>BOND
  1   1   2  1   
  2   1   3  1   
  3   2   4  1   
  4   2   5  1   
  5   2  28  1   
  6   3   6  1   
  7   3  29  1   
  8   3  30  1   
  9   4   7  ar  
 10   4   8  ar  
 11   5   9  2   
 12   5  10  1   
 13   6  11  2   
 14   6  12  am  
 15   7  13  ar  
 16   7  31  1   
 17   8  14  ar  
 18   8  32  1   
 19   9  12  1   
 20   9  15  1   
 21  10  16  2   
 22  10  17  1   
 23  12  33  1   
 24  13  18  ar  
 25  13  34  1   
 26  14  18  ar  
 27  14  35  1   
 28  15  16  1   
 29  15  19  1   
 30  17  36  1   
 31  17  37  1   
 32  17  38  1   
 33  18  20  1   
 34  19  21  1   
 35  19  22  1   
 36  19  39  1   
 37  20  40  1   
 38  20  41  1   
 39  20  42  1   
 40  21  23  1   
 41  21  43  1   
 42  21  44  1   
 43  22  24  1   
 44  22  45  1   
 45  22  46  1   
 46  23  25  1   
 47  23  26  1   
 48  23  27  1   
 49  24  25  1   
 50  24  47  1   
 51  24  48  1   
 52  26  49  1   
 53  26  50  1   
 54  26  51  1   
 55  27  52  1   
 56  27  53  1   
 57  27  54  1   
@<TRIPOS>SUBSTRUCTURE
  1 ****   9 GROUP 4 **** **** 0

# MOE 2024.06 (io_trps.svl 2023.06)
