@<TRIPOS>MOLECULE
NONAME
38 38 1 0 0 
SMALL
USER_CHARGES


@<TRIPOS>ATOM
  1 O        0.0440    -0.3460    -2.0300 O.2   1 <1>  -0.5700 
  2 C       -0.2420    -1.3340    -1.4010 C.2   1 <1>   0.5690 
  3 N        0.7360    -2.0590    -0.8260 N.am  1 <1>  -0.7300 
  4 C       -1.6950    -1.7720    -1.2780 C.3   1 <1>   0.1810 
  5 C        1.7100    -2.9380    -0.1520 C.3   1 <1>   0.1400 
  6 O       -2.0700    -1.9260     0.0810 O.3   1 <1>  -0.3620 
  7 C        0.9960    -4.1600     0.4500 C.3   1 <1>  -0.0800 
  8 C       -3.2920    -2.4560     0.2860 C.ar  1 <1>   0.0820 
  9 C        1.9650    -4.9590     1.3300 C.3   1 <1>  -0.2400 
 10 C        0.4150    -5.0790    -0.6350 C.3   1 <1>  -0.2400 
 11 C       -4.4160    -1.6430     0.4220 C.ar  1 <1>  -0.1440 
 12 C       -3.3950    -3.8350     0.3590 C.ar  1 <1>  -0.1500 
 13 C       -5.6610    -2.2430     0.6000 C.ar  1 <1>  -0.1440 
 14 C       -4.2800    -0.1210     0.3770 C.3   1 <1>  -0.0970 
 15 C       -4.6310    -4.4220     0.5460 C.ar  1 <1>  -0.1500 
 16 C       -5.7570    -3.6260     0.6610 C.ar  1 <1>  -0.1500 
 17 C       -6.9360    -1.4210     0.7340 C.3   1 <1>  -0.0970 
 18 H        1.4640    -1.4070    -1.1360 H     1 <1>   0.3700 
 19 H       -1.8290    -2.7120    -1.7770 H     1 <1>   0.0800 
 20 H       -2.3370    -1.0340    -1.7210 H     1 <1>   0.0800 
 21 H        2.1930    -2.3800     0.6330 H     1 <1>   0.0800 
 22 H        2.4570    -3.2590    -0.8570 H     1 <1>   0.0800 
 23 H        0.1930    -3.8050     1.0750 H     1 <1>   0.0800 
 24 H        2.7900    -5.3320     0.7490 H     1 <1>   0.0800 
 25 H        1.4570    -5.7940     1.7800 H     1 <1>   0.0800 
 26 H        2.3520    -4.3390     2.1200 H     1 <1>   0.0800 
 27 H        1.1940    -5.4440    -1.2800 H     1 <1>   0.0800 
 28 H       -0.3030    -4.5480    -1.2340 H     1 <1>   0.0800 
 29 H       -0.0830    -5.9190    -0.1850 H     1 <1>   0.0800 
 30 H       -2.5110    -4.4380     0.2720 H     1 <1>   0.1500 
 31 H       -3.2660     0.1890     0.5490 H     1 <1>   0.0800 
 32 H       -4.8840     0.3340     1.1400 H     1 <1>   0.0800 
 33 H       -4.5930     0.2440    -0.5840 H     1 <1>   0.0800 
 34 H       -4.7180    -5.4930     0.6020 H     1 <1>   0.1500 
 35 H       -6.7140    -4.0970     0.8030 H     1 <1>   0.1500 
 36 H       -7.0050    -0.7090    -0.0680 H     1 <1>   0.0800 
 37 H       -6.9360    -0.8970     1.6720 H     1 <1>   0.0800 
 38 H       -7.8060    -2.0510     0.6970 H     1 <1>   0.0800 
@<TRIPOS>BOND
  1   1   2  2   
  2   2   3  am  
  3   2   4  1   
  4   3   5  1   
  5   3  18  1   
  6   4   6  1   
  7   4  19  1   
  8   4  20  1   
  9   5   7  1   
 10   5  21  1   
 11   5  22  1   
 12   6   8  1   
 13   7   9  1   
 14   7  10  1   
 15   7  23  1   
 16   8  11  ar  
 17   8  12  ar  
 18   9  24  1   
 19   9  25  1   
 20   9  26  1   
 21  10  27  1   
 22  10  28  1   
 23  10  29  1   
 24  11  13  ar  
 25  11  14  1   
 26  12  15  ar  
 27  12  30  1   
 28  13  16  ar  
 29  13  17  1   
 30  14  31  1   
 31  14  32  1   
 32  14  33  1   
 33  15  16  ar  
 34  15  34  1   
 35  16  35  1   
 36  17  36  1   
 37  17  37  1   
 38  17  38  1   
@<TRIPOS>SUBSTRUCTURE
  1 ****   6 GROUP 4 **** **** 0

# MOE 2024.06 (io_trps.svl 2023.06)
