@<TRIPOS>MOLECULE
NONAME
29 30 1 0 0 
SMALL
USER_CHARGES


@<TRIPOS>ATOM
  1 O        1.1430     1.2870    -2.2450 O.2   1 <1>  -0.5700 
  2 C        1.5670     1.6510    -1.1780 C.2   1 <1>   0.5690 
  3 N        2.3320     0.8760    -0.3890 N.am  1 <1>  -0.4900 
  4 C        1.3880     3.0470    -0.5530 C.3   1 <1>   0.2050 
  5 C        2.7710     1.5210     0.7020 C.2   1 <1>   0.5690 
  6 C       -0.0650     3.4180    -0.1910 C.ar  1 <1>  -0.1440 
  7 C        2.2380     2.9300     0.7420 C.3   1 <1>  -0.0990 
  8 C        1.9700     4.1180    -1.4970 C.3   1 <1>  -0.2400 
  9 O        3.4990     1.0470     1.5300 O.2   1 <1>  -0.5700 
 10 C       -1.1560     2.6400    -0.5690 C.ar  1 <1>  -0.1500 
 11 C       -0.3110     4.5760     0.5400 C.ar  1 <1>  -0.1500 
 12 C       -2.4460     3.0020    -0.2240 C.ar  1 <1>  -0.1500 
 13 C       -1.5990     4.9410     0.8870 C.ar  1 <1>  -0.1500 
 14 C       -2.6760     4.1590     0.5110 C.ar  1 <1>   0.0820 
 15 O       -3.9070     4.5850     0.8910 O.3   1 <1>  -0.3630 
 16 C       -5.0700     3.8730     0.5330 C.3   1 <1>   0.0400 
 17 H        2.5920    -0.0780    -0.6200 H     1 <1>   0.3700 
 18 H        1.6470     3.0460     1.6310 H     1 <1>   0.0800 
 19 H        3.0570     3.6260     0.7610 H     1 <1>   0.0800 
 20 H        2.9780     3.8690    -1.7790 H     1 <1>   0.0800 
 21 H        1.3740     4.1700    -2.3920 H     1 <1>   0.0800 
 22 H        1.9710     5.0870    -1.0340 H     1 <1>   0.0800 
 23 H       -1.0310     1.7390    -1.1440 H     1 <1>   0.1500 
 24 H        0.5000     5.2110     0.8490 H     1 <1>   0.1500 
 25 H       -3.2570     2.3720    -0.5370 H     1 <1>   0.1500 
 26 H       -1.7790     5.8370     1.4530 H     1 <1>   0.1500 
 27 H       -5.9180     4.3980     0.9340 H     1 <1>   0.0800 
 28 H       -5.0180     2.8850     0.9550 H     1 <1>   0.0800 
 29 H       -5.1390     3.8330    -0.5390 H     1 <1>   0.0800 
@<TRIPOS>BOND
  1   1   2  2   
  2   2   3  am  
  3   2   4  1   
  4   3   5  am  
  5   3  17  1   
  6   4   6  1   
  7   4   7  1   
  8   4   8  1   
  9   5   7  1   
 10   5   9  2   
 11   6  10  ar  
 12   6  11  ar  
 13   7  18  1   
 14   7  19  1   
 15   8  20  1   
 16   8  21  1   
 17   8  22  1   
 18  10  12  ar  
 19  10  23  1   
 20  11  13  ar  
 21  11  24  1   
 22  12  14  ar  
 23  12  25  1   
 24  13  14  ar  
 25  13  26  1   
 26  14  15  1   
 27  15  16  1   
 28  16  27  1   
 29  16  28  1   
 30  16  29  1   
@<TRIPOS>SUBSTRUCTURE
  1 ****   6 GROUP 4 **** **** 0

# MOE 2024.06 (io_trps.svl 2023.06)
