@<TRIPOS>MOLECULE
NONAME
43 45 1 0 0 
SMALL
USER_CHARGES


@<TRIPOS>ATOM
  1 S        0.5490     0.1760    -0.2010 S.o2  1 <1>   1.3330 
  2 O        0.1010    -0.1760    -1.5290 O.2   1 <1>  -0.6500 
  3 O        1.9570     0.3760     0.0510 O.2   1 <1>  -0.6500 
  4 N       -0.2650     1.6620     0.2160 N.am  1 <1>  -0.5140 
  5 C       -0.1100    -0.9600     1.0260 C.3   1 <1>  -0.0550 
  6 N       -1.5890     1.7620     0.5560 N.2   1 <1>  -0.4300 
  7 C        0.2070     2.8490    -0.5090 C.3   1 <1>   0.4560 
  8 C        0.5390    -2.3570     1.0560 C.3   1 <1>  -0.1600 
  9 C       -2.0650     2.8840     0.1800 C.2   1 <1>   0.3030 
 10 C        1.3570     3.5550     0.2020 C.2   1 <1>  -0.0400 
 11 C       -1.0380     3.7280    -0.5430 C.3   1 <1>  -0.0990 
 12 C        0.1810    -3.2010    -0.1730 C.3   1 <1>  -0.2400 
 13 C       -3.4190     3.3520     0.3740 C.ar  1 <1>   0.0860 
 14 O        1.8470     4.6580    -0.3380 O.3   1 <1>  -0.2800 
 15 C        2.0170     3.2650     1.3460 C.2   1 <1>  -0.1500 
 16 C       -3.8550     4.6120    -0.0500 C.ar  1 <1>  -0.1500 
 17 C       -4.3660     2.5430     1.0070 C.ar  1 <1>  -0.1500 
 18 C        2.8200     5.0880     0.4400 C.2   1 <1>  -0.0100 
 19 C        2.9780     4.2710     1.5020 C.2   1 <1>  -0.1500 
 20 C       -5.1570     5.0350     0.1470 C.ar  1 <1>  -0.1500 
 21 C       -5.6680     2.9610     1.2070 C.ar  1 <1>  -0.1500 
 22 C       -6.0730     4.2130     0.7790 C.ar  1 <1>  -0.1440 
 23 C       -7.5030     4.6740     0.9950 C.3   1 <1>  -0.0970 
 24 H       -1.1670    -1.0640     0.8740 H     1 <1>   0.0800 
 25 H        0.0260    -0.5140     1.9920 H     1 <1>   0.0800 
 26 H        0.5020     2.5730    -1.5070 H     1 <1>   0.0800 
 27 H        0.2000    -2.8740     1.9370 H     1 <1>   0.0800 
 28 H        1.6090    -2.2550     1.1260 H     1 <1>   0.0800 
 29 H       -1.3330     3.9150    -1.5580 H     1 <1>   0.0800 
 30 H       -0.8750     4.6570    -0.0280 H     1 <1>   0.0800 
 31 H       -0.8860    -3.2920    -0.2740 H     1 <1>   0.0800 
 32 H        0.6000    -4.1870    -0.0740 H     1 <1>   0.0800 
 33 H        0.5760    -2.7590    -1.0710 H     1 <1>   0.0800 
 34 H        1.8640     2.4360     2.0160 H     1 <1>   0.1500 
 35 H       -3.1760     5.2830    -0.5430 H     1 <1>   0.1500 
 36 H       -4.0750     1.5650     1.3500 H     1 <1>   0.1500 
 37 H        3.3500     5.9820     0.1630 H     1 <1>   0.1500 
 38 H        3.6810     4.3430     2.3120 H     1 <1>   0.1500 
 39 H       -5.4580     6.0110    -0.1930 H     1 <1>   0.1500 
 40 H       -6.3670     2.3060     1.6970 H     1 <1>   0.1500 
 41 H       -7.5440     5.7440     1.0910 H     1 <1>   0.0800 
 42 H       -7.9060     4.2380     1.8920 H     1 <1>   0.0800 
 43 H       -8.1120     4.3750     0.1610 H     1 <1>   0.0800 
@<TRIPOS>BOND
  1   1   2  2   
  2   1   3  2   
  3   1   4  am  
  4   1   5  1   
  5   4   6  1   
  6   4   7  1   
  7   5   8  1   
  8   5  24  1   
  9   5  25  1   
 10   6   9  2   
 11   7  10  1   
 12   7  11  1   
 13   7  26  1   
 14   8  12  1   
 15   8  27  1   
 16   8  28  1   
 17   9  11  1   
 18   9  13  1   
 19  10  14  1   
 20  10  15  2   
 21  11  29  1   
 22  11  30  1   
 23  12  31  1   
 24  12  32  1   
 25  12  33  1   
 26  13  16  ar  
 27  13  17  ar  
 28  14  18  1   
 29  15  19  1   
 30  15  34  1   
 31  16  20  ar  
 32  16  35  1   
 33  17  21  ar  
 34  17  36  1   
 35  18  19  2   
 36  18  37  1   
 37  19  38  1   
 38  20  22  ar  
 39  20  39  1   
 40  21  22  ar  
 41  21  40  1   
 42  22  23  1   
 43  23  41  1   
 44  23  42  1   
 45  23  43  1   
@<TRIPOS>SUBSTRUCTURE
  1 ****   6 GROUP 4 **** **** 0

# MOE 2024.06 (io_trps.svl 2023.06)
