@<TRIPOS>MOLECULE
NONAME
32 33 1 0 0 
SMALL
USER_CHARGES


@<TRIPOS>ATOM
  1 O        0.2040     0.1610    -0.2000 O.2   1 <1>  -0.5700 
  2 C        0.0590     1.3490     0.0180 C.2   1 <1>   0.6900 
  3 N        1.1560     2.1450     0.2350 N.am  1 <1>  -0.6600 
  4 N       -1.1840     1.9170     0.0250 N.am  1 <1>  -0.5470 
  5 C        1.1320     3.5040     0.8560 C.3   1 <1>   0.1400 
  6 C        2.5390     1.6070     0.0670 C.3   1 <1>   0.1400 
  7 C       -2.4650     1.3500    -0.0280 C.ar  1 <1>   0.1170 
  8 C        2.1240     4.4410     0.1470 C.3   1 <1>   0.1200 
  9 C        3.4570     2.6540    -0.5860 C.3   1 <1>   0.1200 
 10 C       -3.5230     2.1250    -0.4880 C.ar  1 <1>  -0.1500 
 11 C       -2.7330     0.0480     0.3800 C.ar  1 <1>  -0.1500 
 12 O        3.4000     3.8700     0.1070 O.3   1 <1>  -0.5600 
 13 C       -4.8090     1.6170    -0.5410 C.ar  1 <1>  -0.1500 
 14 C       -4.0170    -0.4640     0.3260 C.ar  1 <1>  -0.1500 
 15 C       -5.0640     0.3180    -0.1330 C.ar  1 <1>  -0.1440 
 16 C       -6.4720    -0.2450    -0.1940 C.3   1 <1>  -0.0970 
 17 H       -1.1540     2.9240    -0.0520 H     1 <1>   0.3700 
 18 H        1.4140     3.4180     1.8920 H     1 <1>   0.0800 
 19 H        0.1490     3.9340     0.8170 H     1 <1>   0.0800 
 20 H        2.5270     0.7220    -0.5460 H     1 <1>   0.0800 
 21 H        2.9340     1.3380     1.0300 H     1 <1>   0.0800 
 22 H        2.2000     5.3730     0.6790 H     1 <1>   0.0800 
 23 H        1.8050     4.6420    -0.8610 H     1 <1>   0.0800 
 24 H        3.1660     2.8250    -1.6080 H     1 <1>   0.0800 
 25 H        4.4770     2.3130    -0.5710 H     1 <1>   0.0800 
 26 H       -3.3440     3.1330    -0.8110 H     1 <1>   0.1500 
 27 H       -1.9360    -0.5730     0.7440 H     1 <1>   0.1500 
 28 H       -5.6110     2.2350    -0.9040 H     1 <1>   0.1500 
 29 H       -4.1960    -1.4760     0.6440 H     1 <1>   0.1500 
 30 H       -7.1970     0.5400    -0.0790 H     1 <1>   0.0800 
 31 H       -6.6220    -0.9630     0.5920 H     1 <1>   0.0800 
 32 H       -6.6280    -0.7290    -1.1410 H     1 <1>   0.0800 
@<TRIPOS>BOND
  1   1   2  2   
  2   2   3  am  
  3   2   4  am  
  4   3   5  1   
  5   3   6  1   
  6   4   7  1   
  7   4  17  1   
  8   5   8  1   
  9   5  18  1   
 10   5  19  1   
 11   6   9  1   
 12   6  20  1   
 13   6  21  1   
 14   7  10  ar  
 15   7  11  ar  
 16   8  12  1   
 17   8  22  1   
 18   8  23  1   
 19   9  12  1   
 20   9  24  1   
 21   9  25  1   
 22  10  13  ar  
 23  10  26  1   
 24  11  14  ar  
 25  11  27  1   
 26  13  15  ar  
 27  13  28  1   
 28  14  15  ar  
 29  14  29  1   
 30  15  16  1   
 31  16  30  1   
 32  16  31  1   
 33  16  32  1   
@<TRIPOS>SUBSTRUCTURE
  1 ****   4 GROUP 4 **** **** 0

# MOE 2024.06 (io_trps.svl 2023.06)
