@<TRIPOS>MOLECULE
NONAME
50 52 1 0 0 
SMALL
USER_CHARGES


@<TRIPOS>ATOM
  1 O       -0.1080    -0.3240     1.3950 O.2   1 <1>  -0.5700 
  2 C       -0.1860    -0.9880     0.3800 C.2   1 <1>   0.6900 
  3 N        0.9070    -1.4860    -0.2610 N.am  1 <1>  -0.5470 
  4 N       -1.4060    -1.2550    -0.1490 N.am  1 <1>  -0.7300 
  5 C        2.2790    -1.2910    -0.0340 C.ar  1 <1>   0.1170 
  6 C       -2.6590    -0.8190     0.4810 C.3   1 <1>   0.2200 
  7 C        3.1910    -2.2760    -0.4230 C.ar  1 <1>  -0.1440 
  8 C        2.7650    -0.1250     0.5500 C.ar  1 <1>  -0.1500 
  9 C       -3.7870    -1.7810     0.1190 C.3   1 <1>  -0.1600 
 10 C       -2.9890     0.6000     0.0250 C.3   1 <1>  -0.1600 
 11 C        4.5490    -2.0800    -0.2210 C.ar  1 <1>  -0.1500 
 12 C        2.7270    -3.5790    -1.0640 C.3   1 <1>  -0.0970 
 13 C        4.1190     0.0630     0.7500 C.ar  1 <1>  -0.1500 
 14 C       -5.1030    -1.2990     0.7250 C.3   1 <1>   0.3430 
 15 C       -4.3070     1.0580     0.6400 C.3   1 <1>   0.3430 
 16 C        5.0140    -0.9160     0.3630 C.ar  1 <1>  -0.1500 
 17 N       -5.3910     0.1000     0.2790 N.4   1 <1>  -0.9590 
 18 C       -6.7130     0.5670     0.7820 C.3   1 <1>   0.4860 
 19 C       -7.7930    -0.2990     0.1660 C.ar  1 <1>  -0.1440 
 20 C       -8.4420    -1.2580     0.9320 C.ar  1 <1>  -0.1500 
 21 C       -8.1370    -0.1460    -1.1700 C.ar  1 <1>  -0.1500 
 22 C       -9.4130    -2.0630     0.3640 C.ar  1 <1>  -0.1500 
 23 C       -9.1070    -0.9530    -1.7360 C.ar  1 <1>  -0.1500 
 24 C       -9.7440    -1.9130    -0.9700 C.ar  1 <1>  -0.1500 
 25 H        0.7030    -2.2220    -0.9250 H     1 <1>   0.3700 
 26 H       -1.4590    -1.6190    -1.0970 H     1 <1>   0.3700 
 27 H       -2.5270    -0.8230     1.5530 H     1 <1>   0.0800 
 28 H        2.0820     0.6480     0.8520 H     1 <1>   0.1500 
 29 H       -3.5620    -2.7570     0.5110 H     1 <1>   0.0800 
 30 H       -3.8930    -1.8600    -0.9480 H     1 <1>   0.0800 
 31 H       -3.0490     0.6520    -1.0480 H     1 <1>   0.0800 
 32 H       -2.2080     1.2660     0.3500 H     1 <1>   0.0800 
 33 H        5.2580    -2.8330    -0.5160 H     1 <1>   0.1500 
 34 H        2.0150    -4.0710    -0.4270 H     1 <1>   0.0800 
 35 H        3.5550    -4.2480    -1.2160 H     1 <1>   0.0800 
 36 H        2.2760    -3.3800    -2.0200 H     1 <1>   0.0800 
 37 H        4.4740     0.9710     1.2060 H     1 <1>   0.1500 
 38 H       -5.0370    -1.3330     1.8010 H     1 <1>   0.0800 
 39 H       -5.9000    -1.9590     0.4160 H     1 <1>   0.0800 
 40 H       -4.5460     2.0460     0.2790 H     1 <1>   0.0800 
 41 H       -4.2010     1.1060     1.7130 H     1 <1>   0.0800 
 42 H        6.0700    -0.7730     0.5170 H     1 <1>   0.1500 
 43 H       -5.4770     0.0710    -0.7450 H     1 <1>   0.4500 
 44 H       -6.8790     1.5940     0.4970 H     1 <1>   0.0800 
 45 H       -6.7530     0.5000     1.8570 H     1 <1>   0.0800 
 46 H       -8.2070    -1.3900     1.9750 H     1 <1>   0.1500 
 47 H       -7.6640     0.6000    -1.7870 H     1 <1>   0.1500 
 48 H       -9.9170    -2.8070     0.9580 H     1 <1>   0.1500 
 49 H       -9.3750    -0.8360    -2.7730 H     1 <1>   0.1500 
 50 H      -10.5010    -2.5390    -1.4120 H     1 <1>   0.1500 
@<TRIPOS>BOND
  1   1   2  2   
  2   2   3  am  
  3   2   4  am  
  4   3   5  1   
  5   3  25  1   
  6   4   6  1   
  7   4  26  1   
  8   5   7  ar  
  9   5   8  ar  
 10   6   9  1   
 11   6  10  1   
 12   6  27  1   
 13   7  11  ar  
 14   7  12  1   
 15   8  13  ar  
 16   8  28  1   
 17   9  14  1   
 18   9  29  1   
 19   9  30  1   
 20  10  15  1   
 21  10  31  1   
 22  10  32  1   
 23  11  16  ar  
 24  11  33  1   
 25  12  34  1   
 26  12  35  1   
 27  12  36  1   
 28  13  16  ar  
 29  13  37  1   
 30  14  17  1   
 31  14  38  1   
 32  14  39  1   
 33  15  17  1   
 34  15  40  1   
 35  15  41  1   
 36  16  42  1   
 37  17  18  1   
 38  17  43  1   
 39  18  19  1   
 40  18  44  1   
 41  18  45  1   
 42  19  20  ar  
 43  19  21  ar  
 44  20  22  ar  
 45  20  46  1   
 46  21  23  ar  
 47  21  47  1   
 48  22  24  ar  
 49  22  48  1   
 50  23  24  ar  
 51  23  49  1   
 52  24  50  1   
@<TRIPOS>SUBSTRUCTURE
  1 ****   6 GROUP 4 **** **** 0

# MOE 2024.06 (io_trps.svl 2023.06)
