@<TRIPOS>MOLECULE
NONAME
51 53 1 0 0 
SMALL
USER_CHARGES


@<TRIPOS>ATOM
  1 O       -5.1040     6.1450     0.4210 O.3   1 <1>  -0.3680 
  2 C       -4.8680     7.4620     0.1970 C.ar  1 <1>   0.0750 
  3 C       -5.4460     5.2730    -0.6360 C.3   1 <1>   0.1130 
  4 C       -4.8780     8.0480    -1.0670 C.ar  1 <1>  -0.1570 
  5 C       -4.6030     8.2470     1.3080 C.ar  1 <1>  -0.1570 
  6 C       -5.6720     3.8700    -0.0600 C.3   1 <1>   0.1930 
  7 C       -4.6270     9.4020    -1.2050 C.ar  1 <1>  -0.1570 
  8 C       -4.3520     9.6010     1.1680 C.ar  1 <1>  -0.1570 
  9 O       -4.5810     3.5560     0.7500 O.3   1 <1>  -0.6840 
 10 C       -5.8490     2.8100    -1.1690 C.3   1 <1>   0.3480 
 11 C       -4.3640    10.1780    -0.0890 C.ar  1 <1>  -0.1570 
 12 N       -6.2800     1.4720    -0.6600 N.pl3 1 <1>  -0.7670 
 13 C       -5.5560     0.5790     0.0170 C.cat 1 <1>   1.0690 
 14 C       -7.4810     0.8530    -0.9900 C.ar  1 <1>   0.3030 
 15 N       -4.3620     0.8130     0.4990 N.pl3 1 <1>  -0.8390 
 16 N       -6.1980    -0.5790     0.1400 N.pl3 1 <1>  -0.7670 
 17 C       -7.4250    -0.4380    -0.4920 C.ar  1 <1>   0.3030 
 18 C       -8.6090     1.2960    -1.6750 C.ar  1 <1>  -0.1160 
 19 C       -5.7520    -1.8140     0.8180 C.3   1 <1>   0.3480 
 20 C       -8.4860    -1.3190    -0.6750 C.ar  1 <1>  -0.1160 
 21 C       -9.6650     0.4230    -1.8550 C.ar  1 <1>  -0.1570 
 22 C       -5.0860    -2.7410    -0.2000 C.3   1 <1>  -0.1670 
 23 C       -9.6030    -0.8790    -1.3580 C.ar  1 <1>  -0.1570 
 24 C       -4.5970    -4.0360     0.4600 C.3   1 <1>  -0.1670 
 25 C       -3.9340    -4.9550    -0.5690 C.3   1 <1>  -0.2460 
 26 H       -4.6370     5.2690    -1.3460 H     1 <1>   0.0720 
 27 H       -6.3430     5.6420    -1.1040 H     1 <1>   0.0720 
 28 H       -5.0770     7.4760    -1.9530 H     1 <1>   0.1430 
 29 H       -4.5960     7.7960     2.2840 H     1 <1>   0.1430 
 30 H       -6.5530     3.8910     0.5590 H     1 <1>   0.0720 
 31 H       -4.6350     9.8560    -2.1810 H     1 <1>   0.1430 
 32 H       -4.1480    10.2040     2.0360 H     1 <1>   0.1430 
 33 H       -4.3560     4.3720     1.2610 H     1 <1>   0.3950 
 34 H       -4.9230     2.7060    -1.7100 H     1 <1>   0.0720 
 35 H       -6.5830     3.1690    -1.8680 H     1 <1>   0.0720 
 36 H       -4.1690    11.2310    -0.1990 H     1 <1>   0.1430 
 37 H       -3.8120     0.1330     1.0090 H     1 <1>   0.4450 
 38 H       -4.0560     1.7920     0.5730 H     1 <1>   0.4450 
 39 H       -8.6630     2.2980    -2.0590 H     1 <1>   0.1430 
 40 H       -6.5990    -2.3070     1.2660 H     1 <1>   0.0720 
 41 H       -5.0590    -1.5740     1.6060 H     1 <1>   0.0720 
 42 H       -8.4360    -2.3220    -0.2920 H     1 <1>   0.1430 
 43 H      -10.5490     0.7430    -2.3830 H     1 <1>   0.1430 
 44 H       -4.2480    -2.2370    -0.6500 H     1 <1>   0.0720 
 45 H       -5.7930    -2.9870    -0.9730 H     1 <1>   0.0720 
 46 H      -10.4390    -1.5430    -1.5120 H     1 <1>   0.1430 
 47 H       -5.4260    -4.5570     0.9080 H     1 <1>   0.0720 
 48 H       -3.8840    -3.8110     1.2360 H     1 <1>   0.0720 
 49 H       -4.6300    -5.2210    -1.3450 H     1 <1>   0.0720 
 50 H       -3.5980    -5.8590    -0.0920 H     1 <1>   0.0720 
 51 H       -3.0830    -4.4720    -1.0180 H     1 <1>   0.0720 
@<TRIPOS>BOND
  1   1   2  1   
  2   1   3  1   
  3   2   4  ar  
  4   2   5  ar  
  5   3   6  1   
  6   3  26  1   
  7   3  27  1   
  8   4   7  ar  
  9   4  28  1   
 10   5   8  ar  
 11   5  29  1   
 12   6   9  1   
 13   6  10  1   
 14   6  30  1   
 15   7  11  ar  
 16   7  31  1   
 17   8  11  ar  
 18   8  32  1   
 19   9  33  1   
 20  10  12  1   
 21  10  34  1   
 22  10  35  1   
 23  11  36  1   
 24  12  13  ar  
 25  12  14  1   
 26  13  15  ar  
 27  13  16  ar  
 28  14  17  ar  
 29  14  18  ar  
 30  15  37  1   
 31  15  38  1   
 32  16  17  1   
 33  16  19  1   
 34  17  20  ar  
 35  18  21  ar  
 36  18  39  1   
 37  19  22  1   
 38  19  40  1   
 39  19  41  1   
 40  20  23  ar  
 41  20  42  1   
 42  21  23  ar  
 43  21  43  1   
 44  22  24  1   
 45  22  44  1   
 46  22  45  1   
 47  23  46  1   
 48  24  25  1   
 49  24  47  1   
 50  24  48  1   
 51  25  49  1   
 52  25  50  1   
 53  25  51  1   
@<TRIPOS>SUBSTRUCTURE
  1 ****  10 GROUP 4 **** **** 0

# MOE 2024.06 (io_trps.svl 2023.06)
