@<TRIPOS>MOLECULE
NONAME
46 47 1 0 0 
SMALL
USER_CHARGES


@<TRIPOS>ATOM
  1 S        0.4090     1.2530     1.2480 S.o2  1 <1>   1.3330 
  2 O        1.1540     0.1350     0.7270 O.2   1 <1>  -0.6500 
  3 O        0.9930     2.1140     2.2490 O.2   1 <1>  -0.6500 
  4 N       -0.0040     2.2800    -0.0770 N.am  1 <1>  -0.6930 
  5 C       -1.1580     0.6560     1.8500 C.3   1 <1>  -0.1350 
  6 C       -1.3220     2.5050    -0.4650 C.ar  1 <1>   0.1990 
  7 C        1.0840     3.1130    -0.6760 C.3   1 <1>   0.2570 
  8 C       -2.0710     3.5300     0.1270 C.ar  1 <1>  -0.1440 
  9 C       -1.9150     1.6960    -1.4390 C.ar  1 <1>  -0.1430 
 10 C        2.1370     2.3340    -1.4800 C.2   1 <1>   0.5690 
 11 C       -3.3900     3.7210    -0.2470 C.ar  1 <1>  -0.1500 
 12 C       -1.4690     4.4540     1.1820 C.3   1 <1>  -0.0970 
 13 C       -3.2350     1.9060    -1.7980 C.ar  1 <1>  -0.1500 
 14 C       -1.1360     0.5850    -2.1360 C.3   1 <1>  -0.0960 
 15 O        1.8950     2.1630    -2.6550 O.2   1 <1>  -0.5700 
 16 N        3.3170     1.8850    -0.9270 N.am  1 <1>  -0.6600 
 17 C       -3.9730     2.9120    -1.2040 C.ar  1 <1>  -0.1500 
 18 C        4.2310     1.0010    -1.7050 C.3   1 <1>   0.1400 
 19 C        3.7430     2.0640     0.4920 C.3   1 <1>   0.1400 
 20 C        5.6530     1.5710    -1.6840 C.3   1 <1>  -0.1600 
 21 C        5.1620     2.6430     0.5420 C.3   1 <1>  -0.1600 
 22 C        6.1540     1.7800    -0.2490 C.3   1 <1>  -0.1600 
 23 H       -1.0040     0.0040     2.6860 H     1 <1>   0.0800 
 24 H       -1.6670     0.1110     1.0800 H     1 <1>   0.0800 
 25 H       -1.7770     1.4730     2.1630 H     1 <1>   0.0800 
 26 H        1.5550     3.6900     0.0950 H     1 <1>   0.0800 
 27 H        0.6330     3.8160    -1.3540 H     1 <1>   0.0800 
 28 H       -3.9760     4.5040     0.2010 H     1 <1>   0.1500 
 29 H       -1.1040     3.8860     2.0180 H     1 <1>   0.0800 
 30 H       -2.2000     5.1540     1.5460 H     1 <1>   0.0800 
 31 H       -0.6530     5.0110     0.7600 H     1 <1>   0.0800 
 32 H       -3.6980     1.2890    -2.5490 H     1 <1>   0.1500 
 33 H       -0.5760     0.0020    -1.4280 H     1 <1>   0.0800 
 34 H       -0.4490     1.0150    -2.8420 H     1 <1>   0.0800 
 35 H       -1.7950    -0.0770    -2.6660 H     1 <1>   0.0800 
 36 H       -4.9980     3.0680    -1.4900 H     1 <1>   0.1500 
 37 H        3.8990     0.9060    -2.7250 H     1 <1>   0.0800 
 38 H        4.2220     0.0190    -1.2630 H     1 <1>   0.0800 
 39 H        3.7220     1.1060     0.9840 H     1 <1>   0.0800 
 40 H        3.0860     2.7220     1.0260 H     1 <1>   0.0800 
 41 H        5.6570     2.5080    -2.2140 H     1 <1>   0.0800 
 42 H        6.3120     0.8980    -2.2030 H     1 <1>   0.0800 
 43 H        5.4800     2.7100     1.5670 H     1 <1>   0.0800 
 44 H        5.1440     3.6400     0.1370 H     1 <1>   0.0800 
 45 H        7.1200     2.2550    -0.2650 H     1 <1>   0.0800 
 46 H        6.2580     0.8240     0.2350 H     1 <1>   0.0800 
@<TRIPOS>BOND
  1   1   2  2   
  2   1   3  2   
  3   1   4  am  
  4   1   5  1   
  5   4   6  1   
  6   4   7  1   
  7   5  23  1   
  8   5  24  1   
  9   5  25  1   
 10   6   8  ar  
 11   6   9  ar  
 12   7  10  1   
 13   7  26  1   
 14   7  27  1   
 15   8  11  ar  
 16   8  12  1   
 17   9  13  ar  
 18   9  14  1   
 19  10  15  2   
 20  10  16  am  
 21  11  17  ar  
 22  11  28  1   
 23  12  29  1   
 24  12  30  1   
 25  12  31  1   
 26  13  17  ar  
 27  13  32  1   
 28  14  33  1   
 29  14  34  1   
 30  14  35  1   
 31  16  18  1   
 32  16  19  1   
 33  17  36  1   
 34  18  20  1   
 35  18  37  1   
 36  18  38  1   
 37  19  21  1   
 38  19  39  1   
 39  19  40  1   
 40  20  22  1   
 41  20  41  1   
 42  20  42  1   
 43  21  22  1   
 44  21  43  1   
 45  21  44  1   
 46  22  45  1   
 47  22  46  1   
@<TRIPOS>SUBSTRUCTURE
  1 ****   4 GROUP 4 **** **** 0

# MOE 2024.06 (io_trps.svl 2023.06)
