@<TRIPOS>MOLECULE
NONAME
43 44 1 0 0 
SMALL
USER_CHARGES


@<TRIPOS>ATOM
  1 O        0.6720    -0.2650    -0.0280 O.3   1 <1>  -0.3630 
  2 C       -0.5540    -0.8480    -0.0270 C.ar  1 <1>   0.0830 
  3 C        1.8500    -1.0380    -0.0280 C.3   1 <1>   0.1200 
  4 C       -1.6450     0.0050    -0.0280 C.ar  1 <1>  -0.1500 
  5 C       -0.7550    -2.2260    -0.0270 C.ar  1 <1>  -0.1500 
  6 C        3.0440    -0.0840    -0.0280 C.3   1 <1>  -0.1600 
  7 C       -2.9390    -0.5060    -0.0270 C.ar  1 <1>   0.0830 
  8 C       -2.0420    -2.7370    -0.0270 C.ar  1 <1>  -0.1500 
  9 C        4.3710    -0.8560    -0.0280 C.3   1 <1>  -0.1600 
 10 O       -4.0560     0.2640    -0.0280 O.3   1 <1>  -0.3630 
 11 C       -3.1280    -1.8790    -0.0270 C.ar  1 <1>  -0.1500 
 12 C        5.5660     0.0970    -0.0290 C.3   1 <1>   0.1200 
 13 C       -3.9690     1.6720    -0.0280 C.3   1 <1>   0.0400 
 14 O        6.7410    -0.6790    -0.0290 O.3   1 <1>  -0.3630 
 15 C        7.9670    -0.0980    -0.0300 C.ar  1 <1>   0.0830 
 16 C        8.1760     1.2790    -0.0310 C.ar  1 <1>  -0.1500 
 17 C        9.0610    -0.9480    -0.0310 C.ar  1 <1>  -0.1500 
 18 C        9.4640     1.7850    -0.0320 C.ar  1 <1>  -0.1500 
 19 C       10.3470    -0.4390    -0.0330 C.ar  1 <1>  -0.1500 
 20 C       10.5560     0.9300    -0.0350 C.ar  1 <1>  -0.1430 
 21 C       11.9670     1.4900    -0.0350 C.3   1 <1>  -0.0970 
 22 H        1.8520    -1.6530    -0.9110 H     1 <1>   0.0800 
 23 H        1.8530    -1.6520     0.8560 H     1 <1>   0.0800 
 24 H       -1.4560     1.0600    -0.0280 H     1 <1>   0.1500 
 25 H        0.0690    -2.9130    -0.0270 H     1 <1>   0.1500 
 26 H        2.9910     0.5410     0.8470 H     1 <1>   0.0800 
 27 H        2.9910     0.5400    -0.9040 H     1 <1>   0.0800 
 28 H       -2.2010    -3.8010    -0.0260 H     1 <1>   0.1500 
 29 H        4.4230    -1.4810    -0.9030 H     1 <1>   0.0800 
 30 H        4.4240    -1.4800     0.8470 H     1 <1>   0.0800 
 31 H       -4.1300    -2.2680    -0.0270 H     1 <1>   0.1500 
 32 H        5.5650     0.7110     0.8540 H     1 <1>   0.0800 
 33 H        5.5650     0.7110    -0.9130 H     1 <1>   0.0800 
 34 H       -4.9680     2.0680    -0.0280 H     1 <1>   0.0800 
 35 H       -3.4490     1.9890    -0.9150 H     1 <1>   0.0800 
 36 H       -3.4490     1.9890     0.8580 H     1 <1>   0.0800 
 37 H        7.3540     1.9690    -0.0290 H     1 <1>   0.1500 
 38 H        8.8960    -2.0100    -0.0300 H     1 <1>   0.1500 
 39 H        9.6160     2.8500    -0.0310 H     1 <1>   0.1500 
 40 H       11.1840    -1.1150    -0.0310 H     1 <1>   0.1500 
 41 H       11.9960     2.4370    -0.5420 H     1 <1>   0.0800 
 42 H       12.6380     0.8160    -0.5360 H     1 <1>   0.0800 
 43 H       12.3030     1.6270     0.9770 H     1 <1>   0.0800 
@<TRIPOS>BOND
  1   1   2  1   
  2   1   3  1   
  3   2   4  ar  
  4   2   5  ar  
  5   3   6  1   
  6   3  22  1   
  7   3  23  1   
  8   4   7  ar  
  9   4  24  1   
 10   5   8  ar  
 11   5  25  1   
 12   6   9  1   
 13   6  26  1   
 14   6  27  1   
 15   7  10  1   
 16   7  11  ar  
 17   8  11  ar  
 18   8  28  1   
 19   9  12  1   
 20   9  29  1   
 21   9  30  1   
 22  10  13  1   
 23  11  31  1   
 24  12  14  1   
 25  12  32  1   
 26  12  33  1   
 27  13  34  1   
 28  13  35  1   
 29  13  36  1   
 30  14  15  1   
 31  15  16  ar  
 32  15  17  ar  
 33  16  18  ar  
 34  16  37  1   
 35  17  19  ar  
 36  17  38  1   
 37  18  20  ar  
 38  18  39  1   
 39  19  20  ar  
 40  19  40  1   
 41  20  21  1   
 42  21  41  1   
 43  21  42  1   
 44  21  43  1   
@<TRIPOS>SUBSTRUCTURE
  1 ****   6 GROUP 4 **** **** 0

# MOE 2024.06 (io_trps.svl 2023.06)
