@<TRIPOS>MOLECULE
NONAME
53 55 1 0 0 
SMALL
USER_CHARGES


@<TRIPOS>ATOM
  1 S        0.9790     0.4820     0.8110 S.o2  1 <1>   1.3330 
  2 O       -0.0570    -0.4920     1.0430 O.2   1 <1>  -0.6500 
  3 O        2.2870     0.3070     1.4010 O.2   1 <1>  -0.6500 
  4 N        0.4050     2.0350     1.3170 N.am  1 <1>  -0.6930 
  5 C        1.1700     0.7240    -0.9430 C.3   1 <1>  -0.1350 
  6 C       -0.8490     2.5210     0.9520 C.ar  1 <1>   0.1990 
  7 C        1.3850     2.9500     1.9830 C.3   1 <1>   0.2570 
  8 C       -0.9740     3.6860     0.2030 C.ar  1 <1>  -0.1500 
  9 C       -2.0100     1.8550     1.3270 C.ar  1 <1>  -0.1500 
 10 C        2.4680     3.5070     1.0530 C.2   1 <1>   0.5690 
 11 C       -2.2180     4.1670    -0.1610 C.ar  1 <1>  -0.1500 
 12 C       -3.2550     2.3340     0.9620 C.ar  1 <1>  -0.1500 
 13 O        2.3440     4.6290     0.6210 O.2   1 <1>  -0.5700 
 14 N        3.5440     2.7400     0.7360 N.am  1 <1>  -0.7300 
 15 C       -3.3730     3.4960     0.2130 C.ar  1 <1>  -0.1430 
 16 C        4.6940     3.1710    -0.0820 C.3   1 <1>   0.2200 
 17 C       -4.7400     4.0420    -0.1980 C.3   1 <1>   0.0630 
 18 C        4.9140     2.2990    -1.3360 C.3   1 <1>  -0.0800 
 19 C        6.0150     3.0110     0.6860 C.3   1 <1>  -0.1600 
 20 C       -5.5760     4.4010     1.0340 C.3   1 <1>  -0.2400 
 21 C       -5.4830     3.0410    -1.0880 C.3   1 <1>  -0.2400 
 22 C        6.3830     2.5820    -1.6160 C.3   1 <1>  -0.1600 
 23 C        4.9850     0.8010    -0.9760 C.3   1 <1>  -0.1600 
 24 C        6.8600     2.1250    -0.2470 C.3   1 <1>  -0.0800 
 25 C        6.3040     0.6930    -0.1910 C.3   1 <1>  -0.1600 
 26 H        1.5590    -0.1650    -1.3970 H     1 <1>   0.0800 
 27 H        1.8420     1.5360    -1.1390 H     1 <1>   0.0800 
 28 H        0.2200     0.9500    -1.3870 H     1 <1>   0.0800 
 29 H        1.8600     2.4260     2.7930 H     1 <1>   0.0800 
 30 H        0.8520     3.7810     2.4100 H     1 <1>   0.0800 
 31 H       -0.0960     4.2230    -0.1030 H     1 <1>   0.1500 
 32 H       -1.9370     0.9570     1.9120 H     1 <1>   0.1500 
 33 H       -2.2810     5.0720    -0.7410 H     1 <1>   0.1500 
 34 H       -4.1330     1.7940     1.2670 H     1 <1>   0.1500 
 35 H        3.5880     1.7680     1.0770 H     1 <1>   0.3700 
 36 H        4.5730     4.2010    -0.3780 H     1 <1>   0.0800 
 37 H       -4.5940     4.9430    -0.7690 H     1 <1>   0.0800 
 38 H        4.2510     2.5370    -2.1490 H     1 <1>   0.0800 
 39 H        5.8840     2.5640     1.6560 H     1 <1>   0.0800 
 40 H        6.4820     3.9730     0.7990 H     1 <1>   0.0800 
 41 H       -5.7950     3.5260     1.6180 H     1 <1>   0.0800 
 42 H       -6.5040     4.8560     0.7350 H     1 <1>   0.0800 
 43 H       -5.0370     5.0980     1.6510 H     1 <1>   0.0800 
 44 H       -5.6990     2.1360    -0.5500 H     1 <1>   0.0800 
 45 H       -4.8790     2.7940    -1.9430 H     1 <1>   0.0800 
 46 H       -6.4090     3.4650    -1.4330 H     1 <1>   0.0800 
 47 H        6.5820     3.6240    -1.8020 H     1 <1>   0.0800 
 48 H        6.7810     1.9820    -2.4180 H     1 <1>   0.0800 
 49 H        5.0450     0.2100    -1.8740 H     1 <1>   0.0800 
 50 H        4.1470     0.4600    -0.3990 H     1 <1>   0.0800 
 51 H        7.9220     2.1920    -0.0790 H     1 <1>   0.0800 
 52 H        6.9750     0.0100    -0.6840 H     1 <1>   0.0800 
 53 H        6.1450     0.3620     0.8210 H     1 <1>   0.0800 
@<TRIPOS>BOND
  1   1   2  2   
  2   1   3  2   
  3   1   4  am  
  4   1   5  1   
  5   4   6  1   
  6   4   7  1   
  7   5  26  1   
  8   5  27  1   
  9   5  28  1   
 10   6   8  ar  
 11   6   9  ar  
 12   7  10  1   
 13   7  29  1   
 14   7  30  1   
 15   8  11  ar  
 16   8  31  1   
 17   9  12  ar  
 18   9  32  1   
 19  10  13  2   
 20  10  14  am  
 21  11  15  ar  
 22  11  33  1   
 23  12  15  ar  
 24  12  34  1   
 25  14  16  1   
 26  14  35  1   
 27  15  17  1   
 28  16  18  1   
 29  16  19  1   
 30  16  36  1   
 31  17  20  1   
 32  17  21  1   
 33  17  37  1   
 34  18  22  1   
 35  18  23  1   
 36  18  38  1   
 37  19  24  1   
 38  19  39  1   
 39  19  40  1   
 40  20  41  1   
 41  20  42  1   
 42  20  43  1   
 43  21  44  1   
 44  21  45  1   
 45  21  46  1   
 46  22  24  1   
 47  22  47  1   
 48  22  48  1   
 49  23  25  1   
 50  23  49  1   
 51  23  50  1   
 52  24  25  1   
 53  24  51  1   
 54  25  52  1   
 55  25  53  1   
@<TRIPOS>SUBSTRUCTURE
  1 ****   4 GROUP 4 **** **** 0

# MOE 2024.06 (io_trps.svl 2023.06)
