@<TRIPOS>MOLECULE
NONAME
46 47 1 0 0 
SMALL
USER_CHARGES


@<TRIPOS>ATOM
  1 O        1.1950     3.2310     1.4620 O.2   1 <1>  -0.5700 
  2 C        0.9910     4.2770     0.8820 C.2   1 <1>   0.6340 
  3 O       -0.1250     4.4130     0.1540 O.3   1 <1>  -0.4300 
  4 C        1.9040     5.4050     0.9360 C.ar  1 <1>   0.0860 
  5 C       -1.1770     3.4860    -0.0570 C.3   1 <1>   0.2800 
  6 C        1.6400     6.6060     0.2690 C.ar  1 <1>  -0.1500 
  7 C        3.0930     5.3320     1.6650 C.ar  1 <1>  -0.1500 
  8 C       -1.8320     3.0890     1.2970 C.3   1 <1>  -0.0800 
  9 C       -0.6200     2.2230    -0.7440 C.3   1 <1>  -0.1600 
 10 C       -2.1820     4.2340    -0.9790 C.3   1 <1>  -0.1600 
 11 C        2.5160     7.6750     0.3280 C.ar  1 <1>  -0.1500 
 12 C        3.9730     6.3970     1.7270 C.ar  1 <1>  -0.1500 
 13 C       -2.8880     2.0040     1.0730 C.3   1 <1>   0.3430 
 14 C       -2.4350     4.2660     2.0910 C.3   1 <1>  -0.2400 
 15 C       -1.7120     1.1740    -0.9540 C.3   1 <1>   0.4230 
 16 C       -1.6480     4.6390    -2.3650 C.3   1 <1>  -0.2400 
 17 C        3.6860     7.5720     1.0570 C.ar  1 <1>  -0.1500 
 18 N       -2.3070     0.8180     0.3690 N.4   1 <1>  -0.9590 
 19 C       -1.1090    -0.0670    -1.6150 C.3   1 <1>  -0.2400 
 20 C       -3.3420    -0.2620     0.2860 C.3   1 <1>   0.2630 
 21 H        0.7360     6.7110    -0.3050 H     1 <1>   0.1500 
 22 H        3.3320     4.4240     2.1920 H     1 <1>   0.1500 
 23 H       -1.0890     2.6430     1.9300 H     1 <1>   0.0800 
 24 H        0.1530     1.7730    -0.1510 H     1 <1>   0.0800 
 25 H       -0.1780     2.4810    -1.6880 H     1 <1>   0.0800 
 26 H       -2.4870     5.1400    -0.4860 H     1 <1>   0.0800 
 27 H       -3.0720     3.6510    -1.1270 H     1 <1>   0.0800 
 28 H        2.2900     8.5890    -0.1940 H     1 <1>   0.1500 
 29 H        4.8830     6.3130     2.2970 H     1 <1>   0.1500 
 30 H       -3.7030     2.4090     0.4960 H     1 <1>   0.0800 
 31 H       -3.2790     1.7000     2.0310 H     1 <1>   0.0800 
 32 H       -3.2930     4.6860     1.5970 H     1 <1>   0.0800 
 33 H       -1.7020     5.0440     2.2220 H     1 <1>   0.0800 
 34 H       -2.7400     3.9370     3.0690 H     1 <1>   0.0800 
 35 H       -2.4740     1.5810    -1.5990 H     1 <1>   0.0800 
 36 H       -0.7290     5.1910    -2.2750 H     1 <1>   0.0800 
 37 H       -2.3660     5.2700    -2.8590 H     1 <1>   0.0800 
 38 H       -1.4790     3.7830    -2.9930 H     1 <1>   0.0800 
 39 H        4.3690     8.4020     1.1040 H     1 <1>   0.1500 
 40 H       -1.5260     0.4760     0.9480 H     1 <1>   0.4500 
 41 H       -0.4060    -0.5530    -0.9620 H     1 <1>   0.0800 
 42 H       -0.5850     0.2220    -2.5100 H     1 <1>   0.0800 
 43 H       -1.8710    -0.7630    -1.9120 H     1 <1>   0.0800 
 44 H       -4.1460     0.0390    -0.3660 H     1 <1>   0.0800 
 45 H       -3.7480    -0.4670     1.2630 H     1 <1>   0.0800 
 46 H       -2.9090    -1.1720    -0.0960 H     1 <1>   0.0800 
@<TRIPOS>BOND
  1   1   2  2   
  2   2   3  1   
  3   2   4  1   
  4   3   5  1   
  5   4   6  ar  
  6   4   7  ar  
  7   5   8  1   
  8   5   9  1   
  9   5  10  1   
 10   6  11  ar  
 11   6  21  1   
 12   7  12  ar  
 13   7  22  1   
 14   8  13  1   
 15   8  14  1   
 16   8  23  1   
 17   9  15  1   
 18   9  24  1   
 19   9  25  1   
 20  10  16  1   
 21  10  26  1   
 22  10  27  1   
 23  11  17  ar  
 24  11  28  1   
 25  12  17  ar  
 26  12  29  1   
 27  13  18  1   
 28  13  30  1   
 29  13  31  1   
 30  14  32  1   
 31  14  33  1   
 32  14  34  1   
 33  15  18  1   
 34  15  19  1   
 35  15  35  1   
 36  16  36  1   
 37  16  37  1   
 38  16  38  1   
 39  17  39  1   
 40  18  20  1   
 41  18  40  1   
 42  19  41  1   
 43  19  42  1   
 44  19  43  1   
 45  20  44  1   
 46  20  45  1   
 47  20  46  1   
@<TRIPOS>SUBSTRUCTURE
  1 ****   3 GROUP 4 **** **** 0

# MOE 2024.06 (io_trps.svl 2023.06)
