@<TRIPOS>MOLECULE
NONAME
46 49 1 0 0 
SMALL
USER_CHARGES


@<TRIPOS>ATOM
  1 O       -0.8170    -0.3540     0.3640 O.3   1 <1>  -0.5600 
  2 C       -1.5060     0.7900     0.7930 C.3   1 <1>   0.1200 
  3 C       -1.6370    -1.4820     0.2170 C.3   1 <1>   0.1200 
  4 C       -2.6140     1.1780    -0.2030 C.3   1 <1>   0.2090 
  5 C       -2.7470    -1.2260    -0.8170 C.3   1 <1>   0.2090 
  6 N       -3.5150     0.0100    -0.4640 N.pl3 1 <1>  -0.8380 
  7 C       -4.8660     0.0220    -0.1890 C.ar  1 <1>   0.7200 
  8 N       -5.4930    -1.1270    -0.2100 N.ar  1 <1>  -0.6200 
  9 N       -5.4190     1.1780     0.0680 N.ar  1 <1>  -0.6200 
 10 C       -6.7640    -1.0460     0.0670 C.ar  1 <1>   0.7030 
 11 C       -6.6990     1.1360     0.3270 C.ar  1 <1>   0.7200 
 12 O       -7.4220    -2.2140     0.0490 O.3   1 <1>  -0.1650 
 13 N       -7.4200     0.0470     0.3430 N.ar  1 <1>  -0.6200 
 14 N       -7.3460     2.3220     0.6000 N.pl3 1 <1>  -0.8380 
 15 C       -8.7770    -2.2880     0.1340 C.ar  1 <1>   0.3930 
 16 C       -6.8200     3.6440     0.1610 C.3   1 <1>   0.2090 
 17 C       -8.7450     2.3720     1.1210 C.3   1 <1>   0.2090 
 18 N       -9.2590    -2.9910     1.1530 N.ar  1 <1>  -0.3100 
 19 C       -9.5630    -1.6760    -0.8320 C.ar  1 <1>  -0.1500 
 20 C       -7.7280     4.2060    -0.9390 C.3   1 <1>  -0.1600 
 21 C       -9.6700     2.9110     0.0260 C.3   1 <1>  -0.1600 
 22 N      -10.5620    -3.1080     1.2890 N.ar  1 <1>  -0.3100 
 23 C      -10.9150    -1.7960    -0.6950 C.ar  1 <1>  -0.1500 
 24 C       -9.1970     4.2770    -0.4930 C.3   1 <1>  -0.1600 
 25 C      -11.3910    -2.5220     0.3920 C.ar  1 <1>   0.1390 
 26 O      -12.6310    -2.6350     0.5400 O.3   1 <1>  -0.8290 
 27 H       -0.7920     1.5890     0.8810 H     1 <1>   0.0800 
 28 H       -1.9290     0.5940     1.7620 H     1 <1>   0.0800 
 29 H       -2.0670    -1.7230     1.1740 H     1 <1>   0.0800 
 30 H       -1.0160    -2.3000    -0.1000 H     1 <1>   0.0800 
 31 H       -2.1640     1.4890    -1.1290 H     1 <1>   0.0800 
 32 H       -3.1560     2.0170     0.1940 H     1 <1>   0.0800 
 33 H       -3.3830    -2.0910    -0.8690 H     1 <1>   0.0800 
 34 H       -2.3000    -1.0960    -1.7860 H     1 <1>   0.0800 
 35 H       -5.8140     3.5650    -0.2130 H     1 <1>   0.0800 
 36 H       -6.8080     4.3120     1.0050 H     1 <1>   0.0800 
 37 H       -8.7750     3.0240     1.9760 H     1 <1>   0.0800 
 38 H       -9.0890     1.4030     1.4430 H     1 <1>   0.0800 
 39 H       -9.1230    -1.1300    -1.6430 H     1 <1>   0.1500 
 40 H       -7.6440     3.5730    -1.8050 H     1 <1>   0.0800 
 41 H       -7.3850     5.1870    -1.2150 H     1 <1>   0.0800 
 42 H      -10.6690     2.9920     0.4160 H     1 <1>   0.0800 
 43 H       -9.6930     2.1980    -0.7800 H     1 <1>   0.0800 
 44 H      -11.6260    -1.3640    -1.3710 H     1 <1>   0.1500 
 45 H       -9.8150     4.5860    -1.3190 H     1 <1>   0.0800 
 46 H       -9.2960     5.0080     0.2910 H     1 <1>   0.0800 
@<TRIPOS>BOND
  1   1   2  1   
  2   1   3  1   
  3   2   4  1   
  4   2  27  1   
  5   2  28  1   
  6   3   5  1   
  7   3  29  1   
  8   3  30  1   
  9   4   6  1   
 10   4  31  1   
 11   4  32  1   
 12   5   6  1   
 13   5  33  1   
 14   5  34  1   
 15   6   7  1   
 16   7   8  ar  
 17   7   9  ar  
 18   8  10  ar  
 19   9  11  ar  
 20  10  12  1   
 21  10  13  ar  
 22  11  13  ar  
 23  11  14  1   
 24  12  15  1   
 25  14  16  1   
 26  14  17  1   
 27  15  18  ar  
 28  15  19  ar  
 29  16  20  1   
 30  16  35  1   
 31  16  36  1   
 32  17  21  1   
 33  17  37  1   
 34  17  38  1   
 35  18  22  ar  
 36  19  23  ar  
 37  19  39  1   
 38  20  24  1   
 39  20  40  1   
 40  20  41  1   
 41  21  24  1   
 42  21  42  1   
 43  21  43  1   
 44  22  25  ar  
 45  23  25  ar  
 46  23  44  1   
 47  24  45  1   
 48  24  46  1   
 49  25  26  1   
@<TRIPOS>SUBSTRUCTURE
  1 ****  13 GROUP 4 **** **** 0

# MOE 2024.06 (io_trps.svl 2023.06)
