@<TRIPOS>MOLECULE
NONAME
51 53 1 0 0 
SMALL
USER_CHARGES


@<TRIPOS>ATOM
  1 O       -0.0450    -0.2410     1.0450 O.2   1 <1>  -0.5700 
  2 C        0.5150    -1.1350     0.4430 C.2   1 <1>   0.5440 
  3 N       -0.2180    -2.0230    -0.3130 N.am  1 <1>  -0.5470 
  4 C        1.9590    -1.2540     0.4840 C.ar  1 <1>   0.0860 
  5 C       -1.6060    -2.1680    -0.4610 C.ar  1 <1>   0.1170 
  6 C        2.5950    -2.4970     0.4750 C.ar  1 <1>  -0.1500 
  7 C        2.7660    -0.1190     0.5280 C.ar  1 <1>  -0.1500 
  8 C       -2.5130    -1.7880     0.5220 C.ar  1 <1>  -0.1500 
  9 C       -2.1050    -2.7240    -1.6330 C.ar  1 <1>  -0.1500 
 10 C        3.9800    -2.6060     0.4910 C.ar  1 <1>   0.0830 
 11 C        4.1450    -0.2080     0.5420 C.ar  1 <1>  -0.1500 
 12 C       -3.8740    -1.9420     0.3370 C.ar  1 <1>  -0.1500 
 13 C       -3.4660    -2.8860    -1.8230 C.ar  1 <1>  -0.1500 
 14 O        4.6130    -3.8140     0.4810 O.3   1 <1>  -0.3630 
 15 C        4.7680    -1.4520     0.5170 C.ar  1 <1>   0.0830 
 16 C       -4.3620    -2.4970    -0.8370 C.ar  1 <1>  -0.1430 
 17 C        3.9440    -5.0040     0.8350 C.3   1 <1>   0.0400 
 18 O        6.1200    -1.5940     0.5240 O.3   1 <1>  -0.3630 
 19 C       -5.8550    -2.6700    -1.0370 C.3   1 <1>   0.4860 
 20 C        6.9940    -0.4880     0.5680 C.3   1 <1>   0.0400 
 21 N       -6.3220    -3.7780    -0.1620 N.4   1 <1>  -0.9590 
 22 C       -5.7140    -5.0970    -0.5610 C.3   1 <1>   0.3430 
 23 C       -7.8210    -3.8680    -0.1200 C.3   1 <1>   0.3430 
 24 C       -6.2870    -6.2570     0.2750 C.3   1 <1>   0.1200 
 25 C       -8.2900    -5.0870     0.6970 C.3   1 <1>   0.1200 
 26 O       -7.6840    -6.2520     0.2170 O.3   1 <1>  -0.5600 
 27 H        0.3440    -2.5760    -0.9580 H     1 <1>   0.3700 
 28 H        1.9860    -3.3790     0.4620 H     1 <1>   0.1500 
 29 H        2.2960     0.8500     0.5520 H     1 <1>   0.1500 
 30 H       -2.1530    -1.3600     1.4410 H     1 <1>   0.1500 
 31 H       -1.4230    -3.0220    -2.4080 H     1 <1>   0.1500 
 32 H        4.7160     0.7000     0.5730 H     1 <1>   0.1500 
 33 H       -4.5370    -1.6140     1.1190 H     1 <1>   0.1500 
 34 H       -3.8130    -3.3100    -2.7510 H     1 <1>   0.1500 
 35 H        4.6770    -5.7860     0.9080 H     1 <1>   0.0800 
 36 H        3.2300    -5.2460     0.0690 H     1 <1>   0.0800 
 37 H        3.4620    -4.8650     1.7870 H     1 <1>   0.0800 
 38 H       -6.0680    -2.8910    -2.0700 H     1 <1>   0.0800 
 39 H       -6.3540    -1.7510    -0.7740 H     1 <1>   0.0800 
 40 H        8.0020    -0.8620     0.5690 H     1 <1>   0.0800 
 41 H        6.8090     0.0670     1.4710 H     1 <1>   0.0800 
 42 H        6.8300     0.1210    -0.3030 H     1 <1>   0.0800 
 43 H       -5.9790    -3.5690     0.7840 H     1 <1>   0.4500 
 44 H       -4.6440    -5.0630    -0.4360 H     1 <1>   0.0800 
 45 H       -5.9200    -5.2950    -1.5990 H     1 <1>   0.0800 
 46 H       -8.2090    -3.9660    -1.1210 H     1 <1>   0.0800 
 47 H       -8.2350    -2.9710     0.3100 H     1 <1>   0.0800 
 48 H       -5.9810    -6.1860     1.3040 H     1 <1>   0.0800 
 49 H       -5.9470    -7.2000    -0.1180 H     1 <1>   0.0800 
 50 H       -9.3550    -5.2100     0.6030 H     1 <1>   0.0800 
 51 H       -8.0490    -4.9750     1.7410 H     1 <1>   0.0800 
@<TRIPOS>BOND
  1   1   2  2   
  2   2   3  am  
  3   2   4  1   
  4   3   5  1   
  5   3  27  1   
  6   4   6  ar  
  7   4   7  ar  
  8   5   8  ar  
  9   5   9  ar  
 10   6  10  ar  
 11   6  28  1   
 12   7  11  ar  
 13   7  29  1   
 14   8  12  ar  
 15   8  30  1   
 16   9  13  ar  
 17   9  31  1   
 18  10  14  1   
 19  10  15  ar  
 20  11  15  ar  
 21  11  32  1   
 22  12  16  ar  
 23  12  33  1   
 24  13  16  ar  
 25  13  34  1   
 26  14  17  1   
 27  15  18  1   
 28  16  19  1   
 29  17  35  1   
 30  17  36  1   
 31  17  37  1   
 32  18  20  1   
 33  19  21  1   
 34  19  38  1   
 35  19  39  1   
 36  20  40  1   
 37  20  41  1   
 38  20  42  1   
 39  21  22  1   
 40  21  23  1   
 41  21  43  1   
 42  22  24  1   
 43  22  44  1   
 44  22  45  1   
 45  23  25  1   
 46  23  46  1   
 47  23  47  1   
 48  24  26  1   
 49  24  48  1   
 50  24  49  1   
 51  25  26  1   
 52  25  50  1   
 53  25  51  1   
@<TRIPOS>SUBSTRUCTURE
  1 ****   5 GROUP 4 **** **** 0

# MOE 2024.06 (io_trps.svl 2023.06)
