@<TRIPOS>MOLECULE
NONAME
54 56 1 0 0 
SMALL
USER_CHARGES


@<TRIPOS>ATOM
  1 O       -0.2340    -0.1670     0.1300 O.3   1 <1>  -0.3630 
  2 C       -1.4020    -0.7500    -0.2590 C.ar  1 <1>   0.0830 
  3 C        0.7600    -0.9050     0.8090 C.3   1 <1>   0.2640 
  4 C       -2.0650    -1.7870     0.4180 C.ar  1 <1>   0.0830 
  5 C       -1.9450    -0.2400    -1.4250 C.ar  1 <1>  -0.1500 
  6 C        2.1000    -0.2040     0.6380 C.ar  1 <1>  -0.1440 
  7 O       -1.5500    -2.2760     1.5840 O.3   1 <1>  -0.3630 
  8 C       -3.2540    -2.2830    -0.1140 C.ar  1 <1>  -0.1500 
  9 C       -3.1260    -0.7420    -1.9400 C.ar  1 <1>  -0.1500 
 10 C        2.2960     1.0610     1.1690 C.ar  1 <1>  -0.1500 
 11 C        3.1380    -0.8220    -0.0430 C.ar  1 <1>  -0.1500 
 12 C       -2.0900    -3.4090     2.2290 C.3   1 <1>   0.0400 
 13 C       -3.7880    -1.7670    -1.2850 C.ar  1 <1>  -0.1430 
 14 C        3.5150     1.7010     1.0270 C.ar  1 <1>  -0.1500 
 15 C        4.3590    -0.1840    -0.1860 C.ar  1 <1>  -0.1500 
 16 C       -5.0960    -2.3160    -1.8360 C.3   1 <1>   0.2530 
 17 C        4.5480     1.0770     0.3500 C.ar  1 <1>  -0.1500 
 18 N       -6.2120    -2.0230    -0.9130 N.3   1 <1>  -0.8100 
 19 C       -6.3810    -0.5620    -0.6890 C.3   1 <1>   0.1100 
 20 C       -7.4790    -2.6260    -1.3850 C.3   1 <1>   0.1100 
 21 C       -7.6090    -0.2260     0.1900 C.3   1 <1>   0.3430 
 22 C       -8.6500    -2.3790    -0.3990 C.3   1 <1>   0.3430 
 23 N       -8.2420    -1.4730     0.7290 N.4   1 <1>  -0.9590 
 24 C       -9.3070    -1.1980     1.7240 C.3   1 <1>   0.3430 
 25 C       -9.6320    -2.4700     2.4970 C.3   1 <1>  -0.2400 
 26 H        0.7900    -1.8980     0.3970 H     1 <1>   0.0800 
 27 H        0.4960    -0.9470     1.8500 H     1 <1>   0.0800 
 28 H       -1.4290     0.5560    -1.9320 H     1 <1>   0.1500 
 29 H       -3.7940    -3.0710     0.3740 H     1 <1>   0.1500 
 30 H       -3.5190    -0.3270    -2.8520 H     1 <1>   0.1500 
 31 H        1.4920     1.5510     1.6920 H     1 <1>   0.1500 
 32 H        3.0010    -1.8020    -0.4670 H     1 <1>   0.1500 
 33 H       -1.4720    -3.6340     3.0800 H     1 <1>   0.0800 
 34 H       -2.0830    -4.2380     1.5440 H     1 <1>   0.0800 
 35 H       -3.0890    -3.1820     2.5560 H     1 <1>   0.0800 
 36 H        3.6580     2.6830     1.4430 H     1 <1>   0.1500 
 37 H        5.1590    -0.6690    -0.7160 H     1 <1>   0.1500 
 38 H       -4.9980    -3.3820    -1.9530 H     1 <1>   0.0800 
 39 H       -5.2960    -1.8910    -2.8050 H     1 <1>   0.0800 
 40 H        5.4960     1.5730     0.2390 H     1 <1>   0.1500 
 41 H       -6.4740    -0.0510    -1.6330 H     1 <1>   0.0800 
 42 H       -5.5030    -0.1720    -0.2010 H     1 <1>   0.0800 
 43 H       -7.3490    -3.6880    -1.5070 H     1 <1>   0.0800 
 44 H       -7.7400    -2.2200    -2.3490 H     1 <1>   0.0800 
 45 H       -8.3250     0.3240    -0.3970 H     1 <1>   0.0800 
 46 H       -7.2920     0.4090     1.0010 H     1 <1>   0.0800 
 47 H       -8.9710    -3.3290    -0.0050 H     1 <1>   0.0800 
 48 H       -9.4800    -1.9520    -0.9360 H     1 <1>   0.0800 
 49 H       -7.4570    -1.9700     1.1790 H     1 <1>   0.4500 
 50 H      -10.1910    -0.8250     1.2310 H     1 <1>   0.0800 
 51 H       -8.9650    -0.4460     2.4190 H     1 <1>   0.0800 
 52 H      -10.0720    -3.2160     1.8600 H     1 <1>   0.0800 
 53 H      -10.3440    -2.2390     3.2690 H     1 <1>   0.0800 
 54 H       -8.7500    -2.8670     2.9680 H     1 <1>   0.0800 
@<TRIPOS>BOND
  1   1   2  1   
  2   1   3  1   
  3   2   4  ar  
  4   2   5  ar  
  5   3   6  1   
  6   3  26  1   
  7   3  27  1   
  8   4   7  1   
  9   4   8  ar  
 10   5   9  ar  
 11   5  28  1   
 12   6  10  ar  
 13   6  11  ar  
 14   7  12  1   
 15   8  13  ar  
 16   8  29  1   
 17   9  13  ar  
 18   9  30  1   
 19  10  14  ar  
 20  10  31  1   
 21  11  15  ar  
 22  11  32  1   
 23  12  33  1   
 24  12  34  1   
 25  12  35  1   
 26  13  16  1   
 27  14  17  ar  
 28  14  36  1   
 29  15  17  ar  
 30  15  37  1   
 31  16  18  1   
 32  16  38  1   
 33  16  39  1   
 34  17  40  1   
 35  18  19  1   
 36  18  20  1   
 37  19  21  1   
 38  19  41  1   
 39  19  42  1   
 40  20  22  1   
 41  20  43  1   
 42  20  44  1   
 43  21  23  1   
 44  21  45  1   
 45  21  46  1   
 46  22  23  1   
 47  22  47  1   
 48  22  48  1   
 49  23  24  1   
 50  23  49  1   
 51  24  25  1   
 52  24  50  1   
 53  24  51  1   
 54  25  52  1   
 55  25  53  1   
 56  25  54  1   
@<TRIPOS>SUBSTRUCTURE
  1 ****   4 GROUP 4 **** **** 0

# MOE 2024.06 (io_trps.svl 2023.06)
