@<TRIPOS>MOLECULE
NONAME
44 46 1 0 0 
SMALL
USER_CHARGES


@<TRIPOS>ATOM
  1 O       -0.4260    -0.2920    -1.5550 O.3   1 <1>  -0.5600 
  2 C       -1.6590    -0.9980    -1.2820 C.3   1 <1>   0.3440 
  3 C        0.8220    -1.0090    -1.5970 C.3   1 <1>   0.1200 
  4 C       -2.5990    -0.1320    -0.4340 C.ar  1 <1>  -0.1440 
  5 C       -1.2980    -2.3290    -0.5850 C.3   1 <1>   0.0580 
  6 C        1.0760    -1.9580    -0.3440 C.3   1 <1>   0.0000 
  7 C       -2.3380     1.2070    -0.1710 C.ar  1 <1>  -0.1500 
  8 C       -3.7560    -0.6990     0.0880 C.ar  1 <1>  -0.1500 
  9 C       -1.2090    -3.8450    -0.6100 C.2   1 <1>  -0.2760 
 10 C       -0.2370    -1.9060     0.4750 C.3   1 <1>  -0.0800 
 11 C        1.3120    -3.4770    -0.7990 C.3   1 <1>   0.0580 
 12 C        2.2550    -1.2810     0.4110 C.3   1 <1>   0.1200 
 13 C       -3.2070     1.9590     0.6000 C.ar  1 <1>  -0.1500 
 14 C       -4.6260     0.0510     0.8590 C.ar  1 <1>  -0.1500 
 15 C        0.0290    -4.3610    -0.7440 C.2   1 <1>  -0.2880 
 16 C       -2.5130    -4.6140    -0.5200 C.3   1 <1>  -0.1020 
 17 C       -0.3450    -2.6690     1.8210 C.3   1 <1>  -0.2400 
 18 C        2.4130    -4.2450    -0.0480 C.3   1 <1>  -0.2400 
 19 O        2.5260    -1.8500     1.6430 O.3   1 <1>  -0.6800 
 20 C       -4.3520     1.3820     1.1170 C.ar  1 <1>  -0.1500 
 21 H       -2.1460    -1.1740    -2.2280 H     1 <1>   0.0800 
 22 H        1.5990    -0.2710    -1.6910 H     1 <1>   0.0800 
 23 H        0.8230    -1.5770    -2.5110 H     1 <1>   0.0800 
 24 H       -0.9270    -2.5150    -1.5730 H     1 <1>   0.0800 
 25 H       -1.4540     1.6770    -0.5660 H     1 <1>   0.1500 
 26 H       -3.9860    -1.7320    -0.1030 H     1 <1>   0.1500 
 27 H       -0.3960    -0.8810     0.7710 H     1 <1>   0.0800 
 28 H        1.6380    -3.4670    -1.8250 H     1 <1>   0.0800 
 29 H        2.0190    -0.2460     0.5930 H     1 <1>   0.0800 
 30 H        3.1580    -1.3250    -0.1730 H     1 <1>   0.0800 
 31 H       -2.9910     2.9950     0.7960 H     1 <1>   0.1500 
 32 H       -5.5170    -0.4010     1.2590 H     1 <1>   0.1500 
 33 H        0.2170    -5.4190    -0.8190 H     1 <1>   0.1500 
 34 H       -3.1580    -4.3490    -1.3390 H     1 <1>   0.0800 
 35 H       -3.0100    -4.3860     0.4050 H     1 <1>   0.0800 
 36 H       -2.3250    -5.6720    -0.5570 H     1 <1>   0.0800 
 37 H        0.0680    -3.6590     1.7750 H     1 <1>   0.0800 
 38 H       -1.3820    -2.7550     2.0940 H     1 <1>   0.0800 
 39 H        0.1410    -2.1270     2.6110 H     1 <1>   0.0800 
 40 H        2.1570    -4.3660     0.9880 H     1 <1>   0.0800 
 41 H        3.3560    -3.7330    -0.1180 H     1 <1>   0.0800 
 42 H        2.5410    -5.2220    -0.4760 H     1 <1>   0.0800 
 43 H        1.6840    -2.0980     2.0730 H     1 <1>   0.4000 
 44 H       -5.0280     1.9660     1.7170 H     1 <1>   0.1500 
@<TRIPOS>BOND
  1   1   2  1   
  2   1   3  1   
  3   2   4  1   
  4   2   5  1   
  5   2  21  1   
  6   3   6  1   
  7   3  22  1   
  8   3  23  1   
  9   4   7  ar  
 10   4   8  ar  
 11   5   9  1   
 12   5  10  1   
 13   5  24  1   
 14   6  10  1   
 15   6  11  1   
 16   6  12  1   
 17   7  13  ar  
 18   7  25  1   
 19   8  14  ar  
 20   8  26  1   
 21   9  15  2   
 22   9  16  1   
 23  10  17  1   
 24  10  27  1   
 25  11  15  1   
 26  11  18  1   
 27  11  28  1   
 28  12  19  1   
 29  12  29  1   
 30  12  30  1   
 31  13  20  ar  
 32  13  31  1   
 33  14  20  ar  
 34  14  32  1   
 35  15  33  1   
 36  16  34  1   
 37  16  35  1   
 38  16  36  1   
 39  17  37  1   
 40  17  38  1   
 41  17  39  1   
 42  18  40  1   
 43  18  41  1   
 44  18  42  1   
 45  19  43  1   
 46  20  44  1   
@<TRIPOS>SUBSTRUCTURE
  1 ****  10 GROUP 4 **** **** 0

# MOE 2024.06 (io_trps.svl 2023.06)
