@<TRIPOS>MOLECULE
NONAME
40 40 1 0 0 
SMALL
USER_CHARGES


@<TRIPOS>ATOM
  1 O       -1.1950     1.1570    -1.5640 O.2   1 <1>  -0.5700 
  2 C       -2.0260     1.6240    -0.8080 C.2   1 <1>   0.8060 
  3 O       -1.7420     2.7790    -0.1920 O.3   1 <1>  -0.4300 
  4 C       -3.2990     1.0060    -0.5110 C.2   1 <1>  -0.0860 
  5 C       -0.5210     3.4680    -0.3630 C.3   1 <1>   0.1200 
  6 C       -3.6220    -0.3500    -0.7100 C.2   1 <1>   0.0620 
  7 C       -4.4580     1.5510     0.0120 C.2   1 <1>  -0.3320 
  8 C        0.5110     2.8940     0.6070 C.3   1 <1>  -0.2400 
  9 O       -2.8000    -1.3040    -1.2080 O.3   1 <1>  -0.3420 
 10 C       -4.9170    -0.5940    -0.3380 C.2   1 <1>  -0.1970 
 11 N       -5.4070     0.5990     0.1190 N.pl3 1 <1>   0.0330 
 12 C       -4.7520     2.9830     0.4330 C.3   1 <1>  -0.0600 
 13 C       -1.7870    -1.7550    -0.3390 C.3   1 <1>   0.0400 
 14 C       -5.6250    -1.8360    -0.4120 C.2   1 <1>  -0.1050 
 15 C       -6.9200    -2.1970    -0.1640 C.2   1 <1>   0.0790 
 16 C       -7.2730    -3.5660    -0.3610 C.1   1 <1>   0.4920 
 17 C       -8.0150    -1.3780     0.2820 C.2   1 <1>   0.7060 
 18 N       -7.5200    -4.6690    -0.5160 N.1   1 <1>  -0.5570 
 19 O       -7.8780    -0.2970     0.8210 O.2   1 <1>  -0.5700 
 20 O       -9.2630    -1.8270     0.0930 O.3   1 <1>  -0.4300 
 21 C      -10.4220    -1.1000     0.4510 C.3   1 <1>   0.1200 
 22 C      -10.7570    -0.1190    -0.6720 C.3   1 <1>  -0.2400 
 23 H       -0.1980     3.3780    -1.3870 H     1 <1>   0.0800 
 24 H       -0.7020     4.5060    -0.1440 H     1 <1>   0.0800 
 25 H        0.7070     1.8620     0.3750 H     1 <1>   0.0800 
 26 H        0.1580     2.9780     1.6190 H     1 <1>   0.0800 
 27 H        1.4320     3.4410     0.5180 H     1 <1>   0.0800 
 28 H       -6.3640     0.7200     0.4870 H     1 <1>   0.2700 
 29 H       -5.7560     3.2530     0.1570 H     1 <1>   0.0800 
 30 H       -4.6480     3.0810     1.4990 H     1 <1>   0.0800 
 31 H       -4.0830     3.6750    -0.0440 H     1 <1>   0.0800 
 32 H       -1.2450    -2.5400    -0.8350 H     1 <1>   0.0800 
 33 H       -2.2420    -2.1290     0.5610 H     1 <1>   0.0800 
 34 H       -1.1220    -0.9410    -0.1130 H     1 <1>   0.0800 
 35 H       -4.9710    -2.6250    -0.7490 H     1 <1>   0.1500 
 36 H      -11.2220    -1.8080     0.5780 H     1 <1>   0.0800 
 37 H      -10.2530    -0.5920     1.3860 H     1 <1>   0.0800 
 38 H      -10.9080    -0.6490    -1.5960 H     1 <1>   0.0800 
 39 H       -9.9680     0.6010    -0.7910 H     1 <1>   0.0800 
 40 H      -11.6610     0.4090    -0.4300 H     1 <1>   0.0800 
@<TRIPOS>BOND
  1   1   2  2   
  2   2   3  1   
  3   2   4  1   
  4   3   5  1   
  5   4   6  1   
  6   4   7  2   
  7   5   8  1   
  8   5  23  1   
  9   5  24  1   
 10   6   9  1   
 11   6  10  2   
 12   7  11  1   
 13   7  12  1   
 14   8  25  1   
 15   8  26  1   
 16   8  27  1   
 17   9  13  1   
 18  10  11  1   
 19  10  14  1   
 20  11  28  1   
 21  12  29  1   
 22  12  30  1   
 23  12  31  1   
 24  13  32  1   
 25  13  33  1   
 26  13  34  1   
 27  14  15  2   
 28  14  35  1   
 29  15  16  1   
 30  15  17  1   
 31  16  18  3   
 32  17  19  2   
 33  17  20  1   
 34  20  21  1   
 35  21  22  1   
 36  21  36  1   
 37  21  37  1   
 38  22  38  1   
 39  22  39  1   
 40  22  40  1   
@<TRIPOS>SUBSTRUCTURE
  1 ****  10 GROUP 4 **** **** 0

# MOE 2024.06 (io_trps.svl 2023.06)
