@<TRIPOS>MOLECULE
NONAME
54 57 1 0 0 
SMALL
USER_CHARGES


@<TRIPOS>ATOM
  1 O       -1.1160    -2.0980    -0.1310 O.2   1 <1>  -0.5700 
  2 C       -0.1840    -2.8690    -0.0440 C.2   1 <1>   0.6900 
  3 N        0.9570    -2.5780    -0.6900 N.am  1 <1>  -0.7300 
  4 N       -0.3200    -4.0120     0.6630 N.am  1 <1>  -0.7300 
  5 C        2.2840    -3.2180    -0.6990 C.3   1 <1>   0.3000 
  6 C       -1.3750    -4.2870     1.6800 C.3   1 <1>   0.1400 
  7 C        2.8740    -3.2890     0.7240 C.3   1 <1>  -0.1600 
  8 C        2.2100    -4.6290    -1.3170 C.3   1 <1>  -0.1600 
  9 C        3.2070    -2.3470    -1.5710 C.3   1 <1>  -0.1600 
 10 C       -2.6730    -4.8170     1.0370 C.3   1 <1>   0.3430 
 11 C        4.2810    -3.9160     0.6780 C.3   1 <1>  -0.0800 
 12 C        3.6160    -5.2570    -1.3620 C.3   1 <1>  -0.0800 
 13 C        4.6210    -2.9570    -1.6310 C.3   1 <1>  -0.0800 
 14 N       -3.2690    -3.8160     0.1070 N.4   1 <1>  -0.9590 
 15 C        4.1880    -5.3290     0.0680 C.3   1 <1>  -0.1600 
 16 C        5.1940    -3.0440    -0.2040 C.3   1 <1>  -0.1600 
 17 C        4.5350    -4.3740    -2.2280 C.3   1 <1>  -0.1600 
 18 C       -4.1830    -2.8600     0.7920 C.3   1 <1>   0.3430 
 19 C       -3.8750    -4.4420    -1.0980 C.3   1 <1>   0.3430 
 20 C       -4.5950    -1.7530    -0.1800 C.3   1 <1>  -0.1600 
 21 C       -4.2720    -3.3530    -2.0960 C.3   1 <1>  -0.1600 
 22 C       -5.2130    -2.3190    -1.4650 C.3   1 <1>  -0.1600 
 23 H        0.9420    -1.6760    -1.1660 H     1 <1>   0.3700 
 24 H        0.5380    -4.5610     0.7420 H     1 <1>   0.3700 
 25 H       -1.5840    -3.3870     2.2330 H     1 <1>   0.0800 
 26 H       -1.0020    -5.0190     2.3750 H     1 <1>   0.0800 
 27 H        2.9370    -2.2990     1.1410 H     1 <1>   0.0800 
 28 H        2.2550    -3.8830     1.3680 H     1 <1>   0.0800 
 29 H        1.8130    -4.5680    -2.3140 H     1 <1>   0.0800 
 30 H        1.5690    -5.2670    -0.7410 H     1 <1>   0.0800 
 31 H        3.2700    -1.3540    -1.1630 H     1 <1>   0.0800 
 32 H        2.8110    -2.2780    -2.5690 H     1 <1>   0.0800 
 33 H       -3.3840    -5.0710     1.8060 H     1 <1>   0.0800 
 34 H       -2.4330    -5.7180     0.4980 H     1 <1>   0.0800 
 35 H        4.6880    -3.9750     1.6740 H     1 <1>   0.0800 
 36 H        3.5630    -6.2460    -1.7840 H     1 <1>   0.0800 
 37 H        5.2600    -2.3420    -2.2430 H     1 <1>   0.0800 
 38 H       -2.4710    -3.2310    -0.2240 H     1 <1>   0.4500 
 39 H        3.5630    -5.9540     0.6820 H     1 <1>   0.0800 
 40 H        5.1660    -5.7760     0.0430 H     1 <1>   0.0800 
 41 H        6.1830    -3.4670    -0.2340 H     1 <1>   0.0800 
 42 H        5.2760    -2.0570     0.2170 H     1 <1>   0.0800 
 43 H        5.5180    -4.8090    -2.2760 H     1 <1>   0.0800 
 44 H        4.1530    -4.3250    -3.2340 H     1 <1>   0.0800 
 45 H       -3.6830    -2.4170     1.6390 H     1 <1>   0.0800 
 46 H       -5.0610    -3.3790     1.1410 H     1 <1>   0.0800 
 47 H       -4.7470    -5.0090    -0.8160 H     1 <1>   0.0800 
 48 H       -3.1660    -5.1090    -1.5610 H     1 <1>   0.0800 
 49 H       -3.7300    -1.1590    -0.4220 H     1 <1>   0.0800 
 50 H       -5.3040    -1.1040     0.3040 H     1 <1>   0.0800 
 51 H       -4.7550    -3.8080    -2.9420 H     1 <1>   0.0800 
 52 H       -3.3820    -2.8640    -2.4560 H     1 <1>   0.0800 
 53 H       -5.3970    -1.5190    -2.1640 H     1 <1>   0.0800 
 54 H       -6.1590    -2.7820    -1.2380 H     1 <1>   0.0800 
@<TRIPOS>BOND
  1   1   2  2   
  2   2   3  am  
  3   2   4  am  
  4   3   5  1   
  5   3  23  1   
  6   4   6  1   
  7   4  24  1   
  8   5   7  1   
  9   5   8  1   
 10   5   9  1   
 11   6  10  1   
 12   6  25  1   
 13   6  26  1   
 14   7  11  1   
 15   7  27  1   
 16   7  28  1   
 17   8  12  1   
 18   8  29  1   
 19   8  30  1   
 20   9  13  1   
 21   9  31  1   
 22   9  32  1   
 23  10  14  1   
 24  10  33  1   
 25  10  34  1   
 26  11  15  1   
 27  11  16  1   
 28  11  35  1   
 29  12  15  1   
 30  12  17  1   
 31  12  36  1   
 32  13  16  1   
 33  13  17  1   
 34  13  37  1   
 35  14  18  1   
 36  14  19  1   
 37  14  38  1   
 38  15  39  1   
 39  15  40  1   
 40  16  41  1   
 41  16  42  1   
 42  17  43  1   
 43  17  44  1   
 44  18  20  1   
 45  18  45  1   
 46  18  46  1   
 47  19  21  1   
 48  19  47  1   
 49  19  48  1   
 50  20  22  1   
 51  20  49  1   
 52  20  50  1   
 53  21  22  1   
 54  21  51  1   
 55  21  52  1   
 56  22  53  1   
 57  22  54  1   
@<TRIPOS>SUBSTRUCTURE
  1 ****   2 GROUP 4 **** **** 0

# MOE 2024.06 (io_trps.svl 2023.06)
