@<TRIPOS>MOLECULE
NONAME
35 36 1 0 0 
SMALL
USER_CHARGES


@<TRIPOS>ATOM
  1 CL       0.7870    -0.0450     1.8440 Cl    1 <1>  -0.1770 
  2 C        2.0900    -0.7010     0.8860 C.ar  1 <1>   0.1770 
  3 C        1.8400    -1.2410    -0.3730 C.ar  1 <1>   0.1770 
  4 C        3.3730    -0.6740     1.4020 C.ar  1 <1>  -0.1500 
  5 CL       0.2190    -1.2730    -1.0190 Cl    1 <1>  -0.1770 
  6 C        2.8690    -1.7640    -1.1350 C.ar  1 <1>  -0.1500 
  7 C        4.4100    -1.1990     0.6380 C.ar  1 <1>   0.0860 
  8 C        4.1600    -1.7390    -0.6190 C.ar  1 <1>   0.0860 
  9 C        5.8210    -1.3220     0.8710 C.2   1 <1>   0.5440 
 10 C        5.4210    -2.1870    -1.1380 C.2   1 <1>   0.5440 
 11 O        6.4290    -0.9810     1.8620 O.2   1 <1>  -0.5700 
 12 N        6.3980    -1.9190    -0.2170 N.am  1 <1>  -0.4200 
 13 O        5.6140    -2.7400    -2.1980 O.2   1 <1>  -0.5700 
 14 C        7.8520    -1.8870    -0.5270 C.3   1 <1>   0.2010 
 15 C        8.3640    -0.4550    -0.7030 C.2   1 <1>   0.5690 
 16 O        7.9000     0.1750    -1.6280 O.2   1 <1>  -0.5700 
 17 N        9.3130     0.0950     0.1320 N.am  1 <1>  -0.6600 
 18 C        9.7260    -0.5010     1.4330 C.3   1 <1>   0.1400 
 19 C        9.8300     1.4660    -0.1340 C.3   1 <1>   0.1400 
 20 C       10.9800    -1.3510     1.2460 C.3   1 <1>  -0.2400 
 21 C       10.9680     1.4050    -1.1510 C.3   1 <1>  -0.2400 
 22 H        3.5700    -0.2560     2.3740 H     1 <1>   0.1500 
 23 H        2.6810    -2.1810    -2.1100 H     1 <1>   0.1500 
 24 H        8.0270    -2.4140    -1.4470 H     1 <1>   0.0800 
 25 H        8.3860    -2.4010     0.2470 H     1 <1>   0.0800 
 26 H        8.9320    -1.1040     1.8370 H     1 <1>   0.0800 
 27 H        9.9170     0.2790     2.1510 H     1 <1>   0.0800 
 28 H       10.1770     1.9220     0.7770 H     1 <1>   0.0800 
 29 H        9.0350     2.0810    -0.5240 H     1 <1>   0.0800 
 30 H       10.8200    -2.1070     0.5000 H     1 <1>   0.0800 
 31 H       11.2280    -1.8330     2.1740 H     1 <1>   0.0800 
 32 H       11.8100    -0.7340     0.9570 H     1 <1>   0.0800 
 33 H       11.7870     0.8230    -0.7740 H     1 <1>   0.0800 
 34 H       11.3210     2.3990    -1.3560 H     1 <1>   0.0800 
 35 H       10.6150     0.9750    -2.0720 H     1 <1>   0.0800 
@<TRIPOS>BOND
  1   1   2  1   
  2   2   3  ar  
  3   2   4  ar  
  4   3   5  1   
  5   3   6  ar  
  6   4   7  ar  
  7   4  22  1   
  8   6   8  ar  
  9   6  23  1   
 10   7   8  ar  
 11   7   9  1   
 12   8  10  1   
 13   9  11  2   
 14   9  12  am  
 15  10  12  am  
 16  10  13  2   
 17  12  14  1   
 18  14  15  1   
 19  14  24  1   
 20  14  25  1   
 21  15  16  2   
 22  15  17  am  
 23  17  18  1   
 24  17  19  1   
 25  18  20  1   
 26  18  26  1   
 27  18  27  1   
 28  19  21  1   
 29  19  28  1   
 30  19  29  1   
 31  20  30  1   
 32  20  31  1   
 33  20  32  1   
 34  21  33  1   
 35  21  34  1   
 36  21  35  1   
@<TRIPOS>SUBSTRUCTURE
  1 ****   9 GROUP 4 **** **** 0

# MOE 2024.06 (io_trps.svl 2023.06)
