@<TRIPOS>MOLECULE
NONAME
51 52 1 0 0 
SMALL
USER_CHARGES


@<TRIPOS>ATOM
  1 S        0.6090     0.2910     1.1880 S.o2  1 <1>   1.3330 
  2 O        0.8340    -0.3030    -0.1030 O.2   1 <1>  -0.6500 
  3 O        1.5990     0.1190     2.2270 O.2   1 <1>  -0.6500 
  4 N        0.4430     1.9990     0.9800 N.am  1 <1>  -0.6930 
  5 C       -0.9880    -0.1740     1.8190 C.3   1 <1>  -0.1350 
  6 C       -0.3950     2.5250     0.0060 C.ar  1 <1>   0.1990 
  7 C        1.5650     2.8660     1.4580 C.3   1 <1>   0.2570 
  8 C       -1.5450     3.2070     0.3780 C.ar  1 <1>  -0.1500 
  9 C       -0.1060     2.3900    -1.3430 C.ar  1 <1>  -0.1500 
 10 C        2.8760     2.7100     0.6770 C.2   1 <1>   0.5690 
 11 C       -2.4030     3.7410    -0.5700 C.ar  1 <1>  -0.1440 
 12 C       -0.9550     2.9180    -2.2970 C.ar  1 <1>  -0.1500 
 13 O        3.2210     3.6160    -0.0430 O.2   1 <1>  -0.5700 
 14 N        3.6080     1.5640     0.8460 N.am  1 <1>  -0.5470 
 15 C       -2.1060     3.5940    -1.9210 C.ar  1 <1>  -0.1430 
 16 C       -3.6520     4.4800    -0.1080 C.3   1 <1>  -0.0970 
 17 C        4.7930     1.1260     0.2360 C.ar  1 <1>   0.1170 
 18 C       -3.0140     4.1610    -3.0030 C.3   1 <1>  -0.0970 
 19 C        5.7510     1.9960    -0.2700 C.ar  1 <1>  -0.1500 
 20 C        5.0220    -0.2400     0.1480 C.ar  1 <1>  -0.1500 
 21 C        6.9140     1.5180    -0.8630 C.ar  1 <1>   0.0830 
 22 C        6.1780    -0.7330    -0.4310 C.ar  1 <1>  -0.1500 
 23 O        7.8640     2.3520    -1.3800 O.3   1 <1>  -0.3630 
 24 C        7.1350     0.1400    -0.9410 C.ar  1 <1>   0.0830 
 25 C        7.6070     3.7270    -1.5630 C.3   1 <1>   0.0400 
 26 O        8.2930    -0.2960    -1.5240 O.3   1 <1>  -0.3630 
 27 C        8.5620    -1.6700    -1.6880 C.3   1 <1>   0.0400 
 28 H       -1.0120    -1.2270     2.0210 H     1 <1>   0.0800 
 29 H       -1.7500     0.0540     1.0990 H     1 <1>   0.0800 
 30 H       -1.1990     0.3570     2.7260 H     1 <1>   0.0800 
 31 H        1.7560     2.6610     2.4960 H     1 <1>   0.0800 
 32 H        1.2610     3.8950     1.3860 H     1 <1>   0.0800 
 33 H       -1.7600     3.3160     1.4240 H     1 <1>   0.1500 
 34 H        0.7860     1.8700    -1.6450 H     1 <1>   0.1500 
 35 H       -0.7090     2.7980    -3.3370 H     1 <1>   0.1500 
 36 H        3.1550     0.8550     1.4380 H     1 <1>   0.3700 
 37 H       -3.7180     4.4970     0.9640 H     1 <1>   0.0800 
 38 H       -4.5310     3.9940    -0.4920 H     1 <1>   0.0800 
 39 H       -3.6300     5.4950    -0.4610 H     1 <1>   0.0800 
 40 H       -3.0900     5.2280    -2.8980 H     1 <1>   0.0800 
 41 H       -3.9950     3.7280    -2.9260 H     1 <1>   0.0800 
 42 H       -2.6270     3.9460    -3.9830 H     1 <1>   0.0800 
 43 H        5.5740     3.0490    -0.1870 H     1 <1>   0.1500 
 44 H        4.2870    -0.9250     0.5310 H     1 <1>   0.1500 
 45 H        6.3110    -1.7960    -0.4750 H     1 <1>   0.1500 
 46 H        8.4430     4.1550    -2.0860 H     1 <1>   0.0800 
 47 H        7.5010     4.1930    -0.6000 H     1 <1>   0.0800 
 48 H        6.7110     3.8400    -2.1480 H     1 <1>   0.0800 
 49 H        9.5100    -1.7640    -2.1870 H     1 <1>   0.0800 
 50 H        7.7870    -2.1080    -2.2900 H     1 <1>   0.0800 
 51 H        8.6120    -2.1340    -0.7190 H     1 <1>   0.0800 
@<TRIPOS>BOND
  1   1   2  2   
  2   1   3  2   
  3   1   4  am  
  4   1   5  1   
  5   4   6  1   
  6   4   7  1   
  7   5  28  1   
  8   5  29  1   
  9   5  30  1   
 10   6   8  ar  
 11   6   9  ar  
 12   7  10  1   
 13   7  31  1   
 14   7  32  1   
 15   8  11  ar  
 16   8  33  1   
 17   9  12  ar  
 18   9  34  1   
 19  10  13  2   
 20  10  14  am  
 21  11  15  ar  
 22  11  16  1   
 23  12  15  ar  
 24  12  35  1   
 25  14  17  1   
 26  14  36  1   
 27  15  18  1   
 28  16  37  1   
 29  16  38  1   
 30  16  39  1   
 31  17  19  ar  
 32  17  20  ar  
 33  18  40  1   
 34  18  41  1   
 35  18  42  1   
 36  19  21  ar  
 37  19  43  1   
 38  20  22  ar  
 39  20  44  1   
 40  21  23  1   
 41  21  24  ar  
 42  22  24  ar  
 43  22  45  1   
 44  23  25  1   
 45  24  26  1   
 46  25  46  1   
 47  25  47  1   
 48  25  48  1   
 49  26  27  1   
 50  27  49  1   
 51  27  50  1   
 52  27  51  1   
@<TRIPOS>SUBSTRUCTURE
  1 ****  10 GROUP 4 **** **** 0

# MOE 2024.06 (io_trps.svl 2023.06)
