@<TRIPOS>MOLECULE
NONAME
47 48 1 0 0 
SMALL
USER_CHARGES


@<TRIPOS>ATOM
  1 O        0.3170    -0.0240    -3.1000 O.2   1 <1>  -0.5700 
  2 C        0.6950    -0.8950    -2.3550 C.2   1 <1>   0.5690 
  3 N        1.7670    -0.7660    -1.5150 N.am  1 <1>  -0.5470 
  4 C       -0.0720    -2.2230    -2.3220 C.3   1 <1>   0.1710 
  5 C        2.5950     0.3180    -1.1780 C.ar  1 <1>   0.1170 
  6 N       -1.2080    -2.2720    -1.3490 N.3   1 <1>  -0.8100 
  7 C        3.3670     0.2100    -0.0170 C.ar  1 <1>   0.0830 
  8 C        2.6870     1.4750    -1.9430 C.ar  1 <1>  -0.1500 
  9 C       -1.9760    -3.5330    -1.4390 C.3   1 <1>   0.1100 
 10 C       -0.8220    -1.9720     0.0540 C.3   1 <1>   0.1100 
 11 O        3.2460    -0.9480     0.7040 O.3   1 <1>  -0.3630 
 12 C        4.2080     1.2520     0.3600 C.ar  1 <1>  -0.1500 
 13 C        3.5250     2.5090    -1.5640 C.ar  1 <1>  -0.1500 
 14 C       -3.2290    -3.5180    -0.5260 C.3   1 <1>   0.3430 
 15 C       -2.0320    -2.0190     1.0200 C.3   1 <1>   0.3430 
 16 C        4.1030    -1.2170     1.7900 C.3   1 <1>   0.1200 
 17 C        4.2850     2.3980    -0.4140 C.ar  1 <1>  -0.1500 
 18 N       -3.3130    -2.2480     0.2690 N.4   1 <1>  -0.9590 
 19 C        3.7800    -2.6140     2.3120 C.3   1 <1>  -0.2400 
 20 C       -4.5460    -2.1540     1.0870 C.3   1 <1>   0.3430 
 21 C       -4.7580    -0.7130     1.5330 C.3   1 <1>  -0.2400 
 22 H        1.9790    -1.5730    -0.9280 H     1 <1>   0.3700 
 23 H        0.6200    -3.0180    -2.1090 H     1 <1>   0.0800 
 24 H       -0.4600    -2.3860    -3.3120 H     1 <1>   0.0800 
 25 H        2.1080     1.5780    -2.8420 H     1 <1>   0.1500 
 26 H       -1.3480    -4.3650    -1.1670 H     1 <1>   0.0800 
 27 H       -2.2940    -3.6870    -2.4570 H     1 <1>   0.0800 
 28 H       -0.3970    -0.9840     0.1060 H     1 <1>   0.0800 
 29 H       -0.0720    -2.6680     0.3900 H     1 <1>   0.0800 
 30 H        4.8090     1.2000     1.2470 H     1 <1>   0.1500 
 31 H        3.5840     3.3980    -2.1670 H     1 <1>   0.1500 
 32 H       -3.1940    -4.3670     0.1360 H     1 <1>   0.0800 
 33 H       -4.1070    -3.6200    -1.1430 H     1 <1>   0.0800 
 34 H       -2.0780    -1.0870     1.5580 H     1 <1>   0.0800 
 35 H       -1.8830    -2.8060     1.7400 H     1 <1>   0.0800 
 36 H        3.9330    -0.4770     2.5540 H     1 <1>   0.0800 
 37 H        5.1220    -1.1680     1.4430 H     1 <1>   0.0800 
 38 H        4.9350     3.2050    -0.1210 H     1 <1>   0.1500 
 39 H       -3.3100    -1.5060    -0.4510 H     1 <1>   0.4500 
 40 H        2.7600    -2.6590     2.6480 H     1 <1>   0.0800 
 41 H        4.4230    -2.8470     3.1420 H     1 <1>   0.0800 
 42 H        3.9430    -3.3450     1.5410 H     1 <1>   0.0800 
 43 H       -4.4760    -2.8040     1.9450 H     1 <1>   0.0800 
 44 H       -5.3940    -2.4630     0.4970 H     1 <1>   0.0800 
 45 H       -3.9880    -0.3920     2.2100 H     1 <1>   0.0800 
 46 H       -5.6980    -0.6400     2.0520 H     1 <1>   0.0800 
 47 H       -4.7960    -0.0520     0.6850 H     1 <1>   0.0800 
@<TRIPOS>BOND
  1   1   2  2   
  2   2   3  am  
  3   2   4  1   
  4   3   5  1   
  5   3  22  1   
  6   4   6  1   
  7   4  23  1   
  8   4  24  1   
  9   5   7  ar  
 10   5   8  ar  
 11   6   9  1   
 12   6  10  1   
 13   7  11  1   
 14   7  12  ar  
 15   8  13  ar  
 16   8  25  1   
 17   9  14  1   
 18   9  26  1   
 19   9  27  1   
 20  10  15  1   
 21  10  28  1   
 22  10  29  1   
 23  11  16  1   
 24  12  17  ar  
 25  12  30  1   
 26  13  17  ar  
 27  13  31  1   
 28  14  18  1   
 29  14  32  1   
 30  14  33  1   
 31  15  18  1   
 32  15  34  1   
 33  15  35  1   
 34  16  19  1   
 35  16  36  1   
 36  16  37  1   
 37  17  38  1   
 38  18  20  1   
 39  18  39  1   
 40  19  40  1   
 41  19  41  1   
 42  19  42  1   
 43  20  21  1   
 44  20  43  1   
 45  20  44  1   
 46  21  45  1   
 47  21  46  1   
 48  21  47  1   
@<TRIPOS>SUBSTRUCTURE
  1 ****   3 GROUP 4 **** **** 0

# MOE 2024.06 (io_trps.svl 2023.06)
