@<TRIPOS>MOLECULE
NONAME
44 46 1 0 0 
SMALL
USER_CHARGES


@<TRIPOS>ATOM
  1 S        0.0860    -0.1020     1.2960 S.3   1 <1>  -0.3320 
  2 C       -1.4300     0.8280     1.1070 C.ar  1 <1>   0.4120 
  3 C        1.3000     1.0880     2.0460 C.3   1 <1>   0.1310 
  4 N       -2.1640     0.4930     0.0980 N.ar  1 <1>  -0.6200 
  5 C       -1.7340     1.8390     2.0280 C.ar  1 <1>  -0.1500 
  6 C        2.7340     0.6440     1.7900 C.2   1 <1>   0.5690 
  7 C       -3.3170     1.1890    -0.0870 C.ar  1 <1>   0.3100 
  8 C       -2.8780     2.5630     1.8740 C.ar  1 <1>  -0.1440 
  9 O        3.3740     0.3030     2.7590 O.2   1 <1>  -0.5700 
 10 N        3.2850     0.6680     0.5290 N.am  1 <1>  -0.6600 
 11 C       -3.7140     2.2430     0.7780 C.ar  1 <1>   0.0000 
 12 C       -4.1490     0.8540    -1.1820 C.ar  1 <1>  -0.1430 
 13 C       -3.2340     3.6670     2.8600 C.3   1 <1>  -0.0970 
 14 C        2.5610     1.0530    -0.7180 C.3   1 <1>   0.1400 
 15 C        4.6870     0.2190     0.2940 C.3   1 <1>   0.1400 
 16 C       -4.9240     2.9170     0.5030 C.ar  1 <1>  -0.1500 
 17 C       -5.3160     1.5350    -1.4110 C.ar  1 <1>  -0.1500 
 18 C       -3.7470    -0.2790    -2.1210 C.3   1 <1>  -0.0970 
 19 C        3.3270     2.1650    -1.4410 C.3   1 <1>  -0.1600 
 20 C        5.4730     1.3240    -0.4190 C.3   1 <1>  -0.1600 
 21 C       -5.7060     2.5730    -0.5640 C.ar  1 <1>  -0.1500 
 22 C        4.7830     1.7630    -1.7170 C.3   1 <1>  -0.1600 
 23 H        1.1060     1.1140     3.1020 H     1 <1>   0.0800 
 24 H        1.1250     2.0540     1.6140 H     1 <1>   0.0800 
 25 H       -1.0680     2.0200     2.8470 H     1 <1>   0.1500 
 26 H       -2.4850     3.7580     3.6250 H     1 <1>   0.0800 
 27 H       -4.1740     3.4480     3.3340 H     1 <1>   0.0800 
 28 H       -3.3090     4.6090     2.3470 H     1 <1>   0.0800 
 29 H        1.5640     1.3940    -0.5080 H     1 <1>   0.0800 
 30 H        2.4840     0.1880    -1.3550 H     1 <1>   0.0800 
 31 H        4.6710    -0.6700    -0.3130 H     1 <1>   0.0800 
 32 H        5.1730    -0.0240     1.2240 H     1 <1>   0.0800 
 33 H       -5.2410     3.7180     1.1440 H     1 <1>   0.1500 
 34 H       -5.9530     1.2840    -2.2420 H     1 <1>   0.1500 
 35 H       -3.6540    -1.1960    -1.5670 H     1 <1>   0.0800 
 36 H       -2.7980    -0.0560    -2.5750 H     1 <1>   0.0800 
 37 H       -4.4750    -0.4210    -2.8990 H     1 <1>   0.0800 
 38 H        3.3060     3.0540    -0.8350 H     1 <1>   0.0800 
 39 H        2.8330     2.3900    -2.3690 H     1 <1>   0.0800 
 40 H        6.4640     0.9680    -0.6380 H     1 <1>   0.0800 
 41 H        5.5670     2.1640     0.2470 H     1 <1>   0.0800 
 42 H       -6.6270     3.0930    -0.7640 H     1 <1>   0.1500 
 43 H        5.3150     2.5920    -2.1510 H     1 <1>   0.0800 
 44 H        4.8010     0.9500    -2.4230 H     1 <1>   0.0800 
@<TRIPOS>BOND
  1   1   2  1   
  2   1   3  1   
  3   2   4  ar  
  4   2   5  ar  
  5   3   6  1   
  6   3  23  1   
  7   3  24  1   
  8   4   7  ar  
  9   5   8  ar  
 10   5  25  1   
 11   6   9  2   
 12   6  10  am  
 13   7  11  ar  
 14   7  12  ar  
 15   8  11  ar  
 16   8  13  1   
 17  10  14  1   
 18  10  15  1   
 19  11  16  ar  
 20  12  17  ar  
 21  12  18  1   
 22  13  26  1   
 23  13  27  1   
 24  13  28  1   
 25  14  19  1   
 26  14  29  1   
 27  14  30  1   
 28  15  20  1   
 29  15  31  1   
 30  15  32  1   
 31  16  21  ar  
 32  16  33  1   
 33  17  21  ar  
 34  17  34  1   
 35  18  35  1   
 36  18  36  1   
 37  18  37  1   
 38  19  22  1   
 39  19  38  1   
 40  19  39  1   
 41  20  22  1   
 42  20  40  1   
 43  20  41  1   
 44  21  42  1   
 45  22  43  1   
 46  22  44  1   
@<TRIPOS>SUBSTRUCTURE
  1 ****   2 GROUP 4 **** **** 0

# MOE 2024.06 (io_trps.svl 2023.06)
