@<TRIPOS>MOLECULE
NONAME
45 46 1 0 0 
SMALL
USER_CHARGES


@<TRIPOS>ATOM
  1 O        0.4930     0.0500    -0.1790 O.2   1 <1>  -0.5700 
  2 C        1.5070     0.7010    -0.0310 C.2   1 <1>   0.6900 
  3 N        1.5950     1.6320     0.9810 N.am  1 <1>  -0.4200 
  4 N        2.5940     0.4950    -0.8550 N.am  1 <1>  -0.4200 
  5 C        2.6840     2.4610     1.0890 C.2   1 <1>   0.5690 
  6 C        0.5590     1.6310     2.0560 C.3   1 <1>   0.0600 
  7 C        3.6590     1.3660    -0.8750 C.2   1 <1>   0.5690 
  8 C        2.6000    -0.7130    -1.7350 C.3   1 <1>   0.0600 
  9 O        2.9700     2.9860     2.1360 O.2   1 <1>  -0.5700 
 10 C        3.5220     2.7010    -0.1580 C.3   1 <1>   0.0420 
 11 O        4.6690     1.1180    -1.4860 O.2   1 <1>  -0.5700 
 12 C        4.8710     3.4180     0.1040 C.3   1 <1>  -0.0160 
 13 C        4.6790     4.9220     0.2530 C.ar  1 <1>  -0.1430 
 14 C        4.5810     5.7200    -0.8770 C.ar  1 <1>  -0.1500 
 15 C        4.6020     5.5120     1.5050 C.ar  1 <1>  -0.1500 
 16 C        4.3990     7.0880    -0.7620 C.ar  1 <1>  -0.1500 
 17 C        4.4200     6.8780     1.6250 C.ar  1 <1>  -0.1500 
 18 C        4.3160     7.6760     0.4970 C.ar  1 <1>   0.0830 
 19 O        4.1360     9.0040     0.7020 O.3   1 <1>  -0.3630 
 20 C        4.0280     9.9030    -0.3770 C.3   1 <1>   0.1200 
 21 C        3.8380    11.3100     0.1900 C.3   1 <1>  -0.1600 
 22 C        3.7130    12.3500    -0.9320 C.3   1 <1>  -0.1600 
 23 C        3.5230    13.7570    -0.3590 C.3   1 <1>  -0.2400 
 24 H        0.7300     0.8010     2.7190 H     1 <1>   0.0800 
 25 H       -0.4220     1.5390     1.6240 H     1 <1>   0.0800 
 26 H        0.5970     2.5460     2.6220 H     1 <1>   0.0800 
 27 H        2.1900    -1.5560    -1.2050 H     1 <1>   0.0800 
 28 H        3.5990    -0.9630    -2.0460 H     1 <1>   0.0800 
 29 H        1.9980    -0.5240    -2.6060 H     1 <1>   0.0800 
 30 H        2.9450     3.3290    -0.8100 H     1 <1>   0.0800 
 31 H        5.5440     3.2670    -0.7200 H     1 <1>   0.0800 
 32 H        5.3480     3.0080     0.9780 H     1 <1>   0.0800 
 33 H        4.6470     5.2800    -1.8560 H     1 <1>   0.1500 
 34 H        4.6770     4.9110     2.3950 H     1 <1>   0.1500 
 35 H        4.3270     7.6740    -1.6570 H     1 <1>   0.1500 
 36 H        4.3560     7.3330     2.5960 H     1 <1>   0.1500 
 37 H        3.1800     9.6160    -0.9740 H     1 <1>   0.0800 
 38 H        4.9330     9.8460    -0.9570 H     1 <1>   0.0800 
 39 H        4.6820    11.5530     0.8120 H     1 <1>   0.0800 
 40 H        2.9480    11.3260     0.7950 H     1 <1>   0.0800 
 41 H        2.8720    12.1070    -1.5590 H     1 <1>   0.0800 
 42 H        4.6010    12.3340    -1.5410 H     1 <1>   0.0800 
 43 H        2.6280    13.8020     0.2380 H     1 <1>   0.0800 
 44 H        3.4370    14.4720    -1.1580 H     1 <1>   0.0800 
 45 H        4.3630    14.0290     0.2560 H     1 <1>   0.0800 
@<TRIPOS>BOND
  1   1   2  2   
  2   2   3  am  
  3   2   4  am  
  4   3   5  am  
  5   3   6  1   
  6   4   7  am  
  7   4   8  1   
  8   5   9  2   
  9   5  10  1   
 10   6  24  1   
 11   6  25  1   
 12   6  26  1   
 13   7  10  1   
 14   7  11  2   
 15   8  27  1   
 16   8  28  1   
 17   8  29  1   
 18  10  12  1   
 19  10  30  1   
 20  12  13  1   
 21  12  31  1   
 22  12  32  1   
 23  13  14  ar  
 24  13  15  ar  
 25  14  16  ar  
 26  14  33  1   
 27  15  17  ar  
 28  15  34  1   
 29  16  18  ar  
 30  16  35  1   
 31  17  18  ar  
 32  17  36  1   
 33  18  19  1   
 34  19  20  1   
 35  20  21  1   
 36  20  37  1   
 37  20  38  1   
 38  21  22  1   
 39  21  39  1   
 40  21  40  1   
 41  22  23  1   
 42  22  41  1   
 43  22  42  1   
 44  23  43  1   
 45  23  44  1   
 46  23  45  1   
@<TRIPOS>SUBSTRUCTURE
  1 ****  13 GROUP 4 **** **** 0

# MOE 2024.06 (io_trps.svl 2023.06)
