@<TRIPOS>MOLECULE
NONAME
38 40 1 0 0 
SMALL
USER_CHARGES


@<TRIPOS>ATOM
  1 S        0.1530    -0.4480    -0.3270 S.3   1 <1>  -0.2860 
  2 C       -1.5220     0.0550    -0.7600 C.2   1 <1>   0.2420 
  3 C        1.1160     1.1110    -0.5390 C.3   1 <1>   0.0700 
  4 N       -1.8100     1.2460    -1.1120 N.2   1 <1>  -0.3380 
  5 N       -2.5890    -0.7400    -0.7390 N.pl3 1 <1>   0.5930 
  6 C        2.5470     0.8460    -0.0650 C.3   1 <1>   0.3430 
  7 N       -3.1230     1.2160    -1.3210 N.2   1 <1>   0.0000 
  8 N       -3.6020     0.0420    -1.0990 N.2   1 <1>  -0.4180 
  9 C       -2.7130    -2.1140    -0.3870 C.ar  1 <1>  -0.0230 
 10 N        3.4270     2.0450    -0.2360 N.4   1 <1>  -0.9590 
 11 C       -1.9040    -3.0830    -0.9750 C.ar  1 <1>  -0.1500 
 12 C       -3.6560    -2.5150     0.5550 C.ar  1 <1>  -0.1500 
 13 C        4.8780     1.7270    -0.0030 C.3   1 <1>   0.3430 
 14 C        3.0240     3.2400     0.5880 C.3   1 <1>   0.3430 
 15 C       -2.0270    -4.4150    -0.6210 C.ar  1 <1>  -0.1500 
 16 C       -3.7800    -3.8460     0.9090 C.ar  1 <1>  -0.1500 
 17 C        5.7690     2.9730    -0.2150 C.3   1 <1>   0.1200 
 18 C        4.0130     4.4150     0.4020 C.3   1 <1>   0.1200 
 19 C       -2.9640    -4.7970     0.3230 C.ar  1 <1>  -0.1500 
 20 O        4.9990     4.0990    -0.5430 O.3   1 <1>  -0.5600 
 21 H        0.6240     1.8600     0.0550 H     1 <1>   0.0800 
 22 H        1.0750     1.3630    -1.5840 H     1 <1>   0.0800 
 23 H        2.9470     0.0240    -0.6370 H     1 <1>   0.0800 
 24 H        2.5270     0.5530     0.9720 H     1 <1>   0.0800 
 25 H        3.3920     2.3730    -1.2150 H     1 <1>   0.4500 
 26 H       -1.1740    -2.8060    -1.7170 H     1 <1>   0.1500 
 27 H       -4.3000    -1.7830     1.0150 H     1 <1>   0.1500 
 28 H        5.2000     0.9490    -0.6750 H     1 <1>   0.0800 
 29 H        5.0190     1.3640     1.0030 H     1 <1>   0.0800 
 30 H        2.9900     2.9760     1.6320 H     1 <1>   0.0800 
 31 H        2.0380     3.5700     0.3050 H     1 <1>   0.0800 
 32 H       -1.3950    -5.1570    -1.0790 H     1 <1>   0.1500 
 33 H       -4.5120    -4.1440     1.6400 H     1 <1>   0.1500 
 34 H        6.4590     2.8030    -1.0230 H     1 <1>   0.0800 
 35 H        6.3390     3.1910     0.6730 H     1 <1>   0.0800 
 36 H        4.4930     4.6630     1.3330 H     1 <1>   0.0800 
 37 H        3.4900     5.2890     0.0520 H     1 <1>   0.0800 
 38 H       -3.0600    -5.8340     0.5990 H     1 <1>   0.1500 
@<TRIPOS>BOND
  1   1   2  1   
  2   1   3  1   
  3   2   4  2   
  4   2   5  1   
  5   3   6  1   
  6   3  21  1   
  7   3  22  1   
  8   4   7  1   
  9   5   8  1   
 10   5   9  1   
 11   6  10  1   
 12   6  23  1   
 13   6  24  1   
 14   7   8  2   
 15   9  11  ar  
 16   9  12  ar  
 17  10  13  1   
 18  10  14  1   
 19  10  25  1   
 20  11  15  ar  
 21  11  26  1   
 22  12  16  ar  
 23  12  27  1   
 24  13  17  1   
 25  13  28  1   
 26  13  29  1   
 27  14  18  1   
 28  14  30  1   
 29  14  31  1   
 30  15  19  ar  
 31  15  32  1   
 32  16  19  ar  
 33  16  33  1   
 34  17  20  1   
 35  17  34  1   
 36  17  35  1   
 37  18  20  1   
 38  18  36  1   
 39  18  37  1   
 40  19  38  1   
@<TRIPOS>SUBSTRUCTURE
  1 ****   1 GROUP 4 **** **** 0

# MOE 2024.06 (io_trps.svl 2023.06)
