@<TRIPOS>MOLECULE
NONAME
40 40 1 0 0 
SMALL
USER_CHARGES


@<TRIPOS>ATOM
  1 S       -0.4490     0.0130     0.4450 S.3   1 <1>  -0.4600 
  2 C       -1.7880     1.0090    -0.2700 C.3   1 <1>   0.0700 
  3 C        0.8830     1.2250     0.6240 C.3   1 <1>  -0.0100 
  4 C       -3.0950     0.2180    -0.1750 C.3   1 <1>  -0.1600 
  5 C       -4.2180     0.9010    -0.9710 C.3   1 <1>   0.1830 
  6 N       -5.4690     0.0600    -0.8160 N.pl3 1 <1>  -0.8690 
  7 C       -4.3120     2.4290    -0.6720 C.2   1 <1>   0.9060 
  8 C       -6.3090     0.0850     0.2460 C.2   1 <1>  -0.0500 
  9 O       -4.0900     3.2190    -1.6030 O.co2 1 <1>  -0.9000 
 10 O       -4.5000     2.8430     0.4830 O.co2 1 <1>  -0.9000 
 11 C       -7.4890    -0.6190     0.3700 C.2   1 <1>   0.0290 
 12 C       -8.2600    -0.5000     1.5710 C.2   1 <1>   0.4950 
 13 C       -7.9930    -1.4750    -0.6700 C.2   1 <1>   0.4950 
 14 O       -7.8540     0.0070     2.5900 O.2   1 <1>  -0.5700 
 15 C       -9.6760    -1.0460     1.6620 C.3   1 <1>  -0.0990 
 16 O       -7.3840    -1.8040    -1.6650 O.2   1 <1>  -0.5700 
 17 C       -9.3890    -2.0690    -0.5780 C.3   1 <1>  -0.0990 
 18 C      -10.3440    -1.2460     0.2960 C.3   1 <1>   0.0000 
 19 C      -11.6660    -2.0080     0.4750 C.3   1 <1>  -0.2400 
 20 C      -10.6540     0.1110    -0.3630 C.3   1 <1>  -0.2400 
 21 H       -1.8490     1.9270     0.2910 H     1 <1>   0.0800 
 22 H       -1.5230     1.2190    -1.2910 H     1 <1>   0.0800 
 23 H        1.7330     0.7190     1.0440 H     1 <1>   0.0800 
 24 H        0.5340     2.0020     1.2800 H     1 <1>   0.0800 
 25 H        1.1080     1.6160    -0.3520 H     1 <1>   0.0800 
 26 H       -2.9470    -0.7750    -0.5580 H     1 <1>   0.0800 
 27 H       -3.3850     0.1580     0.8590 H     1 <1>   0.0800 
 28 H       -3.9450     0.8510    -2.0090 H     1 <1>   0.0800 
 29 H       -5.6970    -0.5350    -1.6290 H     1 <1>   0.4000 
 30 H       -6.0090     0.7380     1.0570 H     1 <1>   0.1500 
 31 H       -9.6260    -1.9810     2.1900 H     1 <1>   0.0800 
 32 H      -10.2660    -0.3720     2.2590 H     1 <1>   0.0800 
 33 H       -9.7940    -2.1540    -1.5710 H     1 <1>   0.0800 
 34 H       -9.2930    -3.0650    -0.1850 H     1 <1>   0.0800 
 35 H      -12.3420    -1.4510     1.1010 H     1 <1>   0.0800 
 36 H      -11.4990    -2.9680     0.9320 H     1 <1>   0.0800 
 37 H      -12.1430    -2.1680    -0.4760 H     1 <1>   0.0800 
 38 H       -9.7660     0.7010    -0.5120 H     1 <1>   0.0800 
 39 H      -11.3280     0.6830     0.2510 H     1 <1>   0.0800 
 40 H      -11.1180    -0.0330    -1.3230 H     1 <1>   0.0800 
@<TRIPOS>BOND
  1   1   2  1   
  2   1   3  1   
  3   2   4  1   
  4   2  21  1   
  5   2  22  1   
  6   3  23  1   
  7   3  24  1   
  8   3  25  1   
  9   4   5  1   
 10   4  26  1   
 11   4  27  1   
 12   5   6  1   
 13   5   7  1   
 14   5  28  1   
 15   6   8  1   
 16   6  29  1   
 17   7   9  ar  
 18   7  10  ar  
 19   8  11  2   
 20   8  30  1   
 21  11  12  1   
 22  11  13  1   
 23  12  14  2   
 24  12  15  1   
 25  13  16  2   
 26  13  17  1   
 27  15  18  1   
 28  15  31  1   
 29  15  32  1   
 30  17  18  1   
 31  17  33  1   
 32  17  34  1   
 33  18  19  1   
 34  18  20  1   
 35  19  35  1   
 36  19  36  1   
 37  19  37  1   
 38  20  38  1   
 39  20  39  1   
 40  20  40  1   
@<TRIPOS>SUBSTRUCTURE
  1 ****   8 GROUP 4 **** **** 0

# MOE 2024.06 (io_trps.svl 2023.06)
