@<TRIPOS>MOLECULE
NONAME
46 47 1 0 0 
SMALL
USER_CHARGES


@<TRIPOS>ATOM
  1 O       -0.1170    -0.0710     1.1760 O.2   1 <1>  -0.5700 
  2 C       -0.0870    -0.8060     0.2090 C.2   1 <1>   0.6900 
  3 N       -1.2110    -1.3250    -0.3590 N.am  1 <1>  -0.5470 
  4 N        1.1090    -1.1320    -0.3430 N.am  1 <1>  -0.7300 
  5 C       -2.5680    -1.0760    -0.1060 C.ar  1 <1>   0.1170 
  6 C        2.3910    -0.6690     0.2030 C.3   1 <1>   0.2200 
  7 C       -3.0300     0.1020     0.4740 C.ar  1 <1>  -0.1500 
  8 C       -3.5030    -2.0390    -0.4670 C.ar  1 <1>  -0.1500 
  9 C        2.7350     0.6930    -0.3940 C.3   1 <1>  -0.1600 
 10 C        3.4870    -1.6860    -0.1030 C.3   1 <1>  -0.1600 
 11 C       -4.3810     0.3070     0.6880 C.ar  1 <1>  -0.1500 
 12 C       -4.8550    -1.8360    -0.2550 C.ar  1 <1>  -0.1500 
 13 C        4.0870     1.1700     0.1240 C.3   1 <1>   0.3430 
 14 C        4.8320    -1.1770     0.4090 C.3   1 <1>   0.3430 
 15 C       -5.3030    -0.6600     0.3230 C.ar  1 <1>  -0.1430 
 16 N        5.1410     0.1550    -0.1930 N.4   1 <1>  -0.9590 
 17 C       -6.7850    -0.4330     0.5620 C.3   1 <1>  -0.0970 
 18 C        6.4940     0.6090     0.2350 C.3   1 <1>   0.3430 
 19 C        6.9950     1.7360    -0.6720 C.3   1 <1>  -0.1600 
 20 C        8.4330     2.1260    -0.3140 C.3   1 <1>  -0.2400 
 21 H       -1.0390    -2.0980    -0.9910 H     1 <1>   0.3700 
 22 H        1.1210    -1.5680    -1.2630 H     1 <1>   0.3700 
 23 H        2.2970    -0.5700     1.2740 H     1 <1>   0.0800 
 24 H       -2.3340     0.8690     0.7610 H     1 <1>   0.1500 
 25 H       -3.1770    -2.9580    -0.9160 H     1 <1>   0.1500 
 26 H        1.9830     1.4050    -0.1010 H     1 <1>   0.0800 
 27 H        2.7530     0.6450    -1.4680 H     1 <1>   0.0800 
 28 H        3.5500    -1.8710    -1.1610 H     1 <1>   0.0800 
 29 H        3.2560    -2.6140     0.3910 H     1 <1>   0.0800 
 30 H       -4.7100     1.2250     1.1420 H     1 <1>   0.1500 
 31 H       -5.5590    -2.5970    -0.5410 H     1 <1>   0.1500 
 32 H        4.0300     1.3160     1.1920 H     1 <1>   0.0800 
 33 H        4.3270     2.1160    -0.3330 H     1 <1>   0.0800 
 34 H        5.6040    -1.8860     0.1540 H     1 <1>   0.0800 
 35 H        4.7960    -1.0900     1.4840 H     1 <1>   0.0800 
 36 H        5.1650     0.0390    -1.2150 H     1 <1>   0.4500 
 37 H       -7.0220     0.6120     0.4810 H     1 <1>   0.0800 
 38 H       -7.0500    -0.7750     1.5460 H     1 <1>   0.0800 
 39 H       -7.3690    -0.9700    -0.1630 H     1 <1>   0.0800 
 40 H        7.1880    -0.2140     0.1700 H     1 <1>   0.0800 
 41 H        6.4690     0.9450     1.2590 H     1 <1>   0.0800 
 42 H        6.3740     2.6080    -0.5680 H     1 <1>   0.0800 
 43 H        6.9740     1.4150    -1.6990 H     1 <1>   0.0800 
 44 H        8.4950     2.4760     0.7020 H     1 <1>   0.0800 
 45 H        8.7710     2.9180    -0.9610 H     1 <1>   0.0800 
 46 H        9.1000     1.2890    -0.4330 H     1 <1>   0.0800 
@<TRIPOS>BOND
  1   1   2  2   
  2   2   3  am  
  3   2   4  am  
  4   3   5  1   
  5   3  21  1   
  6   4   6  1   
  7   4  22  1   
  8   5   7  ar  
  9   5   8  ar  
 10   6   9  1   
 11   6  10  1   
 12   6  23  1   
 13   7  11  ar  
 14   7  24  1   
 15   8  12  ar  
 16   8  25  1   
 17   9  13  1   
 18   9  26  1   
 19   9  27  1   
 20  10  14  1   
 21  10  28  1   
 22  10  29  1   
 23  11  15  ar  
 24  11  30  1   
 25  12  15  ar  
 26  12  31  1   
 27  13  16  1   
 28  13  32  1   
 29  13  33  1   
 30  14  16  1   
 31  14  34  1   
 32  14  35  1   
 33  15  17  1   
 34  16  18  1   
 35  16  36  1   
 36  17  37  1   
 37  17  38  1   
 38  17  39  1   
 39  18  19  1   
 40  18  40  1   
 41  18  41  1   
 42  19  20  1   
 43  19  42  1   
 44  19  43  1   
 45  20  44  1   
 46  20  45  1   
 47  20  46  1   
@<TRIPOS>SUBSTRUCTURE
  1 ****   2 GROUP 4 **** **** 0

# MOE 2024.06 (io_trps.svl 2023.06)
