@<TRIPOS>MOLECULE
NONAME
38 39 1 0 0 
SMALL
USER_CHARGES


@<TRIPOS>ATOM
  1 CL       0.2920     0.2860    -0.4450 Cl    1 <1>  -0.1770 
  2 C       -0.7080     1.7130    -0.2990 C.ar  1 <1>   0.1770 
  3 C       -0.1010     2.9620    -0.1950 C.ar  1 <1>   0.1170 
  4 C       -2.0810     1.5700    -0.2960 C.ar  1 <1>  -0.1500 
  5 N        1.3060     3.0510    -0.2070 N.am  1 <1>  -0.5470 
  6 C       -0.9300     4.0740    -0.1030 C.ar  1 <1>  -0.1500 
  7 C       -2.8790     2.6960    -0.1940 C.ar  1 <1>  -0.1500 
  8 C        2.1260     4.0040     0.3420 C.2   1 <1>   0.5690 
  9 C       -2.3240     3.9760    -0.1000 C.ar  1 <1>   0.0860 
 10 O        1.7140     4.9300     0.9990 O.2   1 <1>  -0.5700 
 11 C        3.6490     3.9230     0.1310 C.3   1 <1>   0.4040 
 12 C       -3.1490     5.1680    -0.0080 C.2   1 <1>   0.6340 
 13 N        4.3500     5.2460     0.3470 N.4   1 <1>  -0.9590 
 14 O       -2.6950     6.2930    -0.0500 O.2   1 <1>  -0.5700 
 15 O       -4.4700     5.0100     0.1220 O.3   1 <1>  -0.4300 
 16 C        4.0010     6.2790    -0.6590 C.3   1 <1>   0.3430 
 17 C        5.8270     5.1850     0.4090 C.3   1 <1>   0.3430 
 18 C       -5.3450     6.1170     0.2210 C.3   1 <1>   0.0400 
 19 C        5.0890     7.3310    -0.5000 C.3   1 <1>  -0.1600 
 20 C        6.2720     6.6220     0.1690 C.3   1 <1>  -0.1600 
 21 H       -2.5180     0.5900    -0.3720 H     1 <1>   0.1500 
 22 H        1.7450     2.2090    -0.5900 H     1 <1>   0.3700 
 23 H       -0.4970     5.0560    -0.0340 H     1 <1>   0.1500 
 24 H       -3.9500     2.5790    -0.1910 H     1 <1>   0.1500 
 25 H        3.8440     3.5700    -0.8670 H     1 <1>   0.0800 
 26 H        4.0360     3.1990     0.8270 H     1 <1>   0.0800 
 27 H        3.9910     5.6160     1.2440 H     1 <1>   0.4500 
 28 H        3.0170     6.6890    -0.4830 H     1 <1>   0.0800 
 29 H        4.0460     5.8590    -1.6510 H     1 <1>   0.0800 
 30 H        6.2030     4.5570    -0.3830 H     1 <1>   0.0800 
 31 H        6.1740     4.8140     1.3600 H     1 <1>   0.0800 
 32 H       -6.3510     5.7490     0.3180 H     1 <1>   0.0800 
 33 H       -5.2530     6.7140    -0.6700 H     1 <1>   0.0800 
 34 H       -5.0760     6.6970     1.0860 H     1 <1>   0.0800 
 35 H        4.7290     8.1310     0.1250 H     1 <1>   0.0800 
 36 H        5.3570     7.7430    -1.4580 H     1 <1>   0.0800 
 37 H        7.1520     6.6430    -0.4500 H     1 <1>   0.0800 
 38 H        6.5070     7.0930     1.1090 H     1 <1>   0.0800 
@<TRIPOS>BOND
  1   1   2  1   
  2   2   3  ar  
  3   2   4  ar  
  4   3   5  1   
  5   3   6  ar  
  6   4   7  ar  
  7   4  21  1   
  8   5   8  am  
  9   5  22  1   
 10   6   9  ar  
 11   6  23  1   
 12   7   9  ar  
 13   7  24  1   
 14   8  10  2   
 15   8  11  1   
 16   9  12  1   
 17  11  13  1   
 18  11  25  1   
 19  11  26  1   
 20  12  14  2   
 21  12  15  1   
 22  13  16  1   
 23  13  17  1   
 24  13  27  1   
 25  15  18  1   
 26  16  19  1   
 27  16  28  1   
 28  16  29  1   
 29  17  20  1   
 30  17  30  1   
 31  17  31  1   
 32  18  32  1   
 33  18  33  1   
 34  18  34  1   
 35  19  20  1   
 36  19  35  1   
 37  19  36  1   
 38  20  37  1   
 39  20  38  1   
@<TRIPOS>SUBSTRUCTURE
  1 ****   6 GROUP 4 **** **** 0

# MOE 2024.06 (io_trps.svl 2023.06)
