@<TRIPOS>MOLECULE
NONAME
47 49 1 0 0 
SMALL
USER_CHARGES


@<TRIPOS>ATOM
  1 O       -0.9860    -0.2310    -0.1870 O.2   1 <1>  -0.5700 
  2 C       -1.6790     0.7450    -0.2810 C.2   1 <1>   0.6590 
  3 O       -1.7460     1.6880     0.6350 O.3   1 <1>  -0.4300 
  4 C       -2.5330     1.0730    -1.4710 C.3   1 <1>  -0.0990 
  5 C       -2.5460     2.7790     0.2500 C.3   1 <1>   0.2800 
  6 C       -3.3740     2.2450    -0.9470 C.3   1 <1>  -0.0190 
  7 C       -3.3520     3.2400     1.4860 C.3   1 <1>  -0.1600 
  8 C       -1.5900     3.9030    -0.2100 C.3   1 <1>  -0.1600 
  9 C       -4.7790     1.8070    -0.5460 C.2   1 <1>   0.5690 
 10 C       -2.4590     3.7820     2.6140 C.3   1 <1>  -0.1600 
 11 C       -0.6980     4.4340     0.9240 C.3   1 <1>  -0.1600 
 12 O       -4.9350     0.7250    -0.0380 O.2   1 <1>  -0.5700 
 13 N       -5.7990     2.6850    -0.7840 N.am  1 <1>  -0.5470 
 14 C       -1.5430     4.9050     2.1130 C.3   1 <1>  -0.1600 
 15 C       -7.1790     2.6590    -0.5030 C.ar  1 <1>   0.1170 
 16 C       -7.9130     3.8240    -0.7520 C.ar  1 <1>   0.0820 
 17 C       -7.8400     1.5450     0.0010 C.ar  1 <1>  -0.1500 
 18 O       -7.2280     4.8980    -1.2520 O.3   1 <1>  -0.3630 
 19 C       -9.2780     3.8550    -0.4920 C.ar  1 <1>  -0.1500 
 20 C       -9.1990     1.5800     0.2590 C.ar  1 <1>  -0.1500 
 21 C       -7.8910     6.1140    -1.5310 C.3   1 <1>   0.0400 
 22 C       -9.9250     2.7400     0.0130 C.ar  1 <1>   0.0820 
 23 O      -11.2600     2.8610     0.2390 O.3   1 <1>  -0.3620 
 24 C      -12.0080     1.7820     0.7550 C.3   1 <1>   0.0400 
 25 H       -3.1180     0.2230    -1.7700 H     1 <1>   0.0800 
 26 H       -1.8940     1.3810    -2.2780 H     1 <1>   0.0800 
 27 H       -3.4680     2.9960    -1.7100 H     1 <1>   0.0800 
 28 H       -3.9310     2.4210     1.8750 H     1 <1>   0.0800 
 29 H       -4.0370     4.0150     1.1920 H     1 <1>   0.0800 
 30 H       -2.1750     4.7230    -0.5870 H     1 <1>   0.0800 
 31 H       -0.9680     3.5540    -1.0150 H     1 <1>   0.0800 
 32 H       -1.8550     2.9800     3.0040 H     1 <1>   0.0800 
 33 H       -3.0750     4.1480     3.4170 H     1 <1>   0.0800 
 34 H       -0.0980     5.2500     0.5620 H     1 <1>   0.0800 
 35 H       -0.0300     3.6540     1.2500 H     1 <1>   0.0800 
 36 H       -5.5410     3.5810    -1.2000 H     1 <1>   0.3700 
 37 H       -0.8930     5.2200     2.9120 H     1 <1>   0.0800 
 38 H       -2.1390     5.7520     1.8200 H     1 <1>   0.0800 
 39 H       -7.3030     0.6360     0.1980 H     1 <1>   0.1500 
 40 H       -9.8720     4.7300    -0.6690 H     1 <1>   0.1500 
 41 H       -9.6680     0.6970     0.6490 H     1 <1>   0.1500 
 42 H       -7.1680     6.8130    -1.9110 H     1 <1>   0.0800 
 43 H       -8.3230     6.4940    -0.6220 H     1 <1>   0.0800 
 44 H       -8.6500     5.9370    -2.2720 H     1 <1>   0.0800 
 45 H      -13.0300     2.1010     0.8520 H     1 <1>   0.0800 
 46 H      -11.6150     1.5140     1.7200 H     1 <1>   0.0800 
 47 H      -11.9480     0.9560     0.0690 H     1 <1>   0.0800 
@<TRIPOS>BOND
  1   1   2  2   
  2   2   3  1   
  3   2   4  1   
  4   3   5  1   
  5   4   6  1   
  6   4  25  1   
  7   4  26  1   
  8   5   6  1   
  9   5   7  1   
 10   5   8  1   
 11   6   9  1   
 12   6  27  1   
 13   7  10  1   
 14   7  28  1   
 15   7  29  1   
 16   8  11  1   
 17   8  30  1   
 18   8  31  1   
 19   9  12  2   
 20   9  13  am  
 21  10  14  1   
 22  10  32  1   
 23  10  33  1   
 24  11  14  1   
 25  11  34  1   
 26  11  35  1   
 27  13  15  1   
 28  13  36  1   
 29  14  37  1   
 30  14  38  1   
 31  15  16  ar  
 32  15  17  ar  
 33  16  18  1   
 34  16  19  ar  
 35  17  20  ar  
 36  17  39  1   
 37  18  21  1   
 38  19  22  ar  
 39  19  40  1   
 40  20  22  ar  
 41  20  41  1   
 42  21  42  1   
 43  21  43  1   
 44  21  44  1   
 45  22  23  1   
 46  23  24  1   
 47  24  45  1   
 48  24  46  1   
 49  24  47  1   
@<TRIPOS>SUBSTRUCTURE
  1 ****  13 GROUP 4 **** **** 0

# MOE 2024.06 (io_trps.svl 2023.06)
