@<TRIPOS>MOLECULE
NONAME
35 35 1 0 0 
SMALL
USER_CHARGES


@<TRIPOS>ATOM
  1 O       -1.5800    -3.7060     1.4140 O.3   1 <1>  -0.6800 
  2 C       -0.3160    -3.2060     1.1150 C.3   1 <1>   0.1200 
  3 C        0.4980    -4.1990     0.2330 C.3   1 <1>   0.5030 
  4 N        1.8200    -3.5970    -0.0470 N.4   1 <1>  -0.9060 
  5 C       -0.2170    -4.4440    -1.1020 C.3   1 <1>  -0.2400 
  6 C        0.7110    -5.5240     0.9760 C.3   1 <1>  -0.2400 
  7 C        2.7630    -4.3760    -0.8700 C.3   1 <1>   0.4810 
  8 C        4.0350    -3.5720    -0.8810 C.2   1 <1>  -0.2880 
  9 C        5.1500    -3.8970    -0.2050 C.2   1 <1>  -0.1780 
 10 C        6.4010    -3.1710    -0.1610 C.ar  1 <1>   0.0280 
 11 C        7.3340    -3.4560     0.8330 C.ar  1 <1>  -0.1500 
 12 C        6.7240    -2.1780    -1.0840 C.ar  1 <1>  -0.1500 
 13 C        8.5350    -2.7750     0.9100 C.ar  1 <1>  -0.1500 
 14 C        7.9240    -1.4930    -1.0120 C.ar  1 <1>  -0.1500 
 15 C        8.8320    -1.7890    -0.0130 C.ar  1 <1>  -0.1500 
 16 H       -2.0990    -3.0880     1.9710 H     1 <1>   0.4000 
 17 H       -0.4570    -2.2720     0.5990 H     1 <1>   0.0800 
 18 H        0.1880    -3.0300     2.0490 H     1 <1>   0.0800 
 19 H        1.6840    -2.6910    -0.5030 H     1 <1>   0.4500 
 20 H        2.2970    -3.4090     0.8400 H     1 <1>   0.4500 
 21 H        0.2970    -5.1650    -1.7100 H     1 <1>   0.0800 
 22 H       -1.2010    -4.8400    -0.9160 H     1 <1>   0.0800 
 23 H       -0.3370    -3.5280    -1.6510 H     1 <1>   0.0800 
 24 H       -0.2440    -5.9470     1.2400 H     1 <1>   0.0800 
 25 H        1.2590    -5.3730     1.8890 H     1 <1>   0.0800 
 26 H        1.2140    -6.2540     0.3690 H     1 <1>   0.0800 
 27 H        2.9460    -5.3400    -0.4230 H     1 <1>   0.0800 
 28 H        2.3910    -4.5140    -1.8730 H     1 <1>   0.0800 
 29 H        3.9660    -2.6910    -1.4950 H     1 <1>   0.1500 
 30 H        5.1710    -4.7920     0.3960 H     1 <1>   0.1500 
 31 H        7.1250    -4.2190     1.5610 H     1 <1>   0.1500 
 32 H        6.0430    -1.9340    -1.8770 H     1 <1>   0.1500 
 33 H        9.2420    -3.0110     1.6870 H     1 <1>   0.1500 
 34 H        8.1550    -0.7290    -1.7350 H     1 <1>   0.1500 
 35 H        9.7660    -1.2570     0.0450 H     1 <1>   0.1500 
@<TRIPOS>BOND
  1   1   2  1   
  2   1  16  1   
  3   2   3  1   
  4   2  17  1   
  5   2  18  1   
  6   3   4  1   
  7   3   5  1   
  8   3   6  1   
  9   4   7  1   
 10   4  19  1   
 11   4  20  1   
 12   5  21  1   
 13   5  22  1   
 14   5  23  1   
 15   6  24  1   
 16   6  25  1   
 17   6  26  1   
 18   7   8  1   
 19   7  27  1   
 20   7  28  1   
 21   8   9  2   
 22   8  29  1   
 23   9  10  1   
 24   9  30  1   
 25  10  11  ar  
 26  10  12  ar  
 27  11  13  ar  
 28  11  31  1   
 29  12  14  ar  
 30  12  32  1   
 31  13  15  ar  
 32  13  33  1   
 33  14  15  ar  
 34  14  34  1   
 35  15  35  1   
@<TRIPOS>SUBSTRUCTURE
  1 ****   8 GROUP 4 **** **** 0

# MOE 2024.06 (io_trps.svl 2023.06)
