@<TRIPOS>MOLECULE
NONAME
44 46 1 0 0 
SMALL
USER_CHARGES


@<TRIPOS>ATOM
  1 CL       3.3130     0.8070     1.7450 Cl    1 <1>  -0.1850 
  2 C        2.7230    -0.8010     1.4020 C.ar  1 <1>   0.1690 
  3 C        2.7550    -1.3110     0.1100 C.ar  1 <1>  -0.1520 
  4 C        2.2370    -1.5440     2.4620 C.ar  1 <1>  -0.1590 
  5 C        2.2860    -2.6010    -0.0970 C.ar  1 <1>  -0.1590 
  6 C        3.2880    -0.5040    -1.0700 C.3   1 <1>   0.2760 
  7 C        1.7730    -2.8280     2.2390 C.ar  1 <1>  -0.1590 
  8 C        1.7990    -3.3540     0.9590 C.ar  1 <1>  -0.1590 
  9 N        4.7660    -0.3600    -0.9740 N.am  1 <1>  -0.4270 
 10 C        5.3170     0.8980    -0.7820 C.2   1 <1>   0.6850 
 11 C        5.5540    -1.4960    -0.9300 C.2   1 <1>   0.6990 
 12 O        4.7000     1.8910    -1.1070 O.2   1 <1>  -0.5750 
 13 N        6.5920     1.0160    -0.2450 N.am  1 <1>  -0.4430 
 14 O        5.1480    -2.5600    -1.3680 O.2   1 <1>  -0.5750 
 15 C        6.8710    -1.3710    -0.3820 C.2   1 <1>   0.2690 
 16 C        7.3250    -0.1410    -0.0590 C.2   1 <1>   0.4190 
 17 C        7.1510     2.3560     0.1000 C.3   1 <1>   0.0510 
 18 N        7.9050    -2.2760    -0.0650 N.pl3 1 <1>  -0.7680 
 19 N        8.5840    -0.2640     0.4430 N.pl3 1 <1>  -0.7040 
 20 C        8.9070    -1.5530     0.4350 C.cat 1 <1>   1.0680 
 21 C        7.7590    -3.7450    -0.2740 C.3   1 <1>   0.2660 
 22 N       10.0680    -2.0460     0.8610 N.pl3 1 <1>  -0.7190 
 23 C       11.1860    -1.3000     1.5010 C.3   1 <1>   0.1590 
 24 C       12.3540    -1.1090     0.5280 C.3   1 <1>   0.1110 
 25 O       13.1890    -0.1500     1.0660 O.3   1 <1>  -0.6850 
 26 H        2.2220    -1.1210     3.4500 H     1 <1>   0.1410 
 27 H        2.3010    -3.0340    -1.0840 H     1 <1>   0.1410 
 28 H        2.8050     0.4580    -1.0810 H     1 <1>   0.0710 
 29 H        3.0460    -0.9970    -1.9950 H     1 <1>   0.0710 
 30 H        1.3910    -3.4160     3.0560 H     1 <1>   0.1410 
 31 H        1.4390    -4.3530     0.7830 H     1 <1>   0.1410 
 32 H        6.3540     3.0630     0.2650 H     1 <1>   0.0710 
 33 H        7.7630     2.7130    -0.7100 H     1 <1>   0.0710 
 34 H        7.7370     2.3000     0.9990 H     1 <1>   0.0710 
 35 H        9.1870     0.4860     0.7660 H     1 <1>   0.4440 
 36 H        6.9060    -4.1090     0.2740 H     1 <1>   0.0710 
 37 H        8.6350    -4.2730     0.0590 H     1 <1>   0.0710 
 38 H        7.6050    -3.9510    -1.3200 H     1 <1>   0.0710 
 39 H       10.2100    -3.0530     0.7940 H     1 <1>   0.4440 
 40 H       11.5290    -1.8430     2.3660 H     1 <1>   0.0710 
 41 H       10.8410    -0.3340     1.8300 H     1 <1>   0.0710 
 42 H       12.0160    -0.7500    -0.4290 H     1 <1>   0.0710 
 43 H       12.9150    -2.0210     0.4110 H     1 <1>   0.0710 
 44 H       14.0180    -0.0620     0.5490 H     1 <1>   0.3930 
@<TRIPOS>BOND
  1   1   2  1   
  2   2   3  ar  
  3   2   4  ar  
  4   3   5  ar  
  5   3   6  1   
  6   4   7  ar  
  7   4  26  1   
  8   5   8  ar  
  9   5  27  1   
 10   6   9  1   
 11   6  28  1   
 12   6  29  1   
 13   7   8  ar  
 14   7  30  1   
 15   8  31  1   
 16   9  10  am  
 17   9  11  am  
 18  10  12  2   
 19  10  13  am  
 20  11  14  2   
 21  11  15  1   
 22  13  16  1   
 23  13  17  1   
 24  15  16  2   
 25  15  18  1   
 26  16  19  1   
 27  17  32  1   
 28  17  33  1   
 29  17  34  1   
 30  18  20  ar  
 31  18  21  1   
 32  19  20  ar  
 33  19  35  1   
 34  20  22  ar  
 35  21  36  1   
 36  21  37  1   
 37  21  38  1   
 38  22  23  1   
 39  22  39  1   
 40  23  24  1   
 41  23  40  1   
 42  23  41  1   
 43  24  25  1   
 44  24  42  1   
 45  24  43  1   
 46  25  44  1   
@<TRIPOS>SUBSTRUCTURE
  1 ****  15 GROUP 4 **** **** 0

# MOE 2024.06 (io_trps.svl 2023.06)
