@<TRIPOS>MOLECULE
NONAME
52 55 1 0 0 
SMALL
USER_CHARGES


@<TRIPOS>ATOM
  1 O        7.8750    -0.9150     1.3710 O.2   1 <1>  -0.5700 
  2 C        7.7620    -1.3760     0.2610 C.2   1 <1>   0.5690 
  3 N        6.6810    -1.1140    -0.5250 N.am  1 <1>  -0.7300 
  4 C        8.9090    -2.2560    -0.2660 C.3   1 <1>   0.4040 
  5 C        5.5160    -0.2970    -0.1120 C.3   1 <1>   0.2200 
  6 N       10.2010    -1.5070    -0.5290 N.4   1 <1>  -0.9590 
  7 C        4.2260    -1.1700    -0.0150 C.3   1 <1>   0.0000 
  8 C        5.4480     0.8790    -1.0920 C.3   1 <1>  -0.2400 
  9 C       11.2970    -2.3550    -1.0500 C.3   1 <1>   0.3430 
 10 C       10.7330    -0.8530     0.6960 C.3   1 <1>   0.3430 
 11 C        3.0140    -0.3090     0.4290 C.3   1 <1>  -0.1600 
 12 C        4.4290    -2.2760     1.0560 C.3   1 <1>  -0.1600 
 13 C        3.8570    -1.8590    -1.3570 C.3   1 <1>  -0.1600 
 14 C       12.5580    -1.5490    -0.7670 C.3   1 <1>  -0.1600 
 15 C       12.2020    -0.6020     0.3840 C.3   1 <1>  -0.1600 
 16 C        1.7440    -1.1650     0.5870 C.3   1 <1>  -0.0800 
 17 C        3.1680    -3.1440     1.2150 C.3   1 <1>  -0.0800 
 18 C        2.5910    -2.7240    -1.2040 C.3   1 <1>  -0.0800 
 19 C        1.9920    -2.2520     1.6470 C.3   1 <1>  -0.1600 
 20 C        1.4170    -1.8340    -0.7600 C.3   1 <1>  -0.1600 
 21 C        2.8380    -3.8050    -0.1360 C.3   1 <1>  -0.1600 
 22 H        6.5550    -1.5380    -1.4450 H     1 <1>   0.3700 
 23 H        8.5790    -2.7320    -1.1720 H     1 <1>   0.0800 
 24 H        9.0870    -3.0250     0.4650 H     1 <1>   0.0800 
 25 H        5.7060     0.1110     0.8690 H     1 <1>   0.0800 
 26 H       10.0200    -0.7530    -1.2050 H     1 <1>   0.4500 
 27 H        5.2400     0.5490    -2.0920 H     1 <1>   0.0800 
 28 H        6.3820     1.4120    -1.0860 H     1 <1>   0.0800 
 29 H        4.6850     1.5740    -0.7940 H     1 <1>   0.0800 
 30 H       11.1830    -2.5620    -2.1020 H     1 <1>   0.0800 
 31 H       11.3360    -3.2830    -0.5010 H     1 <1>   0.0800 
 32 H       10.6510    -1.5250     1.5360 H     1 <1>   0.0800 
 33 H       10.2050     0.0600     0.9250 H     1 <1>   0.0800 
 34 H        2.8100     0.4570    -0.2970 H     1 <1>   0.0800 
 35 H        3.2330     0.1780     1.3630 H     1 <1>   0.0800 
 36 H        4.6720    -1.8250     2.0030 H     1 <1>   0.0800 
 37 H        5.2490    -2.9160     0.7860 H     1 <1>   0.0800 
 38 H        4.6620    -2.4850    -1.6920 H     1 <1>   0.0800 
 39 H        3.6750    -1.1200    -2.1170 H     1 <1>   0.0800 
 40 H       12.8340    -0.9870    -1.6430 H     1 <1>   0.0800 
 41 H       13.3740    -2.2020    -0.5100 H     1 <1>   0.0800 
 42 H       12.8050    -0.7890     1.2560 H     1 <1>   0.0800 
 43 H       12.3430     0.4230     0.0870 H     1 <1>   0.0800 
 44 H        0.9210    -0.5430     0.8930 H     1 <1>   0.0800 
 45 H        3.3390    -3.9030     1.9590 H     1 <1>   0.0800 
 46 H        2.3540    -3.1930    -2.1440 H     1 <1>   0.0800 
 47 H        2.2120    -1.7930     2.5960 H     1 <1>   0.0800 
 48 H        1.1060    -2.8500     1.7710 H     1 <1>   0.0800 
 49 H        1.2260    -1.0810    -1.5050 H     1 <1>   0.0800 
 50 H        0.5250    -2.4290    -0.6630 H     1 <1>   0.0800 
 51 H        1.9620    -4.4210    -0.0330 H     1 <1>   0.0800 
 52 H        3.6500    -4.4430    -0.4390 H     1 <1>   0.0800 
@<TRIPOS>BOND
  1   1   2  2   
  2   2   3  am  
  3   2   4  1   
  4   3   5  1   
  5   3  22  1   
  6   4   6  1   
  7   4  23  1   
  8   4  24  1   
  9   5   7  1   
 10   5   8  1   
 11   5  25  1   
 12   6   9  1   
 13   6  10  1   
 14   6  26  1   
 15   7  11  1   
 16   7  12  1   
 17   7  13  1   
 18   8  27  1   
 19   8  28  1   
 20   8  29  1   
 21   9  14  1   
 22   9  30  1   
 23   9  31  1   
 24  10  15  1   
 25  10  32  1   
 26  10  33  1   
 27  11  16  1   
 28  11  34  1   
 29  11  35  1   
 30  12  17  1   
 31  12  36  1   
 32  12  37  1   
 33  13  18  1   
 34  13  38  1   
 35  13  39  1   
 36  14  15  1   
 37  14  40  1   
 38  14  41  1   
 39  15  42  1   
 40  15  43  1   
 41  16  19  1   
 42  16  20  1   
 43  16  44  1   
 44  17  19  1   
 45  17  21  1   
 46  17  45  1   
 47  18  20  1   
 48  18  21  1   
 49  18  46  1   
 50  19  47  1   
 51  19  48  1   
 52  20  49  1   
 53  20  50  1   
 54  21  51  1   
 55  21  52  1   
@<TRIPOS>SUBSTRUCTURE
  1 ****   3 GROUP 4 **** **** 0

# MOE 2024.06 (io_trps.svl 2023.06)
