@<TRIPOS>MOLECULE
NONAME
53 55 1 0 0 
SMALL
USER_CHARGES


@<TRIPOS>ATOM
  1 O       -0.4880    -1.3540     2.8390 O.2   1 <1>  -0.5700 
  2 C        0.1340    -1.4790     1.8120 C.2   1 <1>   0.5690 
  3 N       -0.3900    -1.3380     0.5580 N.am  1 <1>  -0.5470 
  4 C        1.6260    -1.8140     1.8810 C.3   1 <1>   0.1710 
  5 C       -1.6720    -1.0380     0.0740 C.ar  1 <1>   0.1170 
  6 N        2.3940    -1.3860     0.6730 N.3   1 <1>  -0.8100 
  7 C       -1.8290    -0.8220    -1.2890 C.ar  1 <1>  -0.1500 
  8 C       -2.7960    -0.9470     0.8880 C.ar  1 <1>  -0.1500 
  9 C        3.7210    -2.0420     0.6390 C.3   1 <1>   0.1100 
 10 C        2.5810     0.0880     0.6630 C.3   1 <1>   0.1100 
 11 C       -3.0690    -0.5230    -1.8260 C.ar  1 <1>  -0.1500 
 12 C       -4.0370    -0.6480     0.3540 C.ar  1 <1>  -0.1500 
 13 C        4.5420    -1.6390    -0.6020 C.3   1 <1>   0.2090 
 14 C        3.3850     0.5770    -0.5600 C.3   1 <1>   0.2090 
 15 C       -4.1830    -0.4340    -1.0070 C.ar  1 <1>  -0.1440 
 16 N        4.6780    -0.1570    -0.7080 N.pl3 1 <1>  -0.8380 
 17 C       -5.5460    -0.1060    -1.5930 C.3   1 <1>  -0.0170 
 18 C        5.8920     0.4220    -0.3340 C.ar  1 <1>   0.1000 
 19 C       -5.7730     1.4070    -1.6110 C.3   1 <1>  -0.2400 
 20 C        7.0320     0.1600    -1.0810 C.ar  1 <1>  -0.1500 
 21 C        6.0080     1.2530     0.7770 C.ar  1 <1>  -0.1500 
 22 C        8.2600     0.7000    -0.7400 C.ar  1 <1>   0.0820 
 23 C        7.2270     1.8030     1.1280 C.ar  1 <1>  -0.1500 
 24 O        9.3140     0.3780    -1.5330 O.3   1 <1>  -0.3620 
 25 C        8.3560     1.5290     0.3750 C.ar  1 <1>  -0.1500 
 26 C       10.5990     0.9040    -1.2890 C.3   1 <1>   0.0400 
 27 H        0.3450    -1.4250    -0.1490 H     1 <1>   0.3700 
 28 H        1.7000    -2.8810     1.9900 H     1 <1>   0.0800 
 29 H        2.0440    -1.3630     2.7640 H     1 <1>   0.0800 
 30 H       -0.9770    -0.8880    -1.9390 H     1 <1>   0.1500 
 31 H       -2.7130    -1.1110     1.9460 H     1 <1>   0.1500 
 32 H        3.5920    -3.1100     0.6290 H     1 <1>   0.0800 
 33 H        4.2830    -1.7800     1.5190 H     1 <1>   0.0800 
 34 H        3.0980     0.3930     1.5570 H     1 <1>   0.0800 
 35 H        1.6230     0.5780     0.6570 H     1 <1>   0.0800 
 36 H       -3.1650    -0.3570    -2.8850 H     1 <1>   0.1500 
 37 H       -4.8900    -0.5810     1.0050 H     1 <1>   0.1500 
 38 H        4.0560    -2.0110    -1.4860 H     1 <1>   0.0800 
 39 H        5.5170    -2.0900    -0.5430 H     1 <1>   0.0800 
 40 H        3.5750     1.6330    -0.4740 H     1 <1>   0.0800 
 41 H        2.7990     0.4250    -1.4480 H     1 <1>   0.0800 
 42 H       -6.3150    -0.5790    -1.0080 H     1 <1>   0.0800 
 43 H       -5.6140    -0.4930    -2.5950 H     1 <1>   0.0800 
 44 H       -5.7220     1.8010    -0.6110 H     1 <1>   0.0800 
 45 H       -6.7400     1.6330    -2.0240 H     1 <1>   0.0800 
 46 H       -5.0190     1.8880    -2.2080 H     1 <1>   0.0800 
 47 H        6.9580    -0.4710    -1.9460 H     1 <1>   0.1500 
 48 H        5.1440     1.4660     1.3730 H     1 <1>   0.1500 
 49 H        7.2990     2.4430     1.9890 H     1 <1>   0.1500 
 50 H        9.2910     1.9660     0.6680 H     1 <1>   0.1500 
 51 H       11.2640     0.5250    -2.0440 H     1 <1>   0.0800 
 52 H       10.9280     0.5820    -0.3160 H     1 <1>   0.0800 
 53 H       10.5530     1.9770    -1.3470 H     1 <1>   0.0800 
@<TRIPOS>BOND
  1   1   2  2   
  2   2   3  am  
  3   2   4  1   
  4   3   5  1   
  5   3  27  1   
  6   4   6  1   
  7   4  28  1   
  8   4  29  1   
  9   5   7  ar  
 10   5   8  ar  
 11   6   9  1   
 12   6  10  1   
 13   7  11  ar  
 14   7  30  1   
 15   8  12  ar  
 16   8  31  1   
 17   9  13  1   
 18   9  32  1   
 19   9  33  1   
 20  10  14  1   
 21  10  34  1   
 22  10  35  1   
 23  11  15  ar  
 24  11  36  1   
 25  12  15  ar  
 26  12  37  1   
 27  13  16  1   
 28  13  38  1   
 29  13  39  1   
 30  14  16  1   
 31  14  40  1   
 32  14  41  1   
 33  15  17  1   
 34  16  18  1   
 35  17  19  1   
 36  17  42  1   
 37  17  43  1   
 38  18  20  ar  
 39  18  21  ar  
 40  19  44  1   
 41  19  45  1   
 42  19  46  1   
 43  20  22  ar  
 44  20  47  1   
 45  21  23  ar  
 46  21  48  1   
 47  22  24  1   
 48  22  25  ar  
 49  23  25  ar  
 50  23  49  1   
 51  24  26  1   
 52  25  50  1   
 53  26  51  1   
 54  26  52  1   
 55  26  53  1   
@<TRIPOS>SUBSTRUCTURE
  1 ****  10 GROUP 4 **** **** 0

# MOE 2024.06 (io_trps.svl 2023.06)
