@<TRIPOS>MOLECULE
Structure1698
38 38 1 0 0 
SMALL
USER_CHARGES


@<TRIPOS>ATOM
  1 O        2.8730     0.5220     1.1470 O.2   1 <1>  -0.5700 
  2 C        2.1860    -0.1610     0.4160 C.2   1 <1>   0.7800 
  3 O        1.2800     0.3840    -0.3970 O.3   1 <1>  -0.4300 
  4 N        2.3020    -1.5030     0.3990 N.am  1 <1>  -0.7300 
  5 C        0.9000     1.7360    -0.4860 C.3   1 <1>   0.2800 
  6 C        1.6100    -2.4230    -0.5150 C.3   1 <1>   0.3640 
  7 C       -0.2090     1.7640    -1.5380 C.3   1 <1>  -0.2400 
  8 C        2.0820     2.5870    -0.9640 C.3   1 <1>  -0.2400 
  9 C        0.3350     2.2120     0.8570 C.3   1 <1>  -0.2400 
 10 C        0.0930    -2.3270    -0.3330 C.ar  1 <1>  -0.1440 
 11 C        2.0820    -3.8390    -0.2410 C.3   1 <1>  -0.2660 
 12 C       -0.7290    -2.2020    -1.4450 C.ar  1 <1>  -0.1500 
 13 C       -0.4820    -2.3510     0.9320 C.ar  1 <1>  -0.1500 
 14 C        3.5460    -3.9230    -0.5260 C.2   1 <1>   0.9060 
 15 C       -2.1020    -2.1000    -1.2980 C.ar  1 <1>  -0.1500 
 16 C       -1.8540    -2.2500     1.0870 C.ar  1 <1>  -0.1500 
 17 O        4.3270    -3.5000     0.3310 O.co2 1 <1>  -0.9000 
 18 O        3.9090    -4.3690    -1.6160 O.co2 1 <1>  -0.9000 
 19 C       -2.6590    -2.1230    -0.0320 C.ar  1 <1>   0.0820 
 20 O       -3.9900    -2.0200     0.1020 O.3   1 <1>  -0.5330 
 21 H        3.1910    -1.9020     0.7460 H     1 <1>   0.3700 
 22 H        1.8730    -2.1580    -1.5260 H     1 <1>   0.0800 
 23 H       -1.0270     1.1380    -1.2290 H     1 <1>   0.0800 
 24 H        0.1660     1.4070    -2.4810 H     1 <1>   0.0800 
 25 H       -0.5750     2.7650    -1.6720 H     1 <1>   0.0800 
 26 H        2.4950     2.1750    -1.8660 H     1 <1>   0.0800 
 27 H        2.8500     2.6350    -0.2140 H     1 <1>   0.0800 
 28 H        1.7550     3.5910    -1.1620 H     1 <1>   0.0800 
 29 H       -0.4380     1.5440     1.1910 H     1 <1>   0.0800 
 30 H       -0.0830     3.1960     0.7520 H     1 <1>   0.0800 
 31 H        1.1060     2.2610     1.6040 H     1 <1>   0.0800 
 32 H        1.5700    -4.5260    -0.8840 H     1 <1>   0.0800 
 33 H        1.9020    -4.1150     0.7790 H     1 <1>   0.0800 
 34 H       -0.2980    -2.1810    -2.4310 H     1 <1>   0.1500 
 35 H        0.1520    -2.4440     1.7980 H     1 <1>   0.1500 
 36 H       -2.7400    -2.0030    -2.1560 H     1 <1>   0.1500 
 37 H       -2.2790    -2.2680     2.0730 H     1 <1>   0.1500 
 38 H       -4.2780    -2.0470     1.0310 H     1 <1>   0.4500 
@<TRIPOS>BOND
  1   1   2  2   
  2   2   3  1   
  3   2   4  am  
  4   3   5  1   
  5   4   6  1   
  6   4  21  1   
  7   5   7  1   
  8   5   8  1   
  9   5   9  1   
 10   6  10  1   
 11   6  11  1   
 12   6  22  1   
 13   7  23  1   
 14   7  24  1   
 15   7  25  1   
 16   8  26  1   
 17   8  27  1   
 18   8  28  1   
 19   9  29  1   
 20   9  30  1   
 21   9  31  1   
 22  10  12  ar  
 23  10  13  ar  
 24  11  14  1   
 25  11  32  1   
 26  11  33  1   
 27  12  15  ar  
 28  12  34  1   
 29  13  16  ar  
 30  13  35  1   
 31  14  17  ar  
 32  14  18  ar  
 33  15  19  ar  
 34  15  36  1   
 35  16  19  ar  
 36  16  37  1   
 37  19  20  1   
 38  20  38  1   
@<TRIPOS>SUBSTRUCTURE
  1 ****  10 GROUP 4 **** **** 0

# MOE 2024.06 (io_trps.svl 2023.06)
