@<TRIPOS>MOLECULE
NONAME
29 31 1 0 0 
SMALL
USER_CHARGES


@<TRIPOS>ATOM
  1 N        0.1740     0.7530    -2.4200 N.1   1 <1>  -0.5570 
  2 C        0.8300     1.2540    -1.6370 C.1   1 <1>   0.3570 
  3 C        1.6850     1.8900    -0.5970 C.3   1 <1>   0.2200 
  4 C        1.2870     3.3350    -0.3640 C.2   1 <1>   0.0060 
  5 N        2.0670     4.3330    -0.5980 N.2   1 <1>  -0.3380 
  6 N        0.0790     3.7320     0.0780 N.pl3 1 <1>   0.3260 
  7 N        1.3710     5.4420    -0.3450 N.2   1 <1>  -0.3380 
  8 C       -1.0960     3.0200     0.4460 C.ar  1 <1>  -0.0230 
  9 C        0.2000     5.0660     0.0350 C.2   1 <1>   0.0070 
 10 C       -2.3190     3.3600    -0.1340 C.ar  1 <1>  -0.1440 
 11 C       -1.0520     2.0140     1.4060 C.ar  1 <1>  -0.1500 
 12 C       -0.9600     5.9810     0.3910 C.3   1 <1>   0.0200 
 13 C       -3.4670     2.6820     0.2390 C.ar  1 <1>  -0.1500 
 14 C       -2.3950     4.4680    -1.1840 C.3   1 <1>  -0.0160 
 15 C       -2.2030     1.3400     1.7690 C.ar  1 <1>  -0.1500 
 16 C       -2.1290     5.8760    -0.6100 C.3   1 <1>  -0.1600 
 17 C       -3.4110     1.6730     1.1850 C.ar  1 <1>  -0.1500 
 18 H        2.7060     1.8520    -0.9290 H     1 <1>   0.0800 
 19 H        1.6100     1.3310     0.3150 H     1 <1>   0.0800 
 20 H       -0.1240     1.7580     1.8850 H     1 <1>   0.1500 
 21 H       -0.6140     6.9990     0.4340 H     1 <1>   0.0800 
 22 H       -1.3100     5.7180     1.3740 H     1 <1>   0.0800 
 23 H       -4.4150     2.9310    -0.2050 H     1 <1>   0.1500 
 24 H       -3.3610     4.4610    -1.6580 H     1 <1>   0.0800 
 25 H       -1.6760     4.2580    -1.9590 H     1 <1>   0.0800 
 26 H       -2.1640     0.5590     2.5090 H     1 <1>   0.1500 
 27 H       -1.9320     6.5360    -1.4370 H     1 <1>   0.0800 
 28 H       -3.0220     6.2290    -0.1240 H     1 <1>   0.0800 
 29 H       -4.3080     1.1490     1.4660 H     1 <1>   0.1500 
@<TRIPOS>BOND
  1   1   2  3   
  2   2   3  1   
  3   3   4  1   
  4   3  18  1   
  5   3  19  1   
  6   4   5  2   
  7   4   6  1   
  8   5   7  1   
  9   6   8  1   
 10   6   9  1   
 11   7   9  2   
 12   8  10  ar  
 13   8  11  ar  
 14   9  12  1   
 15  10  13  ar  
 16  10  14  1   
 17  11  15  ar  
 18  11  20  1   
 19  12  16  1   
 20  12  21  1   
 21  12  22  1   
 22  13  17  ar  
 23  13  23  1   
 24  14  16  1   
 25  14  24  1   
 26  14  25  1   
 27  15  17  ar  
 28  15  26  1   
 29  16  27  1   
 30  16  28  1   
 31  17  29  1   
@<TRIPOS>SUBSTRUCTURE
  1 ****   8 GROUP 4 **** **** 0

# MOE 2024.06 (io_trps.svl 2023.06)
