@<TRIPOS>MOLECULE
NONAME
33 33 1 0 0 
SMALL
USER_CHARGES


@<TRIPOS>ATOM
  1 O       -0.5840    -0.0300     1.4740 O.3   1 <1>  -0.6800 
  2 C       -0.9520    -0.6430     0.3100 C.3   1 <1>   0.4800 
  3 C        0.1880    -1.5210    -0.0830 C.1   1 <1>  -0.2000 
  4 C       -2.2120    -1.4510     0.5950 C.3   1 <1>  -0.2400 
  5 C       -1.1900     0.4520    -0.7220 C.3   1 <1>  -0.2400 
  6 C        1.1350    -2.1700    -0.3920 C.1   1 <1>  -0.2000 
  7 C        2.3810    -2.8910    -0.7600 C.3   1 <1>   0.5430 
  8 N        3.5190    -2.1160    -0.2080 N.4   1 <1>  -0.9590 
  9 C        3.6770    -0.7990    -0.8980 C.3   1 <1>   0.3430 
 10 C        4.7800    -2.9090    -0.2080 C.3   1 <1>   0.3430 
 11 C        4.7610     0.0220    -0.1960 C.3   1 <1>  -0.1600 
 12 C        5.8810    -2.1240     0.5070 C.3   1 <1>  -0.1600 
 13 C        6.0910    -0.7380    -0.1170 C.3   1 <1>  -0.1600 
 14 H       -0.5450    -0.7010     2.1770 H     1 <1>   0.4000 
 15 H       -2.0230    -2.2060     1.3360 H     1 <1>   0.0800 
 16 H       -2.5410    -1.9380    -0.3050 H     1 <1>   0.0800 
 17 H       -3.0000    -0.8040     0.9350 H     1 <1>   0.0800 
 18 H       -0.2950     1.0300    -0.8650 H     1 <1>   0.0800 
 19 H       -1.9810     1.1030    -0.3960 H     1 <1>   0.0800 
 20 H       -1.4720     0.0170    -1.6630 H     1 <1>   0.0800 
 21 H        2.4620    -2.9760    -1.8310 H     1 <1>   0.0800 
 22 H        2.3580    -3.8800    -0.3310 H     1 <1>   0.0800 
 23 H        3.2690    -1.9050     0.7660 H     1 <1>   0.4500 
 24 H        2.7470    -0.2510    -0.8750 H     1 <1>   0.0800 
 25 H        3.9540    -0.9540    -1.9280 H     1 <1>   0.0800 
 26 H        5.0860    -3.1100    -1.2230 H     1 <1>   0.0800 
 27 H        4.6280    -3.8510     0.2950 H     1 <1>   0.0800 
 28 H        4.4250     0.2810     0.7930 H     1 <1>   0.0800 
 29 H        4.9070     0.9420    -0.7350 H     1 <1>   0.0800 
 30 H        6.8010    -2.6800     0.4530 H     1 <1>   0.0800 
 31 H        5.6300    -2.0230     1.5490 H     1 <1>   0.0800 
 32 H        6.7990    -0.1760     0.4690 H     1 <1>   0.0800 
 33 H        6.5010    -0.8480    -1.1080 H     1 <1>   0.0800 
@<TRIPOS>BOND
  1   1   2  1   
  2   1  14  1   
  3   2   3  1   
  4   2   4  1   
  5   2   5  1   
  6   3   6  3   
  7   4  15  1   
  8   4  16  1   
  9   4  17  1   
 10   5  18  1   
 11   5  19  1   
 12   5  20  1   
 13   6   7  1   
 14   7   8  1   
 15   7  21  1   
 16   7  22  1   
 17   8   9  1   
 18   8  10  1   
 19   8  23  1   
 20   9  11  1   
 21   9  24  1   
 22   9  25  1   
 23  10  12  1   
 24  10  26  1   
 25  10  27  1   
 26  11  13  1   
 27  11  28  1   
 28  11  29  1   
 29  12  13  1   
 30  12  30  1   
 31  12  31  1   
 32  13  32  1   
 33  13  33  1   
@<TRIPOS>SUBSTRUCTURE
  1 ****   6 GROUP 4 **** **** 0

# MOE 2024.06 (io_trps.svl 2023.06)
