@<TRIPOS>MOLECULE
NONAME
42 42 1 0 0 
SMALL
USER_CHARGES


@<TRIPOS>ATOM
  1 BR      -0.1260    -0.1820     1.5810 Br    1 <1>  -0.1110 
  2 C       -1.7570    -0.9020     0.8610 C.ar  1 <1>   0.1110 
  3 C       -2.4900    -1.7880     1.6260 C.ar  1 <1>  -0.1500 
  4 C       -2.1540    -0.5180    -0.4050 C.ar  1 <1>  -0.1500 
  5 C       -3.6650    -2.3020     1.1050 C.ar  1 <1>  -0.1500 
  6 C       -3.3310    -1.0360    -0.9180 C.ar  1 <1>  -0.1500 
  7 C       -4.0940    -1.9220    -0.1630 C.ar  1 <1>  -0.1430 
  8 C       -5.3920    -2.4720    -0.7220 C.3   1 <1>   0.4870 
  9 N       -6.5280    -1.7750    -0.0350 N.4   1 <1>  -0.9590 
 10 C       -7.8270    -2.5120    -0.2570 C.3   1 <1>   0.3430 
 11 C       -6.5670    -0.3320    -0.4600 C.3   1 <1>   0.2630 
 12 C       -9.0180    -1.9930     0.6020 C.3   1 <1>   0.3430 
 13 N      -10.3390    -2.6880     0.3620 N.4   1 <1>  -0.9590 
 14 C      -11.4260    -1.9640     1.0890 C.3   1 <1>   0.3430 
 15 C      -10.3440    -4.1320     0.7520 C.3   1 <1>   0.3430 
 16 C      -12.7690    -2.2880     0.4450 C.3   1 <1>  -0.2400 
 17 C      -10.1860    -4.9830    -0.5010 C.3   1 <1>  -0.2400 
 18 H       -2.1390    -2.0680     2.6050 H     1 <1>   0.1500 
 19 H       -1.5480     0.1690    -0.9710 H     1 <1>   0.1500 
 20 H       -4.2240    -3.0030     1.7020 H     1 <1>   0.1500 
 21 H       -3.6320    -0.7410    -1.9090 H     1 <1>   0.1500 
 22 H       -5.4290    -3.5330    -0.5330 H     1 <1>   0.0800 
 23 H       -5.4350    -2.3120    -1.7880 H     1 <1>   0.0800 
 24 H       -6.2560    -1.7910     0.9610 H     1 <1>   0.4500 
 25 H       -7.6750    -3.5530    -0.0240 H     1 <1>   0.0800 
 26 H       -8.0940    -2.4390    -1.2980 H     1 <1>   0.0800 
 27 H       -6.7660    -0.2520    -1.5170 H     1 <1>   0.0800 
 28 H       -5.6180     0.1430    -0.2580 H     1 <1>   0.0800 
 29 H       -7.3280     0.2080     0.0790 H     1 <1>   0.0800 
 30 H       -9.1470    -0.9430     0.3930 H     1 <1>   0.0800 
 31 H       -8.7610    -2.0920     1.6440 H     1 <1>   0.0800 
 32 H      -10.6040    -2.6390    -0.6340 H     1 <1>   0.4500 
 33 H      -11.2670    -0.8990     1.0270 H     1 <1>   0.0800 
 34 H      -11.4360    -2.2430     2.1320 H     1 <1>   0.0800 
 35 H      -11.2820    -4.3880     1.2220 H     1 <1>   0.0800 
 36 H       -9.5560    -4.3430     1.4570 H     1 <1>   0.0800 
 37 H      -12.7820    -1.9980    -0.5910 H     1 <1>   0.0800 
 38 H      -13.5410    -1.7320     0.9480 H     1 <1>   0.0800 
 39 H      -13.0140    -3.3310     0.5320 H     1 <1>   0.0800 
 40 H      -11.0000    -4.8090    -1.1840 H     1 <1>   0.0800 
 41 H      -10.2180    -6.0220    -0.2230 H     1 <1>   0.0800 
 42 H       -9.2520    -4.8080    -0.9990 H     1 <1>   0.0800 
@<TRIPOS>BOND
  1   1   2  1   
  2   2   3  ar  
  3   2   4  ar  
  4   3   5  ar  
  5   3  18  1   
  6   4   6  ar  
  7   4  19  1   
  8   5   7  ar  
  9   5  20  1   
 10   6   7  ar  
 11   6  21  1   
 12   7   8  1   
 13   8   9  1   
 14   8  22  1   
 15   8  23  1   
 16   9  10  1   
 17   9  11  1   
 18   9  24  1   
 19  10  12  1   
 20  10  25  1   
 21  10  26  1   
 22  11  27  1   
 23  11  28  1   
 24  11  29  1   
 25  12  13  1   
 26  12  30  1   
 27  12  31  1   
 28  13  14  1   
 29  13  15  1   
 30  13  32  1   
 31  14  16  1   
 32  14  33  1   
 33  14  34  1   
 34  15  17  1   
 35  15  35  1   
 36  15  36  1   
 37  16  37  1   
 38  16  38  1   
 39  16  39  1   
 40  17  40  1   
 41  17  41  1   
 42  17  42  1   
@<TRIPOS>SUBSTRUCTURE
  1 ****   9 GROUP 4 **** **** 0

# MOE 2024.06 (io_trps.svl 2023.06)
