@<TRIPOS>MOLECULE
NONAME
49 51 1 0 0 
SMALL
USER_CHARGES


@<TRIPOS>ATOM
  1 S       -0.1770     0.4790     0.9040 S.3   1 <1>  -0.0800 
  2 C       -0.8770    -0.9800     0.2280 C.2   1 <1>   0.1040 
  3 C        1.4760    -0.0270     0.5400 C.2   1 <1>  -0.0130 
  4 N       -2.2460    -1.1850     0.2220 N.am  1 <1>  -0.4940 
  5 C        0.1100    -1.7980    -0.2480 C.2   1 <1>  -0.0860 
  6 C        2.5820     0.8360     0.8840 C.ar  1 <1>   0.0530 
  7 C        1.4180    -1.2410    -0.0590 C.2   1 <1>  -0.1500 
  8 C       -3.3050    -0.4440     0.6830 C.2   1 <1>   0.5690 
  9 C       -0.1250    -3.0720    -0.8670 C.2   1 <1>   0.8060 
 10 C        2.4700     1.8640     1.8230 C.ar  1 <1>  -0.1500 
 11 C        3.8260     0.6620     0.2780 C.ar  1 <1>  -0.1500 
 12 O       -3.1890     0.6260     1.2250 O.2   1 <1>  -0.5700 
 13 C       -4.7010    -1.0350     0.4750 C.3   1 <1>  -0.0190 
 14 O       -1.2410    -3.5370    -1.0260 O.2   1 <1>  -0.5700 
 15 O        0.9330    -3.7760    -1.2890 O.3   1 <1>  -0.4300 
 16 C        3.5440     2.6770     2.1380 C.ar  1 <1>  -0.1500 
 17 C        4.9050     1.4690     0.5890 C.ar  1 <1>  -0.1500 
 18 C       -5.2870    -0.5970    -0.8800 C.3   1 <1>  -0.1600 
 19 C       -5.6760    -0.6670     1.6130 C.3   1 <1>  -0.1600 
 20 C        0.7910    -5.0410    -1.9070 C.3   1 <1>   0.0400 
 21 C        4.7660     2.4810     1.5220 C.ar  1 <1>  -0.1500 
 22 C       -6.6910    -1.1690    -1.1020 C.3   1 <1>   0.1400 
 23 C       -7.0710    -1.2470     1.3680 C.3   1 <1>   0.1400 
 24 N       -7.5710    -0.7950     0.0400 N.am  1 <1>  -0.6600 
 25 C       -8.7220    -0.0770    -0.1660 C.2   1 <1>   0.5690 
 26 O       -9.1050     0.2280    -1.2700 O.2   1 <1>  -0.5700 
 27 C       -9.5750     0.3660     1.0000 C.3   1 <1>  -0.1790 
 28 H       -2.5140    -2.0710    -0.2170 H     1 <1>   0.3700 
 29 H        2.2890    -1.7830    -0.3840 H     1 <1>   0.1500 
 30 H        1.5330     2.0360     2.3210 H     1 <1>   0.1500 
 31 H        3.9540    -0.1140    -0.4530 H     1 <1>   0.1500 
 32 H       -4.6050    -2.1060     0.4680 H     1 <1>   0.0800 
 33 H        3.4290     3.4620     2.8650 H     1 <1>   0.1500 
 34 H        5.8540     1.3130     0.1050 H     1 <1>   0.1500 
 35 H       -4.6460    -0.9210    -1.6800 H     1 <1>   0.0800 
 36 H       -5.3420     0.4780    -0.9200 H     1 <1>   0.0800 
 37 H       -5.7570     0.4040     1.6940 H     1 <1>   0.0800 
 38 H       -5.2940    -1.0350     2.5490 H     1 <1>   0.0800 
 39 H        1.7700    -5.4090    -2.1580 H     1 <1>   0.0800 
 40 H        0.1980    -4.9310    -2.7990 H     1 <1>   0.0800 
 41 H        0.3090    -5.7150    -1.2200 H     1 <1>   0.0800 
 42 H        5.6030     3.1120     1.7660 H     1 <1>   0.1500 
 43 H       -6.6480    -2.2420    -1.1740 H     1 <1>   0.0800 
 44 H       -7.0870    -0.7910    -2.0300 H     1 <1>   0.0800 
 45 H       -7.7280    -0.9400     2.1610 H     1 <1>   0.0800 
 46 H       -7.0260    -2.3220     1.3750 H     1 <1>   0.0800 
 47 H       -9.9510    -0.4920     1.5240 H     1 <1>   0.0800 
 48 H      -10.4080     0.9420     0.6410 H     1 <1>   0.0800 
 49 H       -8.9950     0.9780     1.6630 H     1 <1>   0.0800 
@<TRIPOS>BOND
  1   1   2  1   
  2   1   3  1   
  3   2   4  1   
  4   2   5  2   
  5   3   6  1   
  6   3   7  2   
  7   4   8  am  
  8   4  28  1   
  9   5   7  1   
 10   5   9  1   
 11   6  10  ar  
 12   6  11  ar  
 13   7  29  1   
 14   8  12  2   
 15   8  13  1   
 16   9  14  2   
 17   9  15  1   
 18  10  16  ar  
 19  10  30  1   
 20  11  17  ar  
 21  11  31  1   
 22  13  18  1   
 23  13  19  1   
 24  13  32  1   
 25  15  20  1   
 26  16  21  ar  
 27  16  33  1   
 28  17  21  ar  
 29  17  34  1   
 30  18  22  1   
 31  18  35  1   
 32  18  36  1   
 33  19  23  1   
 34  19  37  1   
 35  19  38  1   
 36  20  39  1   
 37  20  40  1   
 38  20  41  1   
 39  21  42  1   
 40  22  24  1   
 41  22  43  1   
 42  22  44  1   
 43  23  24  1   
 44  23  45  1   
 45  23  46  1   
 46  24  25  am  
 47  25  26  2   
 48  25  27  1   
 49  27  47  1   
 50  27  48  1   
 51  27  49  1   
@<TRIPOS>SUBSTRUCTURE
  1 ****   4 GROUP 4 **** **** 0

# MOE 2024.06 (io_trps.svl 2023.06)
