@<TRIPOS>MOLECULE
NONAME
56 59 1 0 0 
SMALL
USER_CHARGES


@<TRIPOS>ATOM
  1 O       -1.1430    -0.2240     0.5390 O.2   1 <1>  -0.5700 
  2 C       -1.2820    -1.3780     0.9000 C.2   1 <1>   0.6900 
  3 N       -2.3510    -1.7310     1.6790 N.am  1 <1>  -0.6600 
  4 N       -0.3770    -2.3440     0.5680 N.am  1 <1>  -0.5470 
  5 C       -3.0770    -3.0300     1.5080 C.3   1 <1>   0.1400 
  6 C       -3.1910    -0.6790     2.3330 C.3   1 <1>   0.1400 
  7 C        0.6960    -2.3390    -0.3330 C.ar  1 <1>   0.1170 
  8 C       -4.4190    -2.8240     0.7820 C.3   1 <1>   0.2090 
  9 C       -4.5200    -0.4880     1.5840 C.3   1 <1>   0.2090 
 10 C        1.7330    -3.2460    -0.1490 C.ar  1 <1>  -0.1500 
 11 C        0.7580    -1.4760    -1.4230 C.ar  1 <1>  -0.1500 
 12 N       -5.2550    -1.7840     1.4620 N.pl3 1 <1>  -0.8380 
 13 C        2.8090    -3.2970    -1.0200 C.ar  1 <1>  -0.1430 
 14 C        1.8270    -1.5190    -2.2980 C.ar  1 <1>  -0.1500 
 15 C       -6.5770    -1.6690     1.0360 C.ar  1 <1>   0.4100 
 16 C        2.8510    -2.4280    -2.0980 C.ar  1 <1>  -0.1500 
 17 C        3.9380    -4.2890    -0.8090 C.3   1 <1>  -0.0970 
 18 N       -6.8680    -1.9290    -0.2420 N.ar  1 <1>  -0.3100 
 19 C       -7.5440    -1.2790     1.9440 C.ar  1 <1>  -0.1500 
 20 N       -8.1060    -1.8150    -0.6760 N.ar  1 <1>  -0.3100 
 21 C       -8.8330    -1.1590     1.4920 C.ar  1 <1>  -0.1500 
 22 C       -9.0750    -1.4370     0.1610 C.ar  1 <1>   0.4100 
 23 N      -10.3710    -1.3280    -0.3270 N.pl3 1 <1>  -0.8380 
 24 C      -11.0490    -2.6300    -0.5480 C.3   1 <1>   0.2090 
 25 C      -10.5310    -0.4030    -1.4790 C.3   1 <1>   0.2090 
 26 C      -12.5480    -2.3980    -0.7600 C.3   1 <1>  -0.1600 
 27 C      -12.0190    -0.1240    -1.7090 C.3   1 <1>  -0.1600 
 28 C      -12.8110    -1.4230    -1.9180 C.3   1 <1>  -0.1600 
 29 H       -0.4320    -3.1490     1.1790 H     1 <1>   0.3700 
 30 H       -3.2660    -3.4590     2.4760 H     1 <1>   0.0800 
 31 H       -2.4860    -3.7280     0.9430 H     1 <1>   0.0800 
 32 H       -2.6610     0.2580     2.3640 H     1 <1>   0.0800 
 33 H       -3.3970    -0.9720     3.3470 H     1 <1>   0.0800 
 34 H       -4.9600    -3.7540     0.7560 H     1 <1>   0.0800 
 35 H       -4.2280    -2.5220    -0.2350 H     1 <1>   0.0800 
 36 H       -4.3190    -0.0940     0.6020 H     1 <1>   0.0800 
 37 H       -5.1270     0.2260     2.1120 H     1 <1>   0.0800 
 38 H        1.6980    -3.9170     0.6890 H     1 <1>   0.1500 
 39 H       -0.0320    -0.7680    -1.5910 H     1 <1>   0.1500 
 40 H        1.8620    -0.8440    -3.1350 H     1 <1>   0.1500 
 41 H        3.6800    -2.4550    -2.7840 H     1 <1>   0.1500 
 42 H        3.8760    -4.7410     0.1650 H     1 <1>   0.0800 
 43 H        4.8860    -3.7900    -0.8920 H     1 <1>   0.0800 
 44 H        3.8860    -5.0630    -1.5530 H     1 <1>   0.0800 
 45 H       -7.2780    -1.0860     2.9650 H     1 <1>   0.1500 
 46 H       -9.6430    -0.8610     2.1300 H     1 <1>   0.1500 
 47 H      -10.8950    -3.2660     0.3070 H     1 <1>   0.0800 
 48 H      -10.6220    -3.1130    -1.4120 H     1 <1>   0.0800 
 49 H      -10.0980    -0.8480    -2.3600 H     1 <1>   0.0800 
 50 H      -10.0110     0.5180    -1.2750 H     1 <1>   0.0800 
 51 H      -12.9650    -2.0020     0.1490 H     1 <1>   0.0800 
 52 H      -13.0280    -3.3380    -0.9620 H     1 <1>   0.0800 
 53 H      -12.1330     0.5130    -2.5680 H     1 <1>   0.0800 
 54 H      -12.4050     0.4030    -0.8540 H     1 <1>   0.0800 
 55 H      -13.8630    -1.2050    -1.9830 H     1 <1>   0.0800 
 56 H      -12.5050    -1.8800    -2.8440 H     1 <1>   0.0800 
@<TRIPOS>BOND
  1   1   2  2   
  2   2   3  am  
  3   2   4  am  
  4   3   5  1   
  5   3   6  1   
  6   4   7  1   
  7   4  29  1   
  8   5   8  1   
  9   5  30  1   
 10   5  31  1   
 11   6   9  1   
 12   6  32  1   
 13   6  33  1   
 14   7  10  ar  
 15   7  11  ar  
 16   8  12  1   
 17   8  34  1   
 18   8  35  1   
 19   9  12  1   
 20   9  36  1   
 21   9  37  1   
 22  10  13  ar  
 23  10  38  1   
 24  11  14  ar  
 25  11  39  1   
 26  12  15  1   
 27  13  16  ar  
 28  13  17  1   
 29  14  16  ar  
 30  14  40  1   
 31  15  18  ar  
 32  15  19  ar  
 33  16  41  1   
 34  17  42  1   
 35  17  43  1   
 36  17  44  1   
 37  18  20  ar  
 38  19  21  ar  
 39  19  45  1   
 40  20  22  ar  
 41  21  22  ar  
 42  21  46  1   
 43  22  23  1   
 44  23  24  1   
 45  23  25  1   
 46  24  26  1   
 47  24  47  1   
 48  24  48  1   
 49  25  27  1   
 50  25  49  1   
 51  25  50  1   
 52  26  28  1   
 53  26  51  1   
 54  26  52  1   
 55  27  28  1   
 56  27  53  1   
 57  27  54  1   
 58  28  55  1   
 59  28  56  1   
@<TRIPOS>SUBSTRUCTURE
  1 ****   8 GROUP 4 **** **** 0

# MOE 2024.06 (io_trps.svl 2023.06)
