@<TRIPOS>MOLECULE
NONAME
37 38 1 0 0 
SMALL
USER_CHARGES


@<TRIPOS>ATOM
  1 CL       0.8070     0.0080    -0.9800 Cl    1 <1>  -0.1770 
  2 C        0.3550    -1.5250    -0.2600 C.ar  1 <1>   0.1770 
  3 C        1.3520    -2.4450     0.0630 C.ar  1 <1>   0.1170 
  4 C       -0.9850    -1.7770    -0.0370 C.ar  1 <1>  -0.1500 
  5 N        2.6980    -2.1220    -0.1970 N.am  1 <1>  -0.5470 
  6 C        0.9450    -3.6550     0.6210 C.ar  1 <1>  -0.1500 
  7 C       -1.3630    -2.9840     0.5240 C.ar  1 <1>  -0.1500 
  8 C        3.8670    -2.6520     0.2560 C.2   1 <1>   0.6900 
  9 C       -0.3950    -3.9200     0.8500 C.ar  1 <1>  -0.1500 
 10 O        3.9070    -3.5410     1.0820 O.2   1 <1>  -0.5700 
 11 N        5.0240    -2.1540    -0.2470 N.am  1 <1>  -0.7300 
 12 C        6.3500    -2.6050     0.1970 C.3   1 <1>   0.2200 
 13 C        7.3570    -1.4660     0.0640 C.3   1 <1>  -0.1600 
 14 C        6.7790    -3.8100    -0.6360 C.3   1 <1>  -0.1600 
 15 C        8.7510    -1.9490     0.4630 C.3   1 <1>   0.3430 
 16 C        8.1750    -4.2650    -0.2240 C.3   1 <1>   0.3430 
 17 N        9.1400    -3.1310    -0.3660 N.4   1 <1>  -0.9590 
 18 C       10.5270    -3.5770    -0.0330 C.3   1 <1>   0.2630 
 19 H       -1.7210    -1.0380    -0.2990 H     1 <1>   0.1500 
 20 H        2.8090    -1.2560    -0.7190 H     1 <1>   0.3700 
 21 H        1.6720    -4.4040     0.8790 H     1 <1>   0.1500 
 22 H       -2.4030    -3.1960     0.7060 H     1 <1>   0.1500 
 23 H       -0.6850    -4.8620     1.2850 H     1 <1>   0.1500 
 24 H        4.9840    -1.5270    -1.0480 H     1 <1>   0.3700 
 25 H        6.2880    -2.8980     1.2350 H     1 <1>   0.0800 
 26 H        7.0700    -0.6610     0.7170 H     1 <1>   0.0800 
 27 H        7.3810    -1.0940    -0.9440 H     1 <1>   0.0800 
 28 H        6.7670    -3.5730    -1.6850 H     1 <1>   0.0800 
 29 H        6.0900    -4.6190    -0.4650 H     1 <1>   0.0800 
 30 H        8.7500    -2.2220     1.5060 H     1 <1>   0.0800 
 31 H        9.4620    -1.1500     0.3240 H     1 <1>   0.0800 
 32 H        8.4810    -5.0920    -0.8440 H     1 <1>   0.0800 
 33 H        8.1540    -4.6000     0.8010 H     1 <1>   0.0800 
 34 H        9.1250    -2.8370    -1.3540 H     1 <1>   0.4500 
 35 H       10.5820    -3.8960     0.9960 H     1 <1>   0.0800 
 36 H       11.2270    -2.7700    -0.1810 H     1 <1>   0.0800 
 37 H       10.8180    -4.4010    -0.6640 H     1 <1>   0.0800 
@<TRIPOS>BOND
  1   1   2  1   
  2   2   3  ar  
  3   2   4  ar  
  4   3   5  1   
  5   3   6  ar  
  6   4   7  ar  
  7   4  19  1   
  8   5   8  am  
  9   5  20  1   
 10   6   9  ar  
 11   6  21  1   
 12   7   9  ar  
 13   7  22  1   
 14   8  10  2   
 15   8  11  am  
 16   9  23  1   
 17  11  12  1   
 18  11  24  1   
 19  12  13  1   
 20  12  14  1   
 21  12  25  1   
 22  13  15  1   
 23  13  26  1   
 24  13  27  1   
 25  14  16  1   
 26  14  28  1   
 27  14  29  1   
 28  15  17  1   
 29  15  30  1   
 30  15  31  1   
 31  16  17  1   
 32  16  32  1   
 33  16  33  1   
 34  17  18  1   
 35  17  34  1   
 36  18  35  1   
 37  18  36  1   
 38  18  37  1   
@<TRIPOS>SUBSTRUCTURE
  1 ****   8 GROUP 4 **** **** 0

# MOE 2024.06 (io_trps.svl 2023.06)
