@<TRIPOS>MOLECULE
NONAME
41 42 1 0 0 
SMALL
USER_CHARGES


@<TRIPOS>ATOM
  1 O        0.3640    -0.4540    -0.7950 O.3   1 <1>  -0.3630 
  2 C        0.4330    -1.6760    -0.2210 C.ar  1 <1>   0.0830 
  3 C       -0.3130     0.5360    -0.0560 C.3   1 <1>   0.0400 
  4 C        1.5100    -1.9920     0.6020 C.ar  1 <1>  -0.1440 
  5 C       -0.5680    -2.6120    -0.4700 C.ar  1 <1>  -0.1440 
  6 C        1.5620    -3.2420     1.1970 C.ar  1 <1>  -0.1500 
  7 C        2.6310    -0.9940     0.8580 C.3   1 <1>  -0.0960 
  8 C       -0.4950    -3.8550     0.1360 C.ar  1 <1>  -0.1500 
  9 C       -1.7350    -2.2970    -1.3950 C.3   1 <1>  -0.0970 
 10 C        0.5660    -4.1790     0.9660 C.ar  1 <1>  -0.1430 
 11 C        0.6430    -5.5580     1.6030 C.3   1 <1>  -0.0170 
 12 C        1.0530    -6.6280     0.5730 C.3   1 <1>  -0.0800 
 13 C        1.1040    -8.0220     1.2210 C.3   1 <1>  -0.1600 
 14 C        2.4070    -6.3050    -0.0870 C.3   1 <1>  -0.1600 
 15 C        1.5660    -9.0920     0.2290 C.3   1 <1>   0.3430 
 16 C        2.8460    -7.4030    -1.0550 C.3   1 <1>   0.3430 
 17 N        2.8860    -8.7080    -0.3410 N.4   1 <1>  -0.9060 
 18 H       -0.2940     1.4500    -0.6210 H     1 <1>   0.0800 
 19 H        0.1880     0.6730     0.8860 H     1 <1>   0.0800 
 20 H       -1.3270     0.2200     0.1050 H     1 <1>   0.0800 
 21 H        2.3860    -3.4850     1.8420 H     1 <1>   0.1500 
 22 H        2.8830    -0.4780    -0.0510 H     1 <1>   0.0800 
 23 H        3.5130    -1.4910     1.2180 H     1 <1>   0.0800 
 24 H        2.3170    -0.2740     1.5910 H     1 <1>   0.0800 
 25 H       -1.2720    -4.5760    -0.0430 H     1 <1>   0.1500 
 26 H       -1.3880    -1.7560    -2.2570 H     1 <1>   0.0800 
 27 H       -2.4590    -1.6960    -0.8760 H     1 <1>   0.0800 
 28 H       -2.2120    -3.1980    -1.7320 H     1 <1>   0.0800 
 29 H       -0.3210    -5.7990     2.0160 H     1 <1>   0.0800 
 30 H        1.3450    -5.5400     2.4190 H     1 <1>   0.0800 
 31 H        0.3000    -6.6430    -0.1990 H     1 <1>   0.0800 
 32 H        0.1240    -8.2850     1.5810 H     1 <1>   0.0800 
 33 H        1.7660    -8.0150     2.0700 H     1 <1>   0.0800 
 34 H        3.1640    -6.1610     0.6640 H     1 <1>   0.0800 
 35 H        2.3290    -5.3850    -0.6410 H     1 <1>   0.0800 
 36 H        0.8390    -9.1820    -0.5630 H     1 <1>   0.0800 
 37 H        1.6400   -10.0440     0.7310 H     1 <1>   0.0800 
 38 H        3.8190    -7.1650    -1.4540 H     1 <1>   0.0800 
 39 H        2.1470    -7.4550    -1.8750 H     1 <1>   0.0800 
 40 H        3.2170    -9.4420    -0.9790 H     1 <1>   0.4500 
 41 H        3.5680    -8.6410     0.4230 H     1 <1>   0.4500 
@<TRIPOS>BOND
  1   1   2  1   
  2   1   3  1   
  3   2   4  ar  
  4   2   5  ar  
  5   3  18  1   
  6   3  19  1   
  7   3  20  1   
  8   4   6  ar  
  9   4   7  1   
 10   5   8  ar  
 11   5   9  1   
 12   6  10  ar  
 13   6  21  1   
 14   7  22  1   
 15   7  23  1   
 16   7  24  1   
 17   8  10  ar  
 18   8  25  1   
 19   9  26  1   
 20   9  27  1   
 21   9  28  1   
 22  10  11  1   
 23  11  12  1   
 24  11  29  1   
 25  11  30  1   
 26  12  13  1   
 27  12  14  1   
 28  12  31  1   
 29  13  15  1   
 30  13  32  1   
 31  13  33  1   
 32  14  16  1   
 33  14  34  1   
 34  14  35  1   
 35  15  17  1   
 36  15  36  1   
 37  15  37  1   
 38  16  17  1   
 39  16  38  1   
 40  16  39  1   
 41  17  40  1   
 42  17  41  1   
@<TRIPOS>SUBSTRUCTURE
  1 ****  10 GROUP 4 **** **** 0

# MOE 2024.06 (io_trps.svl 2023.06)
