@<TRIPOS>MOLECULE
NONAME
48 49 1 0 0 
SMALL
USER_CHARGES


@<TRIPOS>ATOM
  1 O       -3.5980    -6.4450     0.7100 O.2   1 <1>  -0.5700 
  2 C       -2.6020    -5.7480     0.8260 C.2   1 <1>   0.7670 
  3 N       -1.5190    -6.3110     1.4320 N.2   1 <1>  -0.6610 
  4 C       -2.5540    -4.4020     0.3430 C.2   1 <1>  -0.0140 
  5 C       -0.4460    -5.6340     1.5360 C.2   1 <1>   0.4390 
  6 C       -3.7550    -3.8380    -0.2310 C.ar  1 <1>   0.0280 
  7 C       -1.3730    -3.7180     0.4510 C.2   1 <1>  -0.0380 
  8 N       -0.2890    -4.3460     1.0430 N.pl3 1 <1>  -0.5190 
  9 C        0.7020    -6.3320     2.2460 C.3   1 <1>  -0.1790 
 10 C       -4.5340    -2.9360     0.4890 C.ar  1 <1>  -0.1500 
 11 C       -4.1600    -4.1680    -1.5220 C.ar  1 <1>  -0.1500 
 12 C       -1.2320    -2.2810    -0.0620 C.3   1 <1>  -0.1020 
 13 C        1.0470    -3.6720     1.1130 C.3   1 <1>   0.2090 
 14 C       -5.6690    -2.3710    -0.0650 C.ar  1 <1>  -0.1500 
 15 C       -5.2930    -3.6060    -2.0800 C.ar  1 <1>  -0.1500 
 16 C        1.8540    -4.0180    -0.1520 C.3   1 <1>   0.3430 
 17 C       -6.0490    -2.7040    -1.3530 C.ar  1 <1>  -0.1500 
 18 N        3.1900    -3.3290    -0.2520 N.4   1 <1>  -0.9590 
 19 C        3.7630    -3.5600    -1.6070 C.3   1 <1>   0.3430 
 20 C        4.1430    -3.7540     0.8140 C.3   1 <1>   0.3430 
 21 C        4.8320    -2.5120    -1.8940 C.3   1 <1>  -0.2400 
 22 C        4.2970    -2.6140     1.8100 C.3   1 <1>  -0.2400 
 23 H        0.9590    -5.8030     3.1440 H     1 <1>   0.0800 
 24 H        1.5560    -6.4200     1.6040 H     1 <1>   0.0800 
 25 H        0.4030    -7.3260     2.5310 H     1 <1>   0.0800 
 26 H       -4.2490    -2.6780     1.4930 H     1 <1>   0.1500 
 27 H       -3.5850    -4.8780    -2.0900 H     1 <1>   0.1500 
 28 H       -1.0600    -1.6110     0.7610 H     1 <1>   0.0800 
 29 H       -2.1180    -1.9410    -0.5670 H     1 <1>   0.0800 
 30 H       -0.4260    -2.2020    -0.7660 H     1 <1>   0.0800 
 31 H        1.5750    -3.9870     1.9930 H     1 <1>   0.0800 
 32 H        0.9220    -2.6090     1.1920 H     1 <1>   0.0800 
 33 H       -6.2590    -1.6750     0.5060 H     1 <1>   0.1500 
 34 H       -5.5920    -3.8740    -3.0790 H     1 <1>   0.1500 
 35 H        1.2550    -3.7440    -1.0050 H     1 <1>   0.0800 
 36 H        2.0000    -5.0860    -0.1870 H     1 <1>   0.0800 
 37 H       -6.9320    -2.2660    -1.7860 H     1 <1>   0.1500 
 38 H        3.0560    -2.3120    -0.1630 H     1 <1>   0.4500 
 39 H        2.9870    -3.4730    -2.3520 H     1 <1>   0.0800 
 40 H        4.1840    -4.5510    -1.6740 H     1 <1>   0.0800 
 41 H        5.1080    -3.9780     0.3860 H     1 <1>   0.0800 
 42 H        3.7870    -4.6420     1.3120 H     1 <1>   0.0800 
 43 H        4.4220    -1.5190    -1.8390 H     1 <1>   0.0800 
 44 H        5.2060    -2.6580    -2.8930 H     1 <1>   0.0800 
 45 H        5.6650    -2.5980    -1.2200 H     1 <1>   0.0800 
 46 H        4.7000    -1.7390     1.3300 H     1 <1>   0.0800 
 47 H        4.9890    -2.9100     2.5800 H     1 <1>   0.0800 
 48 H        3.3640    -2.3700     2.2840 H     1 <1>   0.0800 
@<TRIPOS>BOND
  1   1   2  2   
  2   2   3  1   
  3   2   4  1   
  4   3   5  2   
  5   4   6  1   
  6   4   7  2   
  7   5   8  1   
  8   5   9  1   
  9   6  10  ar  
 10   6  11  ar  
 11   7   8  1   
 12   7  12  1   
 13   8  13  1   
 14   9  23  1   
 15   9  24  1   
 16   9  25  1   
 17  10  14  ar  
 18  10  26  1   
 19  11  15  ar  
 20  11  27  1   
 21  12  28  1   
 22  12  29  1   
 23  12  30  1   
 24  13  16  1   
 25  13  31  1   
 26  13  32  1   
 27  14  17  ar  
 28  14  33  1   
 29  15  17  ar  
 30  15  34  1   
 31  16  18  1   
 32  16  35  1   
 33  16  36  1   
 34  17  37  1   
 35  18  19  1   
 36  18  20  1   
 37  18  38  1   
 38  19  21  1   
 39  19  39  1   
 40  19  40  1   
 41  20  22  1   
 42  20  41  1   
 43  20  42  1   
 44  21  43  1   
 45  21  44  1   
 46  21  45  1   
 47  22  46  1   
 48  22  47  1   
 49  22  48  1   
@<TRIPOS>SUBSTRUCTURE
  1 ****   7 GROUP 4 **** **** 0

# MOE 2024.06 (io_trps.svl 2023.06)
