@<TRIPOS>MOLECULE
NONAME
41 43 1 0 0 
SMALL
USER_CHARGES


@<TRIPOS>ATOM
  1 O       -0.6190    -0.1660    -0.2820 O.2   1 <1>  -0.5700 
  2 C       -1.0830    -1.2860    -0.3910 C.2   1 <1>   0.6900 
  3 N       -2.4260    -1.4610    -0.5890 N.am  1 <1>  -0.6600 
  4 N       -0.2900    -2.3940    -0.3480 N.am  1 <1>  -0.5470 
  5 C       -3.1940    -2.5970     0.0190 C.3   1 <1>   0.1400 
  6 C       -3.2940    -0.3070    -0.9960 C.3   1 <1>   0.1400 
  7 C        1.0650    -2.5640    -0.0260 C.ar  1 <1>   0.1170 
  8 C       -4.0880    -2.1070     1.1720 C.3   1 <1>   0.2090 
  9 C       -4.1910     0.1580     0.1630 C.3   1 <1>   0.2090 
 10 C        1.7720    -3.6520    -0.5460 C.ar  1 <1>  -0.1440 
 11 C        1.7250    -1.6840     0.8260 C.ar  1 <1>  -0.1500 
 12 N       -4.9740    -0.9970     0.7060 N.pl3 1 <1>  -0.8380 
 13 C        3.1040    -3.8350    -0.2110 C.ar  1 <1>  -0.1500 
 14 C        1.1070    -4.6490    -1.4890 C.3   1 <1>  -0.0970 
 15 C        3.0540    -1.8710     1.1550 C.ar  1 <1>  -0.1500 
 16 C       -6.2980    -1.1980     0.3740 C.ar  1 <1>   0.7200 
 17 C        3.7460    -2.9490     0.6360 C.ar  1 <1>  -0.1500 
 18 N       -6.7550    -2.4500     0.4130 N.ar  1 <1>  -0.6200 
 19 N       -7.0060    -0.1220     0.0320 N.ar  1 <1>  -0.6200 
 20 C       -8.0160    -2.6210     0.1020 C.ar  1 <1>   0.1600 
 21 C       -8.2640    -0.3230    -0.2740 C.ar  1 <1>   0.1600 
 22 C       -8.8290    -1.5730    -0.2540 C.ar  1 <1>  -0.1500 
 23 H       -0.7360    -3.2010    -0.7650 H     1 <1>   0.3700 
 24 H       -2.5270    -3.3500     0.3990 H     1 <1>   0.0800 
 25 H       -3.8160    -3.0480    -0.7340 H     1 <1>   0.0800 
 26 H       -3.9190    -0.6110    -1.8180 H     1 <1>   0.0800 
 27 H       -2.6910     0.5180    -1.3320 H     1 <1>   0.0800 
 28 H       -3.4650    -1.7440     1.9710 H     1 <1>   0.0800 
 29 H       -4.6620    -2.9270     1.5630 H     1 <1>   0.0800 
 30 H       -4.8360     0.9460    -0.1820 H     1 <1>   0.0800 
 31 H       -3.5740     0.5670     0.9440 H     1 <1>   0.0800 
 32 H        1.1960    -0.8440     1.2380 H     1 <1>   0.1500 
 33 H        3.6570    -4.6680    -0.6070 H     1 <1>   0.1500 
 34 H        0.6940    -4.1340    -2.3370 H     1 <1>   0.0800 
 35 H        0.3240    -5.1760    -0.9750 H     1 <1>   0.0800 
 36 H        1.8190    -5.3690    -1.8500 H     1 <1>   0.0800 
 37 H        3.5470    -1.1770     1.8130 H     1 <1>   0.1500 
 38 H        4.7820    -3.0970     0.8900 H     1 <1>   0.1500 
 39 H       -8.4120    -3.6220     0.1310 H     1 <1>   0.1500 
 40 H       -8.8590     0.5320    -0.5470 H     1 <1>   0.1500 
 41 H       -9.8620    -1.7260    -0.5050 H     1 <1>   0.1500 
@<TRIPOS>BOND
  1   1   2  2   
  2   2   3  am  
  3   2   4  am  
  4   3   5  1   
  5   3   6  1   
  6   4   7  1   
  7   4  23  1   
  8   5   8  1   
  9   5  24  1   
 10   5  25  1   
 11   6   9  1   
 12   6  26  1   
 13   6  27  1   
 14   7  10  ar  
 15   7  11  ar  
 16   8  12  1   
 17   8  28  1   
 18   8  29  1   
 19   9  12  1   
 20   9  30  1   
 21   9  31  1   
 22  10  13  ar  
 23  10  14  1   
 24  11  15  ar  
 25  11  32  1   
 26  12  16  1   
 27  13  17  ar  
 28  13  33  1   
 29  14  34  1   
 30  14  35  1   
 31  14  36  1   
 32  15  17  ar  
 33  15  37  1   
 34  16  18  ar  
 35  16  19  ar  
 36  17  38  1   
 37  18  20  ar  
 38  19  21  ar  
 39  20  22  ar  
 40  20  39  1   
 41  21  22  ar  
 42  21  40  1   
 43  22  41  1   
@<TRIPOS>SUBSTRUCTURE
  1 ****   3 GROUP 4 **** **** 0

# MOE 2024.06 (io_trps.svl 2023.06)
