@<TRIPOS>MOLECULE
NONAME
47 49 1 0 0 
SMALL
USER_CHARGES


@<TRIPOS>ATOM
  1 O        1.0580    -3.7760    -0.2650 O.3   1 <1>  -0.3630 
  2 C       -0.2790    -3.6740    -0.4770 C.ar  1 <1>   0.0830 
  3 C        1.6500    -4.9700     0.2010 C.3   1 <1>   0.1200 
  4 C       -1.1730    -4.7320    -0.3310 C.ar  1 <1>  -0.1500 
  5 C       -0.7480    -2.4260    -0.8590 C.ar  1 <1>  -0.1500 
  6 C        3.1550    -4.7240     0.3680 C.3   1 <1>   0.2000 
  7 C       -2.5300    -4.5290    -0.5680 C.ar  1 <1>   0.0830 
  8 C       -2.0950    -2.2240    -1.0940 C.ar  1 <1>  -0.1500 
  9 O        3.6630    -4.1950    -0.8200 O.3   1 <1>  -0.6800 
 10 C        3.9430    -6.0060     0.7180 C.3   1 <1>   0.3430 
 11 O       -3.4730    -5.4980    -0.4510 O.3   1 <1>  -0.3620 
 12 C       -2.9820    -3.2750    -0.9480 C.ar  1 <1>  -0.1500 
 13 N        5.3820    -5.8580     0.3380 N.4   1 <1>  -0.9590 
 14 C       -3.1420    -6.8200    -0.0890 C.3   1 <1>   0.0400 
 15 C        6.0590    -7.1530     0.0580 C.3   1 <1>   0.4860 
 16 C        6.1750    -5.0230     1.2830 C.3   1 <1>   0.3430 
 17 C        7.5020    -6.9300    -0.3680 C.ar  1 <1>  -0.1430 
 18 C        7.4830    -4.5910     0.6180 C.3   1 <1>  -0.0170 
 19 C        8.1740    -5.7420    -0.0980 C.ar  1 <1>  -0.1430 
 20 C        8.1620    -7.9510    -1.0370 C.ar  1 <1>  -0.1500 
 21 C        9.4930    -5.5910    -0.4960 C.ar  1 <1>  -0.1500 
 22 C        9.4780    -7.7940    -1.4320 C.ar  1 <1>  -0.1500 
 23 C       10.1440    -6.6130    -1.1610 C.ar  1 <1>  -0.1500 
 24 H        1.4650    -5.7450    -0.5230 H     1 <1>   0.0800 
 25 H        1.1960    -5.2270     1.1430 H     1 <1>   0.0800 
 26 H       -0.8260    -5.6990    -0.0390 H     1 <1>   0.1500 
 27 H       -0.0550    -1.6110    -0.9710 H     1 <1>   0.1500 
 28 H        3.3020    -3.9890     1.1410 H     1 <1>   0.0800 
 29 H       -2.4540    -1.2540    -1.3900 H     1 <1>   0.1500 
 30 H        3.0210    -3.5280    -1.1630 H     1 <1>   0.4000 
 31 H        3.5120    -6.8210     0.1600 H     1 <1>   0.0800 
 32 H        3.8440    -6.2330     1.7670 H     1 <1>   0.0800 
 33 H       -4.0320    -3.1300    -1.1280 H     1 <1>   0.1500 
 34 H        5.3510    -5.3300    -0.5560 H     1 <1>   0.4500 
 35 H       -4.0490    -7.3970    -0.0720 H     1 <1>   0.0800 
 36 H       -2.6960    -6.8120     0.8890 H     1 <1>   0.0800 
 37 H       -2.4670    -7.2240    -0.8230 H     1 <1>   0.0800 
 38 H        5.5370    -7.6760    -0.7270 H     1 <1>   0.0800 
 39 H        6.0500    -7.7700     0.9420 H     1 <1>   0.0800 
 40 H        6.3980    -5.5930     2.1710 H     1 <1>   0.0800 
 41 H        5.6190    -4.1450     1.5680 H     1 <1>   0.0800 
 42 H        8.1380    -4.1840     1.3680 H     1 <1>   0.0800 
 43 H        7.2770    -3.8100    -0.0920 H     1 <1>   0.0800 
 44 H        7.6660    -8.8810    -1.2590 H     1 <1>   0.1500 
 45 H       10.0240    -4.6760    -0.2960 H     1 <1>   0.1500 
 46 H        9.9880    -8.5890    -1.9510 H     1 <1>   0.1500 
 47 H       11.1690    -6.4910    -1.4680 H     1 <1>   0.1500 
@<TRIPOS>BOND
  1   1   2  1   
  2   1   3  1   
  3   2   4  ar  
  4   2   5  ar  
  5   3   6  1   
  6   3  24  1   
  7   3  25  1   
  8   4   7  ar  
  9   4  26  1   
 10   5   8  ar  
 11   5  27  1   
 12   6   9  1   
 13   6  10  1   
 14   6  28  1   
 15   7  11  1   
 16   7  12  ar  
 17   8  12  ar  
 18   8  29  1   
 19   9  30  1   
 20  10  13  1   
 21  10  31  1   
 22  10  32  1   
 23  11  14  1   
 24  12  33  1   
 25  13  15  1   
 26  13  16  1   
 27  13  34  1   
 28  14  35  1   
 29  14  36  1   
 30  14  37  1   
 31  15  17  1   
 32  15  38  1   
 33  15  39  1   
 34  16  18  1   
 35  16  40  1   
 36  16  41  1   
 37  17  19  ar  
 38  17  20  ar  
 39  18  19  1   
 40  18  42  1   
 41  18  43  1   
 42  19  21  ar  
 43  20  22  ar  
 44  20  44  1   
 45  21  23  ar  
 46  21  45  1   
 47  22  23  ar  
 48  22  46  1   
 49  23  47  1   
@<TRIPOS>SUBSTRUCTURE
  1 ****   6 GROUP 4 **** **** 0

# MOE 2024.06 (io_trps.svl 2023.06)
