@<TRIPOS>MOLECULE
NONAME
39 39 1 0 0 
SMALL
USER_CHARGES


@<TRIPOS>ATOM
  1 O       -3.0000     1.2850     0.4180 O.3   1 <1>  -0.2800 
  2 C       -4.1290     1.8620     0.0610 C.2   1 <1>  -0.0400 
  3 C       -2.0130     2.1020     0.1120 C.2   1 <1>  -0.0100 
  4 C       -3.8820     3.0750    -0.4890 C.2   1 <1>  -0.1500 
  5 C       -5.4040     1.0870     0.3250 C.3   1 <1>   0.5230 
  6 C       -2.4900     3.2300    -0.4530 C.2   1 <1>  -0.1500 
  7 N       -6.5750     1.8770    -0.1400 N.4   1 <1>  -0.9060 
  8 C       -7.9220     1.3050     0.0210 C.3   1 <1>   0.5030 
  9 C       -8.8730     2.3570    -0.6140 C.3   1 <1>  -0.1600 
 10 C       -7.9520    -0.0290    -0.7380 C.3   1 <1>  -0.2400 
 11 C       -8.1590     1.0740     1.5140 C.3   1 <1>  -0.2400 
 12 C      -10.4150     2.3880    -0.3900 C.3   1 <1>   0.0000 
 13 C      -10.7970     2.9460     0.9930 C.3   1 <1>  -0.2400 
 14 C      -11.0030     3.3590    -1.4300 C.3   1 <1>  -0.2400 
 15 C      -11.1050     1.0330    -0.5960 C.3   1 <1>  -0.2400 
 16 H       -1.0000     1.8040     0.3300 H     1 <1>   0.1500 
 17 H       -4.5500     3.8180    -0.8880 H     1 <1>   0.1500 
 18 H       -5.4770     0.8890     1.3810 H     1 <1>   0.0800 
 19 H       -5.3530     0.1460    -0.1980 H     1 <1>   0.0800 
 20 H       -1.9400     4.0840    -0.8110 H     1 <1>   0.1500 
 21 H       -6.4310     2.0790    -1.1320 H     1 <1>   0.4500 
 22 H       -6.5510     2.7730     0.3530 H     1 <1>   0.4500 
 23 H       -8.7190     2.2960    -1.6770 H     1 <1>   0.0800 
 24 H       -8.5270     3.3330    -0.3200 H     1 <1>   0.0800 
 25 H       -7.7270     0.1110    -1.7800 H     1 <1>   0.0800 
 26 H       -8.9220    -0.4800    -0.6750 H     1 <1>   0.0800 
 27 H       -7.2670    -0.7440    -0.3210 H     1 <1>   0.0800 
 28 H       -8.1460     2.0030     2.0560 H     1 <1>   0.0800 
 29 H       -7.4360     0.4040     1.9420 H     1 <1>   0.0800 
 30 H       -9.1150     0.6100     1.6650 H     1 <1>   0.0800 
 31 H      -10.5590     2.2690     1.7890 H     1 <1>   0.0800 
 32 H      -11.8590     3.1180     1.0420 H     1 <1>   0.0800 
 33 H      -10.3070     3.8850     1.1800 H     1 <1>   0.0800 
 34 H      -10.5750     4.3410    -1.3260 H     1 <1>   0.0800 
 35 H      -12.0690     3.4500    -1.3100 H     1 <1>   0.0800 
 36 H      -10.8170     3.0120    -2.4320 H     1 <1>   0.0800 
 37 H      -10.8520     0.6160    -1.5550 H     1 <1>   0.0800 
 38 H      -12.1740     1.1520    -0.5630 H     1 <1>   0.0800 
 39 H      -10.8430     0.3330     0.1750 H     1 <1>   0.0800 
@<TRIPOS>BOND
  1   1   2  1   
  2   1   3  1   
  3   2   4  2   
  4   2   5  1   
  5   3   6  2   
  6   3  16  1   
  7   4   6  1   
  8   4  17  1   
  9   5   7  1   
 10   5  18  1   
 11   5  19  1   
 12   6  20  1   
 13   7   8  1   
 14   7  21  1   
 15   7  22  1   
 16   8   9  1   
 17   8  10  1   
 18   8  11  1   
 19   9  12  1   
 20   9  23  1   
 21   9  24  1   
 22  10  25  1   
 23  10  26  1   
 24  10  27  1   
 25  11  28  1   
 26  11  29  1   
 27  11  30  1   
 28  12  13  1   
 29  12  14  1   
 30  12  15  1   
 31  13  31  1   
 32  13  32  1   
 33  13  33  1   
 34  14  34  1   
 35  14  35  1   
 36  14  36  1   
 37  15  37  1   
 38  15  38  1   
 39  15  39  1   
@<TRIPOS>SUBSTRUCTURE
  1 ****   7 GROUP 4 **** **** 0

# MOE 2024.06 (io_trps.svl 2023.06)
