@<TRIPOS>MOLECULE
NONAME
43 43 1 0 0 
SMALL
USER_CHARGES


@<TRIPOS>ATOM
  1 O        2.3340    -2.0440     0.9990 O.2   1 <1>  -0.5700 
  2 C        2.4070    -2.7510     0.0210 C.2   1 <1>   0.5690 
  3 N        3.5610    -2.9430    -0.6890 N.am  1 <1>  -0.5470 
  4 C        1.1100    -3.4520    -0.4010 C.3   1 <1>   0.4040 
  5 C        4.8260    -2.4090    -0.3980 C.ar  1 <1>   0.1170 
  6 N       -0.0940    -2.8430     0.2760 N.4   1 <1>  -0.9060 
  7 C        5.0890    -1.0440    -0.5350 C.ar  1 <1>  -0.1430 
  8 C        5.8500    -3.2670     0.0110 C.ar  1 <1>  -0.1430 
  9 C       -1.3320    -3.6130     0.3290 C.3   1 <1>   0.5030 
 10 C        6.3540    -0.5570    -0.2520 C.ar  1 <1>  -0.1500 
 11 C        4.0260    -0.0530    -0.9950 C.3   1 <1>  -0.0970 
 12 C        7.1080    -2.7570     0.2840 C.ar  1 <1>  -0.1500 
 13 C        5.6200    -4.7640     0.1790 C.3   1 <1>  -0.0970 
 14 C       -1.7960    -3.9310    -1.0910 C.3   1 <1>  -0.2400 
 15 C       -1.1050    -4.8910     1.1350 C.3   1 <1>  -0.2400 
 16 C       -2.3570    -2.7300     1.0310 C.3   1 <1>  -0.2400 
 17 C        7.3670    -1.4050     0.1570 C.ar  1 <1>  -0.1430 
 18 C        8.7500    -0.8560     0.4620 C.3   1 <1>  -0.0970 
 19 H        3.5830    -3.6260    -1.4460 H     1 <1>   0.3700 
 20 H        1.1970    -4.4890    -0.1270 H     1 <1>   0.0800 
 21 H        1.0020    -3.3890    -1.4700 H     1 <1>   0.0800 
 22 H       -0.2850    -1.9250    -0.1350 H     1 <1>   0.4500 
 23 H        0.2120    -2.6240     1.2380 H     1 <1>   0.4500 
 24 H        6.5600     0.4940    -0.3510 H     1 <1>   0.1500 
 25 H        3.4810    -0.4470    -1.8320 H     1 <1>   0.0800 
 26 H        4.4750     0.8750    -1.2980 H     1 <1>   0.0800 
 27 H        3.3450     0.1490    -0.1880 H     1 <1>   0.0800 
 28 H        7.8990    -3.4140     0.6000 H     1 <1>   0.1500 
 29 H        4.8180    -4.9380     0.8730 H     1 <1>   0.0800 
 30 H        6.5000    -5.2480     0.5620 H     1 <1>   0.0800 
 31 H        5.3770    -5.2110    -0.7680 H     1 <1>   0.0800 
 32 H       -1.1130    -4.5910    -1.5940 H     1 <1>   0.0800 
 33 H       -1.9170    -3.0330    -1.6690 H     1 <1>   0.0800 
 34 H       -2.7500    -4.4280    -1.0550 H     1 <1>   0.0800 
 35 H       -2.0400    -5.4080     1.2610 H     1 <1>   0.0800 
 36 H       -0.7210    -4.6670     2.1150 H     1 <1>   0.0800 
 37 H       -0.4350    -5.5660     0.6350 H     1 <1>   0.0800 
 38 H       -3.2980    -3.2480     1.1040 H     1 <1>   0.0800 
 39 H       -2.5290    -1.8200     0.4830 H     1 <1>   0.0800 
 40 H       -2.0420    -2.4860     2.0300 H     1 <1>   0.0800 
 41 H        8.6800     0.1500     0.8350 H     1 <1>   0.0800 
 42 H        9.3450    -0.8550    -0.4330 H     1 <1>   0.0800 
 43 H        9.2390    -1.4590     1.2050 H     1 <1>   0.0800 
@<TRIPOS>BOND
  1   1   2  2   
  2   2   3  am  
  3   2   4  1   
  4   3   5  1   
  5   3  19  1   
  6   4   6  1   
  7   4  20  1   
  8   4  21  1   
  9   5   7  ar  
 10   5   8  ar  
 11   6   9  1   
 12   6  22  1   
 13   6  23  1   
 14   7  10  ar  
 15   7  11  1   
 16   8  12  ar  
 17   8  13  1   
 18   9  14  1   
 19   9  15  1   
 20   9  16  1   
 21  10  17  ar  
 22  10  24  1   
 23  11  25  1   
 24  11  26  1   
 25  11  27  1   
 26  12  17  ar  
 27  12  28  1   
 28  13  29  1   
 29  13  30  1   
 30  13  31  1   
 31  14  32  1   
 32  14  33  1   
 33  14  34  1   
 34  15  35  1   
 35  15  36  1   
 36  15  37  1   
 37  16  38  1   
 38  16  39  1   
 39  16  40  1   
 40  17  18  1   
 41  18  41  1   
 42  18  42  1   
 43  18  43  1   
@<TRIPOS>SUBSTRUCTURE
  1 ****   2 GROUP 4 **** **** 0

# MOE 2024.06 (io_trps.svl 2023.06)
