@<TRIPOS>MOLECULE
NONAME
48 50 1 0 0 
SMALL
USER_CHARGES


@<TRIPOS>ATOM
  1 O       -1.9760     0.9610     0.6020 O.3   1 <1>  -0.3630 
  2 C       -1.0870     1.9420     0.2820 C.ar  1 <1>   0.0830 
  3 C       -1.6680    -0.0070     1.5860 C.3   1 <1>   0.0400 
  4 C       -1.3590     2.7170    -0.8420 C.ar  1 <1>  -0.1440 
  5 C        0.0580     2.1970     1.0320 C.ar  1 <1>  -0.1500 
  6 C       -0.4890     3.7330    -1.2090 C.ar  1 <1>  -0.1500 
  7 C       -2.6040     2.4540    -1.6660 C.3   1 <1>   0.4870 
  8 C        0.9180     3.2140     0.6600 C.ar  1 <1>  -0.1500 
  9 C        0.6460     3.9810    -0.4580 C.ar  1 <1>  -0.1500 
 10 N       -3.7920     2.6410    -0.7980 N.4   1 <1>  -0.9590 
 11 C       -5.0340     2.1240    -1.4270 C.3   1 <1>   0.3430 
 12 C       -3.9200     4.0440    -0.3130 C.3   1 <1>   0.3430 
 13 C       -6.1790     2.1830    -0.4190 C.3   1 <1>  -0.1600 
 14 C       -5.0510     4.1290     0.7120 C.3   1 <1>  -0.1600 
 15 C       -6.3790     3.6040     0.1420 C.3   1 <1>  -0.0800 
 16 C       -7.4890     3.6500     1.2090 C.3   1 <1>  -0.0170 
 17 C       -8.8210     3.1740     0.6490 C.ar  1 <1>  -0.1430 
 18 C       -9.5530     3.9930    -0.1980 C.ar  1 <1>  -0.1500 
 19 C       -9.3140     1.9190     0.9740 C.ar  1 <1>  -0.1500 
 20 C      -10.7580     3.5580    -0.7230 C.ar  1 <1>  -0.1500 
 21 C      -10.5190     1.4840     0.4500 C.ar  1 <1>  -0.1500 
 22 C      -11.2410     2.3030    -0.4000 C.ar  1 <1>  -0.1500 
 23 H       -1.5910     0.4750     2.5450 H     1 <1>   0.0800 
 24 H       -0.7420    -0.4910     1.3260 H     1 <1>   0.0800 
 25 H       -2.4620    -0.7330     1.6080 H     1 <1>   0.0800 
 26 H        0.3000     1.6230     1.9060 H     1 <1>   0.1500 
 27 H       -0.6770     4.3400    -2.0790 H     1 <1>   0.1500 
 28 H       -2.5700     1.4390    -2.0290 H     1 <1>   0.0800 
 29 H       -2.6440     3.1230    -2.5100 H     1 <1>   0.0800 
 30 H        1.8040     3.4100     1.2410 H     1 <1>   0.1500 
 31 H        1.3240     4.7690    -0.7440 H     1 <1>   0.1500 
 32 H       -3.5750     2.0550     0.0260 H     1 <1>   0.4500 
 33 H       -4.8910     1.1040    -1.7480 H     1 <1>   0.0800 
 34 H       -5.2840     2.7220    -2.2890 H     1 <1>   0.0800 
 35 H       -4.1330     4.6990    -1.1410 H     1 <1>   0.0800 
 36 H       -2.9970     4.3630     0.1460 H     1 <1>   0.0800 
 37 H       -5.9860     1.4900     0.3810 H     1 <1>   0.0800 
 38 H       -7.0780     1.8590    -0.9150 H     1 <1>   0.0800 
 39 H       -5.1680     5.1560     1.0110 H     1 <1>   0.0800 
 40 H       -4.7730     3.5690     1.5890 H     1 <1>   0.0800 
 41 H       -6.6760     4.2470    -0.6700 H     1 <1>   0.0800 
 42 H       -7.6080     4.6590     1.5660 H     1 <1>   0.0800 
 43 H       -7.2150     3.0430     2.0540 H     1 <1>   0.0800 
 44 H       -9.1920     4.9730    -0.4530 H     1 <1>   0.1500 
 45 H       -8.7670     1.2730     1.6360 H     1 <1>   0.1500 
 46 H      -11.3220     4.1980    -1.3800 H     1 <1>   0.1500 
 47 H      -10.8970     0.5090     0.7050 H     1 <1>   0.1500 
 48 H      -12.1780     1.9650    -0.8080 H     1 <1>   0.1500 
@<TRIPOS>BOND
  1   1   2  1   
  2   1   3  1   
  3   2   4  ar  
  4   2   5  ar  
  5   3  23  1   
  6   3  24  1   
  7   3  25  1   
  8   4   6  ar  
  9   4   7  1   
 10   5   8  ar  
 11   5  26  1   
 12   6   9  ar  
 13   6  27  1   
 14   7  10  1   
 15   7  28  1   
 16   7  29  1   
 17   8   9  ar  
 18   8  30  1   
 19   9  31  1   
 20  10  11  1   
 21  10  12  1   
 22  10  32  1   
 23  11  13  1   
 24  11  33  1   
 25  11  34  1   
 26  12  14  1   
 27  12  35  1   
 28  12  36  1   
 29  13  15  1   
 30  13  37  1   
 31  13  38  1   
 32  14  15  1   
 33  14  39  1   
 34  14  40  1   
 35  15  16  1   
 36  15  41  1   
 37  16  17  1   
 38  16  42  1   
 39  16  43  1   
 40  17  18  ar  
 41  17  19  ar  
 42  18  20  ar  
 43  18  44  1   
 44  19  21  ar  
 45  19  45  1   
 46  20  22  ar  
 47  20  46  1   
 48  21  22  ar  
 49  21  47  1   
 50  22  48  1   
@<TRIPOS>SUBSTRUCTURE
  1 ****  10 GROUP 4 **** **** 0

# MOE 2024.06 (io_trps.svl 2023.06)
