@<TRIPOS>MOLECULE
NONAME
45 46 1 0 0 
SMALL
USER_CHARGES


@<TRIPOS>ATOM
  1 N        0.2220     0.5580    -0.6680 N.3   1 <1>  -0.3020 
  2 N        1.4970     0.2780    -1.4110 N.4   1 <1>  -0.6410 
  3 C       -0.5220     1.7210    -1.2170 C.3   1 <1>   0.1100 
  4 C       -0.6460    -0.6370    -0.5720 C.3   1 <1>   0.1100 
  5 C        2.7430     0.6380    -0.6630 C.3   1 <1>   0.4230 
  6 C       -1.9260     1.9050    -0.5880 C.3   1 <1>   0.3430 
  7 C       -1.8630    -0.4010     0.3570 C.3   1 <1>   0.3430 
  8 C        2.8650    -0.2020     0.6240 C.3   1 <1>  -0.1600 
  9 C        2.8200     2.1520    -0.4240 C.3   1 <1>  -0.1600 
 10 N       -2.1190     1.0570     0.6370 N.4   1 <1>  -0.9590 
 11 C        4.0710    -1.1500     0.5720 C.3   1 <1>  -0.1600 
 12 C        4.2580     2.6990    -0.4340 C.3   1 <1>  -0.1600 
 13 C       -3.4720     1.2670     1.2470 C.3   1 <1>   0.2630 
 14 C        5.4010    -0.4930     0.9730 C.3   1 <1>  -0.1600 
 15 C        5.2180     2.0620     0.5830 C.3   1 <1>  -0.1600 
 16 C        5.8360     0.7210     0.1340 C.3   1 <1>  -0.1600 
 17 H        1.5330     0.7730    -2.3140 H     1 <1>   0.4500 
 18 H        1.5850    -0.7230    -1.6370 H     1 <1>   0.4500 
 19 H       -0.6360     1.6160    -2.2830 H     1 <1>   0.0800 
 20 H        0.0450     2.6180    -1.0390 H     1 <1>   0.0800 
 21 H       -0.0830    -1.4720    -0.1900 H     1 <1>   0.0800 
 22 H       -1.0000    -0.9050    -1.5530 H     1 <1>   0.0800 
 23 H        3.5790     0.3840    -1.2950 H     1 <1>   0.0800 
 24 H       -2.6710     1.6430    -1.3230 H     1 <1>   0.0800 
 25 H       -2.0720     2.9460    -0.3460 H     1 <1>   0.0800 
 26 H       -1.6990    -0.9180     1.2890 H     1 <1>   0.0800 
 27 H       -2.7330    -0.8450    -0.1000 H     1 <1>   0.0800 
 28 H        1.9860    -0.7980     0.7770 H     1 <1>   0.0800 
 29 H        2.9610     0.4290     1.4910 H     1 <1>   0.0800 
 30 H        2.3480     2.4070     0.5090 H     1 <1>   0.0800 
 31 H        2.3010     2.6710    -1.2090 H     1 <1>   0.0800 
 32 H       -1.4150     1.3610     1.3290 H     1 <1>   0.4500 
 33 H        4.1670    -1.5930    -0.4050 H     1 <1>   0.0800 
 34 H        3.8970    -1.9580     1.2640 H     1 <1>   0.0800 
 35 H        4.2050     3.7530    -0.2140 H     1 <1>   0.0800 
 36 H        4.6800     2.6170    -1.4220 H     1 <1>   0.0800 
 37 H       -4.2480     0.9650     0.5610 H     1 <1>   0.0800 
 38 H       -3.6180     2.3070     1.4920 H     1 <1>   0.0800 
 39 H       -3.5710     0.6890     2.1520 H     1 <1>   0.0800 
 40 H        6.1670    -1.2450     0.8820 H     1 <1>   0.0800 
 41 H        5.3730    -0.2200     2.0150 H     1 <1>   0.0800 
 42 H        4.7500     1.9810     1.5490 H     1 <1>   0.0800 
 43 H        6.0350     2.7540     0.7120 H     1 <1>   0.0800 
 44 H        5.6840     0.5360    -0.9140 H     1 <1>   0.0800 
 45 H        6.9020     0.8140     0.2630 H     1 <1>   0.0800 
@<TRIPOS>BOND
  1   1   2  1   
  2   1   3  1   
  3   1   4  1   
  4   2   5  1   
  5   2  17  1   
  6   2  18  1   
  7   3   6  1   
  8   3  19  1   
  9   3  20  1   
 10   4   7  1   
 11   4  21  1   
 12   4  22  1   
 13   5   8  1   
 14   5   9  1   
 15   5  23  1   
 16   6  10  1   
 17   6  24  1   
 18   6  25  1   
 19   7  10  1   
 20   7  26  1   
 21   7  27  1   
 22   8  11  1   
 23   8  28  1   
 24   8  29  1   
 25   9  12  1   
 26   9  30  1   
 27   9  31  1   
 28  10  13  1   
 29  10  32  1   
 30  11  14  1   
 31  11  33  1   
 32  11  34  1   
 33  12  15  1   
 34  12  35  1   
 35  12  36  1   
 36  13  37  1   
 37  13  38  1   
 38  13  39  1   
 39  14  16  1   
 40  14  40  1   
 41  14  41  1   
 42  15  16  1   
 43  15  42  1   
 44  15  43  1   
 45  16  44  1   
 46  16  45  1   
@<TRIPOS>SUBSTRUCTURE
  1 ****   5 GROUP 4 **** **** 0

# MOE 2024.06 (io_trps.svl 2023.06)
