@<TRIPOS>MOLECULE
NONAME
41 43 1 0 0 
SMALL
USER_CHARGES


@<TRIPOS>ATOM
  1 CL       1.0040     0.7510    -2.4070 Cl    1 <1>  -0.1230 
  2 C        1.1820     2.0150    -1.1930 C.2   1 <1>   0.1230 
  3 C        2.3370     2.3590    -0.5850 C.2   1 <1>  -0.0680 
  4 C        0.1650     2.8150    -0.6680 C.2   1 <1>   0.0560 
  5 N        2.0110     3.3750     0.2510 N.pl3 1 <1>   0.3140 
  6 N        3.6390     1.8260    -0.6620 N.pl3 1 <1>  -0.8530 
  7 N        0.6870     3.6410     0.2390 N.2   1 <1>  -0.7070 
  8 C       -1.2230     2.6540    -1.1010 C.2   1 <1>   1.0330 
  9 C        2.9460     3.9200     1.2540 C.3   1 <1>   0.1760 
 10 C        4.3890     1.8850     0.6020 C.3   1 <1>   0.4330 
 11 O       -1.8150     3.5400    -1.7510 O.co2 1 <1>  -0.9000 
 12 O       -1.8390     1.5960    -0.8570 O.co2 1 <1>  -0.9000 
 13 C        2.9200     5.4540     1.2280 C.3   1 <1>   1.0200 
 14 C        4.3830     3.3450     1.0690 C.3   1 <1>  -0.1600 
 15 C        5.8070     1.3670     0.3970 C.ar  1 <1>  -0.1440 
 16 F        3.8660     5.9490     2.0230 F     1 <1>  -0.3400 
 17 F        3.1640     5.9720     0.0300 F     1 <1>  -0.3400 
 18 F        1.7900     5.9960     1.6620 F     1 <1>  -0.3400 
 19 C        6.5830     1.8050    -0.6660 C.ar  1 <1>  -0.1500 
 20 C        6.3470     0.4470     1.2820 C.ar  1 <1>  -0.1500 
 21 C        7.8770     1.3490    -0.8550 C.ar  1 <1>   0.0820 
 22 C        7.6410    -0.0150     1.1140 C.ar  1 <1>  -0.1500 
 23 O        8.5160     1.8620    -1.9440 O.3   1 <1>  -0.3630 
 24 C        8.4280     0.4330     0.0560 C.ar  1 <1>   0.0820 
 25 C        9.4240     1.0800    -2.6880 C.3   1 <1>   0.0400 
 26 O        9.7170     0.0120    -0.0970 O.3   1 <1>  -0.3630 
 27 C       10.3850    -0.7350     0.8960 C.3   1 <1>   0.0400 
 28 H        3.6820     0.8910    -1.0890 H     1 <1>   0.4000 
 29 H        2.5760     3.6090     2.2110 H     1 <1>   0.0800 
 30 H        3.8840     1.2700     1.3290 H     1 <1>   0.0800 
 31 H        4.9270     3.4250     1.9930 H     1 <1>   0.0800 
 32 H        4.9140     3.9300     0.3370 H     1 <1>   0.0800 
 33 H        6.1810     2.5110    -1.3720 H     1 <1>   0.1500 
 34 H        5.7650     0.0830     2.1110 H     1 <1>   0.1500 
 35 H        8.0150    -0.7260     1.8250 H     1 <1>   0.1500 
 36 H        9.5060     1.5060    -3.6710 H     1 <1>   0.0800 
 37 H        9.0530     0.0730    -2.7500 H     1 <1>   0.0800 
 38 H       10.3820     1.1050    -2.2010 H     1 <1>   0.0800 
 39 H        9.9090    -1.6940     0.9920 H     1 <1>   0.0800 
 40 H       10.3540    -0.1910     1.8240 H     1 <1>   0.0800 
 41 H       11.4060    -0.8650     0.5850 H     1 <1>   0.0800 
@<TRIPOS>BOND
  1   1   2  1   
  2   2   3  2   
  3   2   4  1   
  4   3   5  1   
  5   3   6  1   
  6   4   7  2   
  7   4   8  1   
  8   5   7  1   
  9   5   9  1   
 10   6  10  1   
 11   6  28  1   
 12   8  11  ar  
 13   8  12  ar  
 14   9  13  1   
 15   9  14  1   
 16   9  29  1   
 17  10  14  1   
 18  10  15  1   
 19  10  30  1   
 20  13  16  1   
 21  13  17  1   
 22  13  18  1   
 23  14  31  1   
 24  14  32  1   
 25  15  19  ar  
 26  15  20  ar  
 27  19  21  ar  
 28  19  33  1   
 29  20  22  ar  
 30  20  34  1   
 31  21  23  1   
 32  21  24  ar  
 33  22  24  ar  
 34  22  35  1   
 35  23  25  1   
 36  24  26  1   
 37  25  36  1   
 38  25  37  1   
 39  25  38  1   
 40  26  27  1   
 41  27  39  1   
 42  27  40  1   
 43  27  41  1   
@<TRIPOS>SUBSTRUCTURE
  1 ****   6 GROUP 4 **** **** 0

# MOE 2024.06 (io_trps.svl 2023.06)
