@<TRIPOS>MOLECULE
NONAME
45 46 1 0 0 
SMALL
USER_CHARGES


@<TRIPOS>ATOM
  1 O       -1.4860    -0.2830     1.5990 O.3   1 <1>  -0.3630 
  2 C       -2.0220     0.5930     0.7000 C.ar  1 <1>   0.0830 
  3 C       -0.1100    -0.3240     1.9040 C.3   1 <1>   0.0400 
  4 C       -1.4260     1.7660     0.2050 C.ar  1 <1>   0.0830 
  5 C       -3.2890     0.2400     0.2690 C.ar  1 <1>  -0.1500 
  6 O       -0.1880     2.1450     0.6380 O.3   1 <1>  -0.3630 
  7 C       -2.1280     2.5340    -0.7220 C.ar  1 <1>  -0.1500 
  8 C       -3.9880     1.0180    -0.6390 C.ar  1 <1>  -0.1430 
  9 C        0.4780     3.2870     0.1420 C.3   1 <1>   0.0400 
 10 C       -3.3950     2.1650    -1.1400 C.ar  1 <1>  -0.1500 
 11 C       -5.3860     0.6150    -1.0660 C.3   1 <1>   0.4860 
 12 N       -6.3090     0.7510     0.1040 N.4   1 <1>  -0.9590 
 13 C       -7.6660     0.1630    -0.1390 C.3   1 <1>   0.4230 
 14 C       -6.3490     2.1850     0.5500 C.3   1 <1>   0.2630 
 15 C       -8.5510     0.3310     1.1130 C.3   1 <1>  -0.1600 
 16 C       -7.5450    -1.3300    -0.5040 C.3   1 <1>  -0.1600 
 17 C       -9.9200    -0.3470     0.9540 C.3   1 <1>  -0.1600 
 18 C       -8.9160    -2.0050    -0.6580 C.3   1 <1>  -0.1600 
 19 C       -9.7680    -1.8290     0.6020 C.3   1 <1>  -0.1600 
 20 H        0.0830    -1.2170     2.4700 H     1 <1>   0.0800 
 21 H        0.1420     0.5400     2.4930 H     1 <1>   0.0800 
 22 H        0.4530    -0.3410     0.9880 H     1 <1>   0.0800 
 23 H       -3.7110    -0.6670     0.6630 H     1 <1>   0.1500 
 24 H       -1.7070     3.4320    -1.1330 H     1 <1>   0.1500 
 25 H        1.4360     3.3490     0.6250 H     1 <1>   0.0800 
 26 H       -0.1030     4.1620     0.3760 H     1 <1>   0.0800 
 27 H        0.6120     3.1820    -0.9200 H     1 <1>   0.0800 
 28 H       -3.9050     2.7850    -1.8590 H     1 <1>   0.1500 
 29 H       -5.3510    -0.4050    -1.4080 H     1 <1>   0.0800 
 30 H       -5.7200     1.2380    -1.8800 H     1 <1>   0.0800 
 31 H       -5.8770     0.2110     0.8640 H     1 <1>   0.4500 
 32 H       -8.1400     0.6780    -0.9600 H     1 <1>   0.0800 
 33 H       -6.8270     2.7980    -0.1970 H     1 <1>   0.0800 
 34 H       -5.3500     2.5570     0.7140 H     1 <1>   0.0800 
 35 H       -6.8900     2.2800     1.4760 H     1 <1>   0.0800 
 36 H       -8.7380     1.3710     1.3090 H     1 <1>   0.0800 
 37 H       -8.0550    -0.0970     1.9670 H     1 <1>   0.0800 
 38 H       -6.9960    -1.8470     0.2650 H     1 <1>   0.0800 
 39 H       -7.0320    -1.4560    -1.4380 H     1 <1>   0.0800 
 40 H      -10.4830     0.1470     0.1790 H     1 <1>   0.0800 
 41 H      -10.4780    -0.2550     1.8700 H     1 <1>   0.0800 
 42 H       -8.7830    -3.0560    -0.8520 H     1 <1>   0.0800 
 43 H       -9.4370    -1.5830    -1.5010 H     1 <1>   0.0800 
 44 H      -10.7410    -2.2630     0.4420 H     1 <1>   0.0800 
 45 H       -9.3100    -2.3520     1.4250 H     1 <1>   0.0800 
@<TRIPOS>BOND
  1   1   2  1   
  2   1   3  1   
  3   2   4  ar  
  4   2   5  ar  
  5   3  20  1   
  6   3  21  1   
  7   3  22  1   
  8   4   6  1   
  9   4   7  ar  
 10   5   8  ar  
 11   5  23  1   
 12   6   9  1   
 13   7  10  ar  
 14   7  24  1   
 15   8  10  ar  
 16   8  11  1   
 17   9  25  1   
 18   9  26  1   
 19   9  27  1   
 20  10  28  1   
 21  11  12  1   
 22  11  29  1   
 23  11  30  1   
 24  12  13  1   
 25  12  14  1   
 26  12  31  1   
 27  13  15  1   
 28  13  16  1   
 29  13  32  1   
 30  14  33  1   
 31  14  34  1   
 32  14  35  1   
 33  15  17  1   
 34  15  36  1   
 35  15  37  1   
 36  16  18  1   
 37  16  38  1   
 38  16  39  1   
 39  17  19  1   
 40  17  40  1   
 41  17  41  1   
 42  18  19  1   
 43  18  42  1   
 44  18  43  1   
 45  19  44  1   
 46  19  45  1   
@<TRIPOS>SUBSTRUCTURE
  1 ****   8 GROUP 4 **** **** 0

# MOE 2024.06 (io_trps.svl 2023.06)
