@<TRIPOS>MOLECULE
NONAME
45 47 1 0 0 
SMALL
USER_CHARGES


@<TRIPOS>ATOM
  1 O        0.0120    -0.2500     0.8820 O.2   1 <1>  -0.5700 
  2 C       -0.1160    -1.2210     0.1640 C.2   1 <1>   0.7800 
  3 O        0.9540    -1.9050    -0.2330 O.3   1 <1>  -0.4300 
  4 N       -1.3010    -1.6940    -0.3030 N.am  1 <1>  -0.5470 
  5 C        2.2480    -1.5180     0.1710 C.3   1 <1>   0.1200 
  6 C       -2.6320    -1.2710    -0.1280 C.ar  1 <1>   0.1170 
  7 C        3.2480    -2.4920    -0.4450 C.3   1 <1>  -0.2400 
  8 C       -3.5980    -1.7610    -0.9850 C.ar  1 <1>  -0.1500 
  9 C       -3.0160    -0.3790     0.8910 C.ar  1 <1>  -0.1500 
 10 C       -4.9250    -1.3700    -0.8370 C.ar  1 <1>   0.2270 
 11 C       -4.3260     0.0160     1.0450 C.ar  1 <1>  -0.1500 
 12 N       -6.0140    -1.7390    -1.5640 N.2   1 <1>  -0.5650 
 13 C       -5.2840    -0.4890     0.1630 C.ar  1 <1>  -0.1520 
 14 C       -6.9940    -1.1010    -1.0190 C.2   1 <1>   0.0060 
 15 N       -6.6270    -0.3150     0.0330 N.pl3 1 <1>   0.0480 
 16 C       -8.4370    -1.2150    -1.5000 C.3   1 <1>   0.2900 
 17 C       -7.4840     0.5060     0.9100 C.3   1 <1>   0.0160 
 18 N       -9.3550    -1.6190    -0.4130 N.3   1 <1>  -0.8100 
 19 C       -9.0110    -2.9700     0.0860 C.3   1 <1>   0.1100 
 20 C      -10.7530    -1.6170    -0.8810 C.3   1 <1>   0.1100 
 21 C      -10.0160    -3.4400     1.1530 C.3   1 <1>   0.1200 
 22 C      -11.7040    -2.1160     0.2220 C.3   1 <1>   0.1200 
 23 O      -11.3230    -3.3900     0.6560 O.3   1 <1>  -0.5600 
 24 H       -1.1740    -2.4820    -0.9310 H     1 <1>   0.3700 
 25 H        2.2920    -1.5470     1.2470 H     1 <1>   0.0800 
 26 H        2.4260    -0.5130    -0.1720 H     1 <1>   0.0800 
 27 H        3.0520    -3.4920    -0.1010 H     1 <1>   0.0800 
 28 H        4.2460    -2.2200    -0.1520 H     1 <1>   0.0800 
 29 H        3.1850    -2.4600    -1.5170 H     1 <1>   0.0800 
 30 H       -3.3610    -2.4440    -1.7770 H     1 <1>   0.1500 
 31 H       -2.2760     0.0020     1.5690 H     1 <1>   0.1500 
 32 H       -4.6100     0.6980     1.8260 H     1 <1>   0.1500 
 33 H       -8.4830    -1.9310    -2.3030 H     1 <1>   0.0800 
 34 H       -8.7420    -0.2600    -1.8880 H     1 <1>   0.0800 
 35 H       -6.9160     1.3280     1.3040 H     1 <1>   0.0800 
 36 H       -7.8470    -0.1050     1.7160 H     1 <1>   0.0800 
 37 H       -8.3180     0.8850     0.3500 H     1 <1>   0.0800 
 38 H       -8.0250    -2.9600     0.5180 H     1 <1>   0.0800 
 39 H       -9.0090    -3.6760    -0.7270 H     1 <1>   0.0800 
 40 H      -10.8580    -2.2540    -1.7430 H     1 <1>   0.0800 
 41 H      -11.0360    -0.6170    -1.1620 H     1 <1>   0.0800 
 42 H       -9.9540    -2.8170     2.0270 H     1 <1>   0.0800 
 43 H       -9.8100    -4.4570     1.4350 H     1 <1>   0.0800 
 44 H      -12.7090    -2.1850    -0.1550 H     1 <1>   0.0800 
 45 H      -11.6920    -1.4460     1.0640 H     1 <1>   0.0800 
@<TRIPOS>BOND
  1   1   2  2   
  2   2   3  1   
  3   2   4  am  
  4   3   5  1   
  5   4   6  1   
  6   4  24  1   
  7   5   7  1   
  8   5  25  1   
  9   5  26  1   
 10   6   8  ar  
 11   6   9  ar  
 12   7  27  1   
 13   7  28  1   
 14   7  29  1   
 15   8  10  ar  
 16   8  30  1   
 17   9  11  ar  
 18   9  31  1   
 19  10  12  1   
 20  10  13  ar  
 21  11  13  ar  
 22  11  32  1   
 23  12  14  2   
 24  13  15  1   
 25  14  15  1   
 26  14  16  1   
 27  15  17  1   
 28  16  18  1   
 29  16  33  1   
 30  16  34  1   
 31  17  35  1   
 32  17  36  1   
 33  17  37  1   
 34  18  19  1   
 35  18  20  1   
 36  19  21  1   
 37  19  38  1   
 38  19  39  1   
 39  20  22  1   
 40  20  40  1   
 41  20  41  1   
 42  21  23  1   
 43  21  42  1   
 44  21  43  1   
 45  22  23  1   
 46  22  44  1   
 47  22  45  1   
@<TRIPOS>SUBSTRUCTURE
  1 ****  10 GROUP 4 **** **** 0

# MOE 2024.06 (io_trps.svl 2023.06)
