@<TRIPOS>MOLECULE
NONAME
40 42 1 0 0 
SMALL
USER_CHARGES


@<TRIPOS>ATOM
  1 BR      -1.9280     2.4280    -0.1250 Br    1 <1>  -0.0580 
  2 C       -3.1150     1.2190     0.7900 C.2   1 <1>   0.1980 
  3 O       -3.8940     0.4580     0.0560 O.3   1 <1>  -0.2800 
  4 C       -3.2750     1.0300     2.1130 C.2   1 <1>  -0.1500 
  5 C       -4.6040    -0.2630     0.9130 C.2   1 <1>  -0.0400 
  6 C       -4.2670     0.0410     2.1910 C.2   1 <1>  -0.1500 
  7 C       -5.6110    -1.2700     0.3780 C.3   1 <1>   0.2900 
  8 N       -6.9020    -0.6340     0.0200 N.3   1 <1>  -0.8100 
  9 C       -6.7460     0.4040    -1.0350 C.3   1 <1>   0.1100 
 10 C       -7.9050    -1.6460    -0.3850 C.3   1 <1>   0.1100 
 11 C       -8.0980     0.9830    -1.5170 C.3   1 <1>   0.3430 
 12 C       -9.2880    -1.0160    -0.6850 C.3   1 <1>   0.3430 
 13 N       -9.2210     0.4850    -0.6650 N.4   1 <1>  -0.9590 
 14 C      -10.5230     1.1540    -0.9120 C.3   1 <1>   0.4860 
 15 C      -11.5340     0.6450     0.0970 C.ar  1 <1>  -0.1440 
 16 C      -11.4420     1.0160     1.4320 C.ar  1 <1>  -0.1500 
 17 C      -12.5560    -0.2040    -0.3070 C.ar  1 <1>  -0.1500 
 18 C      -12.3550     0.5330     2.3530 C.ar  1 <1>  -0.1500 
 19 C      -13.4680    -0.6840     0.6160 C.ar  1 <1>  -0.1500 
 20 C      -13.3670    -0.3180     1.9460 C.ar  1 <1>  -0.1500 
 21 H       -2.7750     1.5100     2.9340 H     1 <1>   0.1500 
 22 H       -4.6590    -0.3710     3.1050 H     1 <1>   0.1500 
 23 H       -5.7880    -2.0040     1.1460 H     1 <1>   0.0800 
 24 H       -5.1900    -1.7740    -0.4750 H     1 <1>   0.0800 
 25 H       -6.2100     0.0020    -1.8780 H     1 <1>   0.0800 
 26 H       -6.1630     1.2200    -0.6440 H     1 <1>   0.0800 
 27 H       -8.0240    -2.3730     0.4010 H     1 <1>   0.0800 
 28 H       -7.5600    -2.1710    -1.2610 H     1 <1>   0.0800 
 29 H       -8.2600     0.6950    -2.5430 H     1 <1>   0.0800 
 30 H       -8.0480     2.0590    -1.4800 H     1 <1>   0.0800 
 31 H       -9.9900    -1.3560     0.0590 H     1 <1>   0.0800 
 32 H       -9.6360    -1.3610    -1.6440 H     1 <1>   0.0800 
 33 H       -8.9240     0.6900     0.3010 H     1 <1>   0.4500 
 34 H      -10.8660     0.9410    -1.9110 H     1 <1>   0.0800 
 35 H      -10.4190     2.2210    -0.8050 H     1 <1>   0.0800 
 36 H      -10.6680     1.6820     1.7720 H     1 <1>   0.1500 
 37 H      -12.6580    -0.4990    -1.3370 H     1 <1>   0.1500 
 38 H      -12.2840     0.8210     3.3890 H     1 <1>   0.1500 
 39 H      -14.2620    -1.3420     0.3030 H     1 <1>   0.1500 
 40 H      -14.0780    -0.6910     2.6640 H     1 <1>   0.1500 
@<TRIPOS>BOND
  1   1   2  1   
  2   2   3  1   
  3   2   4  2   
  4   3   5  1   
  5   4   6  1   
  6   4  21  1   
  7   5   6  2   
  8   5   7  1   
  9   6  22  1   
 10   7   8  1   
 11   7  23  1   
 12   7  24  1   
 13   8   9  1   
 14   8  10  1   
 15   9  11  1   
 16   9  25  1   
 17   9  26  1   
 18  10  12  1   
 19  10  27  1   
 20  10  28  1   
 21  11  13  1   
 22  11  29  1   
 23  11  30  1   
 24  12  13  1   
 25  12  31  1   
 26  12  32  1   
 27  13  14  1   
 28  13  33  1   
 29  14  15  1   
 30  14  34  1   
 31  14  35  1   
 32  15  16  ar  
 33  15  17  ar  
 34  16  18  ar  
 35  16  36  1   
 36  17  19  ar  
 37  17  37  1   
 38  18  20  ar  
 39  18  38  1   
 40  19  20  ar  
 41  19  39  1   
 42  20  40  1   
@<TRIPOS>SUBSTRUCTURE
  1 ****   8 GROUP 4 **** **** 0

# MOE 2024.06 (io_trps.svl 2023.06)
