@<TRIPOS>MOLECULE
NONAME
49 51 1 0 0 
SMALL
USER_CHARGES


@<TRIPOS>ATOM
  1 N       -0.0300    -0.6100    -0.4310 N.pl3 1 <1>  -0.8380 
  2 C       -1.1030     0.2160    -0.0900 C.ar  1 <1>   0.1000 
  3 C        1.1720    -0.0050    -1.0770 C.3   1 <1>   0.2090 
  4 C        0.1820    -1.8270     0.4010 C.3   1 <1>   0.2090 
  5 C       -2.3750     0.0250    -0.6410 C.ar  1 <1>  -0.1440 
  6 C       -0.9090     1.2370     0.8350 C.ar  1 <1>  -0.1500 
  7 C        2.3590     0.1070    -0.0960 C.3   1 <1>   0.3430 
  8 C        1.3730    -1.6500     1.3650 C.3   1 <1>   0.3430 
  9 C       -3.4300     0.8410    -0.2410 C.ar  1 <1>  -0.1440 
 10 C       -2.6040    -1.0780    -1.6760 C.3   1 <1>  -0.0970 
 11 C       -1.9530     2.0520     1.2190 C.ar  1 <1>  -0.1500 
 12 N        2.6180    -1.1750     0.6620 N.4   1 <1>  -0.9590 
 13 C       -3.2100     1.8510     0.6830 C.ar  1 <1>  -0.1500 
 14 C       -4.8430     0.6670    -0.7840 C.3   1 <1>  -0.0970 
 15 C        3.7700    -1.0420     1.5920 C.3   1 <1>   0.4860 
 16 C        5.0070    -0.7300     0.7750 C.ar  1 <1>  -0.1440 
 17 C        5.6020    -1.7170     0.0020 C.ar  1 <1>  -0.1500 
 18 C        5.5450     0.5490     0.7860 C.ar  1 <1>  -0.1500 
 19 C        6.7160    -1.4280    -0.7690 C.ar  1 <1>  -0.1440 
 20 C        6.6590     0.8380     0.0200 C.ar  1 <1>  -0.1500 
 21 C        7.2410    -0.1470    -0.7570 C.ar  1 <1>  -0.1500 
 22 C        7.3730    -2.5050    -1.6150 C.3   1 <1>  -0.0970 
 23 H        0.9230     0.9750    -1.4510 H     1 <1>   0.0800 
 24 H        1.4560    -0.6080    -1.9210 H     1 <1>   0.0800 
 25 H        0.3540    -2.6700    -0.2450 H     1 <1>   0.0800 
 26 H       -0.7110    -2.0300     0.9700 H     1 <1>   0.0800 
 27 H        0.0580     1.3960     1.2630 H     1 <1>   0.1500 
 28 H        2.1440     0.8980     0.6010 H     1 <1>   0.0800 
 29 H        3.2390     0.3900    -0.6510 H     1 <1>   0.0800 
 30 H        1.5620    -2.5880     1.8600 H     1 <1>   0.0800 
 31 H        1.0860    -0.9320     2.1160 H     1 <1>   0.0800 
 32 H       -1.6970    -1.3210    -2.1980 H     1 <1>   0.0800 
 33 H       -3.3160    -0.7710    -2.4180 H     1 <1>   0.0800 
 34 H       -2.9680    -1.9630    -1.1870 H     1 <1>   0.0800 
 35 H       -1.7960     2.8410     1.9330 H     1 <1>   0.1500 
 36 H        2.8820    -1.8750    -0.0410 H     1 <1>   0.4500 
 37 H       -4.0190     2.4910     0.9920 H     1 <1>   0.1500 
 38 H       -5.1450    -0.3620    -0.7150 H     1 <1>   0.0800 
 39 H       -4.8800     0.9780    -1.8130 H     1 <1>   0.0800 
 40 H       -5.5470     1.2570    -0.2270 H     1 <1>   0.0800 
 41 H        3.9240    -1.9630     2.1310 H     1 <1>   0.0800 
 42 H        3.5890    -0.2530     2.3030 H     1 <1>   0.0800 
 43 H        5.2120    -2.7200    -0.0060 H     1 <1>   0.1500 
 44 H        5.1130     1.3320     1.3870 H     1 <1>   0.1500 
 45 H        7.0810     1.8290     0.0270 H     1 <1>   0.1500 
 46 H        8.1100     0.0870    -1.3480 H     1 <1>   0.1500 
 47 H        6.6710    -3.2790    -1.8670 H     1 <1>   0.0800 
 48 H        8.1920    -2.9440    -1.0730 H     1 <1>   0.0800 
 49 H        7.7530    -2.0840    -2.5290 H     1 <1>   0.0800 
@<TRIPOS>BOND
  1   1   2  1   
  2   1   3  1   
  3   1   4  1   
  4   2   5  ar  
  5   2   6  ar  
  6   3   7  1   
  7   3  23  1   
  8   3  24  1   
  9   4   8  1   
 10   4  25  1   
 11   4  26  1   
 12   5   9  ar  
 13   5  10  1   
 14   6  11  ar  
 15   6  27  1   
 16   7  12  1   
 17   7  28  1   
 18   7  29  1   
 19   8  12  1   
 20   8  30  1   
 21   8  31  1   
 22   9  13  ar  
 23   9  14  1   
 24  10  32  1   
 25  10  33  1   
 26  10  34  1   
 27  11  13  ar  
 28  11  35  1   
 29  12  15  1   
 30  12  36  1   
 31  13  37  1   
 32  14  38  1   
 33  14  39  1   
 34  14  40  1   
 35  15  16  1   
 36  15  41  1   
 37  15  42  1   
 38  16  17  ar  
 39  16  18  ar  
 40  17  19  ar  
 41  17  43  1   
 42  18  20  ar  
 43  18  44  1   
 44  19  21  ar  
 45  19  22  1   
 46  20  21  ar  
 47  20  45  1   
 48  21  46  1   
 49  22  47  1   
 50  22  48  1   
 51  22  49  1   
@<TRIPOS>SUBSTRUCTURE
  1 ****   7 GROUP 4 **** **** 0

# MOE 2024.06 (io_trps.svl 2023.06)
