@<TRIPOS>MOLECULE
NONAME
49 51 1 0 0 
SMALL
USER_CHARGES


@<TRIPOS>ATOM
  1 CL       1.6870    -0.8140    -2.9690 Cl    1 <1>  -0.1770 
  2 C        3.1210    -0.5910    -1.9950 C.ar  1 <1>   0.1770 
  3 C        4.3530    -0.4910    -2.6150 C.ar  1 <1>  -0.1500 
  4 C        3.0020    -0.5180    -0.6190 C.ar  1 <1>  -0.1500 
  5 C        5.4860    -0.3140    -1.8400 C.ar  1 <1>  -0.1500 
  6 C        4.1410    -0.3410     0.1470 C.ar  1 <1>  -0.1500 
  7 C        5.3910    -0.2380    -0.4520 C.ar  1 <1>   0.1000 
  8 N        6.5130    -0.0610     0.3450 N.pl3 1 <1>  -0.8380 
  9 C        7.1870     1.2670     0.2500 C.3   1 <1>   0.2090 
 10 C        7.4930    -1.1860     0.3700 C.3   1 <1>   0.2090 
 11 C        8.2610     1.4240     1.3430 C.3   1 <1>   0.1100 
 12 C        8.5560    -0.9720     1.4650 C.3   1 <1>   0.1100 
 13 N        9.2600     0.3230     1.3140 N.3   1 <1>  -0.8100 
 14 C       10.2740     0.5020     2.3980 C.3   1 <1>   0.1710 
 15 C       11.2830     1.6160     2.1160 C.2   1 <1>   0.5690 
 16 O       11.8430     2.1530     3.0410 O.2   1 <1>  -0.5700 
 17 N       11.4690     1.9290     0.8000 N.am  1 <1>  -0.5470 
 18 C       12.2480     2.8720     0.1120 C.ar  1 <1>   0.1170 
 19 C       12.0310     3.0650    -1.2540 C.ar  1 <1>  -0.1430 
 20 C       13.2350     3.6200     0.7460 C.ar  1 <1>  -0.1500 
 21 C       12.7940     3.9900    -1.9480 C.ar  1 <1>  -0.1500 
 22 C       10.9660     2.2740    -2.0060 C.3   1 <1>  -0.0970 
 23 C       13.9940     4.5460     0.0510 C.ar  1 <1>  -0.1430 
 24 C       13.7690     4.7270    -1.3020 C.ar  1 <1>  -0.1500 
 25 C       15.0650     5.3530     0.7610 C.3   1 <1>  -0.0970 
 26 H        4.4190    -0.5510    -3.6850 H     1 <1>   0.1500 
 27 H        2.0340    -0.5990    -0.1590 H     1 <1>   0.1500 
 28 H        6.4510    -0.2340    -2.3050 H     1 <1>   0.1500 
 29 H        4.0780    -0.2810     1.2180 H     1 <1>   0.1500 
 30 H        6.4510     2.0450     0.3570 H     1 <1>   0.0800 
 31 H        7.6470     1.3710    -0.7170 H     1 <1>   0.0800 
 32 H        7.9800    -1.2640    -0.5860 H     1 <1>   0.0800 
 33 H        6.9670    -2.1070     0.5560 H     1 <1>   0.0800 
 34 H        7.7680     1.4450     2.3010 H     1 <1>   0.0800 
 35 H        8.7550     2.3700     1.2060 H     1 <1>   0.0800 
 36 H        9.2700    -1.7750     1.4120 H     1 <1>   0.0800 
 37 H        8.0720    -1.0170     2.4260 H     1 <1>   0.0800 
 38 H       10.8370    -0.4070     2.5120 H     1 <1>   0.0800 
 39 H        9.7830     0.7050     3.3340 H     1 <1>   0.0800 
 40 H       10.8330     1.3830     0.2120 H     1 <1>   0.3700 
 41 H       13.4170     3.4780     1.7940 H     1 <1>   0.1500 
 42 H       12.6360     4.1470    -3.0010 H     1 <1>   0.1500 
 43 H       11.1850     1.2220    -1.9560 H     1 <1>   0.0800 
 44 H       10.9320     2.5620    -3.0410 H     1 <1>   0.0800 
 45 H        9.9990     2.4550    -1.5730 H     1 <1>   0.0800 
 46 H       14.3530     5.4420    -1.8550 H     1 <1>   0.1500 
 47 H       14.9090     5.3400     1.8250 H     1 <1>   0.0800 
 48 H       15.0420     6.3750     0.4270 H     1 <1>   0.0800 
 49 H       16.0340     4.9380     0.5480 H     1 <1>   0.0800 
@<TRIPOS>BOND
  1   1   2  1   
  2   2   3  ar  
  3   2   4  ar  
  4   3   5  ar  
  5   3  26  1   
  6   4   6  ar  
  7   4  27  1   
  8   5   7  ar  
  9   5  28  1   
 10   6   7  ar  
 11   6  29  1   
 12   7   8  1   
 13   8   9  1   
 14   8  10  1   
 15   9  11  1   
 16   9  30  1   
 17   9  31  1   
 18  10  12  1   
 19  10  32  1   
 20  10  33  1   
 21  11  13  1   
 22  11  34  1   
 23  11  35  1   
 24  12  13  1   
 25  12  36  1   
 26  12  37  1   
 27  13  14  1   
 28  14  15  1   
 29  14  38  1   
 30  14  39  1   
 31  15  16  2   
 32  15  17  am  
 33  17  18  1   
 34  17  40  1   
 35  18  19  ar  
 36  18  20  ar  
 37  19  21  ar  
 38  19  22  1   
 39  20  23  ar  
 40  20  41  1   
 41  21  24  ar  
 42  21  42  1   
 43  22  43  1   
 44  22  44  1   
 45  22  45  1   
 46  23  24  ar  
 47  23  25  1   
 48  24  46  1   
 49  25  47  1   
 50  25  48  1   
 51  25  49  1   
@<TRIPOS>SUBSTRUCTURE
  1 ****  11 GROUP 4 **** **** 0

# MOE 2024.06 (io_trps.svl 2023.06)
