@<TRIPOS>MOLECULE
NONAME
42 41 1 0 0 
SMALL
USER_CHARGES


@<TRIPOS>ATOM
  1 O       -1.7340    -2.3140     1.3520 O.2   1 <1>  -0.5700 
  2 C       -1.5290    -1.7220     0.3090 C.2   1 <1>   0.7800 
  3 O       -0.4430    -1.9550    -0.4240 O.3   1 <1>  -0.4300 
  4 N       -2.3720    -0.7930    -0.1910 N.am  1 <1>  -0.7300 
  5 C        0.6470    -2.7850    -0.0960 C.3   1 <1>   0.2800 
  6 C       -3.4100    -0.0970     0.5940 C.3   1 <1>   0.2200 
  7 C        1.6250    -2.6340    -1.2610 C.3   1 <1>  -0.2400 
  8 C        1.3170    -2.2920     1.1920 C.3   1 <1>  -0.2400 
  9 C        0.1940    -4.2470    -0.0010 C.3   1 <1>  -0.2400 
 10 C       -4.8120    -0.7650     0.4540 C.3   1 <1>  -0.0800 
 11 C       -3.4500     1.3530     0.0920 C.3   1 <1>  -0.2660 
 12 C       -5.8030    -0.1670     1.4910 C.3   1 <1>  -0.1600 
 13 C       -4.7780    -2.3110     0.5630 C.3   1 <1>  -0.1600 
 14 C       -2.0970     2.0010     0.1210 C.2   1 <1>   0.9060 
 15 C       -7.1290     0.2720     0.8560 C.3   1 <1>  -0.2400 
 16 C       -6.1330    -2.9940     0.3280 C.3   1 <1>  -0.2400 
 17 O       -1.3170     1.7430    -0.8040 O.co2 1 <1>  -0.9000 
 18 O       -1.8200     2.7610     1.0510 O.co2 1 <1>  -0.9000 
 19 H       -1.8880    -0.1230    -0.8150 H     1 <1>   0.3700 
 20 H       -3.1100    -0.1030     1.6300 H     1 <1>   0.0800 
 21 H        2.5030    -3.2320    -1.0970 H     1 <1>   0.0800 
 22 H        1.9250    -1.6050    -1.3590 H     1 <1>   0.0800 
 23 H        1.1620    -2.9490    -2.1780 H     1 <1>   0.0800 
 24 H        0.6810    -2.4500     2.0440 H     1 <1>   0.0800 
 25 H        1.5420    -1.2430     1.1130 H     1 <1>   0.0800 
 26 H        2.2320    -2.8280     1.3630 H     1 <1>   0.0800 
 27 H       -0.3380    -4.5290    -0.8910 H     1 <1>   0.0800 
 28 H       -0.4410    -4.3990     0.8520 H     1 <1>   0.0800 
 29 H        1.0470    -4.8900     0.1090 H     1 <1>   0.0800 
 30 H       -5.1630    -0.5290    -0.5350 H     1 <1>   0.0800 
 31 H       -4.1010     1.9510     0.6950 H     1 <1>   0.0800 
 32 H       -3.8090     1.3870    -0.9180 H     1 <1>   0.0800 
 33 H       -5.3730     0.6880     1.9810 H     1 <1>   0.0800 
 34 H       -5.9970    -0.8810     2.2730 H     1 <1>   0.0800 
 35 H       -4.3960    -2.5940     1.5290 H     1 <1>   0.0800 
 36 H       -4.1000    -2.7010    -0.1750 H     1 <1>   0.0800 
 37 H       -6.9510     1.0410     0.1250 H     1 <1>   0.0800 
 38 H       -7.7850     0.6650     1.6120 H     1 <1>   0.0800 
 39 H       -7.6180    -0.5550     0.3750 H     1 <1>   0.0800 
 40 H       -6.8310    -2.7510     1.1080 H     1 <1>   0.0800 
 41 H       -6.0010    -4.0620     0.3180 H     1 <1>   0.0800 
 42 H       -6.5430    -2.6930    -0.6190 H     1 <1>   0.0800 
@<TRIPOS>BOND
  1   1   2  2   
  2   2   3  1   
  3   2   4  am  
  4   3   5  1   
  5   4   6  1   
  6   4  19  1   
  7   5   7  1   
  8   5   8  1   
  9   5   9  1   
 10   6  10  1   
 11   6  11  1   
 12   6  20  1   
 13   7  21  1   
 14   7  22  1   
 15   7  23  1   
 16   8  24  1   
 17   8  25  1   
 18   8  26  1   
 19   9  27  1   
 20   9  28  1   
 21   9  29  1   
 22  10  12  1   
 23  10  13  1   
 24  10  30  1   
 25  11  14  1   
 26  11  31  1   
 27  11  32  1   
 28  12  15  1   
 29  12  33  1   
 30  12  34  1   
 31  13  16  1   
 32  13  35  1   
 33  13  36  1   
 34  14  17  ar  
 35  14  18  ar  
 36  15  37  1   
 37  15  38  1   
 38  15  39  1   
 39  16  40  1   
 40  16  41  1   
 41  16  42  1   
@<TRIPOS>SUBSTRUCTURE
  1 ****   4 GROUP 4 **** **** 0

# MOE 2024.06 (io_trps.svl 2023.06)
