@<TRIPOS>MOLECULE
NONAME
27 27 1 0 0 
SMALL
USER_CHARGES


@<TRIPOS>ATOM
  1 S       -0.2200    -0.2880     0.0020 S.3   1 <1>  -0.2660 
  2 C        1.1000     0.9430     0.0010 C.1   1 <1>   0.5930 
  3 C       -1.7440     0.7510     0.0010 C.3   1 <1>   0.0700 
  4 N        1.9120     1.7390     0.0000 N.1   1 <1>  -0.5570 
  5 C       -2.9560    -0.1840     0.0020 C.3   1 <1>  -0.1600 
  6 C       -4.2670     0.6140     0.0010 C.3   1 <1>  -0.1600 
  7 C       -5.4830    -0.3120     0.0020 C.3   1 <1>   0.1200 
  8 O       -6.6380     0.4930     0.0010 O.3   1 <1>  -0.3630 
  9 C       -7.8880    -0.0500     0.0010 C.ar  1 <1>   0.0830 
 10 C       -8.9880     0.8020    -0.0010 C.ar  1 <1>   0.1900 
 11 C       -8.1280    -1.4230     0.0030 C.ar  1 <1>  -0.1500 
 12 F       -8.8050     2.1000    -0.0020 F     1 <1>  -0.1900 
 13 C      -10.2890     0.3360    -0.0010 C.ar  1 <1>  -0.1500 
 14 C       -9.4300    -1.9040     0.0020 C.ar  1 <1>  -0.1500 
 15 C      -10.5080    -1.0310     0.0000 C.ar  1 <1>  -0.1500 
 16 H       -1.7150     1.3650    -0.8820 H     1 <1>   0.0800 
 17 H       -1.7150     1.3670     0.8840 H     1 <1>   0.0800 
 18 H       -2.9160    -0.8120     0.8760 H     1 <1>   0.0800 
 19 H       -2.9160    -0.8130    -0.8710 H     1 <1>   0.0800 
 20 H       -4.3080     1.2400    -0.8740 H     1 <1>   0.0800 
 21 H       -4.3080     1.2410     0.8750 H     1 <1>   0.0800 
 22 H       -5.4970    -0.9250     0.8870 H     1 <1>   0.0800 
 23 H       -5.4970    -0.9260    -0.8820 H     1 <1>   0.0800 
 24 H       -7.3220    -2.1310     0.0040 H     1 <1>   0.1500 
 25 H      -11.1090     1.0310    -0.0030 H     1 <1>   0.1500 
 26 H       -9.6060    -2.9660     0.0030 H     1 <1>   0.1500 
 27 H      -11.5130    -1.4160     0.0000 H     1 <1>   0.1500 
@<TRIPOS>BOND
  1   1   2  1   
  2   1   3  1   
  3   2   4  3   
  4   3   5  1   
  5   3  16  1   
  6   3  17  1   
  7   5   6  1   
  8   5  18  1   
  9   5  19  1   
 10   6   7  1   
 11   6  20  1   
 12   6  21  1   
 13   7   8  1   
 14   7  22  1   
 15   7  23  1   
 16   8   9  1   
 17   9  10  ar  
 18   9  11  ar  
 19  10  12  1   
 20  10  13  ar  
 21  11  14  ar  
 22  11  24  1   
 23  13  15  ar  
 24  13  25  1   
 25  14  15  ar  
 26  14  26  1   
 27  15  27  1   
@<TRIPOS>SUBSTRUCTURE
  1 ****   7 GROUP 4 **** **** 0

# MOE 2024.06 (io_trps.svl 2023.06)
