@<TRIPOS>MOLECULE
NONAME
35 35 1 0 0 
SMALL
USER_CHARGES


@<TRIPOS>ATOM
  1 S        0.7910     0.6930     0.0470 S.o2  1 <1>   1.4470 
  2 O        1.0040    -0.6340     0.5710 O.2   1 <1>  -0.6500 
  3 O        1.4980     1.1420    -1.1260 O.2   1 <1>  -0.6500 
  4 N        1.4220     1.6450     1.2430 N.am  1 <1>  -0.9780 
  5 C       -0.9650     1.1400    -0.0090 C.ar  1 <1>  -0.0090 
  6 C       -1.3810     2.3450    -0.5630 C.ar  1 <1>  -0.1500 
  7 C       -1.9440     0.3020     0.5130 C.ar  1 <1>  -0.1500 
  8 C       -2.7180     2.6960    -0.6030 C.ar  1 <1>  -0.1500 
  9 C       -3.2820     0.6490     0.4770 C.ar  1 <1>  -0.1500 
 10 C       -3.6930     1.8520    -0.0870 C.ar  1 <1>   0.1170 
 11 N       -5.0350     2.2510    -0.1380 N.am  1 <1>  -0.5470 
 12 C       -6.1730     1.5000    -0.1600 C.2   1 <1>   0.6900 
 13 O       -6.1460     0.2960    -0.2660 O.2   1 <1>  -0.5700 
 14 N       -7.3590     2.1480    -0.0820 N.am  1 <1>  -0.7300 
 15 C       -8.7590     1.5150     0.0380 C.3   1 <1>   0.3000 
 16 C       -9.8050     2.6250     0.3710 C.3   1 <1>   1.0200 
 17 C       -8.9160     0.4570     1.1900 C.3   1 <1>   1.0200 
 18 C       -9.0630     0.9030    -1.3600 C.3   1 <1>  -0.2400 
 19 F      -11.0720     2.2800     0.1670 F     1 <1>  -0.3400 
 20 F       -9.7330     3.0860     1.6130 F     1 <1>  -0.3400 
 21 F       -9.6130     3.6950    -0.3970 F     1 <1>  -0.3400 
 22 F       -8.4180    -0.7360     0.8930 F     1 <1>  -0.3400 
 23 F      -10.1760     0.2040     1.5260 F     1 <1>  -0.3400 
 24 F       -8.3130     0.8280     2.3160 F     1 <1>  -0.3400 
 25 H        2.3160     1.9390     0.8570 H     1 <1>   0.4200 
 26 H        1.6400     0.9790     1.9800 H     1 <1>   0.4200 
 27 H       -0.6430     3.0150    -0.9720 H     1 <1>   0.1500 
 28 H       -1.6570    -0.6390     0.9540 H     1 <1>   0.1500 
 29 H       -3.0030     3.6340    -1.0440 H     1 <1>   0.1500 
 30 H       -4.0100    -0.0240     0.8930 H     1 <1>   0.1500 
 31 H       -5.1800     3.2460    -0.2620 H     1 <1>   0.3700 
 32 H       -7.3430     3.1640     0.0140 H     1 <1>   0.3700 
 33 H       -9.0210     1.6590    -2.1240 H     1 <1>   0.0800 
 34 H      -10.0420     0.4580    -1.3770 H     1 <1>   0.0800 
 35 H       -8.3530     0.1320    -1.6030 H     1 <1>   0.0800 
@<TRIPOS>BOND
  1   1   2  2   
  2   1   3  2   
  3   1   4  am  
  4   1   5  1   
  5   4  25  1   
  6   4  26  1   
  7   5   6  ar  
  8   5   7  ar  
  9   6   8  ar  
 10   6  27  1   
 11   7   9  ar  
 12   7  28  1   
 13   8  10  ar  
 14   8  29  1   
 15   9  10  ar  
 16   9  30  1   
 17  10  11  1   
 18  11  12  am  
 19  11  31  1   
 20  12  13  2   
 21  12  14  am  
 22  14  15  1   
 23  14  32  1   
 24  15  16  1   
 25  15  17  1   
 26  15  18  1   
 27  16  19  1   
 28  16  20  1   
 29  16  21  1   
 30  17  22  1   
 31  17  23  1   
 32  17  24  1   
 33  18  33  1   
 34  18  34  1   
 35  18  35  1   
@<TRIPOS>SUBSTRUCTURE
  1 ****  12 GROUP 4 **** **** 0

# MOE 2024.06 (io_trps.svl 2023.06)
