@<TRIPOS>MOLECULE
NONAME
50 51 1 0 0 
SMALL
USER_CHARGES


@<TRIPOS>ATOM
  1 O        8.0310     2.2770    -1.6470 O.2   1 <1>  -0.5700 
  2 C        8.0620     2.7640    -0.5470 C.2   1 <1>   0.6590 
  3 O        9.1520     2.7760     0.2040 O.3   1 <1>  -0.4300 
  4 C        6.8230     3.4170     0.0600 C.3   1 <1>  -0.0190 
  5 C       10.3600     2.2070    -0.2480 C.3   1 <1>   0.1200 
  6 C        5.6440     2.4260     0.1140 C.3   1 <1>  -0.1600 
  7 C        6.4260     4.6780    -0.7300 C.3   1 <1>  -0.1600 
  8 C       11.4070     2.3890     0.8460 C.3   1 <1>  -0.2400 
  9 C        4.3560     3.0890     0.5970 C.3   1 <1>   0.3430 
 10 C        5.1180     5.2840    -0.2240 C.3   1 <1>   0.3430 
 11 N        4.0380     4.2570    -0.2790 N.4   1 <1>  -0.9590 
 12 C        2.7180     4.8830     0.0670 C.3   1 <1>   0.3430 
 13 C        1.5230     3.9810    -0.2560 C.3   1 <1>   0.1200 
 14 O        0.3640     4.6890     0.1010 O.3   1 <1>  -0.3630 
 15 C       -0.8690     4.1430    -0.0490 C.ar  1 <1>   0.0820 
 16 C       -1.9430     4.9020     0.3860 C.ar  1 <1>  -0.1500 
 17 C       -1.1020     2.8870    -0.6040 C.ar  1 <1>  -0.1500 
 18 C       -3.2350     4.4200     0.2730 C.ar  1 <1>  -0.1500 
 19 C       -2.3960     2.4090    -0.7140 C.ar  1 <1>  -0.1500 
 20 C       -3.4690     3.1710    -0.2780 C.ar  1 <1>  -0.1440 
 21 C       -4.8880     2.6400    -0.4010 C.3   1 <1>  -0.0170 
 22 C       -5.2780     1.8530     0.8520 C.3   1 <1>  -0.2400 
 23 H        7.0680     3.7080     1.0680 H     1 <1>   0.0800 
 24 H       10.6570     2.7080    -1.1540 H     1 <1>   0.0800 
 25 H       10.1920     1.1630    -0.4520 H     1 <1>   0.0800 
 26 H        5.8920     1.6150     0.7770 H     1 <1>   0.0800 
 27 H        5.4760     1.9980    -0.8610 H     1 <1>   0.0800 
 28 H        6.3260     4.4410    -1.7760 H     1 <1>   0.0800 
 29 H        7.2090     5.4110    -0.6440 H     1 <1>   0.0800 
 30 H       11.5590     3.4350     1.0460 H     1 <1>   0.0800 
 31 H       12.3410     1.9630     0.5270 H     1 <1>   0.0800 
 32 H       11.0940     1.8910     1.7470 H     1 <1>   0.0800 
 33 H        4.4790     3.4190     1.6170 H     1 <1>   0.0800 
 34 H        3.5550     2.3690     0.5680 H     1 <1>   0.0800 
 35 H        4.8560     6.1310    -0.8400 H     1 <1>   0.0800 
 36 H        5.2460     5.6290     0.7900 H     1 <1>   0.0800 
 37 H        3.9970     3.9200    -1.2510 H     1 <1>   0.4500 
 38 H        2.6000     5.7980    -0.4920 H     1 <1>   0.0800 
 39 H        2.6960     5.1260     1.1170 H     1 <1>   0.0800 
 40 H        1.5460     3.0740     0.3210 H     1 <1>   0.0800 
 41 H        1.4730     3.7700    -1.3100 H     1 <1>   0.0800 
 42 H       -1.7670     5.8720     0.8140 H     1 <1>   0.1500 
 43 H       -0.3020     2.2650    -0.9560 H     1 <1>   0.1500 
 44 H       -4.0580     5.0210     0.6180 H     1 <1>   0.1500 
 45 H       -2.5700     1.4370    -1.1410 H     1 <1>   0.1500 
 46 H       -4.9650     2.0040    -1.2660 H     1 <1>   0.0800 
 47 H       -5.5710     3.4600    -0.5390 H     1 <1>   0.0800 
 48 H       -4.6120     1.0200     0.9890 H     1 <1>   0.0800 
 49 H       -6.2830     1.4820     0.7590 H     1 <1>   0.0800 
 50 H       -5.2200     2.4860     1.7200 H     1 <1>   0.0800 
@<TRIPOS>BOND
  1   1   2  2   
  2   2   3  1   
  3   2   4  1   
  4   3   5  1   
  5   4   6  1   
  6   4   7  1   
  7   4  23  1   
  8   5   8  1   
  9   5  24  1   
 10   5  25  1   
 11   6   9  1   
 12   6  26  1   
 13   6  27  1   
 14   7  10  1   
 15   7  28  1   
 16   7  29  1   
 17   8  30  1   
 18   8  31  1   
 19   8  32  1   
 20   9  11  1   
 21   9  33  1   
 22   9  34  1   
 23  10  11  1   
 24  10  35  1   
 25  10  36  1   
 26  11  12  1   
 27  11  37  1   
 28  12  13  1   
 29  12  38  1   
 30  12  39  1   
 31  13  14  1   
 32  13  40  1   
 33  13  41  1   
 34  14  15  1   
 35  15  16  ar  
 36  15  17  ar  
 37  16  18  ar  
 38  16  42  1   
 39  17  19  ar  
 40  17  43  1   
 41  18  20  ar  
 42  18  44  1   
 43  19  20  ar  
 44  19  45  1   
 45  20  21  1   
 46  21  22  1   
 47  21  46  1   
 48  21  47  1   
 49  22  48  1   
 50  22  49  1   
 51  22  50  1   
@<TRIPOS>SUBSTRUCTURE
  1 ****  13 GROUP 4 **** **** 0

# MOE 2024.06 (io_trps.svl 2023.06)
