@<TRIPOS>MOLECULE
NONAME
37 40 1 0 0 
SMALL
USER_CHARGES


@<TRIPOS>ATOM
  1 F       -0.7790    -0.7680     0.5290 F     1 <1>  -0.3400 
  2 C        0.1800    -0.7830    -0.3950 C.3   1 <1>   1.1640 
  3 F       -0.4330    -0.5950    -1.5550 F     1 <1>  -0.3400 
  4 F        0.9070     0.3070    -0.1790 F     1 <1>  -0.3400 
  5 C        0.9910    -2.0830    -0.3660 C.ar  1 <1>  -0.1440 
  6 C        0.3420    -3.3230    -0.3890 C.ar  1 <1>   0.1170 
  7 C        2.3830    -2.0420    -0.3310 C.ar  1 <1>  -0.1500 
  8 N       -1.0630    -3.4100    -0.4040 N.am  1 <1>  -0.5470 
  9 C        1.1110    -4.4820    -0.3710 C.ar  1 <1>  -0.1500 
 10 C        3.1290    -3.2050    -0.3140 C.ar  1 <1>  -0.1500 
 11 C       -1.8930    -4.3150    -1.0120 C.2   1 <1>   0.5690 
 12 C        2.4910    -4.4290    -0.3350 C.ar  1 <1>  -0.1500 
 13 O       -1.4800    -5.2450    -1.6570 O.2   1 <1>  -0.5700 
 14 C       -3.4080    -4.1600    -0.8830 C.3   1 <1>  -0.0190 
 15 C       -3.9170    -2.6940    -0.8080 C.3   1 <1>  -0.0190 
 16 C       -3.9730    -4.7730     0.4220 C.3   1 <1>  -0.0800 
 17 C       -5.1470    -2.5410    -1.6650 C.2   1 <1>   0.6590 
 18 C       -4.5370    -2.6180     0.5970 C.3   1 <1>  -0.0800 
 19 C       -5.5160    -4.7970     0.3310 C.3   1 <1>  -0.1600 
 20 C       -3.7790    -3.6460     1.4210 C.3   1 <1>  -0.1600 
 21 O       -5.1650    -2.1350    -2.7940 O.2   1 <1>  -0.5700 
 22 O       -6.2160    -2.9130    -0.9920 O.3   1 <1>  -0.4300 
 23 C       -5.8890    -3.2990     0.3210 C.3   1 <1>   0.2000 
 24 H        2.9100    -1.1010    -0.3180 H     1 <1>   0.1500 
 25 H       -1.5490    -2.6720     0.1070 H     1 <1>   0.3700 
 26 H        0.6300    -5.4440    -0.3850 H     1 <1>   0.1500 
 27 H        4.2050    -3.1600    -0.2880 H     1 <1>   0.1500 
 28 H        3.0650    -5.3400    -0.3250 H     1 <1>   0.1500 
 29 H       -3.8400    -4.6630    -1.7320 H     1 <1>   0.0800 
 30 H       -3.1860    -1.9360    -1.0210 H     1 <1>   0.0800 
 31 H       -3.5330    -5.7190     0.6960 H     1 <1>   0.0800 
 32 H       -4.6210    -1.6310     1.0180 H     1 <1>   0.0800 
 33 H       -5.9220    -5.2650     1.2110 H     1 <1>   0.0800 
 34 H       -5.8770    -5.3190    -0.5390 H     1 <1>   0.0800 
 35 H       -2.7510    -3.3840     1.5930 H     1 <1>   0.0800 
 36 H       -4.2560    -3.8460     2.3670 H     1 <1>   0.0800 
 37 H       -6.6820    -3.0380     1.0010 H     1 <1>   0.0800 
@<TRIPOS>BOND
  1   1   2  1   
  2   2   3  1   
  3   2   4  1   
  4   2   5  1   
  5   5   6  ar  
  6   5   7  ar  
  7   6   8  1   
  8   6   9  ar  
  9   7  10  ar  
 10   7  24  1   
 11   8  11  am  
 12   8  25  1   
 13   9  12  ar  
 14   9  26  1   
 15  10  12  ar  
 16  10  27  1   
 17  11  13  2   
 18  11  14  1   
 19  12  28  1   
 20  14  15  1   
 21  14  16  1   
 22  14  29  1   
 23  15  17  1   
 24  15  18  1   
 25  15  30  1   
 26  16  19  1   
 27  16  20  1   
 28  16  31  1   
 29  17  21  2   
 30  17  22  1   
 31  18  20  1   
 32  18  23  1   
 33  18  32  1   
 34  19  23  1   
 35  19  33  1   
 36  19  34  1   
 37  20  35  1   
 38  20  36  1   
 39  22  23  1   
 40  23  37  1   
@<TRIPOS>SUBSTRUCTURE
  1 ****   8 GROUP 4 **** **** 0

# MOE 2024.06 (io_trps.svl 2023.06)
