@<TRIPOS>MOLECULE
NONAME
37 40 1 0 0 
SMALL
USER_CHARGES


@<TRIPOS>ATOM
  1 O       -0.6800     0.5280     1.3050 O.2   1 <1>  -0.5700 
  2 C       -1.6390     1.1680     0.9120 C.2   1 <1>   0.6340 
  3 O       -2.8370     0.6310     1.1540 O.3   1 <1>  -0.2320 
  4 C       -1.5690     2.4470     0.2550 C.ar  1 <1>   0.0860 
  5 C       -3.9570     1.0720     0.5540 C.ar  1 <1>   0.0830 
  6 C       -0.3530     3.1030     0.0090 C.ar  1 <1>   0.4100 
  7 C       -2.7520     3.0990    -0.0980 C.ar  1 <1>   0.0000 
  8 C       -3.9420     2.2710    -0.1640 C.ar  1 <1>   0.0000 
  9 C       -5.0840     0.2670     0.6110 C.ar  1 <1>  -0.1500 
 10 N       -0.2520     4.3460    -0.4040 N.ar  1 <1>  -0.6200 
 11 N        0.8590     2.5160     0.1770 N.pl3 1 <1>  -0.9000 
 12 C       -2.6430     4.4740    -0.3450 C.ar  1 <1>  -0.1430 
 13 C       -5.0640     2.5370    -0.9560 C.ar  1 <1>  -0.1500 
 14 C       -6.2070     0.6010    -0.1180 C.ar  1 <1>  -0.1500 
 15 C       -1.3790     5.0180    -0.5450 C.ar  1 <1>   0.1670 
 16 C       -3.8660     5.4030    -0.3340 C.3   1 <1>  -0.0170 
 17 C       -6.1860     1.7300    -0.9190 C.ar  1 <1>  -0.1500 
 18 C       -1.1820     6.4680    -0.9700 C.3   1 <1>  -0.0170 
 19 C       -3.7720     6.4870     0.7530 C.3   1 <1>  -0.1600 
 20 C       -1.4680     7.4600     0.1620 C.3   1 <1>  -0.1600 
 21 C       -2.9640     7.7280     0.3540 C.3   1 <1>  -0.1600 
 22 H       -5.0680    -0.6270     1.2100 H     1 <1>   0.1500 
 23 H        1.6780     3.1250     0.1750 H     1 <1>   0.4000 
 24 H        0.9250     1.6430     0.7180 H     1 <1>   0.4000 
 25 H       -5.0640     3.3790    -1.6230 H     1 <1>   0.1500 
 26 H       -7.0860    -0.0200    -0.0790 H     1 <1>   0.1500 
 27 H       -4.7480     4.8530    -0.0820 H     1 <1>   0.0800 
 28 H       -4.0220     5.8420    -1.3030 H     1 <1>   0.0800 
 29 H       -7.0460     1.9730    -1.5200 H     1 <1>   0.1500 
 30 H       -1.7930     6.6850    -1.8260 H     1 <1>   0.0800 
 31 H       -0.1590     6.5980    -1.2810 H     1 <1>   0.0800 
 32 H       -3.3670     6.0600     1.6550 H     1 <1>   0.0800 
 33 H       -4.7720     6.8150     0.9810 H     1 <1>   0.0800 
 34 H       -0.9860     8.3930    -0.0740 H     1 <1>   0.0800 
 35 H       -1.0330     7.0950     1.0770 H     1 <1>   0.0800 
 36 H       -3.0740     8.4670     1.1300 H     1 <1>   0.0800 
 37 H       -3.3740     8.1510    -0.5470 H     1 <1>   0.0800 
@<TRIPOS>BOND
  1   1   2  2   
  2   2   3  1   
  3   2   4  1   
  4   3   5  1   
  5   4   6  ar  
  6   4   7  ar  
  7   5   8  ar  
  8   5   9  ar  
  9   6  10  ar  
 10   6  11  1   
 11   7   8  1   
 12   7  12  ar  
 13   8  13  ar  
 14   9  14  ar  
 15   9  22  1   
 16  10  15  ar  
 17  11  23  1   
 18  11  24  1   
 19  12  15  ar  
 20  12  16  1   
 21  13  17  ar  
 22  13  25  1   
 23  14  17  ar  
 24  14  26  1   
 25  15  18  1   
 26  16  19  1   
 27  16  27  1   
 28  16  28  1   
 29  17  29  1   
 30  18  20  1   
 31  18  30  1   
 32  18  31  1   
 33  19  21  1   
 34  19  32  1   
 35  19  33  1   
 36  20  21  1   
 37  20  34  1   
 38  20  35  1   
 39  21  36  1   
 40  21  37  1   
@<TRIPOS>SUBSTRUCTURE
  1 ****   7 GROUP 4 **** **** 0

# MOE 2024.06 (io_trps.svl 2023.06)
