@<TRIPOS>MOLECULE
NONAME
32 32 1 0 0 
SMALL
USER_CHARGES


@<TRIPOS>ATOM
  1 BR       2.3070     1.5050     2.7400 Br    1 <1>  -0.1110 
  2 C        1.2430     2.4270     1.4180 C.ar  1 <1>   0.1110 
  3 C        1.8000     2.7290     0.1830 C.ar  1 <1>   0.0820 
  4 C       -0.0560     2.7600     1.7500 C.ar  1 <1>  -0.1500 
  5 O        3.0870     2.3590    -0.0510 O.3   1 <1>  -0.3630 
  6 C        1.0050     3.3950    -0.7450 C.ar  1 <1>  -0.1500 
  7 C       -0.8390     3.4220     0.8170 C.ar  1 <1>  -0.1430 
  8 C        3.7310     2.6460    -1.2860 C.3   1 <1>   0.1810 
  9 C       -0.3010     3.7350    -0.4240 C.ar  1 <1>  -0.1500 
 10 C       -2.2700     3.8050     1.1480 C.3   1 <1>  -0.0960 
 11 C        5.1680     2.1360    -1.2910 C.2   1 <1>   0.5690 
 12 O        5.8410     2.3210    -2.2760 O.2   1 <1>  -0.5700 
 13 N        5.6510     1.4900    -0.1960 N.am  1 <1>  -0.7300 
 14 C        7.0160     0.9540    -0.0320 C.3   1 <1>   0.1400 
 15 C        7.6160     1.5100     1.2600 C.3   1 <1>  -0.1600 
 16 C        9.0370     0.9830     1.4860 C.3   1 <1>  -0.2400 
 17 H       -0.4410     2.5050     2.7210 H     1 <1>   0.1500 
 18 H        1.3760     3.6580    -1.7180 H     1 <1>   0.1500 
 19 H        3.7350     3.7100    -1.4300 H     1 <1>   0.0800 
 20 H        3.1840     2.1660    -2.0760 H     1 <1>   0.0800 
 21 H       -0.9050     4.2520    -1.1510 H     1 <1>   0.1500 
 22 H       -2.6620     3.1730     1.9250 H     1 <1>   0.0800 
 23 H       -2.8960     3.7010     0.2800 H     1 <1>   0.0800 
 24 H       -2.3060     4.8270     1.4820 H     1 <1>   0.0800 
 25 H        5.0150     1.3710     0.5990 H     1 <1>   0.3700 
 26 H        7.6250     1.2390    -0.8740 H     1 <1>   0.0800 
 27 H        6.9710    -0.1210     0.0100 H     1 <1>   0.0800 
 28 H        6.9980     1.2270     2.0940 H     1 <1>   0.0800 
 29 H        7.6440     2.5840     1.2010 H     1 <1>   0.0800 
 30 H        9.0340    -0.0900     1.5640 H     1 <1>   0.0800 
 31 H        9.4390     1.3900     2.3970 H     1 <1>   0.0800 
 32 H        9.6790     1.2700     0.6720 H     1 <1>   0.0800 
@<TRIPOS>BOND
  1   1   2  1   
  2   2   3  ar  
  3   2   4  ar  
  4   3   5  1   
  5   3   6  ar  
  6   4   7  ar  
  7   4  17  1   
  8   5   8  1   
  9   6   9  ar  
 10   6  18  1   
 11   7   9  ar  
 12   7  10  1   
 13   8  11  1   
 14   8  19  1   
 15   8  20  1   
 16   9  21  1   
 17  10  22  1   
 18  10  23  1   
 19  10  24  1   
 20  11  12  2   
 21  11  13  am  
 22  13  14  1   
 23  13  25  1   
 24  14  15  1   
 25  14  26  1   
 26  14  27  1   
 27  15  16  1   
 28  15  28  1   
 29  15  29  1   
 30  16  30  1   
 31  16  31  1   
 32  16  32  1   
@<TRIPOS>SUBSTRUCTURE
  1 ****   5 GROUP 4 **** **** 0

# MOE 2024.06 (io_trps.svl 2023.06)
