@<TRIPOS>MOLECULE
NONAME
37 38 1 0 0 
SMALL
USER_CHARGES


@<TRIPOS>ATOM
  1 P       -0.1250     0.4590    -0.0080 P.3   1 <1>   0.9000 
  2 O        0.2610    -0.8130     0.6640 O.co2 1 <1>  -0.9500 
  3 O        0.3710     0.7200    -1.3930 O.co2 1 <1>  -0.9500 
  4 C        0.7100     1.7790     0.8970 C.3   1 <1>   0.3430 
  5 C       -1.8820     0.7580     0.1420 C.3   1 <1>  -0.1600 
  6 N        2.1000     1.8580     0.3400 N.4   1 <1>  -0.9590 
  7 C       -2.7060    -0.2170    -0.7050 C.3   1 <1>  -0.0170 
  8 C        2.9360     0.7130     0.8280 C.3   1 <1>   0.3430 
  9 C        2.7850     3.1760     0.4070 C.3   1 <1>   0.3430 
 10 C       -4.1960    -0.0730    -0.4320 C.ar  1 <1>   0.1670 
 11 C        4.3480     0.7680     0.2180 C.3   1 <1>   0.1200 
 12 C        4.2010     3.0820    -0.1930 C.3   1 <1>   0.1200 
 13 N       -4.7520     1.0890    -0.7470 N.ar  1 <1>  -0.6200 
 14 C       -4.8930    -1.1370     0.1230 C.ar  1 <1>  -0.1500 
 15 O        4.9220     2.0360     0.3990 O.3   1 <1>  -0.5600 
 16 C       -6.0480     1.1910    -0.5030 C.ar  1 <1>   0.1600 
 17 C       -6.2440    -1.0150     0.3730 C.ar  1 <1>  -0.1500 
 18 C       -6.8280     0.1880     0.0460 C.ar  1 <1>  -0.1500 
 19 H        0.7390     1.6090     1.9580 H     1 <1>   0.0800 
 20 H        0.2260     2.7200     0.7120 H     1 <1>   0.0800 
 21 H       -2.1330     1.7530    -0.1720 H     1 <1>   0.0800 
 22 H       -2.1960     0.6530     1.1630 H     1 <1>   0.0800 
 23 H        1.8830     1.6000    -0.6590 H     1 <1>   0.4500 
 24 H       -2.3860    -1.2220    -0.4910 H     1 <1>   0.0800 
 25 H       -2.5150    -0.0320    -1.7470 H     1 <1>   0.0800 
 26 H        2.4690    -0.2230     0.5620 H     1 <1>   0.0800 
 27 H        3.0160     0.7480     1.9010 H     1 <1>   0.0800 
 28 H        2.8650     3.4920     1.4330 H     1 <1>   0.0800 
 29 H        2.2130     3.9130    -0.1320 H     1 <1>   0.0800 
 30 H        4.3110     0.5480    -0.8350 H     1 <1>   0.0800 
 31 H        4.9830     0.0440     0.6970 H     1 <1>   0.0800 
 32 H        4.7410     3.9950    -0.0140 H     1 <1>   0.0800 
 33 H        4.1550     2.9130    -1.2550 H     1 <1>   0.0800 
 34 H       -4.3830    -2.0530     0.3590 H     1 <1>   0.1500 
 35 H       -6.5140     2.1280    -0.7560 H     1 <1>   0.1500 
 36 H       -6.8110    -1.8220     0.8020 H     1 <1>   0.1500 
 37 H       -7.8770     0.3510     0.2130 H     1 <1>   0.1500 
@<TRIPOS>BOND
  1   1   2  ar  
  2   1   3  ar  
  3   1   4  1   
  4   1   5  1   
  5   4   6  1   
  6   4  19  1   
  7   4  20  1   
  8   5   7  1   
  9   5  21  1   
 10   5  22  1   
 11   6   8  1   
 12   6   9  1   
 13   6  23  1   
 14   7  10  1   
 15   7  24  1   
 16   7  25  1   
 17   8  11  1   
 18   8  26  1   
 19   8  27  1   
 20   9  12  1   
 21   9  28  1   
 22   9  29  1   
 23  10  13  ar  
 24  10  14  ar  
 25  11  15  1   
 26  11  30  1   
 27  11  31  1   
 28  12  15  1   
 29  12  32  1   
 30  12  33  1   
 31  13  16  ar  
 32  14  17  ar  
 33  14  34  1   
 34  16  18  ar  
 35  16  35  1   
 36  17  18  ar  
 37  17  36  1   
 38  18  37  1   
@<TRIPOS>SUBSTRUCTURE
  1 ****   1 GROUP 4 **** **** 0

# MOE 2024.06 (io_trps.svl 2023.06)
