@<TRIPOS>MOLECULE
NONAME
37 38 1 0 0 
SMALL
USER_CHARGES


@<TRIPOS>ATOM
  1 S       -0.5310     0.4020     1.3720 S.o2  1 <1>   1.4470 
  2 O        0.5380    -0.4770     1.7960 O.2   1 <1>  -0.6500 
  3 O       -1.1170     1.2930     2.3500 O.2   1 <1>  -0.6500 
  4 N        0.1050     1.3860     0.1490 N.am  1 <1>  -0.8490 
  5 C       -1.8370    -0.5370     0.5100 C.ar  1 <1>  -0.0090 
  6 C        1.3100     2.0820     0.5580 C.3   1 <1>   0.1960 
  7 C       -0.7990     2.4220    -0.3240 C.3   1 <1>   0.1960 
  8 C       -1.5730    -1.5320    -0.4350 C.ar  1 <1>  -0.1440 
  9 C       -3.1680    -0.2380     0.7770 C.ar  1 <1>  -0.1500 
 10 C        1.4910     3.1810    -0.4830 C.3   1 <1>  -0.1600 
 11 C        0.1020     3.3810    -1.0910 C.3   1 <1>  -0.1600 
 12 C       -2.6190    -2.1890    -1.0640 C.ar  1 <1>  -0.1500 
 13 C       -0.1490    -1.9270    -0.8090 C.3   1 <1>  -0.0970 
 14 C       -4.2370    -0.8820     0.1580 C.ar  1 <1>   0.0860 
 15 C       -3.9300    -1.8680    -0.7740 C.ar  1 <1>  -0.1500 
 16 C       -5.6080    -0.5240     0.4750 C.2   1 <1>   0.5440 
 17 O       -5.8960     0.6230     0.7510 O.2   1 <1>  -0.5700 
 18 N       -6.5930    -1.4750     0.4780 N.am  1 <1>  -0.7300 
 19 C       -8.0270    -1.2290     0.7800 C.3   1 <1>   0.0600 
 20 H        2.1510     1.4090     0.5890 H     1 <1>   0.0800 
 21 H        1.1670     2.5210     1.5330 H     1 <1>   0.0800 
 22 H       -1.2470     2.9400     0.5090 H     1 <1>   0.0800 
 23 H       -1.5730     2.0090    -0.9500 H     1 <1>   0.0800 
 24 H       -3.3980     0.5310     1.4970 H     1 <1>   0.1500 
 25 H        2.1860     2.8560    -1.2370 H     1 <1>   0.0800 
 26 H        1.8650     4.0790    -0.0240 H     1 <1>   0.0800 
 27 H       -0.2440     4.3940    -0.9920 H     1 <1>   0.0800 
 28 H        0.1090     3.1110    -2.1330 H     1 <1>   0.0800 
 29 H       -2.4160    -2.9570    -1.7910 H     1 <1>   0.1500 
 30 H        0.3320    -2.4120     0.0220 H     1 <1>   0.0800 
 31 H        0.4250    -1.0600    -1.0840 H     1 <1>   0.0800 
 32 H       -0.1390    -2.6050    -1.6430 H     1 <1>   0.0800 
 33 H       -4.7230    -2.3820    -1.2870 H     1 <1>   0.1500 
 34 H       -6.3270    -2.4530     0.3560 H     1 <1>   0.3700 
 35 H       -8.2160    -0.1730     0.8760 H     1 <1>   0.0800 
 36 H       -8.2920    -1.7130     1.7040 H     1 <1>   0.0800 
 37 H       -8.6390    -1.6180    -0.0140 H     1 <1>   0.0800 
@<TRIPOS>BOND
  1   1   2  2   
  2   1   3  2   
  3   1   4  am  
  4   1   5  1   
  5   4   6  1   
  6   4   7  1   
  7   5   8  ar  
  8   5   9  ar  
  9   6  10  1   
 10   6  20  1   
 11   6  21  1   
 12   7  11  1   
 13   7  22  1   
 14   7  23  1   
 15   8  12  ar  
 16   8  13  1   
 17   9  14  ar  
 18   9  24  1   
 19  10  11  1   
 20  10  25  1   
 21  10  26  1   
 22  11  27  1   
 23  11  28  1   
 24  12  15  ar  
 25  12  29  1   
 26  13  30  1   
 27  13  31  1   
 28  13  32  1   
 29  14  15  ar  
 30  14  16  1   
 31  15  33  1   
 32  16  17  2   
 33  16  18  am  
 34  18  19  1   
 35  18  34  1   
 36  19  35  1   
 37  19  36  1   
 38  19  37  1   
@<TRIPOS>SUBSTRUCTURE
  1 ****   5 GROUP 4 **** **** 0

# MOE 2024.06 (io_trps.svl 2023.06)
