@<TRIPOS>MOLECULE
NONAME
34 35 1 0 0 
SMALL
USER_CHARGES


@<TRIPOS>ATOM
  1 O        0.5010     0.4840    -0.9490 O.3   1 <1>  -0.5600 
  2 C        1.0460    -0.5720    -0.2110 C.3   1 <1>   0.4800 
  3 C       -0.4780     1.2280    -0.2620 C.3   1 <1>   0.1200 
  4 O        2.1290    -1.0610    -0.9770 O.3   1 <1>  -0.3630 
  5 C       -0.0170    -1.6830     0.0290 C.3   1 <1>   0.2000 
  6 C       -1.4930     0.3150     0.4610 C.3   1 <1>   0.2000 
  7 C        3.2270    -1.4560    -0.2880 C.ar  1 <1>   0.0820 
  8 O        0.1120    -2.7580    -0.8600 O.3   1 <1>  -0.6800 
  9 C       -1.4360    -1.1070    -0.1140 C.3   1 <1>   0.2000 
 10 O       -2.7770     0.8170     0.3190 O.3   1 <1>  -0.6800 
 11 C        3.9420    -0.5960     0.5560 C.ar  1 <1>   0.0820 
 12 C        3.6390    -2.7710    -0.4340 C.ar  1 <1>  -0.1500 
 13 O       -2.3650    -1.9370     0.5130 O.3   1 <1>  -0.6800 
 14 O        3.6170     0.7100     0.7150 O.3   1 <1>  -0.3630 
 15 C        5.0260    -1.0790     1.2690 C.ar  1 <1>  -0.1500 
 16 C        4.7330    -3.2420     0.2730 C.ar  1 <1>  -0.1500 
 17 C        3.7940     1.5430    -0.4120 C.3   1 <1>   0.0400 
 18 C        5.4230    -2.3980     1.1280 C.ar  1 <1>  -0.1500 
 19 H        1.4020    -0.1770     0.7240 H     1 <1>   0.0800 
 20 H        0.0190     1.8690     0.4440 H     1 <1>   0.0800 
 21 H       -0.9820     1.8350    -0.9950 H     1 <1>   0.0800 
 22 H        0.1210    -2.0670     1.0240 H     1 <1>   0.0800 
 23 H       -1.2700     0.2910     1.5130 H     1 <1>   0.0800 
 24 H        0.8010    -2.5220    -1.5210 H     1 <1>   0.4000 
 25 H       -1.6860    -1.0570    -1.1610 H     1 <1>   0.0800 
 26 H       -3.4020     0.0960     0.5520 H     1 <1>   0.4000 
 27 H        3.1010    -3.4270    -1.0940 H     1 <1>   0.1500 
 28 H       -2.2540    -2.8430     0.1540 H     1 <1>   0.4000 
 29 H        5.5600    -0.4180     1.9280 H     1 <1>   0.1500 
 30 H        5.0460    -4.2650     0.1590 H     1 <1>   0.1500 
 31 H        3.5930     2.5570    -0.1170 H     1 <1>   0.0800 
 32 H        3.1120     1.2480    -1.1890 H     1 <1>   0.0800 
 33 H        4.8100     1.4530    -0.7540 H     1 <1>   0.0800 
 34 H        6.2700    -2.7670     1.6810 H     1 <1>   0.1500 
@<TRIPOS>BOND
  1   1   2  1   
  2   1   3  1   
  3   2   4  1   
  4   2   5  1   
  5   2  19  1   
  6   3   6  1   
  7   3  20  1   
  8   3  21  1   
  9   4   7  1   
 10   5   8  1   
 11   5   9  1   
 12   5  22  1   
 13   6   9  1   
 14   6  10  1   
 15   6  23  1   
 16   7  11  ar  
 17   7  12  ar  
 18   8  24  1   
 19   9  13  1   
 20   9  25  1   
 21  10  26  1   
 22  11  14  1   
 23  11  15  ar  
 24  12  16  ar  
 25  12  27  1   
 26  13  28  1   
 27  14  17  1   
 28  15  18  ar  
 29  15  29  1   
 30  16  18  ar  
 31  16  30  1   
 32  17  31  1   
 33  17  32  1   
 34  17  33  1   
 35  18  34  1   
@<TRIPOS>SUBSTRUCTURE
  1 ****   2 GROUP 4 **** **** 0

# MOE 2024.06 (io_trps.svl 2023.06)
