@<TRIPOS>MOLECULE
Structure2601
23 24 1 0 0 
SMALL
USER_CHARGES


@<TRIPOS>ATOM
  1 CL       0.4090     1.5330    -0.2460 Cl    1 <1>  -0.1770 
  2 C       -1.3280     1.4930    -0.0810 C.ar  1 <1>   0.1770 
  3 C       -2.0800     2.5340    -0.5890 C.ar  1 <1>  -0.1500 
  4 C       -1.9240     0.4190     0.5580 C.ar  1 <1>  -0.1500 
  5 C       -3.4530     2.4770    -0.4430 C.ar  1 <1>   0.1900 
  6 C       -3.3030     0.3790     0.6930 C.ar  1 <1>  -0.1500 
  7 F       -4.1360     3.4890    -0.9150 F     1 <1>  -0.1900 
  8 C       -4.0950     1.4030     0.1890 C.ar  1 <1>   0.0830 
  9 O       -5.4390     1.2560     0.3680 O.3   1 <1>  -0.3400 
 10 C       -6.3900     1.9760    -0.3950 C.3   1 <1>   0.2580 
 11 C       -6.8220     3.2970     0.2900 C.3   1 <1>   0.4720 
 12 C       -7.8250     1.4790    -0.1000 C.3   1 <1>   0.4720 
 13 N       -8.2560     2.9100     0.0630 N.4   1 <1>  -0.8440 
 14 H       -1.6040     3.3640    -1.0790 H     1 <1>   0.1500 
 15 H       -1.3090    -0.3750     0.9460 H     1 <1>   0.1500 
 16 H       -3.7660    -0.4570     1.1890 H     1 <1>   0.1500 
 17 H       -6.1410     2.0240    -1.4400 H     1 <1>   0.0000 
 18 H       -6.5630     4.1860    -0.2560 H     1 <1>   0.0000 
 19 H       -6.5930     3.3260     1.3400 H     1 <1>   0.0000 
 20 H       -7.9080     0.9460     0.8300 H     1 <1>   0.0000 
 21 H       -8.3140     1.0120    -0.9360 H     1 <1>   0.0000 
 22 H       -8.6440     3.3120    -0.7980 H     1 <1>   0.4500 
 23 H       -8.8520     3.0650     0.8840 H     1 <1>   0.4500 
@<TRIPOS>BOND
  1   1   2  1   
  2   2   3  ar  
  3   2   4  ar  
  4   3   5  ar  
  5   3  14  1   
  6   4   6  ar  
  7   4  15  1   
  8   5   7  1   
  9   5   8  ar  
 10   6   8  ar  
 11   6  16  1   
 12   8   9  1   
 13   9  10  1   
 14  10  11  1   
 15  10  12  1   
 16  10  17  1   
 17  11  13  1   
 18  11  18  1   
 19  11  19  1   
 20  12  13  1   
 21  12  20  1   
 22  12  21  1   
 23  13  22  1   
 24  13  23  1   
@<TRIPOS>SUBSTRUCTURE
  1 ****   8 GROUP 4 **** **** 0

# MOE 2024.06 (io_trps.svl 2023.06)
