@<TRIPOS>MOLECULE
NONAME
54 57 1 0 0 
SMALL
USER_CHARGES


@<TRIPOS>ATOM
  1 O        0.7390     0.5040     1.1730 O.3   1 <1>  -0.5600 
  2 C        1.2450     0.6340    -0.1320 C.3   1 <1>   0.1200 
  3 C       -0.3050     1.3810     1.4880 C.3   1 <1>   0.1200 
  4 C        1.4900     2.1100    -0.5260 C.3   1 <1>   0.3430 
  5 C        0.1890     2.8450     1.4690 C.3   1 <1>   0.3430 
  6 N        1.4530     2.9980     0.6780 N.4   1 <1>  -0.9590 
  7 C        1.8680     4.4030     0.4010 C.3   1 <1>   0.5240 
  8 C        3.3820     4.4440     0.2160 C.2   1 <1>   0.1080 
  9 N        4.1630     3.4370     0.4580 N.2   1 <1>  -0.7070 
 10 C        4.0710     5.5840    -0.2050 C.2   1 <1>  -0.0540 
 11 N        5.4300     3.8990     0.2030 N.pl3 1 <1>   0.5930 
 12 C        3.4850     6.8510    -0.5450 C.ar  1 <1>   0.0540 
 13 C        5.3810     5.2130    -0.1910 C.2   1 <1>  -0.0680 
 14 C        6.5850     3.0820     0.3200 C.ar  1 <1>  -0.0230 
 15 C        2.7290     7.0080    -1.7040 C.ar  1 <1>  -0.1500 
 16 C        3.6490     7.9540     0.2880 C.ar  1 <1>  -0.1500 
 17 N        6.4780     6.0290    -0.5040 N.pl3 1 <1>  -0.8840 
 18 C        7.2080     2.5260    -0.7990 C.ar  1 <1>  -0.1430 
 19 C        7.1160     2.8330     1.5820 C.ar  1 <1>  -0.1500 
 20 C        2.1360     8.2200    -2.0090 C.ar  1 <1>  -0.1500 
 21 C        3.0580     9.1670    -0.0120 C.ar  1 <1>  -0.1500 
 22 C        8.3420     1.7460    -0.6350 C.ar  1 <1>  -0.1500 
 23 C        6.6630     2.7540    -2.2040 C.3   1 <1>  -0.0970 
 24 C        8.2460     2.0530     1.7330 C.ar  1 <1>  -0.1500 
 25 C        2.2970     9.3010    -1.1600 C.ar  1 <1>  -0.1500 
 26 C        8.8670     1.5070     0.6230 C.ar  1 <1>  -0.1430 
 27 C       10.1090     0.6480     0.7850 C.3   1 <1>  -0.0970 
 28 H        0.5560     0.1700    -0.8160 H     1 <1>   0.0800 
 29 H        2.1730     0.0890    -0.1700 H     1 <1>   0.0800 
 30 H       -0.6740     1.1240     2.4660 H     1 <1>   0.0800 
 31 H       -1.1010     1.2350     0.7770 H     1 <1>   0.0800 
 32 H        0.7340     2.4150    -1.2300 H     1 <1>   0.0800 
 33 H        2.4480     2.1870    -1.0160 H     1 <1>   0.0800 
 34 H        0.3610     3.1650     2.4840 H     1 <1>   0.0800 
 35 H       -0.5890     3.4660     1.0590 H     1 <1>   0.0800 
 36 H        2.2300     2.6270     1.2570 H     1 <1>   0.4500 
 37 H        1.6130     5.0340     1.2360 H     1 <1>   0.0800 
 38 H        1.3750     4.7790    -0.4790 H     1 <1>   0.0800 
 39 H        2.6140     6.1790    -2.3790 H     1 <1>   0.1500 
 40 H        4.2480     7.8550     1.1780 H     1 <1>   0.1500 
 41 H        7.4110     5.6150    -0.6430 H     1 <1>   0.4000 
 42 H        6.3290     6.9140    -1.0070 H     1 <1>   0.4000 
 43 H        6.6420     3.2520     2.4520 H     1 <1>   0.1500 
 44 H        1.5550     8.3310    -2.9080 H     1 <1>   0.1500 
 45 H        3.1920    10.0110     0.6440 H     1 <1>   0.1500 
 46 H        8.8250     1.3140    -1.4940 H     1 <1>   0.1500 
 47 H        6.7370     3.7940    -2.4660 H     1 <1>   0.0800 
 48 H        5.6330     2.4520    -2.2540 H     1 <1>   0.0800 
 49 H        7.2150     2.1840    -2.9290 H     1 <1>   0.0800 
 50 H        8.6410     1.8710     2.7180 H     1 <1>   0.1500 
 51 H        1.8380    10.2460    -1.3950 H     1 <1>   0.1500 
 52 H        9.8250    -0.3830     0.8900 H     1 <1>   0.0800 
 53 H       10.6620     0.9470     1.6580 H     1 <1>   0.0800 
 54 H       10.7500     0.7480    -0.0720 H     1 <1>   0.0800 
@<TRIPOS>BOND
  1   1   2  1   
  2   1   3  1   
  3   2   4  1   
  4   2  28  1   
  5   2  29  1   
  6   3   5  1   
  7   3  30  1   
  8   3  31  1   
  9   4   6  1   
 10   4  32  1   
 11   4  33  1   
 12   5   6  1   
 13   5  34  1   
 14   5  35  1   
 15   6   7  1   
 16   6  36  1   
 17   7   8  1   
 18   7  37  1   
 19   7  38  1   
 20   8   9  2   
 21   8  10  1   
 22   9  11  1   
 23  10  12  1   
 24  10  13  2   
 25  11  13  1   
 26  11  14  1   
 27  12  15  ar  
 28  12  16  ar  
 29  13  17  1   
 30  14  18  ar  
 31  14  19  ar  
 32  15  20  ar  
 33  15  39  1   
 34  16  21  ar  
 35  16  40  1   
 36  17  41  1   
 37  17  42  1   
 38  18  22  ar  
 39  18  23  1   
 40  19  24  ar  
 41  19  43  1   
 42  20  25  ar  
 43  20  44  1   
 44  21  25  ar  
 45  21  45  1   
 46  22  26  ar  
 47  22  46  1   
 48  23  47  1   
 49  23  48  1   
 50  23  49  1   
 51  24  26  ar  
 52  24  50  1   
 53  25  51  1   
 54  26  27  1   
 55  27  52  1   
 56  27  53  1   
 57  27  54  1   
@<TRIPOS>SUBSTRUCTURE
  1 ****   9 GROUP 4 **** **** 0

# MOE 2024.06 (io_trps.svl 2023.06)
