@<TRIPOS>MOLECULE
NONAME
44 45 1 0 0 
SMALL
USER_CHARGES


@<TRIPOS>ATOM
  1 S       -0.1710    -0.2850     0.4260 S.3   1 <1>  -0.3320 
  2 C       -1.7480    -1.0040    -0.0600 C.ar  1 <1>   0.1020 
  3 C        0.3600    -1.1430     1.9730 C.3   1 <1>  -0.0100 
  4 C       -2.3110    -0.5400    -1.2340 C.ar  1 <1>  -0.1500 
  5 C       -2.3820    -1.9780     0.6930 C.ar  1 <1>  -0.1500 
  6 C       -3.5250    -1.0490    -1.6610 C.ar  1 <1>  -0.1500 
  7 C       -3.5970    -2.4850     0.2640 C.ar  1 <1>  -0.1500 
  8 C       -4.1780    -2.0190    -0.9100 C.ar  1 <1>  -0.1430 
  9 C       -5.5180    -2.5600    -1.3710 C.3   1 <1>   0.4860 
 10 N       -6.5920    -1.9600    -0.5320 N.4   1 <1>  -0.9590 
 11 C       -7.9080    -2.6250    -0.7970 C.3   1 <1>   0.3430 
 12 C       -6.6600    -0.4770    -0.7090 C.3   1 <1>   0.3430 
 13 C       -9.0150    -2.0700     0.1070 C.3   1 <1>  -0.0190 
 14 C       -7.7230     0.1070     0.2230 C.3   1 <1>  -0.1600 
 15 C      -10.3280    -2.7310    -0.2750 C.2   1 <1>   0.6590 
 16 C       -9.1000    -0.5350    -0.0020 C.3   1 <1>  -0.1600 
 17 O      -10.4240    -3.3910    -1.2770 O.2   1 <1>  -0.5700 
 18 O      -11.3380    -2.5390     0.5570 O.3   1 <1>  -0.4300 
 19 C      -12.6110    -3.0940     0.3150 C.3   1 <1>   0.1200 
 20 C      -13.5330    -2.6740     1.4550 C.3   1 <1>  -0.2400 
 21 H        1.3130    -0.7340     2.2590 H     1 <1>   0.0800 
 22 H        0.4450    -2.1930     1.7600 H     1 <1>   0.0800 
 23 H       -0.3780    -0.9510     2.7310 H     1 <1>   0.0800 
 24 H       -1.7950     0.2130    -1.8050 H     1 <1>   0.1500 
 25 H       -1.9440    -2.3450     1.6010 H     1 <1>   0.1500 
 26 H       -3.9440    -0.6800    -2.5820 H     1 <1>   0.1500 
 27 H       -4.0750    -3.2480     0.8550 H     1 <1>   0.1500 
 28 H       -5.5200    -3.6330    -1.2670 H     1 <1>   0.0800 
 29 H       -5.6760    -2.3180    -2.4100 H     1 <1>   0.0800 
 30 H       -6.3220    -2.1270     0.4460 H     1 <1>   0.4500 
 31 H       -7.8260    -3.6890    -0.6400 H     1 <1>   0.0800 
 32 H       -8.1910    -2.4660    -1.8260 H     1 <1>   0.0800 
 33 H       -6.9100    -0.2420    -1.7310 H     1 <1>   0.0800 
 34 H       -5.7040    -0.0310    -0.4830 H     1 <1>   0.0800 
 35 H       -8.8020    -2.3460     1.1230 H     1 <1>   0.0800 
 36 H       -7.7940     1.1680     0.0490 H     1 <1>   0.0800 
 37 H       -7.4140    -0.0270     1.2460 H     1 <1>   0.0800 
 38 H       -9.8010    -0.1560     0.7240 H     1 <1>   0.0800 
 39 H       -9.4650    -0.2630    -0.9790 H     1 <1>   0.0800 
 40 H      -12.5160    -4.1660     0.2700 H     1 <1>   0.0800 
 41 H      -12.9730    -2.7240    -0.6300 H     1 <1>   0.0800 
 42 H      -13.1590    -3.0420     2.3930 H     1 <1>   0.0800 
 43 H      -14.5140    -3.0840     1.2960 H     1 <1>   0.0800 
 44 H      -13.6140    -1.6020     1.4940 H     1 <1>   0.0800 
@<TRIPOS>BOND
  1   1   2  1   
  2   1   3  1   
  3   2   4  ar  
  4   2   5  ar  
  5   3  21  1   
  6   3  22  1   
  7   3  23  1   
  8   4   6  ar  
  9   4  24  1   
 10   5   7  ar  
 11   5  25  1   
 12   6   8  ar  
 13   6  26  1   
 14   7   8  ar  
 15   7  27  1   
 16   8   9  1   
 17   9  10  1   
 18   9  28  1   
 19   9  29  1   
 20  10  11  1   
 21  10  12  1   
 22  10  30  1   
 23  11  13  1   
 24  11  31  1   
 25  11  32  1   
 26  12  14  1   
 27  12  33  1   
 28  12  34  1   
 29  13  15  1   
 30  13  16  1   
 31  13  35  1   
 32  14  16  1   
 33  14  36  1   
 34  14  37  1   
 35  15  17  2   
 36  15  18  1   
 37  16  38  1   
 38  16  39  1   
 39  18  19  1   
 40  19  20  1   
 41  19  40  1   
 42  19  41  1   
 43  20  42  1   
 44  20  43  1   
 45  20  44  1   
@<TRIPOS>SUBSTRUCTURE
  1 ****  10 GROUP 4 **** **** 0

# MOE 2024.06 (io_trps.svl 2023.06)
