@<TRIPOS>MOLECULE
NONAME
33 35 1 0 0 
SMALL
USER_CHARGES


@<TRIPOS>ATOM
  1 BR       0.9960    -1.1100     1.5050 Br    1 <1>  -0.1110 
  2 C        2.2790     0.0700     0.6990 C.ar  1 <1>   0.1110 
  3 C        3.5780     0.0630     1.1720 C.ar  1 <1>  -0.1500 
  4 C        1.8630     0.8960    -0.3360 C.ar  1 <1>  -0.1500 
  5 C        4.4900     0.9240     0.5760 C.ar  1 <1>   0.0860 
  6 C        2.7810     1.7510    -0.9230 C.ar  1 <1>  -0.1500 
  7 C        5.8840     1.1740     0.8060 C.2   1 <1>   0.5440 
  8 C        4.0950     1.7610    -0.4620 C.ar  1 <1>   0.0860 
  9 O        6.5930     0.6590     1.6440 O.2   1 <1>  -0.5700 
 10 N        6.3110     2.1300    -0.0750 N.am  1 <1>  -0.4200 
 11 C        5.2520     2.5150    -0.8520 C.2   1 <1>   0.5440 
 12 C        7.7350     2.4360    -0.3720 C.3   1 <1>   0.2010 
 13 O        5.3090     3.3780    -1.7020 O.2   1 <1>  -0.5700 
 14 C        8.4350     1.2670    -1.0670 C.2   1 <1>   0.5690 
 15 O        8.0820     0.9880    -2.1900 O.2   1 <1>  -0.5700 
 16 N        9.4340     0.5600    -0.4480 N.am  1 <1>  -0.6600 
 17 C        9.8810     0.7000     0.9580 C.3   1 <1>   0.1400 
 18 C       10.0870    -0.6000    -1.0940 C.3   1 <1>   0.1400 
 19 C       11.0410    -0.2780     1.0980 C.3   1 <1>  -0.1600 
 20 C       10.7710    -1.3480     0.0440 C.3   1 <1>  -0.1600 
 21 H        3.8790    -0.5870     1.9750 H     1 <1>   0.1500 
 22 H        0.8400     0.8650    -0.6710 H     1 <1>   0.1500 
 23 H        2.4970     2.4070    -1.7300 H     1 <1>   0.1500 
 24 H        8.2340     2.6870     0.5430 H     1 <1>   0.0800 
 25 H        7.7830     3.2890    -1.0240 H     1 <1>   0.0800 
 26 H        9.0790     0.4150     1.6170 H     1 <1>   0.0800 
 27 H       10.1940     1.7070     1.1720 H     1 <1>   0.0800 
 28 H       10.8130    -0.2410    -1.8040 H     1 <1>   0.0800 
 29 H        9.3640    -1.2180    -1.5990 H     1 <1>   0.0800 
 30 H       11.1010    -0.6870     2.0910 H     1 <1>   0.0800 
 31 H       11.9610     0.2330     0.8720 H     1 <1>   0.0800 
 32 H       11.6690    -1.8400    -0.2840 H     1 <1>   0.0800 
 33 H       10.0900    -2.0830     0.4350 H     1 <1>   0.0800 
@<TRIPOS>BOND
  1   1   2  1   
  2   2   3  ar  
  3   2   4  ar  
  4   3   5  ar  
  5   3  21  1   
  6   4   6  ar  
  7   4  22  1   
  8   5   7  1   
  9   5   8  ar  
 10   6   8  ar  
 11   6  23  1   
 12   7   9  2   
 13   7  10  am  
 14   8  11  1   
 15  10  11  am  
 16  10  12  1   
 17  11  13  2   
 18  12  14  1   
 19  12  24  1   
 20  12  25  1   
 21  14  15  2   
 22  14  16  am  
 23  16  17  1   
 24  16  18  1   
 25  17  19  1   
 26  17  26  1   
 27  17  27  1   
 28  18  20  1   
 29  18  28  1   
 30  18  29  1   
 31  19  20  1   
 32  19  30  1   
 33  19  31  1   
 34  20  32  1   
 35  20  33  1   
@<TRIPOS>SUBSTRUCTURE
  1 ****   7 GROUP 4 **** **** 0

# MOE 2024.06 (io_trps.svl 2023.06)
