@<TRIPOS>MOLECULE
NONAME
30 30 1 0 0 
SMALL
USER_CHARGES


@<TRIPOS>ATOM
  1 S        0.0330    -0.0250     0.6970 S.o2  1 <1>   1.3330 
  2 O        0.9080    -0.1550     1.8380 O.2   1 <1>  -0.6500 
  3 O       -1.3010     0.4920     0.8670 O.2   1 <1>  -0.6500 
  4 N       -0.1310    -1.6070     0.0210 N.am  1 <1>  -0.6930 
  5 C        0.8350     0.8890    -0.6030 C.3   1 <1>  -0.1350 
  6 C        0.9630    -2.2360    -0.5700 C.ar  1 <1>   0.1990 
  7 C       -1.2100    -2.4460     0.6420 C.3   1 <1>   0.3370 
  8 C        0.9550    -2.4710    -1.9430 C.ar  1 <1>  -0.1500 
  9 C        2.0770    -2.6210     0.1750 C.ar  1 <1>  -0.1500 
 10 C       -0.7610    -3.2250     1.9100 C.2   1 <1>   0.5690 
 11 C       -1.8240    -3.3480    -0.4400 C.3   1 <1>  -0.2400 
 12 C        2.0300    -3.0800    -2.5680 C.ar  1 <1>  -0.1500 
 13 C        3.1610    -3.2310    -0.4340 C.ar  1 <1>  -0.1500 
 14 O       -1.0640    -4.3830     2.0590 O.2   1 <1>  -0.5700 
 15 N       -0.0450    -2.6190     2.8840 N.am  1 <1>  -0.8000 
 16 C        3.1160    -3.4500    -1.7970 C.ar  1 <1>   0.1900 
 17 F        4.1370    -4.0240    -2.3790 F     1 <1>  -0.1900 
 18 H        0.9650     1.9110    -0.3060 H     1 <1>   0.0800 
 19 H        0.2390     0.8640    -1.4940 H     1 <1>   0.0800 
 20 H        1.7980     0.4700    -0.8170 H     1 <1>   0.0800 
 21 H       -2.0020    -1.7960     0.9680 H     1 <1>   0.0800 
 22 H        0.0980    -2.1750    -2.5200 H     1 <1>   0.1500 
 23 H        2.0990    -2.4430     1.2340 H     1 <1>   0.1500 
 24 H       -1.1190    -4.0970    -0.7540 H     1 <1>   0.0800 
 25 H       -2.1380    -2.7620    -1.2840 H     1 <1>   0.0800 
 26 H       -2.6850    -3.8530    -0.0400 H     1 <1>   0.0800 
 27 H        2.0320    -3.2680    -3.6260 H     1 <1>   0.1500 
 28 H        4.0230    -3.5340     0.1330 H     1 <1>   0.1500 
 29 H        0.2290    -3.1430     3.7140 H     1 <1>   0.3700 
 30 H        0.3260    -1.6610     2.8030 H     1 <1>   0.3700 
@<TRIPOS>BOND
  1   1   2  2   
  2   1   3  2   
  3   1   4  am  
  4   1   5  1   
  5   4   6  1   
  6   4   7  1   
  7   5  18  1   
  8   5  19  1   
  9   5  20  1   
 10   6   8  ar  
 11   6   9  ar  
 12   7  10  1   
 13   7  11  1   
 14   7  21  1   
 15   8  12  ar  
 16   8  22  1   
 17   9  13  ar  
 18   9  23  1   
 19  10  14  2   
 20  10  15  am  
 21  11  24  1   
 22  11  25  1   
 23  11  26  1   
 24  12  16  ar  
 25  12  27  1   
 26  13  16  ar  
 27  13  28  1   
 28  15  29  1   
 29  15  30  1   
 30  16  17  1   
@<TRIPOS>SUBSTRUCTURE
  1 ****   6 GROUP 4 **** **** 0

# MOE 2024.06 (io_trps.svl 2023.06)
