@<TRIPOS>MOLECULE
NONAME
44 45 1 0 0 
SMALL
USER_CHARGES


@<TRIPOS>ATOM
  1 O       -0.2510     2.0210     2.1720 O.2   1 <1>  -0.5700 
  2 C       -0.0490     2.2210     0.9980 C.2   1 <1>   0.4950 
  3 C        1.2510     2.5870     0.5120 C.2   1 <1>  -0.1360 
  4 C       -1.2180     2.0850    -0.0140 C.3   1 <1>   0.3410 
  5 C        2.3800     2.7500     1.2420 C.2   1 <1>  -0.1780 
  6 O       -1.2000     3.1660    -0.9400 O.3   1 <1>  -0.4300 
  7 C       -0.9760     0.8140    -0.8660 C.3   1 <1>  -0.1600 
  8 C       -2.6370     2.0560     0.6310 C.3   1 <1>  -0.1600 
  9 C        3.6840     3.1400     0.7780 C.ar  1 <1>   0.0280 
 10 C       -1.0140     4.4530    -0.6680 C.2   1 <1>   0.6590 
 11 C       -2.2550     0.3060    -1.5460 C.3   1 <1>  -0.1600 
 12 C       -3.1740     0.6320     0.8350 C.3   1 <1>  -0.1600 
 13 C        3.8830     3.7940    -0.4390 C.ar  1 <1>  -0.1500 
 14 C        4.8110     2.8740     1.5550 C.ar  1 <1>  -0.1500 
 15 O       -0.3820     5.1290    -1.4300 O.2   1 <1>  -0.5700 
 16 C       -1.6190     5.0710     0.5740 C.3   1 <1>  -0.1790 
 17 C       -3.3080    -0.1140    -0.5040 C.3   1 <1>  -0.1600 
 18 C        5.1460     4.1570    -0.8670 C.ar  1 <1>  -0.1500 
 19 C        6.0760     3.2340     1.1340 C.ar  1 <1>  -0.1500 
 20 C        6.2590     3.8770    -0.0790 C.ar  1 <1>   0.0830 
 21 O        7.5280     4.1950    -0.4220 O.3   1 <1>  -0.3620 
 22 C        7.8240     4.8590    -1.6310 C.3   1 <1>   0.0400 
 23 H        1.2960     2.7400    -0.5500 H     1 <1>   0.1500 
 24 H        2.3280     2.5720     2.3040 H     1 <1>   0.1500 
 25 H       -0.2190     1.0080    -1.6070 H     1 <1>   0.0800 
 26 H       -0.6050     0.0280    -0.2310 H     1 <1>   0.0800 
 27 H       -2.6310     2.5610     1.5810 H     1 <1>   0.0800 
 28 H       -3.3320     2.5710    -0.0090 H     1 <1>   0.0800 
 29 H       -2.6560     1.0930    -2.1640 H     1 <1>   0.0800 
 30 H       -2.0290    -0.5280    -2.1880 H     1 <1>   0.0800 
 31 H       -2.4980     0.0960     1.4810 H     1 <1>   0.0800 
 32 H       -4.1310     0.6640     1.3270 H     1 <1>   0.0800 
 33 H        3.0400     4.0350    -1.0600 H     1 <1>   0.1500 
 34 H        4.6930     2.3750     2.5000 H     1 <1>   0.1500 
 35 H       -1.4290     6.1290     0.5690 H     1 <1>   0.0800 
 36 H       -2.6810     4.9180     0.5800 H     1 <1>   0.0800 
 37 H       -1.1830     4.6560     1.4620 H     1 <1>   0.0800 
 38 H       -3.2260    -1.1710    -0.3160 H     1 <1>   0.0800 
 39 H       -4.2870     0.0620    -0.9180 H     1 <1>   0.0800 
 40 H        5.2470     4.6590    -1.8110 H     1 <1>   0.1500 
 41 H        6.9360     3.0200     1.7430 H     1 <1>   0.1500 
 42 H        8.8880     5.0040    -1.6790 H     1 <1>   0.0800 
 43 H        7.3250     5.8110    -1.6380 H     1 <1>   0.0800 
 44 H        7.5010     4.2460    -2.4530 H     1 <1>   0.0800 
@<TRIPOS>BOND
  1   1   2  2   
  2   2   3  1   
  3   2   4  1   
  4   3   5  2   
  5   3  23  1   
  6   4   6  1   
  7   4   7  1   
  8   4   8  1   
  9   5   9  1   
 10   5  24  1   
 11   6  10  1   
 12   7  11  1   
 13   7  25  1   
 14   7  26  1   
 15   8  12  1   
 16   8  27  1   
 17   8  28  1   
 18   9  13  ar  
 19   9  14  ar  
 20  10  15  2   
 21  10  16  1   
 22  11  17  1   
 23  11  29  1   
 24  11  30  1   
 25  12  17  1   
 26  12  31  1   
 27  12  32  1   
 28  13  18  ar  
 29  13  33  1   
 30  14  19  ar  
 31  14  34  1   
 32  16  35  1   
 33  16  36  1   
 34  16  37  1   
 35  17  38  1   
 36  17  39  1   
 37  18  20  ar  
 38  18  40  1   
 39  19  20  ar  
 40  19  41  1   
 41  20  21  1   
 42  21  22  1   
 43  22  42  1   
 44  22  43  1   
 45  22  44  1   
@<TRIPOS>SUBSTRUCTURE
  1 ****   3 GROUP 4 **** **** 0

# MOE 2024.06 (io_trps.svl 2023.06)
