@<TRIPOS>MOLECULE
NONAME
55 58 1 0 0 
SMALL
USER_CHARGES


@<TRIPOS>ATOM
  1 S       -1.0420     0.3980    -1.4420 S.o2  1 <1>   1.4470 
  2 O       -1.2290     1.2590    -2.5860 O.2   1 <1>  -0.6500 
  3 O       -1.7450    -0.8620    -1.3560 O.2   1 <1>  -0.6500 
  4 N       -1.5280     1.3590    -0.1570 N.am  1 <1>  -0.9140 
  5 C        0.7240     0.1480    -1.1180 C.ar  1 <1>  -0.0090 
  6 C       -2.9540     1.3220     0.0940 C.3   1 <1>   0.2760 
  7 C        1.1550    -0.4100     0.0800 C.ar  1 <1>  -0.1500 
  8 C        1.6900     0.5030    -2.0540 C.ar  1 <1>  -0.1500 
  9 C       -3.4010     2.7160     0.5590 C.3   1 <1>  -0.1600 
 10 C       -3.2680     0.2890     1.1770 C.3   1 <1>  -0.1600 
 11 C        2.5010    -0.6050     0.3400 C.ar  1 <1>  -0.1500 
 12 C        3.0380     0.3110    -1.8030 C.ar  1 <1>  -0.1500 
 13 C       -4.6290     2.6720     1.4790 C.3   1 <1>   0.1100 
 14 C       -4.7740     0.2460     1.4790 C.3   1 <1>   0.1100 
 15 C        3.4440    -0.2430    -0.6040 C.ar  1 <1>  -0.1500 
 16 N       -5.4620     1.5130     1.1300 N.3   1 <1>  -0.8100 
 17 C       -6.8310     1.6010     1.7220 C.3   1 <1>   0.2510 
 18 C       -7.6960     0.3310     1.6400 C.2   1 <1>   0.5690 
 19 C       -7.6570     2.6150     0.9210 C.3   1 <1>  -0.0990 
 20 O       -7.5080    -0.6340     2.3430 O.2   1 <1>  -0.5700 
 21 N       -8.7200     0.4840     0.7440 N.am  1 <1>  -0.2370 
 22 C       -8.7400     1.7760     0.2940 C.2   1 <1>   0.5690 
 23 C       -9.6380    -0.5220     0.3620 C.ar  1 <1>   0.1170 
 24 O       -9.5210     2.2520    -0.4890 O.2   1 <1>  -0.5700 
 25 C      -10.2730    -1.3160     1.3110 C.ar  1 <1>  -0.1500 
 26 C       -9.9310    -0.7430    -0.9800 C.ar  1 <1>  -0.1500 
 27 C      -11.1700    -2.2990     0.9330 C.ar  1 <1>  -0.1500 
 28 C      -10.8280    -1.7250    -1.3610 C.ar  1 <1>  -0.1500 
 29 C      -11.4520    -2.5100    -0.4060 C.ar  1 <1>  -0.1430 
 30 C      -12.4370    -3.5870    -0.8230 C.3   1 <1>  -0.0970 
 31 H       -1.3380     2.2910    -0.5160 H     1 <1>   0.4200 
 32 H       -3.4970     1.0690    -0.8040 H     1 <1>   0.0800 
 33 H        0.4240    -0.6950     0.8190 H     1 <1>   0.1500 
 34 H        1.3830     0.9350    -2.9930 H     1 <1>   0.1500 
 35 H       -3.6380     3.3060    -0.3070 H     1 <1>   0.0800 
 36 H       -2.6100     3.2100     1.0950 H     1 <1>   0.0800 
 37 H       -2.7370     0.5440     2.0760 H     1 <1>   0.0800 
 38 H       -2.9510    -0.6930     0.8770 H     1 <1>   0.0800 
 39 H        2.8120    -1.0390     1.2750 H     1 <1>   0.1500 
 40 H        3.7690     0.5930    -2.5410 H     1 <1>   0.1500 
 41 H       -5.1780     3.5920     1.3730 H     1 <1>   0.0800 
 42 H       -4.3140     2.5870     2.5070 H     1 <1>   0.0800 
 43 H       -4.9140     0.0170     2.5230 H     1 <1>   0.0800 
 44 H       -5.2160    -0.5520     0.9040 H     1 <1>   0.0800 
 45 H        4.4920    -0.3940    -0.4060 H     1 <1>   0.1500 
 46 H       -6.7610     1.8960     2.7550 H     1 <1>   0.0800 
 47 H       -7.0910     3.1040     0.1490 H     1 <1>   0.0800 
 48 H       -8.1080     3.3430     1.5690 H     1 <1>   0.0800 
 49 H      -10.0640    -1.1690     2.3560 H     1 <1>   0.1500 
 50 H       -9.4580    -0.1390    -1.7340 H     1 <1>   0.1500 
 51 H      -11.6470    -2.9000     1.6870 H     1 <1>   0.1500 
 52 H      -11.0400    -1.8730    -2.4050 H     1 <1>   0.1500 
 53 H      -12.1780    -3.9810    -1.7890 H     1 <1>   0.0800 
 54 H      -13.4290    -3.1740    -0.8700 H     1 <1>   0.0800 
 55 H      -12.4320    -4.3970    -0.1150 H     1 <1>   0.0800 
@<TRIPOS>BOND
  1   1   2  2   
  2   1   3  2   
  3   1   4  am  
  4   1   5  1   
  5   4   6  1   
  6   4  31  1   
  7   5   7  ar  
  8   5   8  ar  
  9   6   9  1   
 10   6  10  1   
 11   6  32  1   
 12   7  11  ar  
 13   7  33  1   
 14   8  12  ar  
 15   8  34  1   
 16   9  13  1   
 17   9  35  1   
 18   9  36  1   
 19  10  14  1   
 20  10  37  1   
 21  10  38  1   
 22  11  15  ar  
 23  11  39  1   
 24  12  15  ar  
 25  12  40  1   
 26  13  16  1   
 27  13  41  1   
 28  13  42  1   
 29  14  16  1   
 30  14  43  1   
 31  14  44  1   
 32  15  45  1   
 33  16  17  1   
 34  17  18  1   
 35  17  19  1   
 36  17  46  1   
 37  18  20  2   
 38  18  21  am  
 39  19  22  1   
 40  19  47  1   
 41  19  48  1   
 42  21  22  am  
 43  21  23  1   
 44  22  24  2   
 45  23  25  ar  
 46  23  26  ar  
 47  25  27  ar  
 48  25  49  1   
 49  26  28  ar  
 50  26  50  1   
 51  27  29  ar  
 52  27  51  1   
 53  28  29  ar  
 54  28  52  1   
 55  29  30  1   
 56  30  53  1   
 57  30  54  1   
 58  30  55  1   
@<TRIPOS>SUBSTRUCTURE
  1 ****  14 GROUP 4 **** **** 0

# MOE 2024.06 (io_trps.svl 2023.06)
