@<TRIPOS>MOLECULE
ka-06951
37 37 1 0 0 
SMALL
USER_CHARGES


@<TRIPOS>ATOM
  1 O        0.5010     0.1740    -0.5860 O.3   1 <1>  -0.6800 
  2 C        0.8790    -0.7950     0.3190 C.3   1 <1>   0.3440 
  3 C        2.3650    -1.0540     0.1010 C.ar  1 <1>  -0.1440 
  4 C        0.0330    -2.0620     0.1160 C.3   1 <1>  -0.1600 
  5 C        3.2520    -0.9410     1.1620 C.ar  1 <1>  -0.1500 
  6 C        2.8530    -1.4050    -1.1510 C.ar  1 <1>  -0.1500 
  7 C       -1.4040    -1.9960     0.6720 C.3   1 <1>  -0.1600 
  8 C        4.6040    -1.1730     0.9750 C.ar  1 <1>  -0.1500 
  9 C        4.2040    -1.6380    -1.3390 C.ar  1 <1>  -0.1500 
 10 C       -2.3290    -1.0510    -0.1080 C.3   1 <1>  -0.1600 
 11 C        5.0810    -1.5220    -0.2760 C.ar  1 <1>  -0.1500 
 12 C       -3.7750    -1.1510     0.3940 C.3   1 <1>  -0.1600 
 13 C       -4.6940    -0.1980    -0.3790 C.3   1 <1>  -0.1600 
 14 C       -6.1390    -0.2920     0.1230 C.3   1 <1>  -0.1600 
 15 C       -7.0540     0.6620    -0.6490 C.3   1 <1>  -0.2400 
 16 H        1.2510     0.7870    -0.6990 H     1 <1>   0.4000 
 17 H        0.7170    -0.3980     1.3070 H     1 <1>   0.0800 
 18 H        0.5340    -2.8630     0.6300 H     1 <1>   0.0800 
 19 H        0.0160    -2.3210    -0.9270 H     1 <1>   0.0800 
 20 H        2.8970    -0.6720     2.1410 H     1 <1>   0.1500 
 21 H        2.1770    -1.4960    -1.9840 H     1 <1>   0.1500 
 22 H       -1.3770    -1.7000     1.7070 H     1 <1>   0.0800 
 23 H       -1.8200    -2.9890     0.6310 H     1 <1>   0.0800 
 24 H        5.2850    -1.0830     1.8030 H     1 <1>   0.1500 
 25 H        4.5720    -1.9090    -2.3140 H     1 <1>   0.1500 
 26 H       -2.2940    -1.2990    -1.1550 H     1 <1>   0.0800 
 27 H       -1.9900    -0.0360     0.0050 H     1 <1>   0.0800 
 28 H        6.1320    -1.7030    -0.4210 H     1 <1>   0.1500 
 29 H       -3.8060    -0.9070     1.4420 H     1 <1>   0.0800 
 30 H       -4.1270    -2.1620     0.2740 H     1 <1>   0.0800 
 31 H       -4.6620    -0.4420    -1.4270 H     1 <1>   0.0800 
 32 H       -4.3390     0.8130    -0.2610 H     1 <1>   0.0800 
 33 H       -6.1740    -0.0460     1.1710 H     1 <1>   0.0800 
 34 H       -6.4980    -1.3010     0.0050 H     1 <1>   0.0800 
 35 H       -6.7240     1.6790    -0.5280 H     1 <1>   0.0800 
 36 H       -8.0610     0.5830    -0.2820 H     1 <1>   0.0800 
 37 H       -7.0510     0.4190    -1.6970 H     1 <1>   0.0800 
@<TRIPOS>BOND
  1   1   2  1   
  2   1  16  1   
  3   2   3  1   
  4   2   4  1   
  5   2  17  1   
  6   3   5  ar  
  7   3   6  ar  
  8   4   7  1   
  9   4  18  1   
 10   4  19  1   
 11   5   8  ar  
 12   5  20  1   
 13   6   9  ar  
 14   6  21  1   
 15   7  10  1   
 16   7  22  1   
 17   7  23  1   
 18   8  11  ar  
 19   8  24  1   
 20   9  11  ar  
 21   9  25  1   
 22  10  12  1   
 23  10  26  1   
 24  10  27  1   
 25  11  28  1   
 26  12  13  1   
 27  12  29  1   
 28  12  30  1   
 29  13  14  1   
 30  13  31  1   
 31  13  32  1   
 32  14  15  1   
 33  14  33  1   
 34  14  34  1   
 35  15  35  1   
 36  15  36  1   
 37  15  37  1   
@<TRIPOS>SUBSTRUCTURE
  1 ****   2 GROUP 4 **** **** 0

# MOE 2024.06 (io_trps.svl 2023.06)
