@<TRIPOS>MOLECULE
NONAME
37 39 1 0 0 
SMALL
USER_CHARGES


@<TRIPOS>ATOM
  1 CL      -0.7560    -2.5090     2.7700 Cl    1 <1>  -0.1770 
  2 C       -1.7250    -2.1370     1.3550 C.ar  1 <1>   0.1770 
  3 C       -1.2550    -2.4350     0.0680 C.ar  1 <1>   0.1000 
  4 C       -2.9560    -1.5450     1.5610 C.ar  1 <1>  -0.1500 
  5 N       -0.0190    -3.0340    -0.2080 N.pl3 1 <1>  -0.8380 
  6 C       -2.0780    -2.1120    -1.0040 C.ar  1 <1>  -0.1500 
  7 C       -3.7550    -1.2330     0.4740 C.ar  1 <1>  -0.1500 
  8 C        0.1240    -4.4660     0.1940 C.3   1 <1>   0.2090 
  9 C        1.1910    -2.1980     0.0540 C.3   1 <1>   0.2090 
 10 C       -3.3130    -1.5180    -0.8070 C.ar  1 <1>  -0.1500 
 11 C        1.3860    -5.0920    -0.4370 C.3   1 <1>   0.3430 
 12 C        2.4470    -2.8350    -0.5760 C.3   1 <1>   0.3430 
 13 N        2.6260    -4.2780    -0.1680 N.4   1 <1>  -0.9590 
 14 C        3.8470    -4.8730    -0.7720 C.3   1 <1>   0.5230 
 15 C        5.0520    -4.1660    -0.1850 C.2   1 <1>  -0.0400 
 16 O        5.1280    -4.0510     1.1280 O.3   1 <1>  -0.2800 
 17 C        6.1210    -3.5850    -0.7740 C.2   1 <1>  -0.1500 
 18 C        6.2420    -3.4040     1.4070 C.2   1 <1>  -0.0100 
 19 C        6.9030    -3.0850     0.2750 C.2   1 <1>  -0.1500 
 20 H       -3.2860    -1.3290     2.5610 H     1 <1>   0.1500 
 21 H       -1.7420    -2.3290    -2.0010 H     1 <1>   0.1500 
 22 H       -4.7170    -0.7720     0.6240 H     1 <1>   0.1500 
 23 H       -0.7460    -5.0130    -0.1290 H     1 <1>   0.0800 
 24 H        0.1820    -4.5440     1.2650 H     1 <1>   0.0800 
 25 H        1.3400    -2.0850     1.1130 H     1 <1>   0.0800 
 26 H        1.0410    -1.2170    -0.3640 H     1 <1>   0.0800 
 27 H       -3.9340    -1.2760    -1.6530 H     1 <1>   0.1500 
 28 H        1.2240    -5.1620    -1.5000 H     1 <1>   0.0800 
 29 H        1.5100    -6.0910    -0.0520 H     1 <1>   0.0800 
 30 H        3.3120    -2.2620    -0.2850 H     1 <1>   0.0800 
 31 H        2.3510    -2.7710    -1.6470 H     1 <1>   0.0800 
 32 H        2.8080    -4.2720     0.8470 H     1 <1>   0.4500 
 33 H        3.8340    -4.7670    -1.8440 H     1 <1>   0.0800 
 34 H        3.9060    -5.9200    -0.5250 H     1 <1>   0.0800 
 35 H        6.3710    -3.4970    -1.8180 H     1 <1>   0.1500 
 36 H        6.4950    -3.2120     2.4370 H     1 <1>   0.1500 
 37 H        7.8380    -2.5610     0.1670 H     1 <1>   0.1500 
@<TRIPOS>BOND
  1   1   2  1   
  2   2   3  ar  
  3   2   4  ar  
  4   3   5  1   
  5   3   6  ar  
  6   4   7  ar  
  7   4  20  1   
  8   5   8  1   
  9   5   9  1   
 10   6  10  ar  
 11   6  21  1   
 12   7  10  ar  
 13   7  22  1   
 14   8  11  1   
 15   8  23  1   
 16   8  24  1   
 17   9  12  1   
 18   9  25  1   
 19   9  26  1   
 20  10  27  1   
 21  11  13  1   
 22  11  28  1   
 23  11  29  1   
 24  12  13  1   
 25  12  30  1   
 26  12  31  1   
 27  13  14  1   
 28  13  32  1   
 29  14  15  1   
 30  14  33  1   
 31  14  34  1   
 32  15  16  1   
 33  15  17  2   
 34  16  18  1   
 35  17  19  1   
 36  17  35  1   
 37  18  19  2   
 38  18  36  1   
 39  19  37  1   
@<TRIPOS>SUBSTRUCTURE
  1 ****   9 GROUP 4 **** **** 0

# MOE 2024.06 (io_trps.svl 2023.06)
