@<TRIPOS>MOLECULE
NONAME
61 64 1 0 0 
SMALL
USER_CHARGES


@<TRIPOS>ATOM
  1 O        0.0330    -0.4590    -1.2840 O.3   1 <1>  -0.3630 
  2 C        0.5350    -1.3450    -0.3900 C.ar  1 <1>   0.0830 
  3 C       -0.4220     0.7800    -0.7740 C.3   1 <1>   0.2640 
  4 C       -0.2190    -1.8990     0.6490 C.ar  1 <1>   0.0830 
  5 C        1.8710    -1.6790    -0.5160 C.ar  1 <1>  -0.1500 
  6 C        0.7510     1.6370    -0.3040 C.ar  1 <1>  -0.1440 
  7 O       -1.5470    -1.6690     0.7950 O.3   1 <1>  -0.3630 
  8 C        0.3970    -2.7190     1.5790 C.ar  1 <1>  -0.1500 
  9 C        2.4930    -2.4970     0.4170 C.ar  1 <1>  -0.1440 
 10 C        1.3550     2.5340    -1.1720 C.ar  1 <1>  -0.1500 
 11 C        1.1980     1.5580     1.0070 C.ar  1 <1>  -0.1500 
 12 C       -2.3820    -2.2130    -0.2030 C.3   1 <1>   0.0400 
 13 C        1.7460    -3.0140     1.4660 C.ar  1 <1>  -0.1500 
 14 C        3.9800    -2.8100     0.3060 C.3   1 <1>   0.2530 
 15 C        2.3740     3.3590    -0.7290 C.ar  1 <1>  -0.1500 
 16 C        2.2200     2.3800     1.4510 C.ar  1 <1>  -0.1500 
 17 N        4.7500    -1.6190    -0.1110 N.3   1 <1>  -0.8100 
 18 C        2.8050     3.2870     0.5840 C.ar  1 <1>  -0.1500 
 19 C        4.5990    -0.4700     0.8190 C.3   1 <1>   0.1100 
 20 C        6.1810    -1.9260    -0.3270 C.3   1 <1>   0.1100 
 21 C        5.2520     0.8100     0.2490 C.3   1 <1>   0.3430 
 22 C        7.0040    -0.6650    -0.6920 C.3   1 <1>   0.3430 
 23 N        6.1070     0.5070    -0.9550 N.4   1 <1>  -0.9590 
 24 C        6.8140     1.6590    -1.5770 C.3   1 <1>   0.4230 
 25 C        7.6770     2.4210    -0.5650 C.3   1 <1>  -0.1600 
 26 C        5.8130     2.6820    -2.1320 C.3   1 <1>  -0.1600 
 27 C        6.8800     3.6640    -0.1690 C.3   1 <1>  -0.1600 
 28 C        6.0880     4.0140    -1.4240 C.3   1 <1>  -0.1600 
 29 H       -1.1120     0.6040     0.0310 H     1 <1>   0.0800 
 30 H       -0.9500     1.2770    -1.5670 H     1 <1>   0.0800 
 31 H        2.4270    -1.2710    -1.3400 H     1 <1>   0.1500 
 32 H       -0.1850    -3.1270     2.3850 H     1 <1>   0.1500 
 33 H        1.0210     2.6000    -2.1930 H     1 <1>   0.1500 
 34 H        0.7390     0.8590     1.6870 H     1 <1>   0.1500 
 35 H       -2.1540    -1.7550    -1.1490 H     1 <1>   0.0800 
 36 H       -2.2160    -3.2750    -0.2530 H     1 <1>   0.0800 
 37 H       -3.4030    -2.0120     0.0660 H     1 <1>   0.0800 
 38 H        2.2050    -3.6520     2.2010 H     1 <1>   0.1500 
 39 H        4.1090    -3.5920    -0.4230 H     1 <1>   0.0800 
 40 H        4.3490    -3.1680     1.2520 H     1 <1>   0.0800 
 41 H        2.8170     4.0670    -1.4080 H     1 <1>   0.1500 
 42 H        2.5440     2.3220     2.4760 H     1 <1>   0.1500 
 43 H        3.5830     3.9440     0.9340 H     1 <1>   0.1500 
 44 H        5.0450    -0.7090     1.7690 H     1 <1>   0.0800 
 45 H        3.5590    -0.2570     0.9990 H     1 <1>   0.0800 
 46 H        6.2690    -2.6420    -1.1260 H     1 <1>   0.0800 
 47 H        6.6010    -2.3750     0.5580 H     1 <1>   0.0800 
 48 H        5.8380     1.2790     1.0190 H     1 <1>   0.0800 
 49 H        4.4690     1.4950    -0.0300 H     1 <1>   0.0800 
 50 H        7.6020    -0.8790    -1.5630 H     1 <1>   0.0800 
 51 H        7.6750    -0.4350     0.1180 H     1 <1>   0.0800 
 52 H        5.4200     0.1380    -1.6290 H     1 <1>   0.4500 
 53 H        7.4380     1.3010    -2.3800 H     1 <1>   0.0800 
 54 H        8.5690     2.7470    -1.0720 H     1 <1>   0.0800 
 55 H        7.9710     1.8350     0.2870 H     1 <1>   0.0800 
 56 H        4.7950     2.3760    -1.9710 H     1 <1>   0.0800 
 57 H        5.9630     2.8020    -3.1910 H     1 <1>   0.0800 
 58 H        7.5220     4.4740     0.1360 H     1 <1>   0.0800 
 59 H        6.2040     3.4380     0.6370 H     1 <1>   0.0800 
 60 H        5.1840     4.5500    -1.1910 H     1 <1>   0.0800 
 61 H        6.6960     4.6360    -2.0600 H     1 <1>   0.0800 
@<TRIPOS>BOND
  1   1   2  1   
  2   1   3  1   
  3   2   4  ar  
  4   2   5  ar  
  5   3   6  1   
  6   3  29  1   
  7   3  30  1   
  8   4   7  1   
  9   4   8  ar  
 10   5   9  ar  
 11   5  31  1   
 12   6  10  ar  
 13   6  11  ar  
 14   7  12  1   
 15   8  13  ar  
 16   8  32  1   
 17   9  13  ar  
 18   9  14  1   
 19  10  15  ar  
 20  10  33  1   
 21  11  16  ar  
 22  11  34  1   
 23  12  35  1   
 24  12  36  1   
 25  12  37  1   
 26  13  38  1   
 27  14  17  1   
 28  14  39  1   
 29  14  40  1   
 30  15  18  ar  
 31  15  41  1   
 32  16  18  ar  
 33  16  42  1   
 34  17  19  1   
 35  17  20  1   
 36  18  43  1   
 37  19  21  1   
 38  19  44  1   
 39  19  45  1   
 40  20  22  1   
 41  20  46  1   
 42  20  47  1   
 43  21  23  1   
 44  21  48  1   
 45  21  49  1   
 46  22  23  1   
 47  22  50  1   
 48  22  51  1   
 49  23  24  1   
 50  23  52  1   
 51  24  25  1   
 52  24  26  1   
 53  24  53  1   
 54  25  27  1   
 55  25  54  1   
 56  25  55  1   
 57  26  28  1   
 58  26  56  1   
 59  26  57  1   
 60  27  28  1   
 61  27  58  1   
 62  27  59  1   
 63  28  60  1   
 64  28  61  1   
@<TRIPOS>SUBSTRUCTURE
  1 ****  19 GROUP 4 **** **** 0

# MOE 2024.06 (io_trps.svl 2023.06)
