@<TRIPOS>MOLECULE
NONAME
45 47 1 0 0 
SMALL
USER_CHARGES


@<TRIPOS>ATOM
  1 O        0.7490     0.2480     1.4370 O.3   1 <1>  -0.5600 
  2 C        1.2550    -0.6380     0.4760 C.3   1 <1>   0.1200 
  3 C        0.2720     1.4560     0.9050 C.3   1 <1>   0.1200 
  4 C        2.4390     0.0000    -0.2880 C.3   1 <1>   0.3430 
  5 C        1.3770     2.1800     0.0990 C.3   1 <1>   0.3430 
  6 N        2.6780     1.4220     0.1600 N.4   1 <1>  -0.9590 
  7 C        3.7890     2.1340    -0.5290 C.3   1 <1>   0.3430 
  8 C        5.1520     1.5590    -0.1140 C.3   1 <1>  -0.1600 
  9 C        6.3010     2.3770    -0.7140 C.3   1 <1>   0.3430 
 10 N        7.6070     1.8220    -0.2710 N.4   1 <1>  -0.9060 
 11 C        8.7710     2.5820    -0.8020 C.3   1 <1>   0.4230 
 12 C       10.1870     1.8450    -0.4410 C.3   1 <1>  -0.0800 
 13 C        8.8260     4.1230    -0.1570 C.3   1 <1>  -0.1600 
 14 C       10.2680     3.1210    -0.0440 C.3   1 <1>  -0.1600 
 15 C       11.7140     2.1080     0.0810 C.3   1 <1>  -0.1600 
 16 C       10.3450     4.3810     0.3940 C.3   1 <1>  -0.0800 
 17 C       11.7780     3.6570     0.7080 C.3   1 <1>  -0.1600 
 18 H        0.4600    -0.9070    -0.2000 H     1 <1>   0.0800 
 19 H        1.5750    -1.5300     0.9880 H     1 <1>   0.0800 
 20 H       -0.0520     2.0700     1.7270 H     1 <1>   0.0800 
 21 H       -0.5830     1.2480     0.2840 H     1 <1>   0.0800 
 22 H        2.2270    -0.0280    -1.3440 H     1 <1>   0.0800 
 23 H        3.3190    -0.5980    -0.1170 H     1 <1>   0.0800 
 24 H        1.5020     3.1730     0.4980 H     1 <1>   0.0800 
 25 H        1.0530     2.2800    -0.9250 H     1 <1>   0.0800 
 26 H        2.8600     1.3440     1.1750 H     1 <1>   0.4500 
 27 H        3.7540     3.1790    -0.2610 H     1 <1>   0.0800 
 28 H        3.6610     2.0600    -1.5980 H     1 <1>   0.0800 
 29 H        5.2300     0.5420    -0.4560 H     1 <1>   0.0800 
 30 H        5.2270     1.5850     0.9590 H     1 <1>   0.0800 
 31 H        6.2200     3.4060    -0.3960 H     1 <1>   0.0800 
 32 H        6.2450     2.3540    -1.7920 H     1 <1>   0.0800 
 33 H        7.7140     0.8450    -0.5740 H     1 <1>   0.4500 
 34 H        7.6870     1.8290     0.7540 H     1 <1>   0.4500 
 35 H        8.6980     2.6570    -1.8770 H     1 <1>   0.0800 
 36 H        9.8810     1.0600     0.2380 H     1 <1>   0.0800 
 37 H        8.1280     4.2430     0.6570 H     1 <1>   0.0800 
 38 H        8.5790     4.8510    -0.9150 H     1 <1>   0.0800 
 39 H       10.6490     3.4650    -1.1060 H     1 <1>   0.0800 
 40 H        9.9110     2.7900     1.0310 H     1 <1>   0.0800 
 41 H       12.4130     2.0120    -0.7380 H     1 <1>   0.0800 
 42 H       12.0040     1.3870     0.8310 H     1 <1>   0.0800 
 43 H       10.6660     5.1910    -0.2500 H     1 <1>   0.0800 
 44 H       12.5980     4.2070     0.2690 H     1 <1>   0.0800 
 45 H       11.9530     3.6220     1.7740 H     1 <1>   0.0800 
@<TRIPOS>BOND
  1   1   2  1   
  2   1   3  1   
  3   2   4  1   
  4   2  18  1   
  5   2  19  1   
  6   3   5  1   
  7   3  20  1   
  8   3  21  1   
  9   4   6  1   
 10   4  22  1   
 11   4  23  1   
 12   5   6  1   
 13   5  24  1   
 14   5  25  1   
 15   6   7  1   
 16   6  26  1   
 17   7   8  1   
 18   7  27  1   
 19   7  28  1   
 20   8   9  1   
 21   8  29  1   
 22   8  30  1   
 23   9  10  1   
 24   9  31  1   
 25   9  32  1   
 26  10  11  1   
 27  10  33  1   
 28  10  34  1   
 29  11  12  1   
 30  11  13  1   
 31  11  35  1   
 32  12  14  1   
 33  12  15  1   
 34  12  36  1   
 35  13  16  1   
 36  13  37  1   
 37  13  38  1   
 38  14  16  1   
 39  14  39  1   
 40  14  40  1   
 41  15  17  1   
 42  15  41  1   
 43  15  42  1   
 44  16  17  1   
 45  16  43  1   
 46  17  44  1   
 47  17  45  1   
@<TRIPOS>SUBSTRUCTURE
  1 ****   9 GROUP 4 **** **** 0

# MOE 2024.06 (io_trps.svl 2023.06)
