@<TRIPOS>MOLECULE
NONAME
35 36 1 0 0 
SMALL
USER_CHARGES


@<TRIPOS>ATOM
  1 O        0.7990    -0.9960    -0.3640 O.3   1 <1>  -0.3630 
  2 C       -0.5350    -1.2120    -0.2100 C.ar  1 <1>   0.0830 
  3 C        1.4900    -0.0560     0.4200 C.3   1 <1>   0.1200 
  4 C       -1.1320    -2.1690    -1.0260 C.ar  1 <1>  -0.1440 
  5 C       -1.3120    -0.5220     0.7170 C.ar  1 <1>  -0.1500 
  6 C        2.9570    -0.0780    -0.0070 C.3   1 <1>  -0.1600 
  7 C       -2.4890    -2.4240    -0.9050 C.ar  1 <1>  -0.1500 
  8 C       -0.3080    -2.9370    -2.0490 C.3   1 <1>  -0.0970 
  9 C       -2.6660    -0.7860     0.8280 C.ar  1 <1>  -0.1500 
 10 C        3.7800     0.9210     0.8120 C.3   1 <1>   0.0960 
 11 C       -3.2600    -1.7390     0.0190 C.ar  1 <1>  -0.1430 
 12 N        5.1940     0.8910     0.3910 N.pl3 1 <1>   0.0480 
 13 C       -4.7460    -2.0290     0.1370 C.3   1 <1>  -0.0970 
 14 C        6.2020     0.1610     0.9200 C.2   1 <1>   0.0360 
 15 C        5.7660     1.5910    -0.6040 C.2   1 <1>  -0.3020 
 16 N        7.3450     0.3470     0.3440 N.2   1 <1>  -0.5650 
 17 C        7.0730     1.2480    -0.6180 C.2   1 <1>   0.0770 
 18 H        1.3860    -0.3380     1.4540 H     1 <1>   0.0800 
 19 H        1.0530     0.9130     0.2470 H     1 <1>   0.0800 
 20 H       -0.8880     0.2230     1.3610 H     1 <1>   0.1500 
 21 H        3.0210     0.1760    -1.0510 H     1 <1>   0.0800 
 22 H        3.3480    -1.0700     0.1400 H     1 <1>   0.0800 
 23 H       -2.9520    -3.1620    -1.5350 H     1 <1>   0.1500 
 24 H        0.4730    -3.4830    -1.5500 H     1 <1>   0.0800 
 25 H        0.1420    -2.2500    -2.7430 H     1 <1>   0.0800 
 26 H       -0.9160    -3.6320    -2.5990 H     1 <1>   0.0800 
 27 H       -3.2560    -0.2460     1.5470 H     1 <1>   0.1500 
 28 H        3.7280     0.6780     1.8580 H     1 <1>   0.0800 
 29 H        3.4040     1.9180     0.6710 H     1 <1>   0.0800 
 30 H       -4.9390    -3.0690    -0.0530 H     1 <1>   0.0800 
 31 H       -5.2890    -1.4370    -0.5770 H     1 <1>   0.0800 
 32 H       -5.0990    -1.7940     1.1250 H     1 <1>   0.0800 
 33 H        6.0480    -0.5100     1.7460 H     1 <1>   0.1500 
 34 H        5.2310     2.2770    -1.2340 H     1 <1>   0.1500 
 35 H        7.8440     1.6060    -1.2800 H     1 <1>   0.1500 
@<TRIPOS>BOND
  1   1   2  1   
  2   1   3  1   
  3   2   4  ar  
  4   2   5  ar  
  5   3   6  1   
  6   3  18  1   
  7   3  19  1   
  8   4   7  ar  
  9   4   8  1   
 10   5   9  ar  
 11   5  20  1   
 12   6  10  1   
 13   6  21  1   
 14   6  22  1   
 15   7  11  ar  
 16   7  23  1   
 17   8  24  1   
 18   8  25  1   
 19   8  26  1   
 20   9  11  ar  
 21   9  27  1   
 22  10  12  1   
 23  10  28  1   
 24  10  29  1   
 25  11  13  1   
 26  12  14  1   
 27  12  15  1   
 28  13  30  1   
 29  13  31  1   
 30  13  32  1   
 31  14  16  2   
 32  14  33  1   
 33  15  17  2   
 34  15  34  1   
 35  16  17  1   
 36  17  35  1   
@<TRIPOS>SUBSTRUCTURE
  1 ****   3 GROUP 4 **** **** 0

# MOE 2024.06 (io_trps.svl 2023.06)
