@<TRIPOS>MOLECULE
NONAME
29 29 1 0 0 
SMALL
USER_CHARGES


@<TRIPOS>ATOM
  1 CL       0.2220    -0.3030     0.0140 Cl    1 <1>  -0.1770 
  2 C        1.6000     0.7690     0.0100 C.ar  1 <1>   0.1770 
  3 C        1.3940     2.1360     0.0070 C.ar  1 <1>  -0.1500 
  4 C        2.8750     0.2330     0.0100 C.ar  1 <1>  -0.1500 
  5 C        2.4860     2.9890     0.0040 C.ar  1 <1>  -0.1500 
  6 C        3.9640     1.0880     0.0070 C.ar  1 <1>  -0.1500 
  7 C        3.7790     2.4640     0.0040 C.ar  1 <1>   0.0830 
  8 O        4.9010     3.2250     0.0010 O.3   1 <1>  -0.3630 
  9 C        4.8330     4.6330    -0.0010 C.3   1 <1>   0.1200 
 10 C        6.2610     5.1780    -0.0050 C.3   1 <1>  -0.1600 
 11 C        6.2730     6.7120    -0.0020 C.3   1 <1>  -0.1600 
 12 C        7.7090     7.2520    -0.0100 C.3   1 <1>  -0.1600 
 13 C        7.7250     8.7810    -0.0070 C.3   1 <1>   0.0700 
 14 S        9.4500     9.3260    -0.0340 S.3   1 <1>  -0.4100 
 15 H        0.3910     2.5230     0.0080 H     1 <1>   0.1500 
 16 H        3.0090    -0.8330     0.0120 H     1 <1>   0.1500 
 17 H        2.3120     4.0480     0.0020 H     1 <1>   0.1500 
 18 H        4.9650     0.6950     0.0060 H     1 <1>   0.1500 
 19 H        4.3070     4.9480     0.8840 H     1 <1>   0.0800 
 20 H        4.3040     4.9460    -0.8840 H     1 <1>   0.0800 
 21 H        6.7700     4.8160    -0.8820 H     1 <1>   0.0800 
 22 H        6.7760     4.8130     0.8680 H     1 <1>   0.0800 
 23 H        5.7600     7.0730     0.8740 H     1 <1>   0.0800 
 24 H        5.7500     7.0760    -0.8710 H     1 <1>   0.0800 
 25 H        8.2210     6.8970    -0.8890 H     1 <1>   0.0800 
 26 H        8.2340     6.8900     0.8570 H     1 <1>   0.0800 
 27 H        7.2740     9.1860     0.8820 H     1 <1>   0.0800 
 28 H        7.2500     9.1880    -0.8830 H     1 <1>   0.0800 
 29 H        9.9490     8.7780     1.1130 H     1 <1>   0.1800 
@<TRIPOS>BOND
  1   1   2  1   
  2   2   3  ar  
  3   2   4  ar  
  4   3   5  ar  
  5   3  15  1   
  6   4   6  ar  
  7   4  16  1   
  8   5   7  ar  
  9   5  17  1   
 10   6   7  ar  
 11   6  18  1   
 12   7   8  1   
 13   8   9  1   
 14   9  10  1   
 15   9  19  1   
 16   9  20  1   
 17  10  11  1   
 18  10  21  1   
 19  10  22  1   
 20  11  12  1   
 21  11  23  1   
 22  11  24  1   
 23  12  13  1   
 24  12  25  1   
 25  12  26  1   
 26  13  14  1   
 27  13  27  1   
 28  13  28  1   
 29  14  29  1   
@<TRIPOS>SUBSTRUCTURE
  1 ****   8 GROUP 4 **** **** 0

# MOE 2024.06 (io_trps.svl 2023.06)
