@<TRIPOS>MOLECULE
NONAME
32 34 1 0 0 
SMALL
USER_CHARGES


@<TRIPOS>ATOM
  1 O       -1.1370    -0.1770    -1.5050 O.2   1 <1>  -0.5700 
  2 C       -1.8150     0.4570    -0.7450 C.2   1 <1>   0.6590 
  3 O       -3.1250     0.5490    -0.8320 O.3   1 <1>  -0.4300 
  4 C       -1.2820     1.2390     0.4200 C.3   1 <1>  -0.0990 
  5 C       -3.6900     1.2880     0.2270 C.3   1 <1>   0.2800 
  6 C       -2.4890     2.0980     0.7900 C.3   1 <1>   0.1000 
  7 C       -4.8560     2.1420    -0.3320 C.3   1 <1>  -0.1600 
  8 C       -4.2260     0.2660     1.2520 C.3   1 <1>  -0.1600 
  9 C       -2.3270     3.4850     0.1690 C.2   1 <1>  -0.3320 
 10 C       -6.2280     1.4340    -0.3470 C.3   1 <1>  -0.1600 
 11 C       -5.2720    -0.7000     0.6550 C.3   1 <1>  -0.1600 
 12 N       -2.4430     4.6360     0.8630 N.pl3 1 <1>   0.0330 
 13 C       -2.0580     3.8460    -1.1080 C.2   1 <1>   0.0770 
 14 C       -6.0920    -0.0850    -0.4930 C.3   1 <1>  -0.1600 
 15 C       -2.2370     5.6170    -0.0390 C.2   1 <1>   0.0360 
 16 N       -2.0020     5.1840    -1.2340 N.2   1 <1>  -0.5650 
 17 H       -0.4210     1.8180     0.1390 H     1 <1>   0.0800 
 18 H       -1.0290     0.5580     1.2100 H     1 <1>   0.0800 
 19 H       -2.5670     2.2000     1.8590 H     1 <1>   0.0800 
 20 H       -4.6050     2.4580    -1.3300 H     1 <1>   0.0800 
 21 H       -4.9680     3.0300     0.2630 H     1 <1>   0.0800 
 22 H       -4.6900     0.8130     2.0530 H     1 <1>   0.0800 
 23 H       -3.4210    -0.3030     1.6820 H     1 <1>   0.0800 
 24 H       -6.8260     1.8270    -1.1510 H     1 <1>   0.0800 
 25 H       -6.7460     1.6420     0.5740 H     1 <1>   0.0800 
 26 H       -5.9350    -1.0190     1.4410 H     1 <1>   0.0800 
 27 H       -4.7730    -1.5770     0.2790 H     1 <1>   0.0800 
 28 H       -2.6430     4.7610     1.8600 H     1 <1>   0.2700 
 29 H       -1.9010     3.2030    -1.9610 H     1 <1>   0.1500 
 30 H       -5.6020    -0.2950    -1.4300 H     1 <1>   0.0800 
 31 H       -7.0650    -0.5420    -0.5300 H     1 <1>   0.0800 
 32 H       -2.2680     6.6590     0.2290 H     1 <1>   0.1500 
@<TRIPOS>BOND
  1   1   2  2   
  2   2   3  1   
  3   2   4  1   
  4   3   5  1   
  5   4   6  1   
  6   4  17  1   
  7   4  18  1   
  8   5   6  1   
  9   5   7  1   
 10   5   8  1   
 11   6   9  1   
 12   6  19  1   
 13   7  10  1   
 14   7  20  1   
 15   7  21  1   
 16   8  11  1   
 17   8  22  1   
 18   8  23  1   
 19   9  12  1   
 20   9  13  2   
 21  10  14  1   
 22  10  24  1   
 23  10  25  1   
 24  11  14  1   
 25  11  26  1   
 26  11  27  1   
 27  12  15  1   
 28  12  28  1   
 29  13  16  1   
 30  13  29  1   
 31  14  30  1   
 32  14  31  1   
 33  15  16  2   
 34  15  32  1   
@<TRIPOS>SUBSTRUCTURE
  1 ****   5 GROUP 4 **** **** 0

# MOE 2024.06 (io_trps.svl 2023.06)
