@<TRIPOS>MOLECULE
NONAME
41 42 1 0 0 
SMALL
USER_CHARGES


@<TRIPOS>ATOM
  1 O       -0.4460    -0.6160    -1.7240 O.2   1 <1>  -0.5700 
  2 C       -0.9150    -1.3470    -0.8740 C.2   1 <1>   0.5440 
  3 N       -0.0640    -2.0970    -0.1100 N.am  1 <1>  -0.7300 
  4 C       -2.3510    -1.4100    -0.6610 C.ar  1 <1>   0.0860 
  5 C        1.4020    -2.1310    -0.2380 C.3   1 <1>   0.2200 
  6 C       -3.1740    -0.3350    -1.0030 C.ar  1 <1>  -0.1500 
  7 C       -2.9730    -2.5340    -0.1100 C.ar  1 <1>  -0.1500 
  8 C        1.8460    -3.5850    -0.4310 C.3   1 <1>  -0.1600 
  9 C        2.0230    -1.5220     1.0230 C.3   1 <1>  -0.1600 
 10 C       -4.5400    -0.3730    -0.7990 C.ar  1 <1>  -0.1500 
 11 C       -4.3390    -2.5800     0.1010 C.ar  1 <1>  -0.1500 
 12 C        3.3780    -3.6980    -0.4610 C.3   1 <1>  -0.1600 
 13 C        3.5550    -1.6310     0.9960 C.3   1 <1>  -0.1600 
 14 C       -5.1360    -1.4960    -0.2490 C.ar  1 <1>   0.0830 
 15 C        4.0040    -3.0850     0.8000 C.3   1 <1>  -0.1600 
 16 O       -6.4810    -1.4600    -0.0710 O.3   1 <1>  -0.2320 
 17 C       -7.3490    -2.4700    -0.0220 C.2   1 <1>   0.6590 
 18 O       -7.0450    -3.6210    -0.2040 O.2   1 <1>  -0.5700 
 19 C       -8.7830    -2.0530     0.2780 C.3   1 <1>  -0.0990 
 20 C       -9.7820    -3.2180     0.3960 C.3   1 <1>  -0.2400 
 21 H       -0.4360    -2.6260     0.6750 H     1 <1>   0.3700 
 22 H        1.7090    -1.5540    -1.0960 H     1 <1>   0.0800 
 23 H       -2.7240     0.5430    -1.4360 H     1 <1>   0.1500 
 24 H       -2.3820    -3.3930     0.1520 H     1 <1>   0.1500 
 25 H        1.4440    -3.9570    -1.3570 H     1 <1>   0.0800 
 26 H        1.4670    -4.1880     0.3750 H     1 <1>   0.0800 
 27 H        1.6510    -2.0330     1.8930 H     1 <1>   0.0800 
 28 H        1.7420    -0.4850     1.0880 H     1 <1>   0.0800 
 29 H       -5.1490     0.4720    -1.0700 H     1 <1>   0.1500 
 30 H       -4.7690    -3.4620     0.5390 H     1 <1>   0.1500 
 31 H        3.7540    -3.1850    -1.3300 H     1 <1>   0.0800 
 32 H        3.6630    -4.7330    -0.5400 H     1 <1>   0.0800 
 33 H        3.9600    -1.2480     1.9160 H     1 <1>   0.0800 
 34 H        3.9390    -1.0280     0.1900 H     1 <1>   0.0800 
 35 H        5.0770    -3.1230     0.7230 H     1 <1>   0.0800 
 36 H        3.7160    -3.6670     1.6590 H     1 <1>   0.0800 
 37 H       -9.1070    -1.3920    -0.5050 H     1 <1>   0.0800 
 38 H       -8.7820    -1.4980     1.1980 H     1 <1>   0.0800 
 39 H       -9.8150    -3.7750    -0.5240 H     1 <1>   0.0800 
 40 H      -10.7680    -2.8450     0.6090 H     1 <1>   0.0800 
 41 H       -9.4860    -3.8850     1.1870 H     1 <1>   0.0800 
@<TRIPOS>BOND
  1   1   2  2   
  2   2   3  am  
  3   2   4  1   
  4   3   5  1   
  5   3  21  1   
  6   4   6  ar  
  7   4   7  ar  
  8   5   8  1   
  9   5   9  1   
 10   5  22  1   
 11   6  10  ar  
 12   6  23  1   
 13   7  11  ar  
 14   7  24  1   
 15   8  12  1   
 16   8  25  1   
 17   8  26  1   
 18   9  13  1   
 19   9  27  1   
 20   9  28  1   
 21  10  14  ar  
 22  10  29  1   
 23  11  14  ar  
 24  11  30  1   
 25  12  15  1   
 26  12  31  1   
 27  12  32  1   
 28  13  15  1   
 29  13  33  1   
 30  13  34  1   
 31  14  16  1   
 32  15  35  1   
 33  15  36  1   
 34  16  17  1   
 35  17  18  2   
 36  17  19  1   
 37  19  20  1   
 38  19  37  1   
 39  19  38  1   
 40  20  39  1   
 41  20  40  1   
 42  20  41  1   
@<TRIPOS>SUBSTRUCTURE
  1 ****   7 GROUP 4 **** **** 0

# MOE 2024.06 (io_trps.svl 2023.06)
