@<TRIPOS>MOLECULE
NONAME
40 42 1 0 0 
SMALL
USER_CHARGES


@<TRIPOS>ATOM
  1 S       -0.3850    -0.3800    -0.1080 S.3   1 <1>  -0.0800 
  2 C        1.0750     0.6080    -0.0310 C.2   1 <1>   0.1040 
  3 C       -1.4080     1.0410    -0.0310 C.2   1 <1>  -0.1400 
  4 N        2.3400     0.0090    -0.0550 N.am  1 <1>  -0.4940 
  5 C        0.7440     1.9260     0.0530 C.2   1 <1>   0.0190 
  6 C       -0.6740     2.1590     0.0590 C.2   1 <1>  -0.1810 
  7 C       -2.9140     0.9090    -0.0650 C.3   1 <1>   0.0200 
  8 C        2.7540    -1.2920    -0.2020 C.2   1 <1>   0.5690 
  9 C        1.7010     2.9850     0.1270 C.1   1 <1>   0.5380 
 10 C       -1.3330     3.5290     0.1480 C.3   1 <1>   0.0210 
 11 C       -3.5370     2.2970    -0.3300 C.3   1 <1>  -0.0800 
 12 O        2.0070    -2.2220    -0.3690 O.2   1 <1>  -0.5700 
 13 C        4.2470    -1.5850    -0.1490 C.3   1 <1>   0.1310 
 14 N        2.4970     3.8010     0.1870 N.1   1 <1>  -0.5570 
 15 C       -2.8320     3.3990     0.4930 C.3   1 <1>  -0.1600 
 16 C       -5.0420     2.2800    -0.0390 C.3   1 <1>  -0.2400 
 17 S        5.2570    -0.0220    -0.2290 S.3   1 <1>  -0.2860 
 18 C        6.9360    -0.6250    -0.0370 C.2   1 <1>   0.2420 
 19 N        7.2370    -1.8650     0.1190 N.2   1 <1>  -0.3380 
 20 N        7.9930     0.1850    -0.0430 N.pl3 1 <1>   0.0480 
 21 N        8.5700    -1.9030     0.2260 N.2   1 <1>  -0.3380 
 22 C        8.9940    -0.6860     0.1280 C.2   1 <1>   0.0360 
 23 C        8.0460     1.6510    -0.1960 C.3   1 <1>   0.0160 
 24 H        3.1250     0.6580     0.0330 H     1 <1>   0.3700 
 25 H       -3.2450     0.5190     0.8810 H     1 <1>   0.0800 
 26 H       -3.2050     0.2220    -0.8400 H     1 <1>   0.0800 
 27 H       -1.2230     4.0290    -0.7980 H     1 <1>   0.0800 
 28 H       -0.8510     4.1260     0.9030 H     1 <1>   0.0800 
 29 H       -3.3990     2.5260    -1.3740 H     1 <1>   0.0800 
 30 H        4.5390    -2.1970    -0.9830 H     1 <1>   0.0800 
 31 H        4.4970    -2.0820     0.7690 H     1 <1>   0.0800 
 32 H       -3.3120     4.3470     0.3250 H     1 <1>   0.0800 
 33 H       -2.9260     3.1650     1.5390 H     1 <1>   0.0800 
 34 H       -5.2270     2.0710     1.0000 H     1 <1>   0.0800 
 35 H       -5.5290     1.5270    -0.6330 H     1 <1>   0.0800 
 36 H       -5.4790     3.2340    -0.2790 H     1 <1>   0.0800 
 37 H       10.0270    -0.3930     0.1760 H     1 <1>   0.1500 
 38 H        7.6100     1.9250    -1.1400 H     1 <1>   0.0800 
 39 H        9.0670     1.9840    -0.1610 H     1 <1>   0.0800 
 40 H        7.4900     2.1110     0.6010 H     1 <1>   0.0800 
@<TRIPOS>BOND
  1   1   2  1   
  2   1   3  1   
  3   2   4  1   
  4   2   5  2   
  5   3   6  2   
  6   3   7  1   
  7   4   8  am  
  8   4  24  1   
  9   5   6  1   
 10   5   9  1   
 11   6  10  1   
 12   7  11  1   
 13   7  25  1   
 14   7  26  1   
 15   8  12  2   
 16   8  13  1   
 17   9  14  3   
 18  10  15  1   
 19  10  27  1   
 20  10  28  1   
 21  11  15  1   
 22  11  16  1   
 23  11  29  1   
 24  13  17  1   
 25  13  30  1   
 26  13  31  1   
 27  15  32  1   
 28  15  33  1   
 29  16  34  1   
 30  16  35  1   
 31  16  36  1   
 32  17  18  1   
 33  18  19  2   
 34  18  20  1   
 35  19  21  1   
 36  20  22  1   
 37  20  23  1   
 38  21  22  2   
 39  22  37  1   
 40  23  38  1   
 41  23  39  1   
 42  23  40  1   
@<TRIPOS>SUBSTRUCTURE
  1 ****   4 GROUP 4 **** **** 0

# MOE 2024.06 (io_trps.svl 2023.06)
