@<TRIPOS>MOLECULE
NONAME
34 35 1 0 0 
SMALL
USER_CHARGES


@<TRIPOS>ATOM
  1 O        0.6280     0.0570    -0.1910 O.2   1 <1>  -0.5700 
  2 C        1.5700    -0.7050    -0.0530 C.2   1 <1>   0.6900 
  3 N        1.3300    -2.0480     0.2160 N.am  1 <1>  -0.4200 
  4 N        2.8660    -0.2340    -0.1600 N.am  1 <1>  -0.4230 
  5 C        2.3800    -2.9260     0.4270 C.2   1 <1>   0.7150 
  6 C       -0.0780    -2.5330     0.3190 C.3   1 <1>   0.0600 
  7 C        3.9230    -1.1160     0.0290 C.2   1 <1>   0.2900 
  8 C        3.1780     1.1900    -0.4560 C.3   1 <1>   0.0600 
  9 O        2.1690    -4.0940     0.7050 O.2   1 <1>  -0.5700 
 10 C        3.6950    -2.4170     0.3130 C.2   1 <1>  -0.2370 
 11 N        5.2270    -0.8190    -0.0390 N.2   1 <1>  -0.5650 
 12 N        4.9260    -2.9860     0.4340 N.pl3 1 <1>   0.0480 
 13 C        5.7890    -1.9690     0.2090 C.2   1 <1>   0.2490 
 14 C        5.2510    -4.3990     0.7300 C.3   1 <1>   0.0960 
 15 O        7.1210    -2.1740     0.2470 O.3   1 <1>  -0.3430 
 16 C        5.2060    -5.2410    -0.5510 C.3   1 <1>  -0.1600 
 17 C        7.9880    -1.0880    -0.0010 C.3   1 <1>   0.0400 
 18 C        5.5550    -6.7050    -0.2650 C.3   1 <1>  -0.2400 
 19 H       -0.7000    -2.0230    -0.3960 H     1 <1>   0.0800 
 20 H       -0.4510    -2.3380     1.3090 H     1 <1>   0.0800 
 21 H       -0.1350    -3.5890     0.1220 H     1 <1>   0.0800 
 22 H        2.2800     1.7610    -0.6130 H     1 <1>   0.0800 
 23 H        3.7860     1.2440    -1.3420 H     1 <1>   0.0800 
 24 H        3.7240     1.6140     0.3680 H     1 <1>   0.0800 
 25 H        4.5450    -4.7760     1.4480 H     1 <1>   0.0800 
 26 H        6.2340    -4.4440     1.1640 H     1 <1>   0.0800 
 27 H        5.9070    -4.8430    -1.2650 H     1 <1>   0.0800 
 28 H        4.2180    -5.1930    -0.9770 H     1 <1>   0.0800 
 29 H        9.0010    -1.4390     0.0690 H     1 <1>   0.0800 
 30 H        7.8060    -0.3250     0.7350 H     1 <1>   0.0800 
 31 H        7.7930    -0.7080    -0.9890 H     1 <1>   0.0800 
 32 H        6.5470    -6.7850     0.1460 H     1 <1>   0.0800 
 33 H        5.5170    -7.2760    -1.1770 H     1 <1>   0.0800 
 34 H        4.8530    -7.1290     0.4320 H     1 <1>   0.0800 
@<TRIPOS>BOND
  1   1   2  2   
  2   2   3  am  
  3   2   4  am  
  4   3   5  am  
  5   3   6  1   
  6   4   7  1   
  7   4   8  1   
  8   5   9  2   
  9   5  10  1   
 10   6  19  1   
 11   6  20  1   
 12   6  21  1   
 13   7  10  2   
 14   7  11  1   
 15   8  22  1   
 16   8  23  1   
 17   8  24  1   
 18  10  12  1   
 19  11  13  2   
 20  12  13  1   
 21  12  14  1   
 22  13  15  1   
 23  14  16  1   
 24  14  25  1   
 25  14  26  1   
 26  15  17  1   
 27  16  18  1   
 28  16  27  1   
 29  16  28  1   
 30  17  29  1   
 31  17  30  1   
 32  17  31  1   
 33  18  32  1   
 34  18  33  1   
 35  18  34  1   
@<TRIPOS>SUBSTRUCTURE
  1 ****  10 GROUP 4 **** **** 0

# MOE 2024.06 (io_trps.svl 2023.06)
