@<TRIPOS>MOLECULE
NONAME
45 48 1 0 0 
SMALL
USER_CHARGES


@<TRIPOS>ATOM
  1 O       -0.2180    -0.3320    -1.4360 O.2   1 <1>  -0.5700 
  2 C       -0.2260    -1.2330    -0.6310 C.2   1 <1>   0.5690 
  3 N        0.9100    -1.6510     0.0130 N.am  1 <1>  -0.5470 
  4 C       -1.5640    -1.9460    -0.3260 C.3   1 <1>   0.0610 
  5 C        2.2520    -1.2420    -0.0100 C.ar  1 <1>   0.1170 
  6 C       -2.5620    -0.9360     0.2930 C.3   1 <1>  -0.1600 
  7 C       -2.1800    -2.4960    -1.6380 C.3   1 <1>  -0.1600 
  8 C       -1.4130    -3.1360     0.6640 C.3   1 <1>  -0.1600 
  9 C        3.2560    -2.1100     0.4730 C.ar  1 <1>   0.0860 
 10 C        2.6100     0.0150    -0.4920 C.ar  1 <1>  -0.1500 
 11 C       -3.9260    -1.5980     0.5650 C.3   1 <1>  -0.0800 
 12 C       -3.5420    -3.1650    -1.3750 C.3   1 <1>  -0.0800 
 13 C       -2.7710    -3.8080     0.9380 C.3   1 <1>  -0.0800 
 14 C        2.9450    -3.4300     0.9890 C.2   1 <1>   0.4230 
 15 C        4.5810    -1.6550     0.4390 C.ar  1 <1>  -0.1500 
 16 C        3.9240     0.4310    -0.5180 C.ar  1 <1>  -0.1500 
 17 C       -4.5020    -2.1300    -0.7600 C.3   1 <1>  -0.1600 
 18 C       -3.7340    -2.7710     1.5430 C.3   1 <1>  -0.1600 
 19 C       -3.3520    -4.3310    -0.3880 C.3   1 <1>  -0.1600 
 20 O        1.8720    -3.7480     1.4410 O.2   1 <1>  -0.5700 
 21 C        4.0010    -4.5190     0.9760 C.3   1 <1>  -0.1790 
 22 C        4.9150    -0.4090    -0.0490 C.ar  1 <1>  -0.1500 
 23 H        0.7670    -2.4820     0.6040 H     1 <1>   0.3700 
 24 H       -2.6970    -0.1050    -0.3780 H     1 <1>   0.0800 
 25 H       -2.1590    -0.5450     1.2110 H     1 <1>   0.0800 
 26 H       -2.3100    -1.6920    -2.3420 H     1 <1>   0.0800 
 27 H       -1.5060    -3.2070    -2.0830 H     1 <1>   0.0800 
 28 H       -1.0030    -2.7920     1.5980 H     1 <1>   0.0800 
 29 H       -0.7370    -3.8700     0.2580 H     1 <1>   0.0800 
 30 H        1.8540     0.6890    -0.8520 H     1 <1>   0.1500 
 31 H       -4.6020    -0.8760     0.9910 H     1 <1>   0.0800 
 32 H       -3.9500    -3.5350    -2.3000 H     1 <1>   0.0800 
 33 H       -2.6390    -4.6260     1.6250 H     1 <1>   0.0800 
 34 H        5.3750    -2.2780     0.8080 H     1 <1>   0.1500 
 35 H        4.1750     1.4060    -0.8990 H     1 <1>   0.1500 
 36 H       -4.6470    -1.3150    -1.4470 H     1 <1>   0.0800 
 37 H       -5.4620    -2.5840    -0.5840 H     1 <1>   0.0800 
 38 H       -3.3410    -2.4080     2.4760 H     1 <1>   0.0800 
 39 H       -4.6840    -3.2330     1.7480 H     1 <1>   0.0800 
 40 H       -2.6890    -5.0650    -0.8130 H     1 <1>   0.0800 
 41 H       -4.2980    -4.8120    -0.2060 H     1 <1>   0.0800 
 42 H        4.6530    -4.4060     1.8230 H     1 <1>   0.0800 
 43 H        4.5740    -4.4780     0.0680 H     1 <1>   0.0800 
 44 H        3.5290    -5.4840     1.0340 H     1 <1>   0.0800 
 45 H        5.9420    -0.0850    -0.0650 H     1 <1>   0.1500 
@<TRIPOS>BOND
  1   1   2  2   
  2   2   3  am  
  3   2   4  1   
  4   3   5  1   
  5   3  23  1   
  6   4   6  1   
  7   4   7  1   
  8   4   8  1   
  9   5   9  ar  
 10   5  10  ar  
 11   6  11  1   
 12   6  24  1   
 13   6  25  1   
 14   7  12  1   
 15   7  26  1   
 16   7  27  1   
 17   8  13  1   
 18   8  28  1   
 19   8  29  1   
 20   9  14  1   
 21   9  15  ar  
 22  10  16  ar  
 23  10  30  1   
 24  11  17  1   
 25  11  18  1   
 26  11  31  1   
 27  12  17  1   
 28  12  19  1   
 29  12  32  1   
 30  13  18  1   
 31  13  19  1   
 32  13  33  1   
 33  14  20  2   
 34  14  21  1   
 35  15  22  ar  
 36  15  34  1   
 37  16  22  ar  
 38  16  35  1   
 39  17  36  1   
 40  17  37  1   
 41  18  38  1   
 42  18  39  1   
 43  19  40  1   
 44  19  41  1   
 45  21  42  1   
 46  21  43  1   
 47  21  44  1   
 48  22  45  1   
@<TRIPOS>SUBSTRUCTURE
  1 ****   3 GROUP 4 **** **** 0

# MOE 2024.06 (io_trps.svl 2023.06)
