@<TRIPOS>MOLECULE
NONAME
22 22 1 0 0 
SMALL
USER_CHARGES


@<TRIPOS>ATOM
  1 S       -0.0630    -0.0940     0.7220 S.3   1 <1>  -0.0800 
  2 C       -1.3430     0.9170     0.0530 C.2   1 <1>  -0.1920 
  3 C        1.2260     0.9600     0.1360 C.2   1 <1>  -0.0450 
  4 C       -2.7320     0.5560     0.2120 C.2   1 <1>   1.0320 
  5 C       -0.7650     1.9780    -0.5650 C.2   1 <1>  -0.1500 
  6 C        2.5920     0.6110     0.4060 C.2   1 <1>   0.5940 
  7 C        0.6510     2.0040    -0.5200 C.2   1 <1>  -0.1500 
  8 O       -3.6130     1.2930    -0.2720 O.co2 1 <1>  -0.9000 
  9 O       -3.0830    -0.4720     0.8190 O.co2 1 <1>  -0.9000 
 10 O        2.9460    -0.3550     1.0370 O.2   1 <1>  -0.5700 
 11 C        3.6910     1.5140    -0.1350 C.3   1 <1>  -0.0990 
 12 C        3.9520     2.7210     0.7810 C.3   1 <1>  -0.1600 
 13 C        5.0560     3.6210     0.2170 C.3   1 <1>  -0.2400 
 14 H       -1.3390     2.7460    -1.0550 H     1 <1>   0.1500 
 15 H        1.1870     2.8120    -0.9840 H     1 <1>   0.1500 
 16 H        3.4200     1.8470    -1.1200 H     1 <1>   0.0800 
 17 H        4.5920     0.9340    -0.2260 H     1 <1>   0.0800 
 18 H        4.2430     2.3680     1.7570 H     1 <1>   0.0800 
 19 H        3.0470     3.2950     0.8940 H     1 <1>   0.0800 
 20 H        5.9760     3.0720     0.1200 H     1 <1>   0.0800 
 21 H        5.2250     4.4530     0.8780 H     1 <1>   0.0800 
 22 H        4.7770     4.0040    -0.7490 H     1 <1>   0.0800 
@<TRIPOS>BOND
  1   1   2  1   
  2   1   3  1   
  3   2   4  1   
  4   2   5  2   
  5   3   6  1   
  6   3   7  2   
  7   4   8  ar  
  8   4   9  ar  
  9   5   7  1   
 10   5  14  1   
 11   6  10  2   
 12   6  11  1   
 13   7  15  1   
 14  11  12  1   
 15  11  16  1   
 16  11  17  1   
 17  12  13  1   
 18  12  18  1   
 19  12  19  1   
 20  13  20  1   
 21  13  21  1   
 22  13  22  1   
@<TRIPOS>SUBSTRUCTURE
  1 ****   3 GROUP 4 **** **** 0

# MOE 2024.06 (io_trps.svl 2023.06)
