@<TRIPOS>MOLECULE
NONAME
50 52 1 0 0 
SMALL
USER_CHARGES


@<TRIPOS>ATOM
  1 S        0.0680    -0.1590    -0.2750 S.o2  1 <1>   1.4470 
  2 O        0.0490     0.1170    -1.6940 O.2   1 <1>  -0.6500 
  3 O        0.9430    -1.1860     0.2420 O.2   1 <1>  -0.6500 
  4 N        0.5910     1.2250     0.5150 N.am  1 <1>  -0.9140 
  5 C       -1.6390    -0.4250     0.3130 C.ar  1 <1>  -0.0090 
  6 C        1.5380     2.0400    -0.2150 C.3   1 <1>   0.2760 
  7 C       -2.3070    -1.6350     0.1110 C.ar  1 <1>  -0.1430 
  8 C       -2.3280     0.5920     0.9650 C.ar  1 <1>  -0.1500 
  9 C        2.9080     1.3470    -0.2990 C.3   1 <1>  -0.1600 
 10 C        1.6530     3.3780     0.5240 C.3   1 <1>  -0.1600 
 11 C       -3.6030    -1.8020     0.5730 C.ar  1 <1>  -0.1500 
 12 C       -1.6420    -2.7970    -0.6170 C.3   1 <1>  -0.0970 
 13 C       -3.6340     0.4530     1.4300 C.ar  1 <1>   0.0860 
 14 C        3.9600     2.2590    -0.9460 C.3   1 <1>  -0.1600 
 15 C        2.6980     4.2950    -0.1280 C.3   1 <1>  -0.1600 
 16 C       -4.2530    -0.7760     1.2260 C.ar  1 <1>  -0.1500 
 17 C       -4.3000     1.5550     2.1020 C.2   1 <1>   0.5440 
 18 C        4.0640     3.6020    -0.2110 C.3   1 <1>  -0.1600 
 19 O       -3.7020     2.2450     2.9010 O.2   1 <1>  -0.5700 
 20 N       -5.6110     1.8810     1.8950 N.am  1 <1>  -0.5470 
 21 C       -6.5180     1.4680     0.9140 C.ar  1 <1>   0.1170 
 22 C       -7.8450     1.2460     1.2600 C.ar  1 <1>  -0.1500 
 23 C       -6.1330     1.2830    -0.4090 C.ar  1 <1>  -0.1500 
 24 C       -8.7630     0.8330     0.3120 C.ar  1 <1>  -0.1500 
 25 C       -7.0480     0.8690    -1.3600 C.ar  1 <1>  -0.1500 
 26 C       -8.3650     0.6420    -1.0000 C.ar  1 <1>  -0.1500 
 27 H        1.0820     0.8660     1.3290 H     1 <1>   0.4200 
 28 H        1.1690     2.2370    -1.2100 H     1 <1>   0.0800 
 29 H       -1.8470     1.5420     1.1280 H     1 <1>   0.1500 
 30 H        2.8320     0.4500    -0.8880 H     1 <1>   0.0800 
 31 H        3.2400     1.0790     0.6890 H     1 <1>   0.0800 
 32 H        1.9340     3.2020     1.5470 H     1 <1>   0.0800 
 33 H        0.6970     3.8700     0.5150 H     1 <1>   0.0800 
 34 H       -4.1160    -2.7370     0.4260 H     1 <1>   0.1500 
 35 H       -0.8290    -3.1870    -0.0300 H     1 <1>   0.0800 
 36 H       -1.2610    -2.4770    -1.5710 H     1 <1>   0.0800 
 37 H       -2.3400    -3.5960    -0.7930 H     1 <1>   0.0800 
 38 H        3.6920     2.4360    -1.9740 H     1 <1>   0.0800 
 39 H        4.9180     1.7680    -0.9370 H     1 <1>   0.0800 
 40 H        2.7880     5.2030     0.4440 H     1 <1>   0.0800 
 41 H        2.3710     4.5610    -1.1190 H     1 <1>   0.0800 
 42 H       -5.2580    -0.9280     1.5820 H     1 <1>   0.1500 
 43 H        4.7620     4.2410    -0.7250 H     1 <1>   0.0800 
 44 H        4.4410     3.4360     0.7840 H     1 <1>   0.0800 
 45 H       -5.9380     2.5920     2.5500 H     1 <1>   0.3700 
 46 H       -8.1600     1.3910     2.2780 H     1 <1>   0.1500 
 47 H       -5.1150     1.4670    -0.7010 H     1 <1>   0.1500 
 48 H       -9.7880     0.6600     0.5910 H     1 <1>   0.1500 
 49 H       -6.7370     0.7250    -2.3810 H     1 <1>   0.1500 
 50 H       -9.0780     0.3190    -1.7390 H     1 <1>   0.1500 
@<TRIPOS>BOND
  1   1   2  2   
  2   1   3  2   
  3   1   4  am  
  4   1   5  1   
  5   4   6  1   
  6   4  27  1   
  7   5   7  ar  
  8   5   8  ar  
  9   6   9  1   
 10   6  10  1   
 11   6  28  1   
 12   7  11  ar  
 13   7  12  1   
 14   8  13  ar  
 15   8  29  1   
 16   9  14  1   
 17   9  30  1   
 18   9  31  1   
 19  10  15  1   
 20  10  32  1   
 21  10  33  1   
 22  11  16  ar  
 23  11  34  1   
 24  12  35  1   
 25  12  36  1   
 26  12  37  1   
 27  13  16  ar  
 28  13  17  1   
 29  14  18  1   
 30  14  38  1   
 31  14  39  1   
 32  15  18  1   
 33  15  40  1   
 34  15  41  1   
 35  16  42  1   
 36  17  19  2   
 37  17  20  am  
 38  18  43  1   
 39  18  44  1   
 40  20  21  1   
 41  20  45  1   
 42  21  22  ar  
 43  21  23  ar  
 44  22  24  ar  
 45  22  46  1   
 46  23  25  ar  
 47  23  47  1   
 48  24  26  ar  
 49  24  48  1   
 50  25  26  ar  
 51  25  49  1   
 52  26  50  1   
@<TRIPOS>SUBSTRUCTURE
  1 ****   8 GROUP 4 **** **** 0

# MOE 2024.06 (io_trps.svl 2023.06)
