@<TRIPOS>MOLECULE
NONAME
37 38 1 0 0 
SMALL
USER_CHARGES


@<TRIPOS>ATOM
  1 BR      -0.0670     0.6440     0.0850 Br    1 <1>  -0.1110 
  2 C        1.8320     0.3200     0.0950 C.ar  1 <1>   0.1110 
  3 C        2.2890    -0.9770    -0.0260 C.ar  1 <1>  -0.1500 
  4 C        2.6910     1.3940     0.2260 C.ar  1 <1>  -0.1500 
  5 C        3.6550    -1.2010    -0.0170 C.ar  1 <1>  -0.1500 
  6 C        4.0540     1.1520     0.2320 C.ar  1 <1>  -0.1500 
  7 C        4.5550    -0.1430     0.1080 C.ar  1 <1>   0.1170 
  8 N        5.9460    -0.3230     0.1350 N.am  1 <1>  -0.5470 
  9 C        6.7520    -1.3160    -0.3500 C.2   1 <1>   0.6900 
 10 O        6.2840    -2.2790    -0.9280 O.2   1 <1>  -0.5700 
 11 N        8.1100    -1.2120    -0.1740 N.am  1 <1>  -0.6600 
 12 C        8.9820    -2.3880    -0.4830 C.3   1 <1>   0.1400 
 13 C        8.8000     0.0510     0.2320 C.3   1 <1>   0.1400 
 14 C       10.2670    -2.3510     0.3580 C.3   1 <1>  -0.0800 
 15 C       10.2170     0.1200    -0.3590 C.3   1 <1>  -0.0800 
 16 C       11.0860    -1.0700     0.0970 C.3   1 <1>  -0.1600 
 17 C       11.1230    -3.6010     0.1180 C.3   1 <1>  -0.2400 
 18 C       10.8990     1.4500    -0.0140 C.3   1 <1>  -0.2400 
 19 H        1.5950    -1.7920    -0.1260 H     1 <1>   0.1500 
 20 H        2.3000     2.3910     0.3190 H     1 <1>   0.1500 
 21 H        4.0190    -2.2090    -0.1050 H     1 <1>   0.1500 
 22 H        4.7350     1.9780     0.3290 H     1 <1>   0.1500 
 23 H        6.4710     0.4190     0.5790 H     1 <1>   0.3700 
 24 H        9.2250    -2.3770    -1.5310 H     1 <1>   0.0800 
 25 H        8.4450    -3.2980    -0.2740 H     1 <1>   0.0800 
 26 H        8.8550     0.0910     1.3060 H     1 <1>   0.0800 
 27 H        8.2400     0.9000    -0.1190 H     1 <1>   0.0800 
 28 H        9.9640    -2.3570     1.3920 H     1 <1>   0.0800 
 29 H       10.1150     0.0740    -1.4310 H     1 <1>   0.0800 
 30 H       11.8260    -1.2510    -0.6640 H     1 <1>   0.0800 
 31 H       11.6130    -0.8220     1.0030 H     1 <1>   0.0800 
 32 H       11.4270    -3.6620    -0.9120 H     1 <1>   0.0800 
 33 H       10.5640    -4.4870     0.3640 H     1 <1>   0.0800 
 34 H       12.0030    -3.5740     0.7370 H     1 <1>   0.0800 
 35 H       11.0010     1.5620     1.0520 H     1 <1>   0.0800 
 36 H       10.3230     2.2760    -0.3930 H     1 <1>   0.0800 
 37 H       11.8780     1.4910    -0.4580 H     1 <1>   0.0800 
@<TRIPOS>BOND
  1   1   2  1   
  2   2   3  ar  
  3   2   4  ar  
  4   3   5  ar  
  5   3  19  1   
  6   4   6  ar  
  7   4  20  1   
  8   5   7  ar  
  9   5  21  1   
 10   6   7  ar  
 11   6  22  1   
 12   7   8  1   
 13   8   9  am  
 14   8  23  1   
 15   9  10  2   
 16   9  11  am  
 17  11  12  1   
 18  11  13  1   
 19  12  14  1   
 20  12  24  1   
 21  12  25  1   
 22  13  15  1   
 23  13  26  1   
 24  13  27  1   
 25  14  16  1   
 26  14  17  1   
 27  14  28  1   
 28  15  16  1   
 29  15  18  1   
 30  15  29  1   
 31  16  30  1   
 32  16  31  1   
 33  17  32  1   
 34  17  33  1   
 35  17  34  1   
 36  18  35  1   
 37  18  36  1   
 38  18  37  1   
@<TRIPOS>SUBSTRUCTURE
  1 ****   8 GROUP 4 **** **** 0

# MOE 2024.06 (io_trps.svl 2023.06)
