@<TRIPOS>MOLECULE
NONAME
37 39 1 0 0 
SMALL
USER_CHARGES


@<TRIPOS>ATOM
  1 O       -9.7750     1.3550     0.7890 O.3   1 <1>  -0.3630 
  2 C       -8.6820     2.1460     0.5920 C.ar  1 <1>   0.0830 
  3 C      -10.7590     1.2010    -0.2090 C.3   1 <1>   0.0400 
  4 C       -8.6470     3.3170    -0.1860 C.ar  1 <1>   0.0830 
  5 C       -7.5370     1.7180     1.2390 C.ar  1 <1>  -0.1500 
  6 O       -9.7800     3.7660    -0.7950 O.3   1 <1>  -0.3630 
  7 C       -7.4420     4.0090    -0.2970 C.ar  1 <1>  -0.1500 
  8 C       -6.3340     2.4060     1.1260 C.ar  1 <1>   0.0860 
  9 C       -9.8370     4.9960    -1.4840 C.3   1 <1>   0.0400 
 10 C       -6.3060     3.5600     0.3520 C.ar  1 <1>  -0.1440 
 11 C       -5.1170     1.9660     1.7640 C.2   1 <1>   0.3040 
 12 C       -4.9850     4.3150     0.2850 C.3   1 <1>  -0.0160 
 13 N       -3.9480     2.3710     1.4830 N.2   1 <1>  -0.6960 
 14 C       -3.7630     3.3750     0.4210 C.3   1 <1>   0.2460 
 15 C       -2.4760     4.1470     0.7130 C.3   1 <1>  -0.1600 
 16 C       -3.4180     2.6390    -0.8760 C.3   1 <1>  -0.1600 
 17 C       -1.3260     3.2470     0.2440 C.3   1 <1>  -0.1600 
 18 C       -1.9350     2.2680    -0.7660 C.3   1 <1>  -0.1600 
 19 H      -11.3050     0.2980    -0.0060 H     1 <1>   0.0800 
 20 H      -10.2800     1.1350    -1.1700 H     1 <1>   0.0800 
 21 H      -11.4260     2.0440    -0.1720 H     1 <1>   0.0800 
 22 H       -7.5840     0.8260     1.8350 H     1 <1>   0.1500 
 23 H       -7.3720     4.9070    -0.8800 H     1 <1>   0.1500 
 24 H      -10.8460     5.1400    -1.8260 H     1 <1>   0.0800 
 25 H       -9.1690     4.9580    -2.3250 H     1 <1>   0.0800 
 26 H       -9.5650     5.7880    -0.8080 H     1 <1>   0.0800 
 27 H       -5.2420     1.2230     2.5310 H     1 <1>   0.0600 
 28 H       -4.9630     5.0220     1.0940 H     1 <1>   0.0800 
 29 H       -4.9170     4.8730    -0.6320 H     1 <1>   0.0800 
 30 H       -2.3920     4.4040     1.7550 H     1 <1>   0.0800 
 31 H       -2.4620     5.0510     0.1310 H     1 <1>   0.0800 
 32 H       -4.0440     1.7780    -1.0310 H     1 <1>   0.0800 
 33 H       -3.5400     3.3060    -1.7110 H     1 <1>   0.0800 
 34 H       -0.9380     2.6950     1.0830 H     1 <1>   0.0800 
 35 H       -0.5320     3.8270    -0.1930 H     1 <1>   0.0800 
 36 H       -1.4470     2.3250    -1.7230 H     1 <1>   0.0800 
 37 H       -1.8460     1.2650    -0.3850 H     1 <1>   0.0800 
@<TRIPOS>BOND
  1   1   2  1   
  2   1   3  1   
  3   2   4  ar  
  4   2   5  ar  
  5   3  19  1   
  6   3  20  1   
  7   3  21  1   
  8   4   6  1   
  9   4   7  ar  
 10   5   8  ar  
 11   5  22  1   
 12   6   9  1   
 13   7  10  ar  
 14   7  23  1   
 15   8  10  ar  
 16   8  11  1   
 17   9  24  1   
 18   9  25  1   
 19   9  26  1   
 20  10  12  1   
 21  11  13  2   
 22  11  27  1   
 23  12  14  1   
 24  12  28  1   
 25  12  29  1   
 26  13  14  1   
 27  14  15  1   
 28  14  16  1   
 29  15  17  1   
 30  15  30  1   
 31  15  31  1   
 32  16  18  1   
 33  16  32  1   
 34  16  33  1   
 35  17  18  1   
 36  17  34  1   
 37  17  35  1   
 38  18  36  1   
 39  18  37  1   
@<TRIPOS>SUBSTRUCTURE
  1 ****  10 GROUP 4 **** **** 0

# MOE 2024.06 (io_trps.svl 2023.06)
