@<TRIPOS>MOLECULE
NONAME
43 44 1 0 0 
SMALL
USER_CHARGES


@<TRIPOS>ATOM
  1 CL      -2.3370     0.1100     0.4110 Cl    1 <1>  -0.1770 
  2 C       -1.5760    -1.4600     0.3270 C.ar  1 <1>   0.1770 
  3 C       -0.5140    -1.6540    -0.5380 C.ar  1 <1>  -0.1500 
  4 C       -2.0460    -2.4870     1.1250 C.ar  1 <1>  -0.1500 
  5 C        0.0860    -2.8990    -0.6010 C.ar  1 <1>  -0.1500 
  6 C       -1.4380    -3.7280     1.0550 C.ar  1 <1>  -0.1500 
  7 C       -0.3660    -3.9480     0.1960 C.ar  1 <1>   0.1990 
  8 N        0.2450    -5.1930     0.1300 N.am  1 <1>  -0.6930 
  9 S       -0.5820    -6.5590    -0.5510 S.o2  1 <1>   1.3330 
 10 C        1.7000    -5.3000     0.4710 C.3   1 <1>   0.3370 
 11 O       -1.8370    -6.6720     0.1540 O.2   1 <1>  -0.6500 
 12 O        0.3170    -7.6870    -0.5900 O.2   1 <1>  -0.6500 
 13 C       -0.9330    -6.0460    -2.2210 C.3   1 <1>  -0.1350 
 14 C        2.6350    -5.5440    -0.7490 C.2   1 <1>   0.5690 
 15 C        1.8570    -6.2940     1.6370 C.3   1 <1>  -0.2400 
 16 O        2.1810    -5.5320    -1.8690 O.2   1 <1>  -0.5700 
 17 N        3.9790    -5.7000    -0.6270 N.am  1 <1>  -0.7300 
 18 C        4.8850    -5.4560     0.5070 C.3   1 <1>   0.2200 
 19 C        6.1090    -4.7070    -0.0030 C.3   1 <1>  -0.1600 
 20 C        5.4580    -6.7880     0.9750 C.3   1 <1>  -0.1600 
 21 C        7.0310    -5.7710    -0.6080 C.3   1 <1>  -0.1600 
 22 C        6.6030    -7.1090     0.0090 C.3   1 <1>  -0.1600 
 23 H       -0.1690    -0.8400    -1.1510 H     1 <1>   0.1500 
 24 H       -2.8760    -2.3150     1.7880 H     1 <1>   0.1500 
 25 H        0.9070    -3.0660    -1.2780 H     1 <1>   0.1500 
 26 H       -1.7930    -4.5390     1.6680 H     1 <1>   0.1500 
 27 H        1.9920    -4.3420     0.8600 H     1 <1>   0.0800 
 28 H       -1.4990    -5.1360    -2.2180 H     1 <1>   0.0800 
 29 H       -1.5040    -6.8040    -2.7200 H     1 <1>   0.0800 
 30 H       -0.0280    -5.8900    -2.7710 H     1 <1>   0.0800 
 31 H        1.8780    -7.3070     1.2800 H     1 <1>   0.0800 
 32 H        1.0470    -6.1810     2.3340 H     1 <1>   0.0800 
 33 H        2.7710    -6.1180     2.1680 H     1 <1>   0.0800 
 34 H        4.4660    -5.9340    -1.4950 H     1 <1>   0.3700 
 35 H        4.3900    -4.9130     1.2930 H     1 <1>   0.0800 
 36 H        6.6080    -4.2560     0.8380 H     1 <1>   0.0800 
 37 H        5.8540    -3.9320    -0.7050 H     1 <1>   0.0800 
 38 H        4.7160    -7.5660     1.0050 H     1 <1>   0.0800 
 39 H        5.8630    -6.6590     1.9640 H     1 <1>   0.0800 
 40 H        8.0630    -5.5520    -0.3920 H     1 <1>   0.0800 
 41 H        6.9020    -5.8080    -1.6770 H     1 <1>   0.0800 
 42 H        6.2490    -7.7670    -0.7670 H     1 <1>   0.0800 
 43 H        7.4200    -7.5880     0.5220 H     1 <1>   0.0800 
@<TRIPOS>BOND
  1   1   2  1   
  2   2   3  ar  
  3   2   4  ar  
  4   3   5  ar  
  5   3  23  1   
  6   4   6  ar  
  7   4  24  1   
  8   5   7  ar  
  9   5  25  1   
 10   6   7  ar  
 11   6  26  1   
 12   7   8  1   
 13   8   9  am  
 14   8  10  1   
 15   9  11  2   
 16   9  12  2   
 17   9  13  1   
 18  10  14  1   
 19  10  15  1   
 20  10  27  1   
 21  13  28  1   
 22  13  29  1   
 23  13  30  1   
 24  14  16  2   
 25  14  17  am  
 26  15  31  1   
 27  15  32  1   
 28  15  33  1   
 29  17  18  1   
 30  17  34  1   
 31  18  19  1   
 32  18  20  1   
 33  18  35  1   
 34  19  21  1   
 35  19  36  1   
 36  19  37  1   
 37  20  22  1   
 38  20  38  1   
 39  20  39  1   
 40  21  22  1   
 41  21  40  1   
 42  21  41  1   
 43  22  42  1   
 44  22  43  1   
@<TRIPOS>SUBSTRUCTURE
  1 ****  10 GROUP 4 **** **** 0

# MOE 2024.06 (io_trps.svl 2023.06)
