@<TRIPOS>MOLECULE
NONAME
46 48 1 0 0 
SMALL
USER_CHARGES


@<TRIPOS>ATOM
  1 F       -0.7030     1.6990    -1.9440 F     1 <1>  -0.1900 
  2 C       -1.5490     1.6800    -0.9400 C.ar  1 <1>   0.1900 
  3 C       -1.2610     2.4130     0.2190 C.ar  1 <1>   0.1000 
  4 C       -2.6960     0.9250    -1.0840 C.ar  1 <1>  -0.1500 
  5 N       -0.1080     3.1900     0.4030 N.pl3 1 <1>  -0.8380 
  6 C       -2.1940     2.3530     1.2460 C.ar  1 <1>  -0.1500 
  7 C       -3.6060     0.8870    -0.0400 C.ar  1 <1>  -0.1500 
  8 C       -0.0170     4.3990    -0.4660 C.3   1 <1>   0.2090 
  9 C        1.1660     2.4190     0.4920 C.3   1 <1>   0.2090 
 10 C       -3.3510     1.6010     1.1210 C.ar  1 <1>  -0.1500 
 11 C        1.1780     5.2880    -0.0620 C.3   1 <1>   0.3430 
 12 C        2.3450     3.3330     0.8840 C.3   1 <1>   0.3430 
 13 N        2.4930     4.5380    -0.0220 N.4   1 <1>  -0.9590 
 14 C        3.6500     5.4110     0.3550 C.3   1 <1>   0.4230 
 15 C        3.7620     6.5980    -0.6220 C.3   1 <1>  -0.1600 
 16 C        4.9580     4.5950     0.3460 C.3   1 <1>  -0.1600 
 17 C        4.9980     7.4660    -0.3410 C.3   1 <1>  -0.1600 
 18 C        6.1890     5.4700     0.6230 C.3   1 <1>  -0.1600 
 19 C        6.2870     6.6360    -0.3680 C.3   1 <1>  -0.0800 
 20 C        7.4960     7.5170    -0.0390 C.3   1 <1>  -0.2400 
 21 H       -2.8750     0.3790    -1.9920 H     1 <1>   0.1500 
 22 H       -2.0060     2.9020     2.1510 H     1 <1>   0.1500 
 23 H       -4.5080     0.3050    -0.1290 H     1 <1>   0.1500 
 24 H       -0.9280     4.9660    -0.3750 H     1 <1>   0.0800 
 25 H        0.0840     4.1040    -1.4960 H     1 <1>   0.0800 
 26 H        1.3740     1.9440    -0.4510 H     1 <1>   0.0800 
 27 H        1.0550     1.6450     1.2330 H     1 <1>   0.0800 
 28 H       -4.0590     1.5700     1.9320 H     1 <1>   0.1500 
 29 H        0.9720     5.7040     0.9100 H     1 <1>   0.0800 
 30 H        1.2370     6.1030    -0.7630 H     1 <1>   0.0800 
 31 H        3.2440     2.7410     0.8640 H     1 <1>   0.0800 
 32 H        2.1900     3.6630     1.8980 H     1 <1>   0.0800 
 33 H        2.6740     4.1870    -0.9700 H     1 <1>   0.4500 
 34 H        3.4970     5.8000     1.3490 H     1 <1>   0.0800 
 35 H        2.9050     7.2400    -0.5400 H     1 <1>   0.0800 
 36 H        3.8250     6.2320    -1.6320 H     1 <1>   0.0800 
 37 H        5.0850     4.1230    -0.6130 H     1 <1>   0.0800 
 38 H        4.9380     3.8360     1.1050 H     1 <1>   0.0800 
 39 H        4.8940     7.9380     0.6220 H     1 <1>   0.0800 
 40 H        5.0600     8.2470    -1.0800 H     1 <1>   0.0800 
 41 H        7.0790     4.8660     0.5530 H     1 <1>   0.0800 
 42 H        6.1380     5.8560     1.6280 H     1 <1>   0.0800 
 43 H        6.4240     6.2380    -1.3610 H     1 <1>   0.0800 
 44 H        7.4080     7.9400     0.9460 H     1 <1>   0.0800 
 45 H        7.5780     8.3210    -0.7500 H     1 <1>   0.0800 
 46 H        8.4030     6.9400    -0.0820 H     1 <1>   0.0800 
@<TRIPOS>BOND
  1   1   2  1   
  2   2   3  ar  
  3   2   4  ar  
  4   3   5  1   
  5   3   6  ar  
  6   4   7  ar  
  7   4  21  1   
  8   5   8  1   
  9   5   9  1   
 10   6  10  ar  
 11   6  22  1   
 12   7  10  ar  
 13   7  23  1   
 14   8  11  1   
 15   8  24  1   
 16   8  25  1   
 17   9  12  1   
 18   9  26  1   
 19   9  27  1   
 20  10  28  1   
 21  11  13  1   
 22  11  29  1   
 23  11  30  1   
 24  12  13  1   
 25  12  31  1   
 26  12  32  1   
 27  13  14  1   
 28  13  33  1   
 29  14  15  1   
 30  14  16  1   
 31  14  34  1   
 32  15  17  1   
 33  15  35  1   
 34  15  36  1   
 35  16  18  1   
 36  16  37  1   
 37  16  38  1   
 38  17  19  1   
 39  17  39  1   
 40  17  40  1   
 41  18  19  1   
 42  18  41  1   
 43  18  42  1   
 44  19  20  1   
 45  19  43  1   
 46  20  44  1   
 47  20  45  1   
 48  20  46  1   
@<TRIPOS>SUBSTRUCTURE
  1 ****  13 GROUP 4 **** **** 0

# MOE 2024.06 (io_trps.svl 2023.06)
