@<TRIPOS>MOLECULE
NONAME
48 49 1 0 0 
SMALL
USER_CHARGES


@<TRIPOS>ATOM
  1 O        0.0760    -0.4880     0.9090 O.3   1 <1>  -0.3630 
  2 C       -1.1210    -0.8870     0.4240 C.ar  1 <1>   0.0830 
  3 C        1.1860    -0.7360     0.0770 C.3   1 <1>   0.1200 
  4 C       -1.5850    -2.1710     0.7020 C.ar  1 <1>  -0.1440 
  5 C       -1.8840    -0.0070    -0.3400 C.ar  1 <1>  -0.1440 
  6 C        2.4360    -0.2400     0.7970 C.3   1 <1>   0.1200 
  7 C       -2.8010    -2.5760     0.1800 C.ar  1 <1>  -0.1500 
  8 C       -0.7880    -3.1340     1.5710 C.3   1 <1>  -0.0960 
  9 C       -3.0980    -0.4370    -0.8510 C.ar  1 <1>  -0.1500 
 10 C       -1.4180     1.4140    -0.6200 C.3   1 <1>  -0.0960 
 11 O        3.5490    -0.4790    -0.0130 O.3   1 <1>  -0.5600 
 12 C       -3.5590    -1.7180    -0.6000 C.ar  1 <1>  -0.1430 
 13 C        4.7560    -0.0760     0.5410 C.3   1 <1>   0.1200 
 14 C       -4.8910    -2.1760    -1.1670 C.3   1 <1>  -0.0970 
 15 C        5.8600    -0.4310    -0.4640 C.3   1 <1>   0.3430 
 16 N        7.2300    -0.0710     0.0270 N.4   1 <1>  -0.9590 
 17 C        7.4630     1.3890     0.1700 C.3   1 <1>   0.3430 
 18 C        8.2940    -0.5580    -0.8840 C.3   1 <1>   0.3430 
 19 C        8.9790     1.5340     0.1620 C.3   1 <1>  -0.1600 
 20 C        9.5170     0.2680    -0.5130 C.3   1 <1>  -0.1600 
 21 H        1.0410    -0.2080    -0.8480 H     1 <1>   0.0800 
 22 H        1.2440    -1.7940    -0.1040 H     1 <1>   0.0800 
 23 H        2.5580    -0.7730     1.7240 H     1 <1>   0.0800 
 24 H        2.3570     0.8180     0.9780 H     1 <1>   0.0800 
 25 H       -3.1660    -3.5670     0.3820 H     1 <1>   0.1500 
 26 H       -1.4230    -3.9060     1.9640 H     1 <1>   0.0800 
 27 H       -0.0080    -3.5900     0.9900 H     1 <1>   0.0800 
 28 H       -0.3470    -2.6080     2.3990 H     1 <1>   0.0800 
 29 H       -3.6920     0.2320    -1.4480 H     1 <1>   0.1500 
 30 H       -0.7000     1.4130    -1.4190 H     1 <1>   0.0800 
 31 H       -0.9640     1.8360     0.2590 H     1 <1>   0.0800 
 32 H       -2.2470     2.0380    -0.9010 H     1 <1>   0.0800 
 33 H        4.8990    -0.6060     1.4670 H     1 <1>   0.0800 
 34 H        4.7120     0.9850     0.7110 H     1 <1>   0.0800 
 35 H       -4.8780    -3.2360    -1.3480 H     1 <1>   0.0800 
 36 H       -5.0950    -1.6760    -2.0970 H     1 <1>   0.0800 
 37 H       -5.6780    -1.9510    -0.4700 H     1 <1>   0.0800 
 38 H        5.6610     0.0820    -1.3900 H     1 <1>   0.0800 
 39 H        5.8140    -1.4910    -0.6490 H     1 <1>   0.0800 
 40 H        7.3950    -0.5090     0.9440 H     1 <1>   0.4500 
 41 H        7.0300     1.7800     1.0770 H     1 <1>   0.0800 
 42 H        7.0490     1.9100    -0.6790 H     1 <1>   0.0800 
 43 H        8.0200    -0.3540    -1.9070 H     1 <1>   0.0800 
 44 H        8.4730    -1.6150    -0.7650 H     1 <1>   0.0800 
 45 H        9.3450     1.6070     1.1710 H     1 <1>   0.0800 
 46 H        9.2670     2.4240    -0.3710 H     1 <1>   0.0800 
 47 H       10.0960     0.4980    -1.3910 H     1 <1>   0.0800 
 48 H       10.1390    -0.2860     0.1700 H     1 <1>   0.0800 
@<TRIPOS>BOND
  1   1   2  1   
  2   1   3  1   
  3   2   4  ar  
  4   2   5  ar  
  5   3   6  1   
  6   3  21  1   
  7   3  22  1   
  8   4   7  ar  
  9   4   8  1   
 10   5   9  ar  
 11   5  10  1   
 12   6  11  1   
 13   6  23  1   
 14   6  24  1   
 15   7  12  ar  
 16   7  25  1   
 17   8  26  1   
 18   8  27  1   
 19   8  28  1   
 20   9  12  ar  
 21   9  29  1   
 22  10  30  1   
 23  10  31  1   
 24  10  32  1   
 25  11  13  1   
 26  12  14  1   
 27  13  15  1   
 28  13  33  1   
 29  13  34  1   
 30  14  35  1   
 31  14  36  1   
 32  14  37  1   
 33  15  16  1   
 34  15  38  1   
 35  15  39  1   
 36  16  17  1   
 37  16  18  1   
 38  16  40  1   
 39  17  19  1   
 40  17  41  1   
 41  17  42  1   
 42  18  20  1   
 43  18  43  1   
 44  18  44  1   
 45  19  20  1   
 46  19  45  1   
 47  19  46  1   
 48  20  47  1   
 49  20  48  1   
@<TRIPOS>SUBSTRUCTURE
  1 ****   3 GROUP 4 **** **** 0

# MOE 2024.06 (io_trps.svl 2023.06)
