@<TRIPOS>MOLECULE
NONAME
52 54 1 0 0 
SMALL
USER_CHARGES


@<TRIPOS>ATOM
  1 O        0.5640     1.4540     2.1650 O.2   1 <1>  -0.5700 
  2 C       -0.1270     2.1950     1.4860 C.2   1 <1>   0.5440 
  3 N       -1.4220     1.8220     1.1960 N.am  1 <1>  -0.6600 
  4 C        0.4580     3.4010     0.9420 C.ar  1 <1>   0.0860 
  5 C       -2.1420     2.3040    -0.0130 C.3   1 <1>   0.1400 
  6 C       -2.0460     0.6230     1.8180 C.3   1 <1>   0.1400 
  7 C        1.5590     3.3190     0.0780 C.ar  1 <1>   0.1170 
  8 C       -0.0690     4.6580     1.2420 C.ar  1 <1>  -0.1500 
  9 C       -2.1450     1.1880    -1.0640 C.3   1 <1>  -0.1600 
 10 C       -2.0660    -0.5220     0.8000 C.3   1 <1>  -0.1600 
 11 N        2.0960     2.0580    -0.2040 N.am  1 <1>  -0.5470 
 12 C        2.0890     4.4840    -0.4670 C.ar  1 <1>  -0.1500 
 13 C        0.4680     5.8080     0.6960 C.ar  1 <1>  -0.1500 
 14 C       -2.7570    -0.1110    -0.5120 C.3   1 <1>  -0.0800 
 15 C        2.6990     1.5500    -1.3190 C.2   1 <1>   0.5690 
 16 C        1.5500     5.7190    -0.1640 C.ar  1 <1>  -0.1500 
 17 C       -2.6540    -1.2360    -1.5480 C.3   1 <1>  -0.2400 
 18 O        3.0080     2.2220    -2.2720 O.2   1 <1>  -0.5700 
 19 C        2.9510     0.0440    -1.3590 C.3   1 <1>  -0.0190 
 20 C        1.6220    -0.7400    -1.3460 C.3   1 <1>  -0.1600 
 21 C        3.8700    -0.4210    -0.2100 C.3   1 <1>  -0.1600 
 22 C        1.8580    -2.2560    -1.3850 C.3   1 <1>  -0.1600 
 23 C        4.1020    -1.9380    -0.2560 C.3   1 <1>  -0.1600 
 24 C        2.7720    -2.7020    -0.2370 C.3   1 <1>  -0.1600 
 25 H       -1.6740     3.1810    -0.4250 H     1 <1>   0.0800 
 26 H       -3.1530     2.5590     0.2560 H     1 <1>   0.0800 
 27 H       -3.0510     0.8650     2.1190 H     1 <1>   0.0800 
 28 H       -1.5000     0.3240     2.6970 H     1 <1>   0.0800 
 29 H       -0.9090     4.7230     1.9110 H     1 <1>   0.1500 
 30 H       -1.1320     1.0130    -1.3810 H     1 <1>   0.0800 
 31 H       -2.7040     1.5160    -1.9220 H     1 <1>   0.0800 
 32 H       -2.5760    -1.3650     1.2310 H     1 <1>   0.0800 
 33 H       -1.0520    -0.8210     0.6070 H     1 <1>   0.0800 
 34 H        1.8730     1.3580     0.5150 H     1 <1>   0.3700 
 35 H        2.9330     4.4240    -1.1310 H     1 <1>   0.1500 
 36 H        0.0500     6.7710     0.9360 H     1 <1>   0.1500 
 37 H       -3.7990     0.0660    -0.3040 H     1 <1>   0.0800 
 38 H        1.9720     6.6110    -0.5940 H     1 <1>   0.1500 
 39 H       -1.6240    -1.4440    -1.7810 H     1 <1>   0.0800 
 40 H       -3.1610    -0.9570    -2.4540 H     1 <1>   0.0800 
 41 H       -3.1070    -2.1350    -1.1690 H     1 <1>   0.0800 
 42 H        3.4520    -0.1690    -2.2880 H     1 <1>   0.0800 
 43 H        1.0270    -0.4490    -2.1950 H     1 <1>   0.0800 
 44 H        1.0670    -0.4980    -0.4570 H     1 <1>   0.0800 
 45 H        3.4290    -0.1680     0.7390 H     1 <1>   0.0800 
 46 H        4.8150     0.0880    -0.2800 H     1 <1>   0.0800 
 47 H        2.3100    -2.5230    -2.3250 H     1 <1>   0.0800 
 48 H        0.9140    -2.7690    -1.3150 H     1 <1>   0.0800 
 49 H        4.7010    -2.2360     0.5870 H     1 <1>   0.0800 
 50 H        4.6450    -2.1890    -1.1510 H     1 <1>   0.0800 
 51 H        2.9620    -3.7580    -0.3180 H     1 <1>   0.0800 
 52 H        2.2740    -2.5290     0.7020 H     1 <1>   0.0800 
@<TRIPOS>BOND
  1   1   2  2   
  2   2   3  am  
  3   2   4  1   
  4   3   5  1   
  5   3   6  1   
  6   4   7  ar  
  7   4   8  ar  
  8   5   9  1   
  9   5  25  1   
 10   5  26  1   
 11   6  10  1   
 12   6  27  1   
 13   6  28  1   
 14   7  11  1   
 15   7  12  ar  
 16   8  13  ar  
 17   8  29  1   
 18   9  14  1   
 19   9  30  1   
 20   9  31  1   
 21  10  14  1   
 22  10  32  1   
 23  10  33  1   
 24  11  15  am  
 25  11  34  1   
 26  12  16  ar  
 27  12  35  1   
 28  13  16  ar  
 29  13  36  1   
 30  14  17  1   
 31  14  37  1   
 32  15  18  2   
 33  15  19  1   
 34  16  38  1   
 35  17  39  1   
 36  17  40  1   
 37  17  41  1   
 38  19  20  1   
 39  19  21  1   
 40  19  42  1   
 41  20  22  1   
 42  20  43  1   
 43  20  44  1   
 44  21  23  1   
 45  21  45  1   
 46  21  46  1   
 47  22  24  1   
 48  22  47  1   
 49  22  48  1   
 50  23  24  1   
 51  23  49  1   
 52  23  50  1   
 53  24  51  1   
 54  24  52  1   
@<TRIPOS>SUBSTRUCTURE
  1 ****  11 GROUP 4 **** **** 0

# MOE 2024.06 (io_trps.svl 2023.06)
