@<TRIPOS>MOLECULE
NONAME
40 41 1 0 0 
SMALL
USER_CHARGES


@<TRIPOS>ATOM
  1 F       -2.2880     0.8300     2.8120 F     1 <1>  -0.1900 
  2 C       -2.6000     1.1330     1.5820 C.ar  1 <1>   0.1900 
  3 C       -3.7390     0.5750     1.0340 C.ar  1 <1>  -0.1500 
  4 C       -1.7870     1.9980     0.8780 C.ar  1 <1>  -0.1500 
  5 C       -4.0840     0.9010    -0.2710 C.ar  1 <1>  -0.1440 
  6 C       -2.1290     2.3120    -0.4260 C.ar  1 <1>  -0.1500 
  7 C       -3.2700     1.7660    -0.9960 C.ar  1 <1>  -0.1500 
  8 C       -5.3400     0.3230    -0.8950 C.3   1 <1>   0.4870 
  9 N       -6.5200     0.9990    -0.2910 N.4   1 <1>  -0.9590 
 10 C       -7.7880     0.2940    -0.6620 C.3   1 <1>   0.3430 
 11 C       -6.5580     2.4520    -0.6410 C.3   1 <1>   0.3430 
 12 C       -9.0050     0.9300     0.0210 C.3   1 <1>  -0.0190 
 13 C       -7.7350     3.1230     0.0690 C.3   1 <1>  -0.1600 
 14 C      -10.2540     0.2120    -0.4550 C.2   1 <1>   0.6590 
 15 C       -9.0710     2.4430    -0.2660 C.3   1 <1>  -0.1600 
 16 O      -10.2180    -0.5540    -1.3830 O.2   1 <1>  -0.5700 
 17 O      -11.3650     0.4790     0.2120 O.3   1 <1>  -0.4300 
 18 C      -12.5960    -0.1170    -0.1330 C.3   1 <1>   0.1200 
 19 C      -13.6600     0.4110     0.8230 C.3   1 <1>  -0.2400 
 20 H       -4.3230    -0.1010     1.6340 H     1 <1>   0.1500 
 21 H       -0.9070     2.4100     1.3410 H     1 <1>   0.1500 
 22 H       -1.5040     2.9810    -0.9950 H     1 <1>   0.1500 
 23 H       -3.5080     2.0240    -2.0140 H     1 <1>   0.1500 
 24 H       -5.3770    -0.7360    -0.6990 H     1 <1>   0.0800 
 25 H       -5.3280     0.4720    -1.9630 H     1 <1>   0.0800 
 26 H       -6.3960     0.9440     0.7280 H     1 <1>   0.4500 
 27 H       -7.7320    -0.7460    -0.3820 H     1 <1>   0.0800 
 28 H       -7.9290     0.3400    -1.7310 H     1 <1>   0.0800 
 29 H       -6.6670     2.5690    -1.7070 H     1 <1>   0.0800 
 30 H       -5.6390     2.9310    -0.3390 H     1 <1>   0.0800 
 31 H       -8.9290     0.7690     1.0810 H     1 <1>   0.0800 
 32 H       -7.7800     4.1570    -0.2310 H     1 <1>   0.0800 
 33 H       -7.5680     3.1080     1.1320 H     1 <1>   0.0800 
 34 H       -9.8620     2.8900     0.3140 H     1 <1>   0.0800 
 35 H       -9.3020     2.6020    -1.3070 H     1 <1>   0.0800 
 36 H      -12.4960    -1.1860    -0.0470 H     1 <1>   0.0800 
 37 H      -12.8300     0.1430    -1.1520 H     1 <1>   0.0800 
 38 H      -13.4120     0.1520     1.8370 H     1 <1>   0.0800 
 39 H      -14.6110    -0.0280     0.5830 H     1 <1>   0.0800 
 40 H      -13.7450     1.4790     0.7340 H     1 <1>   0.0800 
@<TRIPOS>BOND
  1   1   2  1   
  2   2   3  ar  
  3   2   4  ar  
  4   3   5  ar  
  5   3  20  1   
  6   4   6  ar  
  7   4  21  1   
  8   5   7  ar  
  9   5   8  1   
 10   6   7  ar  
 11   6  22  1   
 12   7  23  1   
 13   8   9  1   
 14   8  24  1   
 15   8  25  1   
 16   9  10  1   
 17   9  11  1   
 18   9  26  1   
 19  10  12  1   
 20  10  27  1   
 21  10  28  1   
 22  11  13  1   
 23  11  29  1   
 24  11  30  1   
 25  12  14  1   
 26  12  15  1   
 27  12  31  1   
 28  13  15  1   
 29  13  32  1   
 30  13  33  1   
 31  14  16  2   
 32  14  17  1   
 33  15  34  1   
 34  15  35  1   
 35  17  18  1   
 36  18  19  1   
 37  18  36  1   
 38  18  37  1   
 39  19  38  1   
 40  19  39  1   
 41  19  40  1   
@<TRIPOS>SUBSTRUCTURE
  1 ****   9 GROUP 4 **** **** 0

# MOE 2024.06 (io_trps.svl 2023.06)
