@<TRIPOS>MOLECULE
NONAME
53 55 1 0 0 
SMALL
USER_CHARGES


@<TRIPOS>ATOM
  1 F        0.9540    -0.7000    -0.9290 F     1 <1>  -0.1900 
  2 C        1.8880    -0.2720    -0.1250 C.ar  1 <1>   0.1900 
  3 C        2.7740     0.6810    -0.5820 C.ar  1 <1>  -0.1500 
  4 C        1.9520    -0.7910     1.1530 C.ar  1 <1>  -0.1500 
  5 C        3.7810     1.1570     0.2580 C.ar  1 <1>   0.0860 
  6 C        2.9490    -0.3350     1.9970 C.ar  1 <1>  -0.1500 
  7 C        4.7170     2.1630    -0.2080 C.2   1 <1>   0.5440 
  8 C        3.8480     0.6220     1.5510 C.ar  1 <1>  -0.1500 
  9 O        5.0120     2.2280    -1.3860 O.2   1 <1>  -0.5700 
 10 N        5.2640     3.0520     0.6800 N.am  1 <1>  -0.5470 
 11 C        6.2090     4.0660     0.4340 C.ar  1 <1>   0.1170 
 12 C        7.5780     3.7930     0.2460 C.ar  1 <1>   0.1000 
 13 C        5.7670     5.3760     0.4200 C.ar  1 <1>  -0.1500 
 14 N        8.0900     2.4940     0.2290 N.pl3 1 <1>  -0.8380 
 15 C        8.4410     4.8650     0.0560 C.ar  1 <1>  -0.1500 
 16 C        6.6250     6.4610     0.2280 C.ar  1 <1>   0.0860 
 17 C        7.9440     1.7100    -1.0360 C.3   1 <1>   0.2090 
 18 C        9.1270     2.0590     1.2110 C.3   1 <1>   0.2090 
 19 C        7.9780     6.1660     0.0480 C.ar  1 <1>  -0.1500 
 20 C        6.1200     7.8180     0.2240 C.2   1 <1>   0.6340 
 21 C        9.3050     1.3180    -1.6430 C.3   1 <1>   0.3430 
 22 C       10.4480     1.6570     0.5200 C.3   1 <1>   0.3430 
 23 O        4.9570     8.0960     0.4400 O.2   1 <1>  -0.5700 
 24 O        6.9810     8.8110    -0.0270 O.3   1 <1>  -0.4300 
 25 N       10.2400     0.7030    -0.6320 N.4   1 <1>  -0.9590 
 26 C        6.5690    10.1640    -0.0520 C.3   1 <1>   0.0400 
 27 C       11.5130     0.2910    -1.2760 C.3   1 <1>   0.3430 
 28 C       12.2780    -0.6460    -0.3500 C.3   1 <1>  -0.2400 
 29 H        2.6850     1.0540    -1.5870 H     1 <1>   0.1500 
 30 H        1.2400    -1.5330     1.4720 H     1 <1>   0.1500 
 31 H        3.0240    -0.7270     2.9980 H     1 <1>   0.1500 
 32 H        4.6220     0.9500     2.2220 H     1 <1>   0.1500 
 33 H        4.8420     3.0730     1.6060 H     1 <1>   0.3700 
 34 H        4.7170     5.5700     0.5580 H     1 <1>   0.1500 
 35 H        9.4870     4.6800    -0.0940 H     1 <1>   0.1500 
 36 H        7.4100     2.2980    -1.7620 H     1 <1>   0.0800 
 37 H        7.3600     0.8280    -0.8400 H     1 <1>   0.0800 
 38 H        8.7440     1.2220     1.7690 H     1 <1>   0.0800 
 39 H        9.3160     2.8550     1.9120 H     1 <1>   0.0800 
 40 H        8.6770     6.9710    -0.1040 H     1 <1>   0.1500 
 41 H        9.7530     2.2080    -2.0530 H     1 <1>   0.0800 
 42 H        9.1340     0.6320    -2.4550 H     1 <1>   0.0800 
 43 H       11.0980     1.2120     1.2550 H     1 <1>   0.0800 
 44 H       10.9250     2.5530     0.1610 H     1 <1>   0.0800 
 45 H        9.7760    -0.1380    -0.2630 H     1 <1>   0.4500 
 46 H        7.4240    10.7770    -0.2730 H     1 <1>   0.0800 
 47 H        6.1650    10.4220     0.9110 H     1 <1>   0.0800 
 48 H        5.8190    10.2840    -0.8140 H     1 <1>   0.0800 
 49 H       12.1130     1.1570    -1.5090 H     1 <1>   0.0800 
 50 H       11.3010    -0.2290    -2.1980 H     1 <1>   0.0800 
 51 H       12.5990    -0.1430     0.5450 H     1 <1>   0.0800 
 52 H       13.1590    -0.9970    -0.8570 H     1 <1>   0.0800 
 53 H       11.6820    -1.5040    -0.0930 H     1 <1>   0.0800 
@<TRIPOS>BOND
  1   1   2  1   
  2   2   3  ar  
  3   2   4  ar  
  4   3   5  ar  
  5   3  29  1   
  6   4   6  ar  
  7   4  30  1   
  8   5   7  1   
  9   5   8  ar  
 10   6   8  ar  
 11   6  31  1   
 12   7   9  2   
 13   7  10  am  
 14   8  32  1   
 15  10  11  1   
 16  10  33  1   
 17  11  12  ar  
 18  11  13  ar  
 19  12  14  1   
 20  12  15  ar  
 21  13  16  ar  
 22  13  34  1   
 23  14  17  1   
 24  14  18  1   
 25  15  19  ar  
 26  15  35  1   
 27  16  19  ar  
 28  16  20  1   
 29  17  21  1   
 30  17  36  1   
 31  17  37  1   
 32  18  22  1   
 33  18  38  1   
 34  18  39  1   
 35  19  40  1   
 36  20  23  2   
 37  20  24  1   
 38  21  25  1   
 39  21  41  1   
 40  21  42  1   
 41  22  25  1   
 42  22  43  1   
 43  22  44  1   
 44  24  26  1   
 45  25  27  1   
 46  25  45  1   
 47  26  46  1   
 48  26  47  1   
 49  26  48  1   
 50  27  28  1   
 51  27  49  1   
 52  27  50  1   
 53  28  51  1   
 54  28  52  1   
 55  28  53  1   
@<TRIPOS>SUBSTRUCTURE
  1 ****  11 GROUP 4 **** **** 0

# MOE 2024.06 (io_trps.svl 2023.06)
