@<TRIPOS>MOLECULE
NONAME
41 42 1 0 0 
SMALL
USER_CHARGES


@<TRIPOS>ATOM
  1 S       -0.2000     0.0330    -0.1890 S.o2  1 <1>   1.4470 
  2 O       -0.5630    -0.4420    -1.5040 O.2   1 <1>  -0.6500 
  3 O       -0.8550    -0.4950     0.9870 O.2   1 <1>  -0.6500 
  4 N       -0.5520     1.6730    -0.2590 N.am  1 <1>  -0.9140 
  5 C        1.5990     0.0070     0.0290 C.ar  1 <1>  -0.0090 
  6 C       -1.9270     1.9900     0.1170 C.3   1 <1>   0.1160 
  7 C        2.4430    -0.4800    -0.9630 C.ar  1 <1>  -0.1500 
  8 C        2.1800     0.4870     1.1960 C.ar  1 <1>  -0.1500 
  9 C        3.8170    -0.4860    -0.7960 C.ar  1 <1>  -0.1500 
 10 C        3.5520     0.4840     1.3700 C.ar  1 <1>  -0.1500 
 11 C        4.3800    -0.0020     0.3720 C.ar  1 <1>  -0.1430 
 12 C        5.8880     0.0040     0.5560 C.3   1 <1>  -0.0170 
 13 C        6.4760     1.3320     0.0550 C.3   1 <1>  -0.0990 
 14 C        7.9880     1.4250     0.1910 C.2   1 <1>   0.5690 
 15 O        8.5700     0.5320     0.7610 O.2   1 <1>  -0.5700 
 16 N        8.6590     2.5040    -0.3250 N.am  1 <1>  -0.6600 
 17 C        8.0360     3.6880    -0.9930 C.3   1 <1>   0.1400 
 18 C       10.1480     2.6080    -0.2380 C.3   1 <1>   0.1400 
 19 C        8.5760     4.9960    -0.3890 C.3   1 <1>   0.1200 
 20 C       10.5670     3.9780     0.3190 C.3   1 <1>   0.1200 
 21 O        9.9750     5.0130    -0.4150 O.3   1 <1>  -0.5600 
 22 H       -0.4480     1.8870    -1.2500 H     1 <1>   0.4200 
 23 H       -2.0900     1.7530     1.1560 H     1 <1>   0.0800 
 24 H       -2.6210     1.4230    -0.4830 H     1 <1>   0.0800 
 25 H       -2.1130     3.0410    -0.0280 H     1 <1>   0.0800 
 26 H        2.0210    -0.8620    -1.8780 H     1 <1>   0.1500 
 27 H        1.5450     0.8680     1.9790 H     1 <1>   0.1500 
 28 H        4.4460    -0.8700    -1.5810 H     1 <1>   0.1500 
 29 H        3.9730     0.8620     2.2860 H     1 <1>   0.1500 
 30 H        6.3260    -0.8160     0.0120 H     1 <1>   0.0800 
 31 H        6.1280    -0.1320     1.5960 H     1 <1>   0.0800 
 32 H        6.0350     2.1370     0.6120 H     1 <1>   0.0800 
 33 H        6.2180     1.4500    -0.9810 H     1 <1>   0.0800 
 34 H        6.9670     3.6760    -0.8930 H     1 <1>   0.0800 
 35 H        8.2720     3.6640    -2.0420 H     1 <1>   0.0800 
 36 H       10.5680     2.4810    -1.2200 H     1 <1>   0.0800 
 37 H       10.5480     1.8340     0.3940 H     1 <1>   0.0800 
 38 H        8.2490     5.1080     0.6300 H     1 <1>   0.0800 
 39 H        8.2290     5.8400    -0.9590 H     1 <1>   0.0800 
 40 H       11.6340     4.0950     0.2510 H     1 <1>   0.0800 
 41 H       10.2740     4.0710     1.3500 H     1 <1>   0.0800 
@<TRIPOS>BOND
  1   1   2  2   
  2   1   3  2   
  3   1   4  am  
  4   1   5  1   
  5   4   6  1   
  6   4  22  1   
  7   5   7  ar  
  8   5   8  ar  
  9   6  23  1   
 10   6  24  1   
 11   6  25  1   
 12   7   9  ar  
 13   7  26  1   
 14   8  10  ar  
 15   8  27  1   
 16   9  11  ar  
 17   9  28  1   
 18  10  11  ar  
 19  10  29  1   
 20  11  12  1   
 21  12  13  1   
 22  12  30  1   
 23  12  31  1   
 24  13  14  1   
 25  13  32  1   
 26  13  33  1   
 27  14  15  2   
 28  14  16  am  
 29  16  17  1   
 30  16  18  1   
 31  17  19  1   
 32  17  34  1   
 33  17  35  1   
 34  18  20  1   
 35  18  36  1   
 36  18  37  1   
 37  19  21  1   
 38  19  38  1   
 39  19  39  1   
 40  20  21  1   
 41  20  40  1   
 42  20  41  1   
@<TRIPOS>SUBSTRUCTURE
  1 ****  11 GROUP 4 **** **** 0

# MOE 2024.06 (io_trps.svl 2023.06)
