@<TRIPOS>MOLECULE
NONAME
42 43 1 0 0 
SMALL
USER_CHARGES


@<TRIPOS>ATOM
  1 S       -0.2920    -1.2750     1.4360 S.o2  1 <1>   1.4470 
  2 O        0.0570    -2.3020     2.3930 O.2   1 <1>  -0.6500 
  3 O       -0.2720     0.1060     1.8670 O.2   1 <1>  -0.6500 
  4 N        0.8210    -1.3900     0.1630 N.am  1 <1>  -0.8490 
  5 C       -1.8830    -1.6630     0.6310 C.ar  1 <1>  -0.0090 
  6 C        0.6650    -0.3100    -0.8260 C.3   1 <1>   0.1960 
  7 C        2.2030    -1.3890     0.6640 C.3   1 <1>   0.1960 
  8 C       -2.2330    -2.9430     0.1930 C.ar  1 <1>  -0.1440 
  9 C       -2.7910    -0.6340     0.4090 C.ar  1 <1>  -0.1500 
 10 C        1.7060    -0.4400    -1.9530 C.3   1 <1>   0.1200 
 11 C        3.2140    -1.4850    -0.4950 C.3   1 <1>   0.1200 
 12 C       -3.4530    -3.1550    -0.4310 C.ar  1 <1>  -0.1500 
 13 C       -1.3040    -4.1380     0.3760 C.3   1 <1>  -0.0960 
 14 C       -4.0200    -0.8200    -0.2180 C.ar  1 <1>   0.0860 
 15 O        3.0020    -0.4590    -1.4240 O.3   1 <1>  -0.5600 
 16 C       -4.3310    -2.1110    -0.6350 C.ar  1 <1>  -0.1500 
 17 C       -4.9230     0.2960    -0.4300 C.2   1 <1>   0.5440 
 18 O       -4.4890     1.4110    -0.6400 O.2   1 <1>  -0.5700 
 19 N       -6.2730     0.1190    -0.3840 N.am  1 <1>  -0.7300 
 20 C       -7.2610     1.1870    -0.5700 C.3   1 <1>   0.2780 
 21 C       -8.5400     0.5330    -1.0470 C.2   1 <1>  -0.2880 
 22 C       -9.6890     0.4900    -0.3650 C.2   1 <1>  -0.3000 
 23 H        0.7860     0.6520    -0.3550 H     1 <1>   0.0800 
 24 H       -0.3200    -0.3490    -1.2570 H     1 <1>   0.0800 
 25 H        2.3500    -2.2280     1.3220 H     1 <1>   0.0800 
 26 H        2.3930    -0.4880     1.2250 H     1 <1>   0.0800 
 27 H       -2.5420     0.3640     0.7330 H     1 <1>   0.1500 
 28 H        1.6360     0.3980    -2.6230 H     1 <1>   0.0800 
 29 H        1.5470    -1.3470    -2.5100 H     1 <1>   0.0800 
 30 H        3.1190    -2.4310    -0.9980 H     1 <1>   0.0800 
 31 H        4.2180    -1.3880    -0.1220 H     1 <1>   0.0800 
 32 H       -3.7250    -4.1410    -0.7670 H     1 <1>   0.1500 
 33 H       -1.2260    -4.3900     1.4190 H     1 <1>   0.0800 
 34 H       -0.3220    -3.9170    -0.0030 H     1 <1>   0.0800 
 35 H       -1.6720    -5.0010    -0.1490 H     1 <1>   0.0800 
 36 H       -5.2660    -2.2980    -1.1330 H     1 <1>   0.1500 
 37 H       -6.6690    -0.7690    -0.0770 H     1 <1>   0.3700 
 38 H       -6.9080     1.9010    -1.2960 H     1 <1>   0.0800 
 39 H       -7.4190     1.6940     0.3670 H     1 <1>   0.0800 
 40 H       -8.4280     0.0940    -2.0240 H     1 <1>   0.1500 
 41 H      -10.5860     0.0180    -0.7300 H     1 <1>   0.1500 
 42 H       -9.8330     0.9200     0.6110 H     1 <1>   0.1500 
@<TRIPOS>BOND
  1   1   2  2   
  2   1   3  2   
  3   1   4  am  
  4   1   5  1   
  5   4   6  1   
  6   4   7  1   
  7   5   8  ar  
  8   5   9  ar  
  9   6  10  1   
 10   6  23  1   
 11   6  24  1   
 12   7  11  1   
 13   7  25  1   
 14   7  26  1   
 15   8  12  ar  
 16   8  13  1   
 17   9  14  ar  
 18   9  27  1   
 19  10  15  1   
 20  10  28  1   
 21  10  29  1   
 22  11  15  1   
 23  11  30  1   
 24  11  31  1   
 25  12  16  ar  
 26  12  32  1   
 27  13  33  1   
 28  13  34  1   
 29  13  35  1   
 30  14  16  ar  
 31  14  17  1   
 32  16  36  1   
 33  17  18  2   
 34  17  19  am  
 35  19  20  1   
 36  19  37  1   
 37  20  21  1   
 38  20  38  1   
 39  20  39  1   
 40  21  22  2   
 41  21  40  1   
 42  22  41  1   
 43  22  42  1   
@<TRIPOS>SUBSTRUCTURE
  1 ****   9 GROUP 4 **** **** 0

# MOE 2024.06 (io_trps.svl 2023.06)
