@<TRIPOS>MOLECULE
NONAME
27 27 1 0 0 
SMALL
USER_CHARGES


@<TRIPOS>ATOM
  1 O        0.2450     0.5200    -0.2560 O.3   1 <1>  -0.3630 
  2 C        1.2500     1.3700    -0.0040 C.ar  1 <1>   0.7020 
  3 C       -1.1120     0.9230    -0.2340 C.3   1 <1>   0.0400 
  4 N        2.4420     0.8500    -0.0730 N.ar  1 <1>  -0.6200 
  5 N        0.9590     2.6100     0.2830 N.ar  1 <1>  -0.6200 
  6 C        3.3950     1.7090     0.1820 C.ar  1 <1>   0.7030 
  7 C        2.0010     3.3730     0.5060 C.ar  1 <1>   0.8190 
  8 O        4.6660     1.2850     0.1440 O.3   1 <1>  -0.3630 
  9 N        3.2460     2.9670     0.4790 N.ar  1 <1>  -0.6200 
 10 N        1.7740     4.6860     0.8120 N.pl3 1 <1>  -0.6810 
 11 C        5.0090    -0.0520    -0.1690 C.3   1 <1>   0.0400 
 12 C        0.4900     5.1990     1.0330 C.1   1 <1>   0.6830 
 13 C        2.8170     5.6980     0.6770 C.3   1 <1>   0.4760 
 14 N       -0.5380     5.6360     1.2540 N.1   1 <1>  -0.5570 
 15 O        2.6610     6.2500    -0.5840 O.3   1 <1>  -0.5600 
 16 C        3.6270     7.1950    -0.9100 C.3   1 <1>   0.0400 
 17 H       -1.7220     0.0700    -0.4700 H     1 <1>   0.0800 
 18 H       -1.2580     1.6970    -0.9690 H     1 <1>   0.0800 
 19 H       -1.3530     1.2890     0.7490 H     1 <1>   0.0800 
 20 H        6.0800    -0.1420    -0.1370 H     1 <1>   0.0800 
 21 H        4.6490    -0.2830    -1.1560 H     1 <1>   0.0800 
 22 H        4.5620    -0.7070     0.5580 H     1 <1>   0.0800 
 23 H        3.8060     5.2770     0.7570 H     1 <1>   0.0800 
 24 H        2.6940     6.4740     1.4150 H     1 <1>   0.0800 
 25 H        3.4130     7.5610    -1.8990 H     1 <1>   0.0800 
 26 H        4.5980     6.7300    -0.9000 H     1 <1>   0.0800 
 27 H        3.5850     8.0080    -0.2070 H     1 <1>   0.0800 
@<TRIPOS>BOND
  1   1   2  1   
  2   1   3  1   
  3   2   4  ar  
  4   2   5  ar  
  5   3  17  1   
  6   3  18  1   
  7   3  19  1   
  8   4   6  ar  
  9   5   7  ar  
 10   6   8  1   
 11   6   9  ar  
 12   7   9  ar  
 13   7  10  1   
 14   8  11  1   
 15  10  12  1   
 16  10  13  1   
 17  11  20  1   
 18  11  21  1   
 19  11  22  1   
 20  12  14  3   
 21  13  15  1   
 22  13  23  1   
 23  13  24  1   
 24  15  16  1   
 25  16  25  1   
 26  16  26  1   
 27  16  27  1   
@<TRIPOS>SUBSTRUCTURE
  1 ****   7 GROUP 4 **** **** 0

# MOE 2024.06 (io_trps.svl 2023.06)
