@<TRIPOS>MOLECULE
NONAME
45 45 1 0 0 
SMALL
USER_CHARGES


@<TRIPOS>ATOM
  1 S        0.0520    -0.2510    -0.5720 S.o2  1 <1>   1.3330 
  2 O        0.1520    -0.2150    -2.0140 O.2   1 <1>  -0.6500 
  3 O        0.4290    -1.4520     0.1400 O.2   1 <1>  -0.6500 
  4 N       -1.5490     0.1300    -0.1640 N.am  1 <1>  -0.8490 
  5 C        0.9720     1.1240     0.1290 C.3   1 <1>  -0.0550 
  6 C       -2.3650    -1.0720     0.0350 C.3   1 <1>   0.1960 
  7 C       -2.1670     1.0480    -1.1280 C.3   1 <1>   0.1960 
  8 C        2.4900     1.0330    -0.0950 C.3   1 <1>  -0.1600 
  9 C       -3.7570    -0.6970     0.5520 C.3   1 <1>  -0.1600 
 10 C       -3.5410     1.5000    -0.6310 C.3   1 <1>  -0.1600 
 11 C        3.2180     2.2320     0.5220 C.3   1 <1>  -0.2400 
 12 C       -4.4630     0.2930    -0.3870 C.3   1 <1>  -0.0190 
 13 C       -5.8230     0.7120     0.1670 C.2   1 <1>   0.5690 
 14 O       -5.8680     1.4290     1.1370 O.2   1 <1>  -0.5700 
 15 N       -6.9390     0.2460    -0.4610 N.am  1 <1>  -0.7300 
 16 C       -8.3520     0.4910    -0.1020 C.3   1 <1>   0.2200 
 17 C       -8.6680     1.9930    -0.1790 C.3   1 <1>  -0.1600 
 18 C       -8.6400    -0.1240     1.2680 C.3   1 <1>  -0.2400 
 19 C      -10.1710     2.2980    -0.0980 C.3   1 <1>  -0.2400 
 20 H        0.7790     1.1620     1.1840 H     1 <1>   0.0800 
 21 H        0.6140     2.0390    -0.3000 H     1 <1>   0.0800 
 22 H       -1.8980    -1.7150     0.7630 H     1 <1>   0.0800 
 23 H       -2.4420    -1.6170    -0.8920 H     1 <1>   0.0800 
 24 H       -2.2660     0.5620    -2.0850 H     1 <1>   0.0800 
 25 H       -1.5400     1.9150    -1.2580 H     1 <1>   0.0800 
 26 H        2.6930     0.9950    -1.1530 H     1 <1>   0.0800 
 27 H        2.8610     0.1220     0.3450 H     1 <1>   0.0800 
 28 H       -3.6550    -0.2590     1.5310 H     1 <1>   0.0800 
 29 H       -4.3510    -1.5880     0.6550 H     1 <1>   0.0800 
 30 H       -3.9880     2.1560    -1.3560 H     1 <1>   0.0800 
 31 H       -3.4150     2.0570     0.2820 H     1 <1>   0.0800 
 32 H        2.8780     3.1510     0.0780 H     1 <1>   0.0800 
 33 H        4.2770     2.1430     0.3540 H     1 <1>   0.0800 
 34 H        3.0450     2.2730     1.5830 H     1 <1>   0.0800 
 35 H       -4.6200    -0.1970    -1.3310 H     1 <1>   0.0800 
 36 H       -6.8220    -0.3650    -1.2670 H     1 <1>   0.3700 
 37 H       -8.9620    -0.0160    -0.8310 H     1 <1>   0.0800 
 38 H       -8.2950     2.3770    -1.1130 H     1 <1>   0.0800 
 39 H       -8.1650     2.5120     0.6180 H     1 <1>   0.0800 
 40 H       -8.1150     0.4090     2.0400 H     1 <1>   0.0800 
 41 H       -8.3370    -1.1550     1.2840 H     1 <1>   0.0800 
 42 H       -9.6910    -0.0800     1.4830 H     1 <1>   0.0800 
 43 H      -10.7070     1.7770    -0.8720 H     1 <1>   0.0800 
 44 H      -10.3340     3.3540    -0.2240 H     1 <1>   0.0800 
 45 H      -10.5690     2.0110     0.8580 H     1 <1>   0.0800 
@<TRIPOS>BOND
  1   1   2  2   
  2   1   3  2   
  3   1   4  am  
  4   1   5  1   
  5   4   6  1   
  6   4   7  1   
  7   5   8  1   
  8   5  20  1   
  9   5  21  1   
 10   6   9  1   
 11   6  22  1   
 12   6  23  1   
 13   7  10  1   
 14   7  24  1   
 15   7  25  1   
 16   8  11  1   
 17   8  26  1   
 18   8  27  1   
 19   9  12  1   
 20   9  28  1   
 21   9  29  1   
 22  10  12  1   
 23  10  30  1   
 24  10  31  1   
 25  11  32  1   
 26  11  33  1   
 27  11  34  1   
 28  12  13  1   
 29  12  35  1   
 30  13  14  2   
 31  13  15  am  
 32  15  16  1   
 33  15  36  1   
 34  16  17  1   
 35  16  18  1   
 36  16  37  1   
 37  17  19  1   
 38  17  38  1   
 39  17  39  1   
 40  18  40  1   
 41  18  41  1   
 42  18  42  1   
 43  19  43  1   
 44  19  44  1   
 45  19  45  1   
@<TRIPOS>SUBSTRUCTURE
  1 ****  10 GROUP 4 **** **** 0

# MOE 2024.06 (io_trps.svl 2023.06)
