@<TRIPOS>MOLECULE
NONAME
46 48 1 0 0 
SMALL
USER_CHARGES


@<TRIPOS>ATOM
  1 O       -0.5380     1.1450    -0.7920 O.3   1 <1>  -0.3630 
  2 C        0.7150     1.6150    -0.5670 C.ar  1 <1>   0.0830 
  3 C       -1.4750     1.1790     0.2730 C.3   1 <1>   0.1200 
  4 C        1.5730     1.0660     0.3920 C.ar  1 <1>   0.0830 
  5 C        1.1380     2.6910    -1.3300 C.ar  1 <1>  -0.1500 
  6 C       -2.2060     2.5300     0.3000 C.3   1 <1>   0.2000 
  7 O        1.2400    -0.0250     1.1240 O.3   1 <1>  -0.3630 
  8 C        2.8140     1.6390     0.6120 C.ar  1 <1>  -0.1500 
  9 C        2.3860     3.2510    -1.1140 C.ar  1 <1>  -0.1500 
 10 O       -1.3000     3.5390     0.5950 O.3   1 <1>  -0.6800 
 11 C       -3.3210     2.5510     1.3510 C.3   1 <1>   0.0960 
 12 C        1.2250    -1.2490     0.4250 C.3   1 <1>   0.0400 
 13 C        3.2210     2.7300    -0.1380 C.ar  1 <1>  -0.1500 
 14 N       -4.1870     3.7360     1.1850 N.pl3 1 <1>   0.0480 
 15 C       -5.4290     3.7670     0.6320 C.ar  1 <1>  -0.1520 
 16 C       -3.9350     5.0110     1.5780 C.2   1 <1>   0.0360 
 17 C       -5.8470     5.0790     0.7400 C.ar  1 <1>   0.2270 
 18 C       -6.2500     2.8020     0.0420 C.ar  1 <1>  -0.1500 
 19 N       -4.8910     5.8410     1.3400 N.2   1 <1>  -0.5650 
 20 C       -7.0990     5.4500     0.2600 C.ar  1 <1>  -0.1500 
 21 C       -7.4910     3.1710    -0.4340 C.ar  1 <1>  -0.1430 
 22 C       -7.9210     4.5070    -0.3250 C.ar  1 <1>  -0.1430 
 23 C       -8.3820     2.1170    -1.0750 C.3   1 <1>  -0.0970 
 24 C       -9.2860     4.9380    -0.8430 C.3   1 <1>  -0.0970 
 25 H       -0.9810     0.9940     1.2100 H     1 <1>   0.0800 
 26 H       -2.1790     0.3860     0.0930 H     1 <1>   0.0800 
 27 H        0.4900     3.0910    -2.0900 H     1 <1>   0.1500 
 28 H       -2.6250     2.7220    -0.6740 H     1 <1>   0.0800 
 29 H        3.4600     1.2260     1.3660 H     1 <1>   0.1500 
 30 H        2.7090     4.0920    -1.7040 H     1 <1>   0.1500 
 31 H       -0.4850     3.4080     0.0640 H     1 <1>   0.4000 
 32 H       -2.8960     2.5590     2.3380 H     1 <1>   0.0800 
 33 H       -3.9310     1.6740     1.2520 H     1 <1>   0.0800 
 34 H        2.1970    -1.4150    -0.0050 H     1 <1>   0.0800 
 35 H        0.4770    -1.2080    -0.3480 H     1 <1>   0.0800 
 36 H        0.9920    -2.0330     1.1220 H     1 <1>   0.0800 
 37 H        4.1880     3.1700     0.0340 H     1 <1>   0.1500 
 38 H       -3.0010     5.2760     2.0420 H     1 <1>   0.1500 
 39 H       -5.9070     1.7870    -0.0350 H     1 <1>   0.1500 
 40 H       -7.3880     6.4780     0.3620 H     1 <1>   0.1500 
 41 H       -7.9030     1.1550    -1.0780 H     1 <1>   0.0800 
 42 H       -8.5990     2.3880    -2.0930 H     1 <1>   0.0800 
 43 H       -9.3040     2.0330    -0.5290 H     1 <1>   0.0800 
 44 H       -9.4440     5.9890    -0.6760 H     1 <1>   0.0800 
 45 H      -10.0620     4.3960    -0.3350 H     1 <1>   0.0800 
 46 H       -9.3550     4.7510    -1.8990 H     1 <1>   0.0800 
@<TRIPOS>BOND
  1   1   2  1   
  2   1   3  1   
  3   2   4  ar  
  4   2   5  ar  
  5   3   6  1   
  6   3  25  1   
  7   3  26  1   
  8   4   7  1   
  9   4   8  ar  
 10   5   9  ar  
 11   5  27  1   
 12   6  10  1   
 13   6  11  1   
 14   6  28  1   
 15   7  12  1   
 16   8  13  ar  
 17   8  29  1   
 18   9  13  ar  
 19   9  30  1   
 20  10  31  1   
 21  11  14  1   
 22  11  32  1   
 23  11  33  1   
 24  12  34  1   
 25  12  35  1   
 26  12  36  1   
 27  13  37  1   
 28  14  15  1   
 29  14  16  1   
 30  15  17  ar  
 31  15  18  ar  
 32  16  19  2   
 33  16  38  1   
 34  17  19  1   
 35  17  20  ar  
 36  18  21  ar  
 37  18  39  1   
 38  20  22  ar  
 39  20  40  1   
 40  21  22  ar  
 41  21  23  1   
 42  22  24  1   
 43  23  41  1   
 44  23  42  1   
 45  23  43  1   
 46  24  44  1   
 47  24  45  1   
 48  24  46  1   
@<TRIPOS>SUBSTRUCTURE
  1 ****   6 GROUP 4 **** **** 0

# MOE 2024.06 (io_trps.svl 2023.06)
