@<TRIPOS>MOLECULE
NONAME
42 43 1 0 0 
SMALL
USER_CHARGES


@<TRIPOS>ATOM
  1 O        0.1370     1.7460     2.2980 O.2   1 <1>  -0.5700 
  2 C       -0.0190     2.1030     1.1570 C.2   1 <1>   0.5690 
  3 N        0.9390     2.0090     0.1870 N.am  1 <1>  -0.5470 
  4 C       -1.3540     2.7140     0.7730 C.3   1 <1>  -0.0990 
  5 C        2.2420     1.4850     0.2190 C.ar  1 <1>   0.1170 
  6 C       -2.4270     1.6610     0.4360 C.3   1 <1>  -0.0800 
  7 C        2.6800     0.5850     1.1850 C.ar  1 <1>  -0.1500 
  8 C        3.1380     1.8660    -0.7720 C.ar  1 <1>  -0.1500 
  9 C       -2.0360     0.8030    -0.7840 C.3   1 <1>  -0.1600 
 10 C       -3.7820     2.3510     0.1950 C.3   1 <1>  -0.1600 
 11 C        3.9710     0.0900     1.1610 C.ar  1 <1>  -0.1500 
 12 C        4.4290     1.3700    -0.7960 C.ar  1 <1>  -0.1500 
 13 C       -3.1370    -0.2050    -1.1410 C.3   1 <1>  -0.1600 
 14 C       -4.8790     1.3380    -0.1590 C.3   1 <1>  -0.1600 
 15 C        4.8660     0.4710     0.1700 C.ar  1 <1>   0.1170 
 16 C       -4.4810     0.4940    -1.3750 C.3   1 <1>  -0.1600 
 17 N        6.1690    -0.0550     0.1990 N.am  1 <1>  -0.5470 
 18 C        7.1110    -0.1680    -0.7830 C.2   1 <1>   0.5690 
 19 O        6.9490     0.1760    -1.9260 O.2   1 <1>  -0.5700 
 20 C        8.4360    -0.7770    -0.3980 C.3   1 <1>  -0.1790 
 21 H        0.6680     2.3930    -0.7150 H     1 <1>   0.3700 
 22 H       -1.2200     3.3820    -0.0580 H     1 <1>   0.0800 
 23 H       -1.6900     3.3020     1.6080 H     1 <1>   0.0800 
 24 H       -2.5300     1.0080     1.2880 H     1 <1>   0.0800 
 25 H        2.0110     0.2630     1.9620 H     1 <1>   0.1500 
 26 H        2.8310     2.5600    -1.5330 H     1 <1>   0.1500 
 27 H       -1.1320     0.2570    -0.5780 H     1 <1>   0.0800 
 28 H       -1.8570     1.4400    -1.6330 H     1 <1>   0.0800 
 29 H       -3.6890     3.0610    -0.6090 H     1 <1>   0.0800 
 30 H       -4.0770     2.8900     1.0790 H     1 <1>   0.0800 
 31 H        4.2770    -0.6040     1.9220 H     1 <1>   0.1500 
 32 H        5.0980     1.6920    -1.5730 H     1 <1>   0.1500 
 33 H       -3.2410    -0.9150    -0.3380 H     1 <1>   0.0800 
 34 H       -2.8550    -0.7500    -2.0260 H     1 <1>   0.0800 
 35 H       -5.7980     1.8590    -0.3660 H     1 <1>   0.0800 
 36 H       -5.0510     0.6900     0.6840 H     1 <1>   0.0800 
 37 H       -5.2420    -0.2420    -1.5670 H     1 <1>   0.0800 
 38 H       -4.4080     1.1280    -2.2420 H     1 <1>   0.0800 
 39 H        6.4400    -0.4470     1.0970 H     1 <1>   0.3700 
 40 H        8.2910    -1.7930    -0.0810 H     1 <1>   0.0800 
 41 H        8.8840    -0.2090     0.3940 H     1 <1>   0.0800 
 42 H        9.0960    -0.7700    -1.2460 H     1 <1>   0.0800 
@<TRIPOS>BOND
  1   1   2  2   
  2   2   3  am  
  3   2   4  1   
  4   3   5  1   
  5   3  21  1   
  6   4   6  1   
  7   4  22  1   
  8   4  23  1   
  9   5   7  ar  
 10   5   8  ar  
 11   6   9  1   
 12   6  10  1   
 13   6  24  1   
 14   7  11  ar  
 15   7  25  1   
 16   8  12  ar  
 17   8  26  1   
 18   9  13  1   
 19   9  27  1   
 20   9  28  1   
 21  10  14  1   
 22  10  29  1   
 23  10  30  1   
 24  11  15  ar  
 25  11  31  1   
 26  12  15  ar  
 27  12  32  1   
 28  13  16  1   
 29  13  33  1   
 30  13  34  1   
 31  14  16  1   
 32  14  35  1   
 33  14  36  1   
 34  15  17  1   
 35  16  37  1   
 36  16  38  1   
 37  17  18  am  
 38  17  39  1   
 39  18  19  2   
 40  18  20  1   
 41  20  40  1   
 42  20  41  1   
 43  20  42  1   
@<TRIPOS>SUBSTRUCTURE
  1 ****   5 GROUP 4 **** **** 0

# MOE 2024.06 (io_trps.svl 2023.06)
