@<TRIPOS>MOLECULE
NONAME
51 52 1 0 0 
SMALL
USER_CHARGES


@<TRIPOS>ATOM
  1 S       -0.0220     0.1410     1.1680 S.3   1 <1>  -0.0800 
  2 C        0.0970    -1.4220     0.3980 C.2   1 <1>   0.1040 
  3 C        1.6790     0.4770     0.9160 C.2   1 <1>  -0.1400 
  4 N       -1.0310    -2.2200     0.2640 N.am  1 <1>  -0.4940 
  5 C        1.3830    -1.6700    -0.0040 C.2   1 <1>  -0.0860 
  6 C        2.2760    -0.5480     0.2630 C.2   1 <1>  -0.1810 
  7 C        2.1010     1.8280     1.4680 C.3   1 <1>  -0.0600 
  8 C       -2.3280    -2.1010     0.6950 C.2   1 <1>   0.5690 
  9 C        1.7370    -2.9370    -0.6020 C.2   1 <1>   0.8060 
 10 C        3.7340    -0.6090    -0.2190 C.3   1 <1>   0.0210 
 11 O       -2.7330    -1.1910     1.3740 O.2   1 <1>  -0.5700 
 12 C       -3.2970    -3.2060     0.2710 C.3   1 <1>  -0.0190 
 13 O        0.9060    -3.6960    -1.0770 O.2   1 <1>  -0.5700 
 14 O        3.0140    -3.3340    -0.6130 O.3   1 <1>  -0.4300 
 15 C        4.5120     0.7080    -0.2670 C.3   1 <1>  -0.2400 
 16 C       -4.0200    -2.8310    -1.0360 C.3   1 <1>  -0.1600 
 17 C       -4.3310    -3.5380     1.3660 C.3   1 <1>  -0.1600 
 18 C        3.4130    -4.5710    -1.1610 C.3   1 <1>   0.1200 
 19 C       -5.0060    -3.9190    -1.4720 C.3   1 <1>   0.1400 
 20 C       -5.3070    -4.6250     0.9090 C.3   1 <1>   0.1400 
 21 C        4.9290    -4.6770    -1.0250 C.3   1 <1>  -0.2400 
 22 N       -5.9590    -4.2040    -0.3630 N.am  1 <1>  -0.6600 
 23 C       -7.3120    -4.0600    -0.5450 C.2   1 <1>   0.5690 
 24 O       -7.7930    -3.7590    -1.6110 O.2   1 <1>  -0.5700 
 25 C       -8.2720    -4.2770     0.6020 C.3   1 <1>  -0.1790 
 26 H       -0.8480    -3.0640    -0.2890 H     1 <1>   0.3700 
 27 H        1.4730     2.0960     2.2990 H     1 <1>   0.0800 
 28 H        2.0010     2.5810     0.7080 H     1 <1>   0.0800 
 29 H        3.1100     1.8070     1.8260 H     1 <1>   0.0800 
 30 H        3.7300    -0.9880    -1.2260 H     1 <1>   0.0800 
 31 H        4.2780    -1.3080     0.3930 H     1 <1>   0.0800 
 32 H       -2.7220    -4.0970     0.0900 H     1 <1>   0.0800 
 33 H        3.9280     1.4750    -0.7450 H     1 <1>   0.0800 
 34 H        5.4170     0.5700    -0.8310 H     1 <1>   0.0800 
 35 H        4.7900     1.0200     0.7220 H     1 <1>   0.0800 
 36 H       -3.3010    -2.6730    -1.8200 H     1 <1>   0.0800 
 37 H       -4.5600    -1.9090    -0.8990 H     1 <1>   0.0800 
 38 H       -4.8930    -2.6550     1.6190 H     1 <1>   0.0800 
 39 H       -3.8230    -3.8650     2.2560 H     1 <1>   0.0800 
 40 H        3.1170    -4.5990    -2.1970 H     1 <1>   0.0800 
 41 H        2.9200    -5.3610    -0.6200 H     1 <1>   0.0800 
 42 H       -4.4770    -4.8220    -1.7200 H     1 <1>   0.0800 
 43 H       -5.5320    -3.5900    -2.3520 H     1 <1>   0.0800 
 44 H       -6.0320    -4.8010     1.6830 H     1 <1>   0.0800 
 45 H       -4.7760    -5.5450     0.7390 H     1 <1>   0.0800 
 46 H        5.4080    -3.8790    -1.5620 H     1 <1>   0.0800 
 47 H        5.2650    -5.6130    -1.4330 H     1 <1>   0.0800 
 48 H        5.2120    -4.6350     0.0120 H     1 <1>   0.0800 
 49 H       -8.2130    -5.2930     0.9410 H     1 <1>   0.0800 
 50 H       -9.2770    -4.0810     0.2740 H     1 <1>   0.0800 
 51 H       -8.0370    -3.6050     1.4060 H     1 <1>   0.0800 
@<TRIPOS>BOND
  1   1   2  1   
  2   1   3  1   
  3   2   4  1   
  4   2   5  2   
  5   3   6  2   
  6   3   7  1   
  7   4   8  am  
  8   4  26  1   
  9   5   6  1   
 10   5   9  1   
 11   6  10  1   
 12   7  27  1   
 13   7  28  1   
 14   7  29  1   
 15   8  11  2   
 16   8  12  1   
 17   9  13  2   
 18   9  14  1   
 19  10  15  1   
 20  10  30  1   
 21  10  31  1   
 22  12  16  1   
 23  12  17  1   
 24  12  32  1   
 25  14  18  1   
 26  15  33  1   
 27  15  34  1   
 28  15  35  1   
 29  16  19  1   
 30  16  36  1   
 31  16  37  1   
 32  17  20  1   
 33  17  38  1   
 34  17  39  1   
 35  18  21  1   
 36  18  40  1   
 37  18  41  1   
 38  19  22  1   
 39  19  42  1   
 40  19  43  1   
 41  20  22  1   
 42  20  44  1   
 43  20  45  1   
 44  21  46  1   
 45  21  47  1   
 46  21  48  1   
 47  22  23  am  
 48  23  24  2   
 49  23  25  1   
 50  25  49  1   
 51  25  50  1   
 52  25  51  1   
@<TRIPOS>SUBSTRUCTURE
  1 ****   4 GROUP 4 **** **** 0

# MOE 2024.06 (io_trps.svl 2023.06)
