@<TRIPOS>MOLECULE
NONAME
45 47 1 0 0 
SMALL
USER_CHARGES


@<TRIPOS>ATOM
  1 S        0.5800     1.1990     0.8750 S.3   1 <1>  -0.3710 
  2 C       -1.1410     1.3700     0.4670 C.2   1 <1>   0.6410 
  3 C        1.3890     2.8150     0.4320 C.3   1 <1>   0.1310 
  4 N       -1.6000     2.6370     0.2890 N.pl3 1 <1>  -0.5500 
  5 N       -1.8400     0.3050     0.3630 N.2   1 <1>  -0.6610 
  6 C        2.8790     2.8050     0.7520 C.2   1 <1>   0.5690 
  7 C       -2.9090     2.8780    -0.0440 C.2   1 <1>   0.0720 
  8 C       -3.1530     0.4810     0.0400 C.2   1 <1>   0.7670 
  9 O        3.1880     3.4430     1.7300 O.2   1 <1>  -0.5700 
 10 N        3.7890     2.1430    -0.0540 N.am  1 <1>  -0.6600 
 11 C       -3.3480     4.2400    -0.2210 C.ar  1 <1>   0.0280 
 12 C       -3.6900     1.7740    -0.1680 C.2   1 <1>  -0.1360 
 13 O       -3.8640    -0.5060    -0.0710 O.2   1 <1>  -0.5700 
 14 C        5.2790     2.1060     0.1290 C.3   1 <1>   0.2200 
 15 C        3.3720     1.1350    -1.0740 C.3   1 <1>   0.1400 
 16 C       -2.6530     5.1200    -1.0480 C.ar  1 <1>  -0.1500 
 17 C       -4.4820     4.7170     0.4320 C.ar  1 <1>  -0.1500 
 18 C        5.6580     0.7390     0.7130 C.3   1 <1>  -0.1600 
 19 C        5.8860     3.2500     0.9450 C.3   1 <1>  -0.2400 
 20 C        3.7060    -0.2680    -0.5510 C.3   1 <1>  -0.1600 
 21 C       -3.0690     6.4290    -1.2110 C.ar  1 <1>  -0.1500 
 22 C       -4.9030     6.0250     0.2720 C.ar  1 <1>  -0.1500 
 23 C        5.1960    -0.4060    -0.2030 C.3   1 <1>  -0.1600 
 24 C       -4.1960     6.8840    -0.5500 C.ar  1 <1>  -0.1500 
 25 H        0.9090     3.5790     1.0150 H     1 <1>   0.0800 
 26 H        1.2250     2.9930    -0.6140 H     1 <1>   0.0800 
 27 H       -0.9880     3.4210     0.5080 H     1 <1>   0.4000 
 28 H       -4.7280     1.8310    -0.4270 H     1 <1>   0.1500 
 29 H        5.7190     2.1780    -0.8520 H     1 <1>   0.0800 
 30 H        3.9060     1.3170    -1.9900 H     1 <1>   0.0800 
 31 H        2.3230     1.1940    -1.2960 H     1 <1>   0.0800 
 32 H       -1.7830     4.7760    -1.5780 H     1 <1>   0.1500 
 33 H       -5.0380     4.0600     1.0780 H     1 <1>   0.1500 
 34 H        5.2050     0.6380     1.6840 H     1 <1>   0.0800 
 35 H        6.7240     0.6830     0.8390 H     1 <1>   0.0800 
 36 H        5.6400     3.1510     1.9870 H     1 <1>   0.0800 
 37 H        5.5330     4.1970     0.5790 H     1 <1>   0.0800 
 38 H        6.9560     3.2300     0.8570 H     1 <1>   0.0800 
 39 H        3.4380    -1.0000    -1.2930 H     1 <1>   0.0800 
 40 H        3.1120    -0.4620     0.3260 H     1 <1>   0.0800 
 41 H       -2.5210     7.0960    -1.8550 H     1 <1>   0.1500 
 42 H       -5.7810     6.3770     0.7860 H     1 <1>   0.1500 
 43 H        5.3710    -1.3520     0.2800 H     1 <1>   0.0800 
 44 H        5.7740    -0.3860    -1.1110 H     1 <1>   0.0800 
 45 H       -4.5230     7.9020    -0.6760 H     1 <1>   0.1500 
@<TRIPOS>BOND
  1   1   2  1   
  2   1   3  1   
  3   2   4  1   
  4   2   5  2   
  5   3   6  1   
  6   3  25  1   
  7   3  26  1   
  8   4   7  1   
  9   4  27  1   
 10   5   8  1   
 11   6   9  2   
 12   6  10  am  
 13   7  11  1   
 14   7  12  2   
 15   8  12  1   
 16   8  13  2   
 17  10  14  1   
 18  10  15  1   
 19  11  16  ar  
 20  11  17  ar  
 21  12  28  1   
 22  14  18  1   
 23  14  19  1   
 24  14  29  1   
 25  15  20  1   
 26  15  30  1   
 27  15  31  1   
 28  16  21  ar  
 29  16  32  1   
 30  17  22  ar  
 31  17  33  1   
 32  18  23  1   
 33  18  34  1   
 34  18  35  1   
 35  19  36  1   
 36  19  37  1   
 37  19  38  1   
 38  20  23  1   
 39  20  39  1   
 40  20  40  1   
 41  21  24  ar  
 42  21  41  1   
 43  22  24  ar  
 44  22  42  1   
 45  23  43  1   
 46  23  44  1   
 47  24  45  1   
@<TRIPOS>SUBSTRUCTURE
  1 ****   3 GROUP 4 **** **** 0

# MOE 2024.06 (io_trps.svl 2023.06)
