@<TRIPOS>MOLECULE
NONAME
46 47 1 0 0 
SMALL
USER_CHARGES


@<TRIPOS>ATOM
  1 O       -5.8680     0.6970    -2.1780 O.3   1 <1>  -0.5600 
  2 C       -6.6150     1.8720    -2.0430 C.3   1 <1>   0.1200 
  3 C       -4.7100     0.6480    -1.4000 C.3   1 <1>   0.1200 
  4 C       -7.0470     2.0750    -0.5800 C.3   1 <1>   0.3430 
  5 C       -5.0690     0.7600     0.0940 C.3   1 <1>   0.3430 
  6 N       -5.8870     1.9880     0.3840 N.4   1 <1>  -0.9590 
  7 C       -6.3280     2.0070     1.8260 C.3   1 <1>   0.3430 
  8 C       -7.0670     3.2880     2.2550 C.3   1 <1>   0.1200 
  9 O       -8.3180     3.3420     1.6080 O.3   1 <1>  -0.3630 
 10 C       -8.8860     4.5480     1.3470 C.ar  1 <1>   0.0830 
 11 C       -9.5530     4.7250     0.1340 C.ar  1 <1>   0.0830 
 12 C       -8.8220     5.5970     2.2560 C.ar  1 <1>  -0.1500 
 13 O       -9.6170     3.7030    -0.7600 O.3   1 <1>  -0.3630 
 14 C      -10.1230     5.9520    -0.1720 C.ar  1 <1>  -0.1500 
 15 C       -9.4020     6.8170     1.9470 C.ar  1 <1>  -0.1500 
 16 C      -10.8900     3.1700    -1.0610 C.3   1 <1>   0.2000 
 17 C      -10.0480     6.9950     0.7350 C.ar  1 <1>  -0.1500 
 18 C      -11.2890     2.2040     0.0680 C.3   1 <1>  -0.1600 
 19 C      -10.7670     2.4850    -2.4220 C.3   1 <1>  -0.2400 
 20 C      -12.6880     1.5990    -0.1170 C.3   1 <1>  -0.2400 
 21 H       -7.4830     1.7860    -2.6730 H     1 <1>   0.0800 
 22 H       -6.0240     2.7020    -2.3900 H     1 <1>   0.0800 
 23 H       -4.0510     1.4430    -1.7050 H     1 <1>   0.0800 
 24 H       -4.2260    -0.2930    -1.5960 H     1 <1>   0.0800 
 25 H       -7.7920     1.3370    -0.3320 H     1 <1>   0.0800 
 26 H       -7.5090     3.0430    -0.4990 H     1 <1>   0.0800 
 27 H       -4.1630     0.7740     0.6760 H     1 <1>   0.0800 
 28 H       -5.6270    -0.1210     0.3700 H     1 <1>   0.0800 
 29 H       -5.3010     2.8120     0.2050 H     1 <1>   0.4500 
 30 H       -5.4590     1.9020     2.4540 H     1 <1>   0.0800 
 31 H       -6.9700     1.1630     2.0220 H     1 <1>   0.0800 
 32 H       -6.4920     4.1610     1.9970 H     1 <1>   0.0800 
 33 H       -7.2490     3.2790     3.3150 H     1 <1>   0.0800 
 34 H       -8.3380     5.4760     3.2070 H     1 <1>   0.1500 
 35 H      -10.6180     6.0960    -1.1150 H     1 <1>   0.1500 
 36 H       -9.3540     7.6300     2.6510 H     1 <1>   0.1500 
 37 H      -11.5980     3.9790    -1.1260 H     1 <1>   0.0800 
 38 H      -10.4930     7.9460     0.4990 H     1 <1>   0.1500 
 39 H      -11.2820     2.7400     1.0010 H     1 <1>   0.0800 
 40 H      -10.5680     1.4090     0.1330 H     1 <1>   0.0800 
 41 H      -10.1090     1.6370    -2.3630 H     1 <1>   0.0800 
 42 H      -10.3920     3.1820    -3.1500 H     1 <1>   0.0800 
 43 H      -11.7310     2.1470    -2.7560 H     1 <1>   0.0800 
 44 H      -13.4240     2.3770    -0.2220 H     1 <1>   0.0800 
 45 H      -12.9450     1.0050     0.7430 H     1 <1>   0.0800 
 46 H      -12.7250     0.9640    -0.9840 H     1 <1>   0.0800 
@<TRIPOS>BOND
  1   1   2  1   
  2   1   3  1   
  3   2   4  1   
  4   2  21  1   
  5   2  22  1   
  6   3   5  1   
  7   3  23  1   
  8   3  24  1   
  9   4   6  1   
 10   4  25  1   
 11   4  26  1   
 12   5   6  1   
 13   5  27  1   
 14   5  28  1   
 15   6   7  1   
 16   6  29  1   
 17   7   8  1   
 18   7  30  1   
 19   7  31  1   
 20   8   9  1   
 21   8  32  1   
 22   8  33  1   
 23   9  10  1   
 24  10  11  ar  
 25  10  12  ar  
 26  11  13  1   
 27  11  14  ar  
 28  12  15  ar  
 29  12  34  1   
 30  13  16  1   
 31  14  17  ar  
 32  14  35  1   
 33  15  17  ar  
 34  15  36  1   
 35  16  18  1   
 36  16  19  1   
 37  16  37  1   
 38  17  38  1   
 39  18  20  1   
 40  18  39  1   
 41  18  40  1   
 42  19  41  1   
 43  19  42  1   
 44  19  43  1   
 45  20  44  1   
 46  20  45  1   
 47  20  46  1   
@<TRIPOS>SUBSTRUCTURE
  1 ****   9 GROUP 4 **** **** 0

# MOE 2024.06 (io_trps.svl 2023.06)
