@<TRIPOS>MOLECULE
NONAME
48 50 1 0 0 
SMALL
USER_CHARGES


@<TRIPOS>ATOM
  1 O       -9.4010     3.4760     0.0460 O.3   1 <1>  -0.2800 
  2 C      -10.1790     4.4230    -0.4640 C.2   1 <1>   0.0870 
  3 C       -8.1440     3.7560    -0.2190 C.2   1 <1>  -0.0400 
  4 C      -11.6170     4.3560    -0.3100 C.ar  1 <1>   0.0530 
  5 C       -9.3850     5.3400    -1.0780 C.2   1 <1>  -0.1500 
  6 C       -8.0660     4.9100    -0.9210 C.2   1 <1>  -0.1500 
  7 C       -7.0990     2.7820     0.2880 C.3   1 <1>   0.5230 
  8 C      -12.4490     5.3490    -0.8250 C.ar  1 <1>  -0.1500 
  9 C      -12.2320     3.2980     0.3580 C.ar  1 <1>  -0.1500 
 10 N       -5.7450     3.2640    -0.0760 N.4   1 <1>  -0.9060 
 11 C      -13.8220     5.2900    -0.6790 C.ar  1 <1>  -0.1500 
 12 C      -13.6050     3.2330     0.5070 C.ar  1 <1>  -0.1500 
 13 C       -4.6480     2.4060     0.4020 C.3   1 <1>   0.4230 
 14 C      -14.4180     4.2300    -0.0100 C.ar  1 <1>  -0.1430 
 15 C       -3.3330     3.1740     0.2300 C.3   1 <1>  -0.1600 
 16 C       -4.6240     1.0880    -0.3860 C.3   1 <1>  -0.1600 
 17 C      -15.9300     4.1500     0.1610 C.3   1 <1>   0.3440 
 18 C       -2.1300     2.3140     0.6420 C.3   1 <1>  -0.1600 
 19 C       -3.4210     0.2230     0.0190 C.3   1 <1>  -0.1600 
 20 O      -16.5120     4.3100    -1.0760 O.3   1 <1>  -0.6800 
 21 C      -16.4760     5.2390     1.0760 C.3   1 <1>  -0.2400 
 22 C       -2.1040     0.9920    -0.1350 C.3   1 <1>  -0.1600 
 23 H       -9.6870     6.2350    -1.5940 H     1 <1>   0.1500 
 24 H       -7.2140     5.4430    -1.3080 H     1 <1>   0.1500 
 25 H       -7.2840     1.8140    -0.1480 H     1 <1>   0.0800 
 26 H       -7.1890     2.6970     1.3590 H     1 <1>   0.0800 
 27 H      -12.0220     6.1850    -1.3480 H     1 <1>   0.1500 
 28 H      -11.6270     2.5110     0.7710 H     1 <1>   0.1500 
 29 H       -5.6340     4.2060     0.3120 H     1 <1>   0.4500 
 30 H       -5.6920     3.3480    -1.0960 H     1 <1>   0.4500 
 31 H      -14.4370     6.0750    -1.0880 H     1 <1>   0.1500 
 32 H      -14.0390     2.4000     1.0320 H     1 <1>   0.1500 
 33 H       -4.7810     2.1870     1.4510 H     1 <1>   0.0800 
 34 H       -3.3420     4.0610     0.8390 H     1 <1>   0.0800 
 35 H       -3.2060     3.4640    -0.7990 H     1 <1>   0.0800 
 36 H       -4.5540     1.2910    -1.4410 H     1 <1>   0.0800 
 37 H       -5.5180     0.5200    -0.2040 H     1 <1>   0.0800 
 38 H      -16.2150     3.1790     0.5300 H     1 <1>   0.0800 
 39 H       -2.1740     2.1050     1.6980 H     1 <1>   0.0800 
 40 H       -1.2170     2.8550     0.4570 H     1 <1>   0.0800 
 41 H       -3.3890    -0.6640    -0.5920 H     1 <1>   0.0800 
 42 H       -3.5280    -0.0940     1.0440 H     1 <1>   0.0800 
 43 H      -15.9630     3.8420    -1.7320 H     1 <1>   0.4000 
 44 H      -16.2440     6.2120     0.6840 H     1 <1>   0.0800 
 45 H      -16.0310     5.1480     2.0500 H     1 <1>   0.0800 
 46 H      -17.5420     5.1370     1.1740 H     1 <1>   0.0800 
 47 H       -1.2890     0.3830     0.2200 H     1 <1>   0.0800 
 48 H       -1.9240     1.1920    -1.1790 H     1 <1>   0.0800 
@<TRIPOS>BOND
  1   1   2  1   
  2   1   3  1   
  3   2   4  1   
  4   2   5  2   
  5   3   6  2   
  6   3   7  1   
  7   4   8  ar  
  8   4   9  ar  
  9   5   6  1   
 10   5  23  1   
 11   6  24  1   
 12   7  10  1   
 13   7  25  1   
 14   7  26  1   
 15   8  11  ar  
 16   8  27  1   
 17   9  12  ar  
 18   9  28  1   
 19  10  13  1   
 20  10  29  1   
 21  10  30  1   
 22  11  14  ar  
 23  11  31  1   
 24  12  14  ar  
 25  12  32  1   
 26  13  15  1   
 27  13  16  1   
 28  13  33  1   
 29  14  17  1   
 30  15  18  1   
 31  15  34  1   
 32  15  35  1   
 33  16  19  1   
 34  16  36  1   
 35  16  37  1   
 36  17  20  1   
 37  17  21  1   
 38  17  38  1   
 39  18  22  1   
 40  18  39  1   
 41  18  40  1   
 42  19  22  1   
 43  19  41  1   
 44  19  42  1   
 45  20  43  1   
 46  21  44  1   
 47  21  45  1   
 48  21  46  1   
 49  22  47  1   
 50  22  48  1   
@<TRIPOS>SUBSTRUCTURE
  1 ****   1 GROUP 4 **** **** 0

# MOE 2024.06 (io_trps.svl 2023.06)
