@<TRIPOS>MOLECULE
NONAME
44 45 1 0 0 
SMALL
USER_CHARGES


@<TRIPOS>ATOM
  1 O        0.3100     0.7950    -0.5530 O.2   1 <1>  -0.5700 
  2 C        1.4200     1.2540    -0.6930 C.2   1 <1>   0.6900 
  3 N        2.4650     0.7460     0.0040 N.am  1 <1>  -0.5390 
  4 N        1.6400     2.2850    -1.5220 N.am  1 <1>  -0.7300 
  5 C        3.7600     1.2250    -0.0630 C.2   1 <1>  -0.0290 
  6 C        2.9110     3.0340    -1.5630 C.3   1 <1>   0.5020 
  7 C        4.0510     2.3140    -0.8330 C.2   1 <1>  -0.1240 
  8 C        4.7520     0.4060     0.7590 C.3   1 <1>  -0.0220 
  9 C        2.6570     4.4110    -0.9540 C.ar  1 <1>  -0.1430 
 10 C        5.3200     2.9260    -1.1000 C.2   1 <1>   0.7060 
 11 C        5.4700    -0.6240    -0.1230 C.3   1 <1>  -0.1600 
 12 C        2.9440     5.5590    -1.6790 C.ar  1 <1>  -0.1500 
 13 C        2.1440     4.5420     0.3300 C.ar  1 <1>  -0.1500 
 14 O        5.5110     3.6700    -2.0450 O.2   1 <1>  -0.5700 
 15 O        6.3560     2.6600    -0.3010 O.3   1 <1>  -0.4300 
 16 C        6.4720    -1.4530     0.6870 C.3   1 <1>  -0.2400 
 17 C        2.7150     6.8110    -1.1350 C.ar  1 <1>  -0.1500 
 18 C        1.9150     5.7930     0.8730 C.ar  1 <1>  -0.1500 
 19 C        7.6310     3.2200    -0.5180 C.3   1 <1>   0.1200 
 20 C        2.1970     6.9350     0.1430 C.ar  1 <1>  -0.1430 
 21 C        8.5740     2.6620     0.5420 C.3   1 <1>  -0.2400 
 22 C        1.9490     8.3090     0.7400 C.3   1 <1>  -0.0970 
 23 H        2.2190    -0.0610     0.5760 H     1 <1>   0.3700 
 24 H        0.8200     2.7800    -1.8630 H     1 <1>   0.3700 
 25 H        3.1770     3.1450    -2.6010 H     1 <1>   0.0800 
 26 H        4.2310    -0.1050     1.5500 H     1 <1>   0.0800 
 27 H        5.4680     1.0460     1.2380 H     1 <1>   0.0800 
 28 H        5.9930    -0.1140    -0.9140 H     1 <1>   0.0800 
 29 H        4.7440    -1.2780    -0.5740 H     1 <1>   0.0800 
 30 H        3.3550     5.4870    -2.6710 H     1 <1>   0.1500 
 31 H        1.9180     3.6660     0.9140 H     1 <1>   0.1500 
 32 H        7.2200    -0.8160     1.1260 H     1 <1>   0.0800 
 33 H        6.9630    -2.1640     0.0460 H     1 <1>   0.0800 
 34 H        5.9700    -1.9920     1.4720 H     1 <1>   0.0800 
 35 H        2.9460     7.6890    -1.7110 H     1 <1>   0.1500 
 36 H        1.5170     5.8730     1.8690 H     1 <1>   0.1500 
 37 H        7.5500     4.2910    -0.4420 H     1 <1>   0.0800 
 38 H        7.9600     2.9500    -1.5080 H     1 <1>   0.0800 
 39 H        8.2270     2.9300     1.5240 H     1 <1>   0.0800 
 40 H        9.5580     3.0710     0.4030 H     1 <1>   0.0800 
 41 H        8.6330     1.5910     0.4590 H     1 <1>   0.0800 
 42 H        2.8340     8.6500     1.2450 H     1 <1>   0.0800 
 43 H        1.1380     8.2720     1.4450 H     1 <1>   0.0800 
 44 H        1.6940     9.0120    -0.0320 H     1 <1>   0.0800 
@<TRIPOS>BOND
  1   1   2  2   
  2   2   3  am  
  3   2   4  am  
  4   3   5  1   
  5   3  23  1   
  6   4   6  1   
  7   4  24  1   
  8   5   7  2   
  9   5   8  1   
 10   6   7  1   
 11   6   9  1   
 12   6  25  1   
 13   7  10  1   
 14   8  11  1   
 15   8  26  1   
 16   8  27  1   
 17   9  12  ar  
 18   9  13  ar  
 19  10  14  2   
 20  10  15  1   
 21  11  16  1   
 22  11  28  1   
 23  11  29  1   
 24  12  17  ar  
 25  12  30  1   
 26  13  18  ar  
 27  13  31  1   
 28  15  19  1   
 29  16  32  1   
 30  16  33  1   
 31  16  34  1   
 32  17  20  ar  
 33  17  35  1   
 34  18  20  ar  
 35  18  36  1   
 36  19  21  1   
 37  19  37  1   
 38  19  38  1   
 39  20  22  1   
 40  21  39  1   
 41  21  40  1   
 42  21  41  1   
 43  22  42  1   
 44  22  43  1   
 45  22  44  1   
@<TRIPOS>SUBSTRUCTURE
  1 ****   7 GROUP 4 **** **** 0

# MOE 2024.06 (io_trps.svl 2023.06)
