@<TRIPOS>MOLECULE
NONAME
53 54 1 0 0 
SMALL
USER_CHARGES


@<TRIPOS>ATOM
  1 O        0.7200    -1.4950     0.5050 O.3   1 <1>  -0.3630 
  2 C       -0.6120    -1.4540     0.2280 C.ar  1 <1>   0.0830 
  3 C        1.6540    -0.6990    -0.1920 C.3   1 <1>   0.1200 
  4 C       -1.4620    -2.2860     0.9590 C.ar  1 <1>  -0.1440 
  5 C       -1.1360    -0.6180    -0.7550 C.ar  1 <1>  -0.1500 
  6 C        3.0430    -0.9990     0.3600 C.3   1 <1>   0.1200 
  7 C       -2.8270    -2.2830     0.6820 C.ar  1 <1>  -0.1440 
  8 C       -0.8970    -3.2010     2.0470 C.3   1 <1>  -0.0960 
  9 C       -2.4930    -0.6080    -1.0190 C.ar  1 <1>  -0.1430 
 10 O        3.9700    -0.2070    -0.3160 O.3   1 <1>  -0.5600 
 11 C       -3.3280    -1.4430    -0.3010 C.ar  1 <1>  -0.1500 
 12 C       -3.8040    -3.1840     1.4260 C.3   1 <1>  -0.0970 
 13 C       -3.0630     0.3030    -2.0910 C.3   1 <1>  -0.0970 
 14 C        5.2830    -0.3970     0.1030 C.3   1 <1>   0.1200 
 15 C        6.1860     0.4840    -0.7630 C.3   1 <1>   0.1100 
 16 N        7.6130     0.3460    -0.3910 N.3   1 <1>  -0.8100 
 17 C        7.9370     1.0730     0.8560 C.3   1 <1>   0.1100 
 18 C        8.4820     0.7790    -1.5040 C.3   1 <1>   0.1100 
 19 C        9.4250     0.9150     1.2320 C.3   1 <1>   0.3430 
 20 C        9.9750     0.6150    -1.1550 C.3   1 <1>   0.3430 
 21 N       10.3340     1.3430     0.1120 N.4   1 <1>  -0.9590 
 22 C       11.7690     1.1340     0.4680 C.3   1 <1>   0.2630 
 23 H        1.4040     0.3350    -0.0330 H     1 <1>   0.0800 
 24 H        1.6040    -0.9530    -1.2360 H     1 <1>   0.0800 
 25 H       -0.5030     0.0310    -1.3260 H     1 <1>   0.1500 
 26 H        3.2880    -2.0340     0.1990 H     1 <1>   0.0800 
 27 H        3.0820    -0.7600     1.4090 H     1 <1>   0.0800 
 28 H        0.0580    -2.8580     2.4000 H     1 <1>   0.0800 
 29 H       -0.7790    -4.1940     1.6560 H     1 <1>   0.0800 
 30 H       -1.5530    -3.2330     2.8970 H     1 <1>   0.0800 
 31 H       -4.3820    -1.4380    -0.5120 H     1 <1>   0.1500 
 32 H       -3.4500    -4.1990     1.4220 H     1 <1>   0.0800 
 33 H       -4.7740    -3.1680     0.9640 H     1 <1>   0.0800 
 34 H       -3.9070    -2.8490     2.4430 H     1 <1>   0.0800 
 35 H       -2.4400     1.1690    -2.2230 H     1 <1>   0.0800 
 36 H       -4.0480     0.6350    -1.8150 H     1 <1>   0.0800 
 37 H       -3.1240    -0.2280    -3.0240 H     1 <1>   0.0800 
 38 H        5.5420    -1.4340    -0.0290 H     1 <1>   0.0800 
 39 H        5.3480    -0.1210     1.1400 H     1 <1>   0.0800 
 40 H        5.8770     1.5130    -0.6800 H     1 <1>   0.0800 
 41 H        6.0510     0.1710    -1.7840 H     1 <1>   0.0800 
 42 H        7.3420     0.6850     1.6640 H     1 <1>   0.0800 
 43 H        7.7020     2.1190     0.7450 H     1 <1>   0.0800 
 44 H        8.2780     1.8060    -1.7540 H     1 <1>   0.0800 
 45 H        8.2670     0.1790    -2.3730 H     1 <1>   0.0800 
 46 H        9.6040    -0.1220     1.4670 H     1 <1>   0.0800 
 47 H        9.6310     1.4970     2.1150 H     1 <1>   0.0800 
 48 H       10.5720     0.9820    -1.9730 H     1 <1>   0.0800 
 49 H       10.1800    -0.4370    -1.0400 H     1 <1>   0.0800 
 50 H       10.1660     2.3440    -0.0530 H     1 <1>   0.4500 
 51 H       11.9620     0.0880     0.6440 H     1 <1>   0.0800 
 52 H       12.0170     1.6850     1.3610 H     1 <1>   0.0800 
 53 H       12.4070     1.4730    -0.3320 H     1 <1>   0.0800 
@<TRIPOS>BOND
  1   1   2  1   
  2   1   3  1   
  3   2   4  ar  
  4   2   5  ar  
  5   3   6  1   
  6   3  23  1   
  7   3  24  1   
  8   4   7  ar  
  9   4   8  1   
 10   5   9  ar  
 11   5  25  1   
 12   6  10  1   
 13   6  26  1   
 14   6  27  1   
 15   7  11  ar  
 16   7  12  1   
 17   8  28  1   
 18   8  29  1   
 19   8  30  1   
 20   9  11  ar  
 21   9  13  1   
 22  10  14  1   
 23  11  31  1   
 24  12  32  1   
 25  12  33  1   
 26  12  34  1   
 27  13  35  1   
 28  13  36  1   
 29  13  37  1   
 30  14  15  1   
 31  14  38  1   
 32  14  39  1   
 33  15  16  1   
 34  15  40  1   
 35  15  41  1   
 36  16  17  1   
 37  16  18  1   
 38  17  19  1   
 39  17  42  1   
 40  17  43  1   
 41  18  20  1   
 42  18  44  1   
 43  18  45  1   
 44  19  21  1   
 45  19  46  1   
 46  19  47  1   
 47  20  21  1   
 48  20  48  1   
 49  20  49  1   
 50  21  22  1   
 51  21  50  1   
 52  22  51  1   
 53  22  52  1   
 54  22  53  1   
@<TRIPOS>SUBSTRUCTURE
  1 ****   6 GROUP 4 **** **** 0

# MOE 2024.06 (io_trps.svl 2023.06)
