@<TRIPOS>MOLECULE
NONAME
33 33 1 0 0 
SMALL
USER_CHARGES


@<TRIPOS>ATOM
  1 O       -0.4110    -0.4950     0.9990 O.2   1 <1>  -0.5700 
  2 C       -0.4080    -1.5360     0.3730 C.2   1 <1>   0.5440 
  3 N        0.7400    -1.9140    -0.2680 N.am  1 <1>  -0.7300 
  4 C       -1.6010    -2.3600     0.2910 C.ar  1 <1>   0.0860 
  5 C        2.0190    -1.1740    -0.2390 C.3   1 <1>   0.1400 
  6 C       -2.8710    -1.7870     0.3050 C.ar  1 <1>  -0.1500 
  7 C       -1.5280    -3.7520     0.1950 C.ar  1 <1>  -0.1500 
  8 C        3.1660    -2.1700    -0.0710 C.3   1 <1>  -0.1600 
  9 C       -4.0210    -2.5520     0.2150 C.ar  1 <1>   0.0830 
 10 C       -2.6680    -4.5300     0.1040 C.ar  1 <1>  -0.1500 
 11 C        4.5220    -1.4560    -0.0360 C.3   1 <1>  -0.2400 
 12 O       -5.2000    -1.8830     0.2340 O.3   1 <1>  -0.3630 
 13 C       -3.9170    -3.9350     0.1110 C.ar  1 <1>  -0.1500 
 14 C       -6.4320    -2.5660     0.2150 C.3   1 <1>   0.2580 
 15 C       -7.5430    -1.5350     0.2830 C.2   1 <1>  -0.2880 
 16 C       -8.5360    -1.4030    -0.6020 C.2   1 <1>  -0.3000 
 17 H        0.7080    -2.7080    -0.9070 H     1 <1>   0.3700 
 18 H        2.0190    -0.4720     0.5790 H     1 <1>   0.0800 
 19 H        2.1310    -0.6250    -1.1590 H     1 <1>   0.0800 
 20 H       -2.9620    -0.7180     0.3890 H     1 <1>   0.1500 
 21 H       -0.5660    -4.2320     0.2020 H     1 <1>   0.1500 
 22 H        3.1590    -2.8700    -0.8870 H     1 <1>   0.0800 
 23 H        3.0310    -2.7110     0.8500 H     1 <1>   0.0800 
 24 H       -2.5850    -5.6010     0.0300 H     1 <1>   0.1500 
 25 H        4.6890    -0.9180    -0.9530 H     1 <1>   0.0800 
 26 H        5.3130    -2.1740     0.0880 H     1 <1>   0.0800 
 27 H        4.5600    -0.7620     0.7860 H     1 <1>   0.0800 
 28 H       -4.7860    -4.5620     0.0370 H     1 <1>   0.1500 
 29 H       -6.4720    -3.2180     1.0690 H     1 <1>   0.0800 
 30 H       -6.4940    -3.1360    -0.6960 H     1 <1>   0.0800 
 31 H       -7.4430    -0.8970     1.1450 H     1 <1>   0.1500 
 32 H       -9.3090    -0.6570    -0.5250 H     1 <1>   0.1500 
 33 H       -8.6620    -2.0200    -1.4740 H     1 <1>   0.1500 
@<TRIPOS>BOND
  1   1   2  2   
  2   2   3  am  
  3   2   4  1   
  4   3   5  1   
  5   3  17  1   
  6   4   6  ar  
  7   4   7  ar  
  8   5   8  1   
  9   5  18  1   
 10   5  19  1   
 11   6   9  ar  
 12   6  20  1   
 13   7  10  ar  
 14   7  21  1   
 15   8  11  1   
 16   8  22  1   
 17   8  23  1   
 18   9  12  1   
 19   9  13  ar  
 20  10  13  ar  
 21  10  24  1   
 22  11  25  1   
 23  11  26  1   
 24  11  27  1   
 25  12  14  1   
 26  13  28  1   
 27  14  15  1   
 28  14  29  1   
 29  14  30  1   
 30  15  16  2   
 31  15  31  1   
 32  16  32  1   
 33  16  33  1   
@<TRIPOS>SUBSTRUCTURE
  1 ****   4 GROUP 4 **** **** 0

# MOE 2024.06 (io_trps.svl 2023.06)
