@<TRIPOS>MOLECULE
NONAME
46 47 1 0 0 
SMALL
USER_CHARGES


@<TRIPOS>ATOM
  1 CL       0.8670     2.2420     0.3380 Cl    1 <1>  -0.1770 
  2 C       -0.8780     2.3270     0.3590 C.ar  1 <1>   0.1770 
  3 C       -1.6130     1.3350    -0.2610 C.ar  1 <1>  -0.1500 
  4 C       -1.4980     3.3860     0.9960 C.ar  1 <1>  -0.1500 
  5 C       -2.9960     1.4060    -0.2420 C.ar  1 <1>  -0.1500 
  6 C       -2.8810     3.4470     1.0110 C.ar  1 <1>  -0.1500 
  7 C       -3.6470     2.4600     0.3970 C.ar  1 <1>   0.1990 
  8 N       -5.0360     2.5310     0.4260 N.am  1 <1>  -0.6930 
  9 S       -5.8810     3.7340    -0.4910 S.o2  1 <1>   1.3330 
 10 C       -5.8070     1.3900     1.0130 C.3   1 <1>   0.3370 
 11 O       -5.1130     4.9530    -0.4180 O.2   1 <1>  -0.6500 
 12 O       -7.2600     3.7330    -0.0720 O.2   1 <1>  -0.6500 
 13 C       -5.7770     3.1110    -2.1560 C.3   1 <1>  -0.1350 
 14 C       -6.7050     0.6480    -0.0270 C.2   1 <1>   0.5690 
 15 C       -6.3520     1.8470     2.3730 C.3   1 <1>  -0.2400 
 16 O       -6.0680     0.0250    -0.8510 O.2   1 <1>  -0.5700 
 17 N       -8.0890     0.6560    -0.1190 N.am  1 <1>  -0.6600 
 18 C       -9.0260     1.2300     0.8980 C.3   1 <1>   0.1400 
 19 C       -8.7230     0.1460    -1.3740 C.3   1 <1>   0.1400 
 20 C      -10.4590     0.6750     0.8750 C.3   1 <1>  -0.1600 
 21 C       -9.1500    -1.3150    -1.2040 C.3   1 <1>  -0.1600 
 22 C      -10.5380    -0.8590     0.9200 C.3   1 <1>  -0.1600 
 23 C      -10.4880    -1.4980    -0.4740 C.3   1 <1>  -0.1600 
 24 H       -1.1080     0.5230    -0.7520 H     1 <1>   0.1500 
 25 H       -0.9070     4.1500     1.4680 H     1 <1>   0.1500 
 26 H       -3.5730     0.6400    -0.7280 H     1 <1>   0.1500 
 27 H       -3.3800     4.2670     1.4970 H     1 <1>   0.1500 
 28 H       -5.0790     0.6420     1.2740 H     1 <1>   0.0800 
 29 H       -4.7520     2.9610    -2.4310 H     1 <1>   0.0800 
 30 H       -6.2150     3.8150    -2.8360 H     1 <1>   0.0800 
 31 H       -6.3010     2.1810    -2.2480 H     1 <1>   0.0800 
 32 H       -7.0920     2.6170     2.2600 H     1 <1>   0.0800 
 33 H       -5.5460     2.2380     2.9680 H     1 <1>   0.0800 
 34 H       -6.7720     1.0120     2.9010 H     1 <1>   0.0800 
 35 H       -9.0660     2.2990     0.7790 H     1 <1>   0.0800 
 36 H       -8.6510     1.0130     1.8760 H     1 <1>   0.0800 
 37 H       -8.0160     0.2030    -2.1840 H     1 <1>   0.0800 
 38 H       -9.5590     0.7620    -1.6550 H     1 <1>   0.0800 
 39 H      -11.0000     1.0640     0.0300 H     1 <1>   0.0800 
 40 H      -10.9540     1.0590     1.7490 H     1 <1>   0.0800 
 41 H       -8.3700    -1.8560    -0.6960 H     1 <1>   0.0800 
 42 H       -9.2490    -1.7480    -2.1830 H     1 <1>   0.0800 
 43 H      -11.4750    -1.1360     1.3730 H     1 <1>   0.0800 
 44 H       -9.7520    -1.2570     1.5390 H     1 <1>   0.0800 
 45 H      -10.6770    -2.5530    -0.3740 H     1 <1>   0.0800 
 46 H      -11.2800    -1.0900    -1.0780 H     1 <1>   0.0800 
@<TRIPOS>BOND
  1   1   2  1   
  2   2   3  ar  
  3   2   4  ar  
  4   3   5  ar  
  5   3  24  1   
  6   4   6  ar  
  7   4  25  1   
  8   5   7  ar  
  9   5  26  1   
 10   6   7  ar  
 11   6  27  1   
 12   7   8  1   
 13   8   9  am  
 14   8  10  1   
 15   9  11  2   
 16   9  12  2   
 17   9  13  1   
 18  10  14  1   
 19  10  15  1   
 20  10  28  1   
 21  13  29  1   
 22  13  30  1   
 23  13  31  1   
 24  14  16  2   
 25  14  17  am  
 26  15  32  1   
 27  15  33  1   
 28  15  34  1   
 29  17  18  1   
 30  17  19  1   
 31  18  20  1   
 32  18  35  1   
 33  18  36  1   
 34  19  21  1   
 35  19  37  1   
 36  19  38  1   
 37  20  22  1   
 38  20  39  1   
 39  20  40  1   
 40  21  23  1   
 41  21  41  1   
 42  21  42  1   
 43  22  23  1   
 44  22  43  1   
 45  22  44  1   
 46  23  45  1   
 47  23  46  1   
@<TRIPOS>SUBSTRUCTURE
  1 ****  10 GROUP 4 **** **** 0

# MOE 2024.06 (io_trps.svl 2023.06)
