@<TRIPOS>MOLECULE
NONAME
33 33 1 0 0 
SMALL
USER_CHARGES


@<TRIPOS>ATOM
  1 P        0.6760    -0.1250    -0.9210 P.3   1 <1>   1.2420 
  2 O        0.1920     0.1220    -2.2800 O.2   1 <1>  -0.7000 
  3 O        1.6540    -1.3980    -0.8170 O.3   1 <1>  -0.5510 
  4 O       -0.5050    -0.4760     0.1130 O.3   1 <1>  -0.5510 
  5 C        1.5850     1.2520    -0.2000 C.3   1 <1>   0.1400 
  6 C        1.9410    -2.0050     0.3940 C.3   1 <1>   0.1200 
  7 C       -1.5380    -1.3250    -0.2440 C.3   1 <1>   0.1200 
  8 N        0.8180     2.5170     0.0660 N.am  1 <1>  -0.6600 
  9 C        2.9420    -3.1220     0.1250 C.3   1 <1>  -0.2400 
 10 C       -2.6890    -0.4920    -0.8050 C.3   1 <1>  -0.2400 
 11 C        0.4430     2.9370     1.2920 C.2   1 <1>   0.5690 
 12 C        0.1370     3.2410    -1.0220 C.3   1 <1>   0.1400 
 13 O        0.8040     2.4570     2.3380 O.2   1 <1>  -0.5700 
 14 C       -0.5180     4.0880     1.1920 C.3   1 <1>  -0.0990 
 15 C       -0.5270     4.4270    -0.3090 C.3   1 <1>  -0.1600 
 16 H        2.4100     1.5100    -0.8360 H     1 <1>   0.0800 
 17 H        2.0140     0.9450     0.7350 H     1 <1>   0.0800 
 18 H        1.0310    -2.4050     0.8090 H     1 <1>   0.0800 
 19 H        2.3580    -1.2750     1.0680 H     1 <1>   0.0800 
 20 H       -1.8580    -1.8390     0.6460 H     1 <1>   0.0800 
 21 H       -1.1810    -2.0460    -0.9620 H     1 <1>   0.0800 
 22 H        2.5190    -3.8410    -0.5540 H     1 <1>   0.0800 
 23 H        3.1870    -3.6210     1.0440 H     1 <1>   0.0800 
 24 H        3.8450    -2.7180    -0.2980 H     1 <1>   0.0800 
 25 H       -3.0030     0.2390    -0.0810 H     1 <1>   0.0800 
 26 H       -3.5210    -1.1330    -1.0290 H     1 <1>   0.0800 
 27 H       -2.3920     0.0030    -1.7120 H     1 <1>   0.0800 
 28 H       -0.6050     2.6040    -1.4750 H     1 <1>   0.0800 
 29 H        0.8430     3.5690    -1.7660 H     1 <1>   0.0800 
 30 H       -0.1820     4.9140     1.7910 H     1 <1>   0.0800 
 31 H       -1.4870     3.7600     1.5230 H     1 <1>   0.0800 
 32 H       -1.5220     4.5980    -0.6790 H     1 <1>   0.0800 
 33 H        0.0620     5.3110    -0.4840 H     1 <1>   0.0800 
@<TRIPOS>BOND
  1   1   2  2   
  2   1   3  1   
  3   1   4  1   
  4   1   5  1   
  5   3   6  1   
  6   4   7  1   
  7   5   8  1   
  8   5  16  1   
  9   5  17  1   
 10   6   9  1   
 11   6  18  1   
 12   6  19  1   
 13   7  10  1   
 14   7  20  1   
 15   7  21  1   
 16   8  11  am  
 17   8  12  1   
 18   9  22  1   
 19   9  23  1   
 20   9  24  1   
 21  10  25  1   
 22  10  26  1   
 23  10  27  1   
 24  11  13  2   
 25  11  14  1   
 26  12  15  1   
 27  12  28  1   
 28  12  29  1   
 29  14  15  1   
 30  14  30  1   
 31  14  31  1   
 32  15  32  1   
 33  15  33  1   
@<TRIPOS>SUBSTRUCTURE
  1 ****   1 GROUP 4 **** **** 0

# MOE 2024.06 (io_trps.svl 2023.06)
