@<TRIPOS>MOLECULE
NONAME
53 55 1 0 0 
SMALL
USER_CHARGES


@<TRIPOS>ATOM
  1 O       -1.2240    -0.7060    -0.1630 O.2   1 <1>  -0.5700 
  2 C       -1.1810    -1.6750    -0.8970 C.2   1 <1>   0.6900 
  3 N       -2.3000    -2.0150    -1.5970 N.am  1 <1>  -0.6600 
  4 N       -0.0860    -2.4710    -1.0260 N.am  1 <1>  -0.5470 
  5 C       -3.1030    -3.1440    -1.0610 C.3   1 <1>   0.1400 
  6 C       -3.1470    -0.9050    -2.1190 C.3   1 <1>   0.1400 
  7 C        1.1520    -2.4890    -0.3640 C.ar  1 <1>   0.1170 
  8 C       -4.0600    -2.6370     0.0390 C.3   1 <1>   0.3430 
  9 C       -4.1070    -0.3990    -1.0240 C.3   1 <1>   0.3430 
 10 C        2.2460    -3.1120    -0.9680 C.ar  1 <1>  -0.1440 
 11 C        1.3220    -1.9210     0.8950 C.ar  1 <1>  -0.1500 
 12 N       -4.9530    -1.5050    -0.4260 N.4   1 <1>  -0.9590 
 13 C        3.4670    -3.1530    -0.3130 C.ar  1 <1>  -0.1500 
 14 C        2.1350    -3.7530    -2.3460 C.3   1 <1>  -0.0970 
 15 C        2.5430    -1.9640     1.5400 C.ar  1 <1>  -0.1500 
 16 C       -5.8410    -0.9980     0.6700 C.3   1 <1>   0.4230 
 17 C        3.6250    -2.5810     0.9380 C.ar  1 <1>  -0.1430 
 18 C       -6.6930    -2.1470     1.2450 C.3   1 <1>  -0.1600 
 19 C       -6.7570     0.1230     0.1390 C.3   1 <1>  -0.1600 
 20 C        4.9690    -2.6330     1.6410 C.3   1 <1>  -0.0970 
 21 C       -7.6950    -1.6580     2.3010 C.3   1 <1>  -0.1600 
 22 C       -7.7590     0.6070     1.1980 C.3   1 <1>  -0.1600 
 23 C       -8.5950    -0.5530     1.7430 C.3   1 <1>  -0.1600 
 24 H       -0.1360    -3.0810    -1.8350 H     1 <1>   0.3700 
 25 H       -2.4480    -3.8900    -0.6430 H     1 <1>   0.0800 
 26 H       -3.6610    -3.6050    -1.8580 H     1 <1>   0.0800 
 27 H       -3.7010    -1.2420    -2.9770 H     1 <1>   0.0800 
 28 H       -2.5140    -0.0920    -2.4350 H     1 <1>   0.0800 
 29 H       -3.4640    -2.3010     0.8730 H     1 <1>   0.0800 
 30 H       -4.6580    -3.4660     0.3740 H     1 <1>   0.0800 
 31 H       -4.7380     0.3600    -1.4530 H     1 <1>   0.0800 
 32 H       -3.5170     0.0620    -0.2480 H     1 <1>   0.0800 
 33 H        0.4990    -1.4390     1.3870 H     1 <1>   0.1500 
 34 H       -5.5670    -1.8670    -1.1640 H     1 <1>   0.4500 
 35 H        4.3110    -3.6330    -0.7770 H     1 <1>   0.1500 
 36 H        1.4460    -4.5780    -2.3170 H     1 <1>   0.0800 
 37 H        3.0890    -4.1240    -2.6760 H     1 <1>   0.0800 
 38 H        1.7950    -3.0280    -3.0640 H     1 <1>   0.0800 
 39 H        2.6470    -1.5160     2.5120 H     1 <1>   0.1500 
 40 H       -5.2340    -0.5930     1.4650 H     1 <1>   0.0800 
 41 H       -6.0710    -2.8800     1.7250 H     1 <1>   0.0800 
 42 H       -7.2420    -2.6250     0.4520 H     1 <1>   0.0800 
 43 H       -7.3090    -0.2320    -0.7140 H     1 <1>   0.0800 
 44 H       -6.1800     0.9800    -0.1560 H     1 <1>   0.0800 
 45 H        5.0570    -3.5540     2.1880 H     1 <1>   0.0800 
 46 H        5.0680    -1.8110     2.3270 H     1 <1>   0.0800 
 47 H        5.7690    -2.5750     0.9250 H     1 <1>   0.0800 
 48 H       -7.1630    -1.2830     3.1600 H     1 <1>   0.0800 
 49 H       -8.3060    -2.4810     2.6310 H     1 <1>   0.0800 
 50 H       -8.4140     1.3460     0.7670 H     1 <1>   0.0800 
 51 H       -7.2290     1.0770     2.0110 H     1 <1>   0.0800 
 52 H       -9.2460    -0.1920     2.5220 H     1 <1>   0.0800 
 53 H       -9.2180    -0.9520     0.9600 H     1 <1>   0.0800 
@<TRIPOS>BOND
  1   1   2  2   
  2   2   3  am  
  3   2   4  am  
  4   3   5  1   
  5   3   6  1   
  6   4   7  1   
  7   4  24  1   
  8   5   8  1   
  9   5  25  1   
 10   5  26  1   
 11   6   9  1   
 12   6  27  1   
 13   6  28  1   
 14   7  10  ar  
 15   7  11  ar  
 16   8  12  1   
 17   8  29  1   
 18   8  30  1   
 19   9  12  1   
 20   9  31  1   
 21   9  32  1   
 22  10  13  ar  
 23  10  14  1   
 24  11  15  ar  
 25  11  33  1   
 26  12  16  1   
 27  12  34  1   
 28  13  17  ar  
 29  13  35  1   
 30  14  36  1   
 31  14  37  1   
 32  14  38  1   
 33  15  17  ar  
 34  15  39  1   
 35  16  18  1   
 36  16  19  1   
 37  16  40  1   
 38  17  20  1   
 39  18  21  1   
 40  18  41  1   
 41  18  42  1   
 42  19  22  1   
 43  19  43  1   
 44  19  44  1   
 45  20  45  1   
 46  20  46  1   
 47  20  47  1   
 48  21  23  1   
 49  21  48  1   
 50  21  49  1   
 51  22  23  1   
 52  22  50  1   
 53  22  51  1   
 54  23  52  1   
 55  23  53  1   
@<TRIPOS>SUBSTRUCTURE
  1 ****   2 GROUP 4 **** **** 0

# MOE 2024.06 (io_trps.svl 2023.06)
