@<TRIPOS>MOLECULE
NONAME
39 39 1 0 0 
SMALL
USER_CHARGES


@<TRIPOS>ATOM
  1 O        0.5470    -1.2050    -0.9800 O.2   1 <1>  -0.5700 
  2 C        0.2320    -1.5790     0.1340 C.2   1 <1>   0.6900 
  3 N        1.1940    -2.0010     1.0000 N.am  1 <1>  -0.6600 
  4 N       -1.0580    -1.6450     0.5240 N.am  1 <1>  -0.7300 
  5 C        1.2550    -3.4600     1.2770 C.3   1 <1>   0.1400 
  6 C        2.5420    -1.3730     0.8880 C.3   1 <1>   0.1400 
  7 C       -2.2110    -1.2110    -0.2920 C.3   1 <1>   0.1400 
  8 C        2.0760    -4.1660     0.1770 C.3   1 <1>   0.3430 
  9 C        3.3660    -2.0740    -0.2100 C.3   1 <1>   0.3430 
 10 C       -3.3670    -2.1880    -0.0820 C.3   1 <1>  -0.1600 
 11 N        3.4520    -3.5690     0.0070 N.4   1 <1>  -0.9590 
 12 C       -4.5900    -1.7860    -0.9150 C.3   1 <1>  -0.1600 
 13 C        4.1680    -4.2410    -1.1060 C.3   1 <1>   0.3430 
 14 C       -5.7460    -2.7670    -0.7060 C.3   1 <1>  -0.2400 
 15 C        5.6570    -3.9240    -1.0280 C.3   1 <1>  -0.2400 
 16 H       -1.2340    -1.7450     1.5220 H     1 <1>   0.3700 
 17 H        0.2590    -3.8700     1.2940 H     1 <1>   0.0800 
 18 H        1.6990    -3.6290     2.2420 H     1 <1>   0.0800 
 19 H        3.0500    -1.4300     1.8340 H     1 <1>   0.0800 
 20 H        2.4310    -0.3310     0.6360 H     1 <1>   0.0800 
 21 H       -1.9360    -1.1850    -1.3340 H     1 <1>   0.0800 
 22 H       -2.5030    -0.2180     0.0070 H     1 <1>   0.0800 
 23 H        1.5320    -4.0800    -0.7510 H     1 <1>   0.0800 
 24 H        2.1580    -5.2140     0.4150 H     1 <1>   0.0800 
 25 H        4.3530    -1.6450    -0.2350 H     1 <1>   0.0800 
 26 H        2.8940    -1.8740    -1.1590 H     1 <1>   0.0800 
 27 H       -3.6380    -2.2030     0.9590 H     1 <1>   0.0800 
 28 H       -3.0500    -3.1750    -0.3720 H     1 <1>   0.0800 
 29 H        3.9790    -3.7330     0.8740 H     1 <1>   0.4500 
 30 H       -4.3270    -1.7690    -1.9600 H     1 <1>   0.0800 
 31 H       -4.9110    -0.7960    -0.6360 H     1 <1>   0.0800 
 32 H        3.7680    -3.9190    -2.0550 H     1 <1>   0.0800 
 33 H        4.0370    -5.3090    -1.0310 H     1 <1>   0.0800 
 34 H       -5.4550    -3.7610    -0.9990 H     1 <1>   0.0800 
 35 H       -6.5920    -2.4700    -1.3000 H     1 <1>   0.0800 
 36 H       -6.0450    -2.7840     0.3280 H     1 <1>   0.0800 
 37 H        5.8480    -2.8790    -1.1950 H     1 <1>   0.0800 
 38 H        6.1730    -4.4730    -1.7950 H     1 <1>   0.0800 
 39 H        6.0650    -4.2220    -0.0780 H     1 <1>   0.0800 
@<TRIPOS>BOND
  1   1   2  2   
  2   2   3  am  
  3   2   4  am  
  4   3   5  1   
  5   3   6  1   
  6   4   7  1   
  7   4  16  1   
  8   5   8  1   
  9   5  17  1   
 10   5  18  1   
 11   6   9  1   
 12   6  19  1   
 13   6  20  1   
 14   7  10  1   
 15   7  21  1   
 16   7  22  1   
 17   8  11  1   
 18   8  23  1   
 19   8  24  1   
 20   9  11  1   
 21   9  25  1   
 22   9  26  1   
 23  10  12  1   
 24  10  27  1   
 25  10  28  1   
 26  11  13  1   
 27  11  29  1   
 28  12  14  1   
 29  12  30  1   
 30  12  31  1   
 31  13  15  1   
 32  13  32  1   
 33  13  33  1   
 34  14  34  1   
 35  14  35  1   
 36  14  36  1   
 37  15  37  1   
 38  15  38  1   
 39  15  39  1   
@<TRIPOS>SUBSTRUCTURE
  1 ****   2 GROUP 4 **** **** 0

# MOE 2024.06 (io_trps.svl 2023.06)
