@<TRIPOS>MOLECULE
NONAME
32 33 1 0 0 
SMALL
USER_CHARGES


@<TRIPOS>ATOM
  1 BR      -1.8220     0.8120     1.9630 Br    1 <1>  -0.1110 
  2 C       -0.8510     2.1630     0.9900 C.ar  1 <1>   0.1110 
  3 C       -1.2720     2.5330    -0.2790 C.ar  1 <1>  -0.1430 
  4 C        0.2490     2.7320     1.6030 C.ar  1 <1>  -0.1500 
  5 C       -0.5460     3.5080    -0.9490 C.ar  1 <1>  -0.1500 
  6 C       -2.4870     1.8920    -0.9190 C.3   1 <1>   0.4870 
  7 C        0.9580     3.7060     0.9230 C.ar  1 <1>  -0.1500 
  8 C        0.5600     4.0910    -0.3480 C.ar  1 <1>  -0.1500 
  9 N       -3.7150     2.3650    -0.2230 N.4   1 <1>  -0.9590 
 10 C       -4.9230     1.6010    -0.6860 C.3   1 <1>   0.3430 
 11 C       -3.8990     3.8420    -0.3480 C.3   1 <1>   0.3430 
 12 C       -6.2030     2.0350     0.0540 C.3   1 <1>   0.2000 
 13 C       -5.1240     4.2830     0.4580 C.3   1 <1>  -0.1600 
 14 O       -7.2760     1.4460    -0.5800 O.3   1 <1>  -0.6800 
 15 C       -6.4020     3.5530     0.0120 C.3   1 <1>  -0.1600 
 16 H        0.5480     2.4200     2.5890 H     1 <1>   0.1500 
 17 H       -0.8230     3.8260    -1.9400 H     1 <1>   0.1500 
 18 H       -2.4060     0.8200    -0.8360 H     1 <1>   0.0800 
 19 H       -2.5310     2.1490    -1.9650 H     1 <1>   0.0800 
 20 H        1.8200     4.1640     1.3800 H     1 <1>   0.1500 
 21 H        1.1220     4.8470    -0.8720 H     1 <1>   0.1500 
 22 H       -3.5680     2.1600     0.7760 H     1 <1>   0.4500 
 23 H       -4.7750     0.5460    -0.5290 H     1 <1>   0.0800 
 24 H       -5.0720     1.7740    -1.7390 H     1 <1>   0.0800 
 25 H       -4.0370     4.1070    -1.3850 H     1 <1>   0.0800 
 26 H       -3.0250     4.3580     0.0200 H     1 <1>   0.0800 
 27 H       -6.1800     1.6770     1.0700 H     1 <1>   0.0800 
 28 H       -5.2600     5.3430     0.3300 H     1 <1>   0.0800 
 29 H       -4.9440     4.1090     1.5050 H     1 <1>   0.0800 
 30 H       -8.1190     1.6760    -0.1370 H     1 <1>   0.4000 
 31 H       -7.2180     3.8340     0.6560 H     1 <1>   0.0800 
 32 H       -6.6430     3.8560    -0.9940 H     1 <1>   0.0800 
@<TRIPOS>BOND
  1   1   2  1   
  2   2   3  ar  
  3   2   4  ar  
  4   3   5  ar  
  5   3   6  1   
  6   4   7  ar  
  7   4  16  1   
  8   5   8  ar  
  9   5  17  1   
 10   6   9  1   
 11   6  18  1   
 12   6  19  1   
 13   7   8  ar  
 14   7  20  1   
 15   8  21  1   
 16   9  10  1   
 17   9  11  1   
 18   9  22  1   
 19  10  12  1   
 20  10  23  1   
 21  10  24  1   
 22  11  13  1   
 23  11  25  1   
 24  11  26  1   
 25  12  14  1   
 26  12  15  1   
 27  12  27  1   
 28  13  15  1   
 29  13  28  1   
 30  13  29  1   
 31  14  30  1   
 32  15  31  1   
 33  15  32  1   
@<TRIPOS>SUBSTRUCTURE
  1 ****   9 GROUP 4 **** **** 0

# MOE 2024.06 (io_trps.svl 2023.06)
