@<TRIPOS>MOLECULE
NONAME
42 43 1 0 0 
SMALL
USER_CHARGES


@<TRIPOS>ATOM
  1 N       -0.0740     0.0340     0.3310 N.4   1 <1>  -0.9590 
  2 C        1.1700     0.8020     0.6380 C.3   1 <1>   0.4230 
  3 C       -1.3610     0.7520     0.6380 C.3   1 <1>   0.3430 
  4 C       -0.1300    -1.3520     0.9180 C.3   1 <1>   0.3430 
  5 C        1.1450     2.1620    -0.0830 C.3   1 <1>  -0.1600 
  6 C        2.4100     0.0000     0.2060 C.3   1 <1>  -0.1600 
  7 C       -2.5950    -0.0490     0.1540 C.3   1 <1>   0.1100 
  8 C       -1.3750    -2.1310     0.4280 C.3   1 <1>   0.1100 
  9 C        2.4490     2.9460     0.1200 C.3   1 <1>  -0.1600 
 10 C        3.7140     0.7890     0.4000 C.3   1 <1>  -0.1600 
 11 N       -2.2140    -1.3270    -0.4870 N.3   1 <1>  -0.8100 
 12 C        3.6780     2.1430    -0.3300 C.3   1 <1>  -0.0800 
 13 C       -3.3960    -2.0780    -0.9300 C.3   1 <1>   0.0300 
 14 C        4.9550     2.9690    -0.0830 C.3   1 <1>  -0.1600 
 15 C        6.2220     2.3190    -0.6530 C.3   1 <1>  -0.2400 
 16 H       -0.1250    -0.1310    -0.6850 H     1 <1>   0.4500 
 17 H        1.2300     0.9790     1.7000 H     1 <1>   0.0800 
 18 H       -1.3770     1.7110     0.1490 H     1 <1>   0.0800 
 19 H       -1.4430     0.9240     1.6980 H     1 <1>   0.0800 
 20 H       -0.1460    -1.2960     1.9930 H     1 <1>   0.0800 
 21 H        0.7440    -1.9120     0.6330 H     1 <1>   0.0800 
 22 H        0.3470     2.7750     0.2920 H     1 <1>   0.0800 
 23 H        0.9980     2.0090    -1.1390 H     1 <1>   0.0800 
 24 H        2.3230    -0.2650    -0.8340 H     1 <1>   0.0800 
 25 H        2.4980    -0.9000     0.7850 H     1 <1>   0.0800 
 26 H       -3.1440     0.5510    -0.5520 H     1 <1>   0.0800 
 27 H       -3.2450    -0.2370     0.9920 H     1 <1>   0.0800 
 28 H       -1.9550    -2.4430     1.2810 H     1 <1>   0.0800 
 29 H       -1.0490    -3.0220    -0.0820 H     1 <1>   0.0800 
 30 H        2.5530     3.2070     1.1600 H     1 <1>   0.0800 
 31 H        2.3980     3.8650    -0.4410 H     1 <1>   0.0800 
 32 H        4.5300     0.1950     0.0270 H     1 <1>   0.0800 
 33 H        3.8830     0.9530     1.4510 H     1 <1>   0.0800 
 34 H        3.5960     1.9620    -1.3900 H     1 <1>   0.0800 
 35 H       -3.9680    -1.4870    -1.6270 H     1 <1>   0.0800 
 36 H       -4.0240    -2.3350    -0.0930 H     1 <1>   0.0800 
 37 H       -3.0920    -2.9830    -1.4300 H     1 <1>   0.0800 
 38 H        5.0870     3.1350     0.9730 H     1 <1>   0.0800 
 39 H        4.8400     3.9330    -0.5480 H     1 <1>   0.0800 
 40 H        6.4640     1.4120    -0.1300 H     1 <1>   0.0800 
 41 H        7.0540     2.9940    -0.5470 H     1 <1>   0.0800 
 42 H        6.0970     2.0990    -1.6990 H     1 <1>   0.0800 
@<TRIPOS>BOND
  1   1   2  1   
  2   1   3  1   
  3   1   4  1   
  4   1  16  1   
  5   2   5  1   
  6   2   6  1   
  7   2  17  1   
  8   3   7  1   
  9   3  18  1   
 10   3  19  1   
 11   4   8  1   
 12   4  20  1   
 13   4  21  1   
 14   5   9  1   
 15   5  22  1   
 16   5  23  1   
 17   6  10  1   
 18   6  24  1   
 19   6  25  1   
 20   7  11  1   
 21   7  26  1   
 22   7  27  1   
 23   8  11  1   
 24   8  28  1   
 25   8  29  1   
 26   9  12  1   
 27   9  30  1   
 28   9  31  1   
 29  10  12  1   
 30  10  32  1   
 31  10  33  1   
 32  11  13  1   
 33  12  14  1   
 34  12  34  1   
 35  13  35  1   
 36  13  36  1   
 37  13  37  1   
 38  14  15  1   
 39  14  38  1   
 40  14  39  1   
 41  15  40  1   
 42  15  41  1   
 43  15  42  1   
@<TRIPOS>SUBSTRUCTURE
  1 ****   2 GROUP 4 **** **** 0

# MOE 2024.06 (io_trps.svl 2023.06)
