@<TRIPOS>MOLECULE
NONAME
51 52 1 0 0 
SMALL
USER_CHARGES


@<TRIPOS>ATOM
  1 O        0.4180    -0.3720     0.1560 O.3   1 <1>  -0.3630 
  2 C       -0.8010    -0.9520     0.0160 C.ar  1 <1>   0.0830 
  3 C        1.6040    -1.1080    -0.0440 C.3   1 <1>   0.1200 
  4 C       -1.9050    -0.1460     0.2340 C.ar  1 <1>  -0.1500 
  5 C       -0.9910    -2.2850    -0.3290 C.ar  1 <1>  -0.1500 
  6 C        2.7850    -0.1700     0.1910 C.3   1 <1>   0.1200 
  7 C       -3.1930    -0.6450     0.1150 C.ar  1 <1>  -0.1440 
  8 C       -2.2730    -2.7890    -0.4500 C.ar  1 <1>  -0.1500 
  9 O        3.9730    -0.8790    -0.0050 O.3   1 <1>  -0.5600 
 10 C       -3.3790    -1.9800    -0.2310 C.ar  1 <1>  -0.1430 
 11 C       -4.3720     0.2840     0.3650 C.3   1 <1>  -0.0970 
 12 C        5.1240    -0.1260     0.1850 C.3   1 <1>   0.1200 
 13 C       -4.7720    -2.5770    -0.3740 C.3   1 <1>  -0.0970 
 14 C        6.3210    -1.0550    -0.0500 C.3   1 <1>   0.3430 
 15 N        7.6410    -0.3810     0.1810 N.4   1 <1>  -0.9590 
 16 C        7.9250     0.6770    -0.8360 C.3   1 <1>   0.3430 
 17 C        8.7320    -1.3990     0.2160 C.3   1 <1>   0.3430 
 18 C        9.2290     1.3940    -0.4850 C.3   1 <1>  -0.1600 
 19 C       10.0540    -0.7270     0.5900 C.3   1 <1>  -0.1600 
 20 C       10.4040     0.4110    -0.3790 C.3   1 <1>  -0.0800 
 21 C       11.6750     1.1360     0.0750 C.3   1 <1>  -0.2400 
 22 H        1.6080    -1.4740    -1.0550 H     1 <1>   0.0800 
 23 H        1.6210    -1.9200     0.6610 H     1 <1>   0.0800 
 24 H       -1.7410     0.8820     0.4990 H     1 <1>   0.1500 
 25 H       -0.1630    -2.9430    -0.5070 H     1 <1>   0.1500 
 26 H        2.7620     0.1990     1.2020 H     1 <1>   0.0800 
 27 H        2.7470     0.6470    -0.5090 H     1 <1>   0.0800 
 28 H       -2.4060    -3.8220    -0.7170 H     1 <1>   0.1500 
 29 H       -4.0350     1.2730     0.6190 H     1 <1>   0.0800 
 30 H       -4.9680    -0.0880     1.1790 H     1 <1>   0.0800 
 31 H       -4.9820     0.3520    -0.5170 H     1 <1>   0.0800 
 32 H        5.1220     0.2470     1.1940 H     1 <1>   0.0800 
 33 H        5.1140     0.6850    -0.5220 H     1 <1>   0.0800 
 34 H       -5.3050    -2.4960     0.5560 H     1 <1>   0.0800 
 35 H       -4.7210    -3.6160    -0.6440 H     1 <1>   0.0800 
 36 H       -5.3180    -2.0560    -1.1390 H     1 <1>   0.0800 
 37 H        6.2780    -1.4310    -1.0590 H     1 <1>   0.0800 
 38 H        6.2260    -1.8910     0.6250 H     1 <1>   0.0800 
 39 H        7.6280     0.0690     1.1060 H     1 <1>   0.4500 
 40 H        7.1220     1.3960    -0.8620 H     1 <1>   0.0800 
 41 H        8.0120     0.2300    -1.8130 H     1 <1>   0.0800 
 42 H        8.8280    -1.8660    -0.7510 H     1 <1>   0.0800 
 43 H        8.5030    -2.1640     0.9410 H     1 <1>   0.0800 
 44 H        9.1040     1.9280     0.4410 H     1 <1>   0.0800 
 45 H        9.4410     2.1210    -1.2490 H     1 <1>   0.0800 
 46 H       10.8360    -1.4660     0.5690 H     1 <1>   0.0800 
 47 H        9.9910    -0.3550     1.5980 H     1 <1>   0.0800 
 48 H       10.5890    -0.0110    -1.3540 H     1 <1>   0.0800 
 49 H       11.5430     1.5770     1.0480 H     1 <1>   0.0800 
 50 H       11.9310     1.9160    -0.6210 H     1 <1>   0.0800 
 51 H       12.5020     0.4490     0.1230 H     1 <1>   0.0800 
@<TRIPOS>BOND
  1   1   2  1   
  2   1   3  1   
  3   2   4  ar  
  4   2   5  ar  
  5   3   6  1   
  6   3  22  1   
  7   3  23  1   
  8   4   7  ar  
  9   4  24  1   
 10   5   8  ar  
 11   5  25  1   
 12   6   9  1   
 13   6  26  1   
 14   6  27  1   
 15   7  10  ar  
 16   7  11  1   
 17   8  10  ar  
 18   8  28  1   
 19   9  12  1   
 20  10  13  1   
 21  11  29  1   
 22  11  30  1   
 23  11  31  1   
 24  12  14  1   
 25  12  32  1   
 26  12  33  1   
 27  13  34  1   
 28  13  35  1   
 29  13  36  1   
 30  14  15  1   
 31  14  37  1   
 32  14  38  1   
 33  15  16  1   
 34  15  17  1   
 35  15  39  1   
 36  16  18  1   
 37  16  40  1   
 38  16  41  1   
 39  17  19  1   
 40  17  42  1   
 41  17  43  1   
 42  18  20  1   
 43  18  44  1   
 44  18  45  1   
 45  19  20  1   
 46  19  46  1   
 47  19  47  1   
 48  20  21  1   
 49  20  48  1   
 50  21  49  1   
 51  21  50  1   
 52  21  51  1   
@<TRIPOS>SUBSTRUCTURE
  1 ****   6 GROUP 4 **** **** 0

# MOE 2024.06 (io_trps.svl 2023.06)
