@<TRIPOS>MOLECULE
NONAME
43 45 1 0 0 
SMALL
USER_CHARGES


@<TRIPOS>ATOM
  1 CL      -0.6150     0.2100     1.3940 Cl    1 <1>  -0.1770 
  2 C       -1.9640    -0.6890     0.7510 C.ar  1 <1>   0.1770 
  3 C       -2.7840    -1.3900     1.6140 C.ar  1 <1>  -0.1500 
  4 C       -2.1930    -0.6880    -0.6110 C.ar  1 <1>  -0.1500 
  5 C       -3.8580    -2.1000     1.1030 C.ar  1 <1>  -0.1500 
  6 C       -3.2670    -1.3990    -1.1200 C.ar  1 <1>  -0.1500 
  7 C       -4.1080    -2.1020    -0.2650 C.ar  1 <1>  -0.1430 
  8 C       -5.2940    -2.8670    -0.8240 C.3   1 <1>   0.4870 
  9 N       -6.5390    -2.1380    -0.4730 N.4   1 <1>  -0.9590 
 10 C       -7.7570    -2.9220    -0.8100 C.3   1 <1>   0.4860 
 11 C       -6.6120    -0.7760    -1.0840 C.3   1 <1>   0.3430 
 12 C       -8.9980    -2.1620    -0.3750 C.ar  1 <1>  -0.1430 
 13 C       -7.7320     0.0340    -0.4260 C.3   1 <1>  -0.0170 
 14 C       -8.9980    -0.7840    -0.2070 C.ar  1 <1>  -0.1430 
 15 C      -10.1660    -2.8700    -0.1490 C.ar  1 <1>  -0.1500 
 16 C      -10.1620    -0.1390     0.1820 C.ar  1 <1>  -0.1500 
 17 C      -11.3360    -2.2410     0.2390 C.ar  1 <1>   0.0830 
 18 C      -11.3410    -0.8450     0.4100 C.ar  1 <1>   0.0830 
 19 O      -12.3830    -3.1000     0.4140 O.3   1 <1>  -0.3630 
 20 O      -12.4810    -0.2010     0.7970 O.3   1 <1>  -0.3620 
 21 C      -13.6890    -2.6870     0.7490 C.3   1 <1>   0.0400 
 22 C      -12.5520     1.1980     0.9700 C.3   1 <1>   0.0400 
 23 H       -2.5760    -1.3770     2.6700 H     1 <1>   0.1500 
 24 H       -1.5310    -0.1380    -1.2580 H     1 <1>   0.1500 
 25 H       -4.4850    -2.6490     1.7860 H     1 <1>   0.1500 
 26 H       -3.4300    -1.3950    -2.1850 H     1 <1>   0.1500 
 27 H       -5.3080    -3.8570    -0.3960 H     1 <1>   0.0800 
 28 H       -5.2020    -2.9580    -1.8940 H     1 <1>   0.0800 
 29 H       -6.5490    -2.0040     0.5460 H     1 <1>   0.4500 
 30 H       -7.7340    -3.8760    -0.3090 H     1 <1>   0.0800 
 31 H       -7.8060    -3.0950    -1.8730 H     1 <1>   0.0800 
 32 H       -6.8100    -0.8650    -2.1400 H     1 <1>   0.0800 
 33 H       -5.6780    -0.2520    -0.9560 H     1 <1>   0.0800 
 34 H       -7.9520     0.8880    -1.0440 H     1 <1>   0.0800 
 35 H       -7.3860     0.4050     0.5230 H     1 <1>   0.0800 
 36 H      -10.1970    -3.9390    -0.2740 H     1 <1>   0.1500 
 37 H      -10.1320     0.9260     0.3070 H     1 <1>   0.1500 
 38 H      -14.3160    -3.5580     0.7880 H     1 <1>   0.0800 
 39 H      -14.0460    -2.0120    -0.0080 H     1 <1>   0.0800 
 40 H      -13.6670    -2.2090     1.7120 H     1 <1>   0.0800 
 41 H      -13.5550     1.4460     1.2670 H     1 <1>   0.0800 
 42 H      -12.3200     1.6800     0.0370 H     1 <1>   0.0800 
 43 H      -11.8630     1.4910     1.7420 H     1 <1>   0.0800 
@<TRIPOS>BOND
  1   1   2  1   
  2   2   3  ar  
  3   2   4  ar  
  4   3   5  ar  
  5   3  23  1   
  6   4   6  ar  
  7   4  24  1   
  8   5   7  ar  
  9   5  25  1   
 10   6   7  ar  
 11   6  26  1   
 12   7   8  1   
 13   8   9  1   
 14   8  27  1   
 15   8  28  1   
 16   9  10  1   
 17   9  11  1   
 18   9  29  1   
 19  10  12  1   
 20  10  30  1   
 21  10  31  1   
 22  11  13  1   
 23  11  32  1   
 24  11  33  1   
 25  12  14  ar  
 26  12  15  ar  
 27  13  14  1   
 28  13  34  1   
 29  13  35  1   
 30  14  16  ar  
 31  15  17  ar  
 32  15  36  1   
 33  16  18  ar  
 34  16  37  1   
 35  17  18  ar  
 36  17  19  1   
 37  18  20  1   
 38  19  21  1   
 39  20  22  1   
 40  21  38  1   
 41  21  39  1   
 42  21  40  1   
 43  22  41  1   
 44  22  42  1   
 45  22  43  1   
@<TRIPOS>SUBSTRUCTURE
  1 ****   9 GROUP 4 **** **** 0

# MOE 2024.06 (io_trps.svl 2023.06)
