@<TRIPOS>MOLECULE
NONAME
37 37 1 0 0 
SMALL
USER_CHARGES


@<TRIPOS>ATOM
  1 O        1.6480     0.0350    -2.1320 O.2   1 <1>  -0.5700 
  2 C        2.2100    -0.6390    -1.3090 C.2   1 <1>   0.6590 
  3 O        3.3130    -0.1790    -0.7210 O.3   1 <1>  -0.4300 
  4 C        1.6320    -1.9910    -0.9010 C.3   1 <1>   0.1810 
  5 C        4.1460    -0.9240     0.1370 C.3   1 <1>   0.1200 
  6 O        2.5170    -3.0550    -1.2190 O.3   1 <1>  -0.3630 
  7 C        5.2460     0.0030     0.6430 C.3   1 <1>  -0.2400 
  8 C        2.3590    -4.3310    -0.7770 C.ar  1 <1>   0.0830 
  9 C        1.2250    -4.8700    -0.1450 C.ar  1 <1>   0.0830 
 10 C        3.4560    -5.1470    -0.9900 C.ar  1 <1>  -0.1500 
 11 O        0.1210    -4.0930     0.0590 O.3   1 <1>  -0.3630 
 12 C        1.2440    -6.2000     0.2630 C.ar  1 <1>  -0.1500 
 13 C        3.4520    -6.4660    -0.5850 C.ar  1 <1>  -0.1500 
 14 C       -1.1470    -4.6430     0.3470 C.3   1 <1>   0.0400 
 15 C        2.3470    -7.0330     0.0490 C.ar  1 <1>   0.0860 
 16 C        2.3850    -8.4210     0.4590 C.2   1 <1>   0.4230 
 17 O        3.4210    -9.0020     0.6580 O.2   1 <1>  -0.5700 
 18 C        1.0810    -9.1970     0.6520 C.3   1 <1>  -0.0990 
 19 C        1.1970   -10.6990     0.3420 C.3   1 <1>  -0.2400 
 20 H        0.7110    -2.1560    -1.4290 H     1 <1>   0.0800 
 21 H        1.4520    -1.9960     0.1570 H     1 <1>   0.0800 
 22 H        4.5690    -1.7430    -0.4210 H     1 <1>   0.0800 
 23 H        3.5600    -1.2990     0.9580 H     1 <1>   0.0800 
 24 H        5.8190     0.3810    -0.1840 H     1 <1>   0.0800 
 25 H        5.9040    -0.5360     1.3000 H     1 <1>   0.0800 
 26 H        4.8160     0.8260     1.1870 H     1 <1>   0.0800 
 27 H        4.3230    -4.7400    -1.4790 H     1 <1>   0.1500 
 28 H        0.3980    -6.6110     0.7750 H     1 <1>   0.1500 
 29 H        4.3220    -7.0760    -0.7610 H     1 <1>   0.1500 
 30 H       -1.3810    -5.3920    -0.3880 H     1 <1>   0.0800 
 31 H       -1.8730    -3.8500     0.3020 H     1 <1>   0.0800 
 32 H       -1.1330    -5.0620     1.3380 H     1 <1>   0.0800 
 33 H        0.3230    -8.7870     0.0090 H     1 <1>   0.0800 
 34 H        0.7630    -9.0750     1.6720 H     1 <1>   0.0800 
 35 H        1.5300   -10.8460    -0.6710 H     1 <1>   0.0800 
 36 H        0.2450   -11.1830     0.4690 H     1 <1>   0.0800 
 37 H        1.9080   -11.1620     1.0040 H     1 <1>   0.0800 
@<TRIPOS>BOND
  1   1   2  2   
  2   2   3  1   
  3   2   4  1   
  4   3   5  1   
  5   4   6  1   
  6   4  20  1   
  7   4  21  1   
  8   5   7  1   
  9   5  22  1   
 10   5  23  1   
 11   6   8  1   
 12   7  24  1   
 13   7  25  1   
 14   7  26  1   
 15   8   9  ar  
 16   8  10  ar  
 17   9  11  1   
 18   9  12  ar  
 19  10  13  ar  
 20  10  27  1   
 21  11  14  1   
 22  12  15  ar  
 23  12  28  1   
 24  13  15  ar  
 25  13  29  1   
 26  14  30  1   
 27  14  31  1   
 28  14  32  1   
 29  15  16  1   
 30  16  17  2   
 31  16  18  1   
 32  18  19  1   
 33  18  33  1   
 34  18  34  1   
 35  19  35  1   
 36  19  36  1   
 37  19  37  1   
@<TRIPOS>SUBSTRUCTURE
  1 ****   8 GROUP 4 **** **** 0

# MOE 2024.06 (io_trps.svl 2023.06)
