@<TRIPOS>MOLECULE
NONAME
41 42 1 0 0 
SMALL
USER_CHARGES


@<TRIPOS>ATOM
  1 S       -0.1800     0.0130    -0.0020 S.o2  1 <1>   1.4970 
  2 O        0.1180     0.9230     1.0860 O.2   1 <1>  -0.6500 
  3 O       -0.3660     0.5500    -1.3350 O.2   1 <1>  -0.6500 
  4 N       -1.5310    -0.8710     0.4130 N.2   1 <1>  -0.6380 
  5 C        1.1110    -1.2640    -0.0600 C.ar  1 <1>  -0.0090 
  6 C       -2.6890    -0.3790     0.3030 C.2   1 <1>   0.6410 
  7 C        1.8550    -1.5880     1.0700 C.ar  1 <1>  -0.1500 
  8 C        1.3700    -1.9690    -1.2310 C.ar  1 <1>  -0.1500 
  9 S       -4.0330    -1.4890     0.5680 S.3   1 <1>  -0.2420 
 10 N       -3.2430     0.8600    -0.0210 N.pl3 1 <1>  -0.5190 
 11 C        2.8280    -2.5720     1.0330 C.ar  1 <1>  -0.1500 
 12 C        2.3410    -2.9550    -1.2770 C.ar  1 <1>  -0.1500 
 13 C       -5.2670    -0.3230     0.0210 C.2   1 <1>  -0.0370 
 14 C       -4.6430     0.8380    -0.2690 C.2   1 <1>  -0.0380 
 15 C       -2.5510     2.1460     0.2980 C.3   1 <1>   0.1290 
 16 C        3.0720    -3.2570    -0.1430 C.ar  1 <1>  -0.1500 
 17 C       -6.7010    -0.9000     0.0040 C.3   1 <1>   0.1380 
 18 C       -5.2550     2.1110    -0.8440 C.3   1 <1>  -0.1020 
 19 C       -6.7730    -2.1030    -0.9510 C.3   1 <1>  -0.2400 
 20 C       -7.0860    -1.3590     1.4210 C.3   1 <1>  -0.2400 
 21 C       -7.7660     0.1090    -0.4460 C.3   1 <1>  -0.2400 
 22 H        1.6710    -1.0620     1.9920 H     1 <1>   0.1500 
 23 H        0.8040    -1.7430    -2.1190 H     1 <1>   0.1500 
 24 H        3.3930    -2.8050     1.9190 H     1 <1>   0.1500 
 25 H        2.5260    -3.4870    -2.1950 H     1 <1>   0.1500 
 26 H       -3.2520     2.9430     0.4470 H     1 <1>   0.0800 
 27 H       -1.8870     2.4160    -0.5050 H     1 <1>   0.0800 
 28 H       -1.9970     2.0450     1.2130 H     1 <1>   0.0800 
 29 H        3.8280    -4.0230    -0.1760 H     1 <1>   0.1500 
 30 H       -5.4750     2.8070    -0.0550 H     1 <1>   0.0800 
 31 H       -6.1520     1.9180    -1.3920 H     1 <1>   0.0800 
 32 H       -4.5710     2.5670    -1.5380 H     1 <1>   0.0800 
 33 H       -7.7770    -2.4830    -1.0100 H     1 <1>   0.0800 
 34 H       -6.1360    -2.9020    -0.6150 H     1 <1>   0.0800 
 35 H       -6.4560    -1.8120    -1.9360 H     1 <1>   0.0800 
 36 H       -7.0020    -0.5380     2.1100 H     1 <1>   0.0800 
 37 H       -6.4450    -2.1510     1.7610 H     1 <1>   0.0800 
 38 H       -8.0970    -1.7230     1.4440 H     1 <1>   0.0800 
 39 H       -8.7520    -0.3080    -0.3380 H     1 <1>   0.0800 
 40 H       -7.6370     0.3570    -1.4840 H     1 <1>   0.0800 
 41 H       -7.7150     1.0020     0.1500 H     1 <1>   0.0800 
@<TRIPOS>BOND
  1   1   2  2   
  2   1   3  2   
  3   1   4  1   
  4   1   5  1   
  5   4   6  2   
  6   5   7  ar  
  7   5   8  ar  
  8   6   9  1   
  9   6  10  1   
 10   7  11  ar  
 11   7  22  1   
 12   8  12  ar  
 13   8  23  1   
 14   9  13  1   
 15  10  14  1   
 16  10  15  1   
 17  11  16  ar  
 18  11  24  1   
 19  12  16  ar  
 20  12  25  1   
 21  13  14  2   
 22  13  17  1   
 23  14  18  1   
 24  15  26  1   
 25  15  27  1   
 26  15  28  1   
 27  16  29  1   
 28  17  19  1   
 29  17  20  1   
 30  17  21  1   
 31  18  30  1   
 32  18  31  1   
 33  18  32  1   
 34  19  33  1   
 35  19  34  1   
 36  19  35  1   
 37  20  36  1   
 38  20  37  1   
 39  20  38  1   
 40  21  39  1   
 41  21  40  1   
 42  21  41  1   
@<TRIPOS>SUBSTRUCTURE
  1 ****   6 GROUP 4 **** **** 0

# MOE 2024.06 (io_trps.svl 2023.06)
