@<TRIPOS>MOLECULE
NONAME
44 45 1 0 0 
SMALL
USER_CHARGES


@<TRIPOS>ATOM
  1 O       -0.8570    -2.9290    -2.9390 O.2   1 <1>  -0.5700 
  2 C       -0.1810    -2.6670    -1.9730 C.2   1 <1>   0.5690 
  3 N       -0.6550    -1.8930    -0.9650 N.am  1 <1>  -0.7300 
  4 C        1.2330    -3.2310    -1.8960 C.3   1 <1>   0.1810 
  5 C       -2.0290    -1.3510    -0.8670 C.3   1 <1>   0.2840 
  6 O        1.8470    -2.9320    -0.6490 O.3   1 <1>  -0.3620 
  7 C       -2.7590    -1.9800     0.3120 C.ar  1 <1>   0.1670 
  8 C        3.1110    -3.3390    -0.3780 C.ar  1 <1>   0.0830 
  9 N       -2.6700    -1.3550     1.4800 N.ar  1 <1>  -0.6200 
 10 C       -3.4630    -3.1590     0.1150 C.ar  1 <1>  -0.1500 
 11 C        3.9050    -4.0550    -1.2650 C.ar  1 <1>  -0.1500 
 12 C        3.6210    -3.0110     0.8650 C.ar  1 <1>  -0.1500 
 13 C       -3.3140    -1.9280     2.4850 C.ar  1 <1>   0.1600 
 14 C       -4.1290    -3.7420     1.1710 C.ar  1 <1>  -0.1500 
 15 C        5.1870    -4.4270    -0.9000 C.ar  1 <1>  -0.1500 
 16 C        4.9030    -3.3860     1.2230 C.ar  1 <1>  -0.1500 
 17 C       -4.0460    -3.0990     2.3870 C.ar  1 <1>  -0.1500 
 18 C        5.7140    -4.1030     0.3460 C.ar  1 <1>  -0.1430 
 19 C        7.1510    -4.5440     0.7000 C.3   1 <1>   0.1430 
 20 C        8.1390    -3.9260    -0.3010 C.3   1 <1>  -0.2400 
 21 C        7.5890    -4.1110     2.1100 C.3   1 <1>  -0.2400 
 22 C        7.2490    -6.0750     0.6360 C.3   1 <1>  -0.2400 
 23 H       -0.0840    -1.7810    -0.1220 H     1 <1>   0.3700 
 24 H        1.8270    -2.7980    -2.6800 H     1 <1>   0.0800 
 25 H        1.1940    -4.2980    -2.0080 H     1 <1>   0.0800 
 26 H       -2.5700    -1.5490    -1.7760 H     1 <1>   0.0800 
 27 H       -1.9820    -0.2850    -0.7310 H     1 <1>   0.0800 
 28 H       -3.4840    -3.6170    -0.8580 H     1 <1>   0.1500 
 29 H        3.5510    -4.3330    -2.2390 H     1 <1>   0.1500 
 30 H        3.0070    -2.4580     1.5530 H     1 <1>   0.1500 
 31 H       -3.2550    -1.4360     3.4410 H     1 <1>   0.1500 
 32 H       -4.6850    -4.6560     1.0520 H     1 <1>   0.1500 
 33 H        5.7770    -4.9800    -1.6080 H     1 <1>   0.1500 
 34 H        5.2450    -3.1020     2.2000 H     1 <1>   0.1500 
 35 H       -4.5410    -3.5000     3.2530 H     1 <1>   0.1500 
 36 H        8.0520    -2.8540    -0.2880 H     1 <1>   0.0800 
 37 H        7.9440    -4.2680    -1.3000 H     1 <1>   0.0800 
 38 H        9.1500    -4.1900    -0.0490 H     1 <1>   0.0800 
 39 H        6.9430    -4.5410     2.8550 H     1 <1>   0.0800 
 40 H        7.5640    -3.0390     2.2000 H     1 <1>   0.0800 
 41 H        8.5930    -4.4380     2.3120 H     1 <1>   0.0800 
 42 H        7.0460    -6.4370    -0.3550 H     1 <1>   0.0800 
 43 H        6.5360    -6.5170     1.3090 H     1 <1>   0.0800 
 44 H        8.2330    -6.4050     0.9150 H     1 <1>   0.0800 
@<TRIPOS>BOND
  1   1   2  2   
  2   2   3  am  
  3   2   4  1   
  4   3   5  1   
  5   3  23  1   
  6   4   6  1   
  7   4  24  1   
  8   4  25  1   
  9   5   7  1   
 10   5  26  1   
 11   5  27  1   
 12   6   8  1   
 13   7   9  ar  
 14   7  10  ar  
 15   8  11  ar  
 16   8  12  ar  
 17   9  13  ar  
 18  10  14  ar  
 19  10  28  1   
 20  11  15  ar  
 21  11  29  1   
 22  12  16  ar  
 23  12  30  1   
 24  13  17  ar  
 25  13  31  1   
 26  14  17  ar  
 27  14  32  1   
 28  15  18  ar  
 29  15  33  1   
 30  16  18  ar  
 31  16  34  1   
 32  17  35  1   
 33  18  19  1   
 34  19  20  1   
 35  19  21  1   
 36  19  22  1   
 37  20  36  1   
 38  20  37  1   
 39  20  38  1   
 40  21  39  1   
 41  21  40  1   
 42  21  41  1   
 43  22  42  1   
 44  22  43  1   
 45  22  44  1   
@<TRIPOS>SUBSTRUCTURE
  1 ****   6 GROUP 4 **** **** 0

# MOE 2024.06 (io_trps.svl 2023.06)
