@<TRIPOS>MOLECULE
NONAME
44 45 1 0 0 
SMALL
USER_CHARGES


@<TRIPOS>ATOM
  1 O        3.2830    -6.1090     2.0390 O.3   1 <1>  -0.3630 
  2 C        4.0280    -5.8910     0.9260 C.ar  1 <1>   0.0820 
  3 C        1.9070    -5.7960     1.9790 C.3   1 <1>   0.1200 
  4 C        4.4690    -6.9940     0.1990 C.ar  1 <1>  -0.1440 
  5 C        4.3250    -4.5960     0.5000 C.ar  1 <1>  -0.1440 
  6 C        1.2810    -6.4370     0.7310 C.3   1 <1>   0.3430 
  7 C        5.1390    -6.7920    -0.9950 C.ar  1 <1>  -0.1500 
  8 C        4.2500    -8.4210     0.6870 C.3   1 <1>  -0.0970 
  9 C        4.9940    -4.4230    -0.6990 C.ar  1 <1>  -0.1500 
 10 C        3.9800    -3.3550     1.3130 C.3   1 <1>  -0.0960 
 11 N       -0.1650    -6.0970     0.5970 N.4   1 <1>  -0.9060 
 12 C        5.3930    -5.5120    -1.4560 C.ar  1 <1>  -0.1430 
 13 C       -0.7760    -6.6630    -0.6230 C.3   1 <1>   0.4860 
 14 C        6.1300    -5.3030    -2.7660 C.3   1 <1>  -0.0970 
 15 C       -2.2130    -6.2000    -0.6230 C.ar  1 <1>  -0.1430 
 16 C       -2.5610    -5.0050    -1.2370 C.ar  1 <1>  -0.1500 
 17 C       -3.1930    -6.9600     0.0000 C.ar  1 <1>  -0.1500 
 18 C       -3.8740    -4.5700    -1.2190 C.ar  1 <1>  -0.1500 
 19 C       -4.5050    -6.5230     0.0160 C.ar  1 <1>  -0.1500 
 20 C       -4.8460    -5.3280    -0.5910 C.ar  1 <1>  -0.1500 
 21 H        1.8060    -4.7270     1.9580 H     1 <1>   0.0800 
 22 H        1.4580    -6.1820     2.8770 H     1 <1>   0.0800 
 23 H        1.4000    -7.5060     0.7970 H     1 <1>   0.0800 
 24 H        1.8120    -6.0870    -0.1400 H     1 <1>   0.0800 
 25 H        5.4780    -7.6360    -1.5700 H     1 <1>   0.1500 
 26 H        4.3060    -8.4650     1.7610 H     1 <1>   0.0800 
 27 H        5.0120    -9.0710     0.2950 H     1 <1>   0.0800 
 28 H        3.2920    -8.7850     0.3680 H     1 <1>   0.0800 
 29 H        5.2230    -3.4300    -1.0470 H     1 <1>   0.1500 
 30 H        3.9400    -3.5860     2.3630 H     1 <1>   0.0800 
 31 H        3.0370    -2.9490     0.9980 H     1 <1>   0.0800 
 32 H        4.7380    -2.6030     1.1770 H     1 <1>   0.0800 
 33 H       -0.3040    -5.0800     0.5590 H     1 <1>   0.4500 
 34 H       -0.7100    -6.4290     1.4010 H     1 <1>   0.4500 
 35 H       -0.7330    -7.7400    -0.6080 H     1 <1>   0.0800 
 36 H       -0.2710    -6.3030    -1.5050 H     1 <1>   0.0800 
 37 H        5.9450    -6.1190    -3.4400 H     1 <1>   0.0800 
 38 H        7.1880    -5.2410    -2.5810 H     1 <1>   0.0800 
 39 H        5.8080    -4.3930    -3.2400 H     1 <1>   0.0800 
 40 H       -1.8250    -4.3990    -1.7400 H     1 <1>   0.1500 
 41 H       -2.9570    -7.8980     0.4750 H     1 <1>   0.1500 
 42 H       -4.1470    -3.6430    -1.6960 H     1 <1>   0.1500 
 43 H       -5.2680    -7.1120     0.4990 H     1 <1>   0.1500 
 44 H       -5.8690    -4.9900    -0.5790 H     1 <1>   0.1500 
@<TRIPOS>BOND
  1   1   2  1   
  2   1   3  1   
  3   2   4  ar  
  4   2   5  ar  
  5   3   6  1   
  6   3  21  1   
  7   3  22  1   
  8   4   7  ar  
  9   4   8  1   
 10   5   9  ar  
 11   5  10  1   
 12   6  11  1   
 13   6  23  1   
 14   6  24  1   
 15   7  12  ar  
 16   7  25  1   
 17   8  26  1   
 18   8  27  1   
 19   8  28  1   
 20   9  12  ar  
 21   9  29  1   
 22  10  30  1   
 23  10  31  1   
 24  10  32  1   
 25  11  13  1   
 26  11  33  1   
 27  11  34  1   
 28  12  14  1   
 29  13  15  1   
 30  13  35  1   
 31  13  36  1   
 32  14  37  1   
 33  14  38  1   
 34  14  39  1   
 35  15  16  ar  
 36  15  17  ar  
 37  16  18  ar  
 38  16  40  1   
 39  17  19  ar  
 40  17  41  1   
 41  18  20  ar  
 42  18  42  1   
 43  19  20  ar  
 44  19  43  1   
 45  20  44  1   
@<TRIPOS>SUBSTRUCTURE
  1 ****   6 GROUP 4 **** **** 0

# MOE 2024.06 (io_trps.svl 2023.06)
