@<TRIPOS>MOLECULE
NONAME
47 49 1 0 0 
SMALL
USER_CHARGES


@<TRIPOS>ATOM
  1 O        0.6110    -3.2060    -1.2670 O.2   1 <1>  -0.5700 
  2 C       -0.0760    -2.4210    -0.6550 C.2   1 <1>   0.5690 
  3 N        0.3690    -1.2050    -0.2460 N.am  1 <1>  -0.5790 
  4 C       -1.5210    -2.7910    -0.3120 C.3   1 <1>   0.1710 
  5 C        1.6960    -0.6240    -0.4740 C.3   1 <1>   0.0490 
  6 N       -2.4050    -1.6130    -0.0700 N.3   1 <1>  -0.8100 
  7 C        2.2360     0.3120     0.5560 C.3   1 <1>  -0.2000 
  8 C        1.7770     0.8360    -0.7720 C.3   1 <1>  -0.2000 
  9 C       -3.6600    -2.0210     0.6040 C.3   1 <1>   0.1100 
 10 C       -2.7360    -0.9250    -1.3460 C.3   1 <1>   0.1100 
 11 C       -4.6070    -0.8290     0.8440 C.3   1 <1>   0.2090 
 12 C       -3.6710     0.2810    -1.1350 C.3   1 <1>   0.2090 
 13 N       -4.9210    -0.1360    -0.4380 N.pl3 1 <1>  -0.8380 
 14 C       -5.9250     0.8400    -0.3670 C.ar  1 <1>   0.1000 
 15 C       -5.8170     2.0430     0.3550 C.ar  1 <1>   0.0830 
 16 C       -7.0990     0.5850    -1.0620 C.ar  1 <1>  -0.1500 
 17 O       -4.6570     2.2910     1.0400 O.3   1 <1>  -0.3630 
 18 C       -6.8800     2.9430     0.3560 C.ar  1 <1>  -0.1500 
 19 C       -8.1500     1.4820    -1.0560 C.ar  1 <1>  -0.1500 
 20 C       -4.5000     3.4390     1.8390 C.3   1 <1>   0.1200 
 21 C       -8.0410     2.6630    -0.3470 C.ar  1 <1>  -0.1500 
 22 C       -3.1180     3.3760     2.4810 C.3   1 <1>  -0.2400 
 23 H       -0.3290    -0.6150     0.2170 H     1 <1>   0.3700 
 24 H       -1.4850    -3.3950     0.5770 H     1 <1>   0.0800 
 25 H       -1.9230    -3.3970    -1.1050 H     1 <1>   0.0800 
 26 H        2.3760    -1.2960    -0.9740 H     1 <1>   0.1000 
 27 H        3.2920     0.2970     0.7600 H     1 <1>   0.1000 
 28 H        1.6460     0.5130     1.4320 H     1 <1>   0.1000 
 29 H        0.8670     1.4060    -0.8240 H     1 <1>   0.1000 
 30 H        2.5220     1.1780    -1.4690 H     1 <1>   0.1000 
 31 H       -3.4250    -2.4690     1.5540 H     1 <1>   0.0800 
 32 H       -4.1770    -2.7520     0.0060 H     1 <1>   0.0800 
 33 H       -3.2200    -1.6140    -2.0180 H     1 <1>   0.0800 
 34 H       -1.8330    -0.5800    -1.8190 H     1 <1>   0.0800 
 35 H       -4.1420    -0.1410     1.5270 H     1 <1>   0.0800 
 36 H       -5.5220    -1.1780     1.2890 H     1 <1>   0.0800 
 37 H       -3.9250     0.7120    -2.0870 H     1 <1>   0.0800 
 38 H       -3.1590     1.0270    -0.5540 H     1 <1>   0.0800 
 39 H       -7.1760    -0.3350    -1.6110 H     1 <1>   0.1500 
 40 H       -6.8320     3.8690     0.8930 H     1 <1>   0.1500 
 41 H       -9.0490     1.2600    -1.6030 H     1 <1>   0.1500 
 42 H       -5.2700     3.4400     2.5910 H     1 <1>   0.0800 
 43 H       -4.5880     4.3070     1.2090 H     1 <1>   0.0800 
 44 H       -8.8570     3.3640    -0.3410 H     1 <1>   0.1500 
 45 H       -3.0350     2.4950     3.0920 H     1 <1>   0.0800 
 46 H       -2.9650     4.2400     3.1010 H     1 <1>   0.0800 
 47 H       -2.3580     3.3580     1.7200 H     1 <1>   0.0800 
@<TRIPOS>BOND
  1   1   2  2   
  2   2   3  am  
  3   2   4  1   
  4   3   5  1   
  5   3  23  1   
  6   4   6  1   
  7   4  24  1   
  8   4  25  1   
  9   5   7  1   
 10   5   8  1   
 11   5  26  1   
 12   6   9  1   
 13   6  10  1   
 14   7   8  1   
 15   7  27  1   
 16   7  28  1   
 17   8  29  1   
 18   8  30  1   
 19   9  11  1   
 20   9  31  1   
 21   9  32  1   
 22  10  12  1   
 23  10  33  1   
 24  10  34  1   
 25  11  13  1   
 26  11  35  1   
 27  11  36  1   
 28  12  13  1   
 29  12  37  1   
 30  12  38  1   
 31  13  14  1   
 32  14  15  ar  
 33  14  16  ar  
 34  15  17  1   
 35  15  18  ar  
 36  16  19  ar  
 37  16  39  1   
 38  17  20  1   
 39  18  21  ar  
 40  18  40  1   
 41  19  21  ar  
 42  19  41  1   
 43  20  22  1   
 44  20  42  1   
 45  20  43  1   
 46  21  44  1   
 47  22  45  1   
 48  22  46  1   
 49  22  47  1   
@<TRIPOS>SUBSTRUCTURE
  1 ****  12 GROUP 4 **** **** 0

# MOE 2024.06 (io_trps.svl 2023.06)
