@<TRIPOS>MOLECULE
NONAME
38 38 1 0 0 
SMALL
USER_CHARGES


@<TRIPOS>ATOM
  1 S       -0.3610     0.6130    -1.0330 S.o2  1 <1>   1.3330 
  2 O       -0.4640     1.4660     0.1240 O.2   1 <1>  -0.6500 
  3 O       -1.0600     0.9500    -2.2480 O.2   1 <1>  -0.6500 
  4 N        1.2840     0.5760    -1.5160 N.am  1 <1>  -0.7570 
  5 C       -0.7280    -1.0840    -0.5880 C.3   1 <1>  -0.0550 
  6 C        2.3530     0.5310    -0.6270 C.ar  1 <1>   0.1990 
  7 C       -2.2020    -1.3230    -0.2230 C.3   1 <1>  -0.1600 
  8 C        2.8840     1.7160    -0.1020 C.ar  1 <1>  -0.1430 
  9 C        2.9300    -0.6940    -0.2690 C.ar  1 <1>  -0.1430 
 10 C       -2.4510    -2.7870     0.1560 C.3   1 <1>  -0.1600 
 11 C        3.9270     1.6580     0.8070 C.ar  1 <1>  -0.1500 
 12 C        2.3700     3.1000    -0.4980 C.3   1 <1>  -0.0170 
 13 C        3.9680    -0.7260     0.6450 C.ar  1 <1>  -0.1500 
 14 C        2.4890    -2.0260    -0.8670 C.3   1 <1>  -0.0970 
 15 C       -3.9210    -3.0160     0.5180 C.3   1 <1>  -0.2400 
 16 C        4.4630     0.4430     1.1890 C.ar  1 <1>  -0.1500 
 17 C        3.0880     3.6040    -1.7520 C.3   1 <1>  -0.2400 
 18 H        1.3870     1.2720    -2.2470 H     1 <1>   0.4200 
 19 H       -0.1220    -1.3550     0.2550 H     1 <1>   0.0800 
 20 H       -0.4680    -1.7240    -1.4080 H     1 <1>   0.0800 
 21 H       -2.8220    -1.0550    -1.0630 H     1 <1>   0.0800 
 22 H       -2.4690    -0.6840     0.6020 H     1 <1>   0.0800 
 23 H       -1.8360    -3.0540     0.9990 H     1 <1>   0.0800 
 24 H       -2.1870    -3.4270    -0.6690 H     1 <1>   0.0800 
 25 H        4.3340     2.5620     1.2240 H     1 <1>   0.1500 
 26 H        2.5410     3.7920     0.3090 H     1 <1>   0.0800 
 27 H        1.3100     3.0890    -0.6700 H     1 <1>   0.0800 
 28 H        4.4060    -1.6640     0.9380 H     1 <1>   0.1500 
 29 H        1.8160    -2.5270    -0.1980 H     1 <1>   0.0800 
 30 H        3.3450    -2.6580    -1.0230 H     1 <1>   0.0800 
 31 H        2.0110    -1.8910    -1.8200 H     1 <1>   0.0800 
 32 H       -4.2030    -2.4030     1.3550 H     1 <1>   0.0800 
 33 H       -4.0790    -4.0470     0.7820 H     1 <1>   0.0800 
 34 H       -4.5560    -2.7760    -0.3170 H     1 <1>   0.0800 
 35 H        5.2700     0.4090     1.9000 H     1 <1>   0.1500 
 36 H        4.1470     3.6640    -1.5720 H     1 <1>   0.0800 
 37 H        2.7270     4.5820    -2.0160 H     1 <1>   0.0800 
 38 H        2.9180     2.9380    -2.5780 H     1 <1>   0.0800 
@<TRIPOS>BOND
  1   1   2  2   
  2   1   3  2   
  3   1   4  am  
  4   1   5  1   
  5   4   6  1   
  6   4  18  1   
  7   5   7  1   
  8   5  19  1   
  9   5  20  1   
 10   6   8  ar  
 11   6   9  ar  
 12   7  10  1   
 13   7  21  1   
 14   7  22  1   
 15   8  11  ar  
 16   8  12  1   
 17   9  13  ar  
 18   9  14  1   
 19  10  15  1   
 20  10  23  1   
 21  10  24  1   
 22  11  16  ar  
 23  11  25  1   
 24  12  17  1   
 25  12  26  1   
 26  12  27  1   
 27  13  16  ar  
 28  13  28  1   
 29  14  29  1   
 30  14  30  1   
 31  14  31  1   
 32  15  32  1   
 33  15  33  1   
 34  15  34  1   
 35  16  35  1   
 36  17  36  1   
 37  17  37  1   
 38  17  38  1   
@<TRIPOS>SUBSTRUCTURE
  1 ****   4 GROUP 4 **** **** 0

# MOE 2024.06 (io_trps.svl 2023.06)
