@<TRIPOS>MOLECULE
NONAME
40 41 1 0 0 
SMALL
USER_CHARGES


@<TRIPOS>ATOM
  1 O       -0.2130     1.0320     0.3460 O.2   1 <1>  -0.5700 
  2 C       -1.3140     1.3600    -0.0210 C.2   1 <1>   0.5690 
  3 N       -2.4000     0.6950     0.4450 N.am  1 <1>  -0.5390 
  4 C       -1.5700     2.4780    -1.0220 C.3   1 <1>   0.0420 
  5 C       -3.7050     1.0620     0.1910 C.2   1 <1>  -0.0290 
  6 C       -0.3230     3.3180    -1.2880 C.2   1 <1>   0.5690 
  7 C       -2.8570     3.2770    -0.6360 C.3   1 <1>   0.1380 
  8 C       -4.0120     2.2710    -0.3530 C.2   1 <1>  -0.1240 
  9 C       -4.7210    -0.0050     0.5730 C.3   1 <1>  -0.1020 
 10 O       -0.1220     3.7250    -2.4040 O.2   1 <1>  -0.5700 
 11 N        0.5720     3.6160    -0.3260 N.am  1 <1>  -0.8000 
 12 C       -2.6700     4.1380     0.6280 C.3   1 <1>  -0.1600 
 13 C       -3.2190     4.3490    -1.6900 C.3   1 <1>  -0.1600 
 14 C       -5.3600     2.6700    -0.6270 C.2   1 <1>   0.7060 
 15 C       -3.6880     5.2770     0.5320 C.3   1 <1>  -0.1600 
 16 C       -3.9800     5.4620    -0.9600 C.3   1 <1>  -0.1600 
 17 O       -5.8280     2.7350    -1.7470 O.2   1 <1>  -0.5700 
 18 O       -6.1420     2.9380     0.4250 O.3   1 <1>  -0.4300 
 19 C       -7.4970     3.3110     0.2950 C.3   1 <1>   0.1200 
 20 C       -8.3540     2.0490     0.2110 C.3   1 <1>  -0.2400 
 21 H       -2.1880    -0.1320     1.0070 H     1 <1>   0.3700 
 22 H       -1.7880     1.9830    -1.9490 H     1 <1>   0.0800 
 23 H       -4.4810    -0.9310     0.0820 H     1 <1>   0.0800 
 24 H       -5.7220     0.2650     0.2920 H     1 <1>   0.0800 
 25 H       -4.7020    -0.1620     1.6370 H     1 <1>   0.0800 
 26 H        1.4200     4.1200    -0.5840 H     1 <1>   0.3700 
 27 H        0.6380     3.0350     0.5160 H     1 <1>   0.3700 
 28 H       -1.6930     4.5830     0.6420 H     1 <1>   0.0800 
 29 H       -2.7960     3.5710     1.5340 H     1 <1>   0.0800 
 30 H       -3.7690     3.9490    -2.5230 H     1 <1>   0.0800 
 31 H       -2.3310     4.8010    -2.0910 H     1 <1>   0.0800 
 32 H       -3.2990     6.1810     0.9700 H     1 <1>   0.0800 
 33 H       -4.5920     5.0090     1.0500 H     1 <1>   0.0800 
 34 H       -5.0380     5.3850    -1.1450 H     1 <1>   0.0800 
 35 H       -3.6460     6.4280    -1.3000 H     1 <1>   0.0800 
 36 H       -7.6160     3.9310    -0.5790 H     1 <1>   0.0800 
 37 H       -7.7600     3.8850     1.1670 H     1 <1>   0.0800 
 38 H       -8.1010     1.4840    -0.6680 H     1 <1>   0.0800 
 39 H       -9.3920     2.3220     0.1490 H     1 <1>   0.0800 
 40 H       -8.2120     1.4430     1.0870 H     1 <1>   0.0800 
@<TRIPOS>BOND
  1   1   2  2   
  2   2   3  am  
  3   2   4  1   
  4   3   5  1   
  5   3  21  1   
  6   4   6  1   
  7   4   7  1   
  8   4  22  1   
  9   5   8  2   
 10   5   9  1   
 11   6  10  2   
 12   6  11  am  
 13   7   8  1   
 14   7  12  1   
 15   7  13  1   
 16   8  14  1   
 17   9  23  1   
 18   9  24  1   
 19   9  25  1   
 20  11  26  1   
 21  11  27  1   
 22  12  15  1   
 23  12  28  1   
 24  12  29  1   
 25  13  16  1   
 26  13  30  1   
 27  13  31  1   
 28  14  17  2   
 29  14  18  1   
 30  15  16  1   
 31  15  32  1   
 32  15  33  1   
 33  16  34  1   
 34  16  35  1   
 35  18  19  1   
 36  19  20  1   
 37  19  36  1   
 38  19  37  1   
 39  20  38  1   
 40  20  39  1   
 41  20  40  1   
@<TRIPOS>SUBSTRUCTURE
  1 ****   7 GROUP 4 **** **** 0

# MOE 2024.06 (io_trps.svl 2023.06)
