@<TRIPOS>MOLECULE
NONAME
42 43 1 0 0 
SMALL
USER_CHARGES


@<TRIPOS>ATOM
  1 O        0.4040    -0.9700     0.4500 O.2   1 <1>  -0.5700 
  2 C        0.1180    -1.9170    -0.2590 C.2   1 <1>   0.5440 
  3 N        1.1630    -2.5640    -0.8800 N.am  1 <1>  -0.6600 
  4 C       -1.2550    -2.3780    -0.3810 C.ar  1 <1>   0.0860 
  5 C        2.3930    -1.7850    -1.2070 C.3   1 <1>   0.1400 
  6 C        1.4400    -3.9850    -0.5280 C.3   1 <1>   0.1400 
  7 C       -2.2020    -2.0900     0.6050 C.ar  1 <1>  -0.1500 
  8 C       -1.6870    -3.1250    -1.4800 C.ar  1 <1>  -0.1500 
  9 C        3.3740    -1.8350    -0.0210 C.3   1 <1>   0.3430 
 10 C        2.4470    -4.0520     0.6420 C.3   1 <1>   0.3430 
 11 C       -3.5080    -2.5360     0.5140 C.ar  1 <1>  -0.1500 
 12 C       -2.9890    -3.5760    -1.5770 C.ar  1 <1>  -0.1500 
 13 N        3.7030    -3.2550     0.3770 N.4   1 <1>  -0.9590 
 14 C       -3.9110    -3.2910    -0.5840 C.ar  1 <1>   0.0830 
 15 C        4.6000    -3.2670     1.5720 C.3   1 <1>   0.2630 
 16 O       -5.1630    -3.7700    -0.7530 O.3   1 <1>  -0.3630 
 17 C       -6.1930    -3.4990     0.1700 C.3   1 <1>   0.1200 
 18 C       -7.4730    -4.1660    -0.3350 C.3   1 <1>  -0.1600 
 19 C       -8.6470    -3.9160     0.6190 C.3   1 <1>  -0.2400 
 20 H        2.1290    -0.7600    -1.4070 H     1 <1>   0.0800 
 21 H        2.8530    -2.1850    -2.0940 H     1 <1>   0.0800 
 22 H        1.8330    -4.4990    -1.3880 H     1 <1>   0.0800 
 23 H        0.5270    -4.4780    -0.2380 H     1 <1>   0.0800 
 24 H       -1.9050    -1.5020     1.4570 H     1 <1>   0.1500 
 25 H       -0.9970    -3.3500    -2.2730 H     1 <1>   0.1500 
 26 H        2.9160    -1.3210     0.8090 H     1 <1>   0.0800 
 27 H        4.2750    -1.3060    -0.2830 H     1 <1>   0.0800 
 28 H        2.6990    -5.0820     0.8320 H     1 <1>   0.0800 
 29 H        1.9590    -3.6650     1.5220 H     1 <1>   0.0800 
 30 H       -4.1950    -2.2880     1.3000 H     1 <1>   0.1500 
 31 H       -3.3080    -4.1520    -2.4290 H     1 <1>   0.1500 
 32 H        4.1950    -3.6940    -0.4140 H     1 <1>   0.4500 
 33 H        4.1080    -2.8050     2.4130 H     1 <1>   0.0800 
 34 H        5.5080    -2.7240     1.3640 H     1 <1>   0.0800 
 35 H        4.8590    -4.2790     1.8380 H     1 <1>   0.0800 
 36 H       -6.3200    -2.4330     0.2340 H     1 <1>   0.0800 
 37 H       -5.9070    -3.9010     1.1260 H     1 <1>   0.0800 
 38 H       -7.3080    -5.2250    -0.4250 H     1 <1>   0.0800 
 39 H       -7.7160    -3.7720    -1.3070 H     1 <1>   0.0800 
 40 H       -8.4320    -4.3170     1.5940 H     1 <1>   0.0800 
 41 H       -9.5340    -4.3940     0.2420 H     1 <1>   0.0800 
 42 H       -8.8410    -2.8620     0.7110 H     1 <1>   0.0800 
@<TRIPOS>BOND
  1   1   2  2   
  2   2   3  am  
  3   2   4  1   
  4   3   5  1   
  5   3   6  1   
  6   4   7  ar  
  7   4   8  ar  
  8   5   9  1   
  9   5  20  1   
 10   5  21  1   
 11   6  10  1   
 12   6  22  1   
 13   6  23  1   
 14   7  11  ar  
 15   7  24  1   
 16   8  12  ar  
 17   8  25  1   
 18   9  13  1   
 19   9  26  1   
 20   9  27  1   
 21  10  13  1   
 22  10  28  1   
 23  10  29  1   
 24  11  14  ar  
 25  11  30  1   
 26  12  14  ar  
 27  12  31  1   
 28  13  15  1   
 29  13  32  1   
 30  14  16  1   
 31  15  33  1   
 32  15  34  1   
 33  15  35  1   
 34  16  17  1   
 35  17  18  1   
 36  17  36  1   
 37  17  37  1   
 38  18  19  1   
 39  18  38  1   
 40  18  39  1   
 41  19  40  1   
 42  19  41  1   
 43  19  42  1   
@<TRIPOS>SUBSTRUCTURE
  1 ****   4 GROUP 4 **** **** 0

# MOE 2024.06 (io_trps.svl 2023.06)
