@<TRIPOS>MOLECULE
NONAME
46 48 1 0 0 
SMALL
USER_CHARGES


@<TRIPOS>ATOM
  1 O       -0.9410    -2.0430     2.2410 O.2   1 <1>  -0.5700 
  2 C       -0.2150    -1.9330     1.2820 C.2   1 <1>   0.5690 
  3 N       -0.6370    -1.6040     0.0270 N.am  1 <1>  -0.5470 
  4 C        1.2880    -2.1580     1.4490 C.3   1 <1>   0.1710 
  5 C       -1.9060    -1.2650    -0.4700 C.ar  1 <1>   0.1170 
  6 N        2.1170    -1.3640     0.4920 N.3   1 <1>  -0.8100 
  7 C       -3.0090    -2.1180    -0.3440 C.ar  1 <1>  -0.1430 
  8 C       -2.0600    -0.0470    -1.1380 C.ar  1 <1>  -0.1430 
  9 C        2.1680     0.0490     0.9140 C.3   1 <1>   0.1100 
 10 C        3.4730    -1.9240     0.3900 C.3   1 <1>   0.1100 
 11 C       -4.2380    -1.7350    -0.8550 C.ar  1 <1>  -0.1500 
 12 C       -2.9170    -3.4810     0.3320 C.3   1 <1>  -0.0970 
 13 C       -3.2960     0.3150    -1.6470 C.ar  1 <1>  -0.1500 
 14 C       -0.8890     0.9120    -1.3170 C.3   1 <1>  -0.0970 
 15 C        2.8890     0.8750    -0.1500 C.3   1 <1>  -0.1600 
 16 C        4.2540    -1.1800    -0.6940 C.3   1 <1>  -0.1600 
 17 C       -4.3850    -0.5240    -1.5040 C.ar  1 <1>  -0.1500 
 18 C        4.2850     0.3190    -0.3940 C.3   1 <1>   0.5600 
 19 O        5.0790     0.5730     0.7200 O.3   1 <1>  -0.5600 
 20 O        4.8780     1.0160    -1.4350 O.3   1 <1>  -0.5600 
 21 C        6.3590     0.8900     0.3050 C.3   1 <1>   0.1200 
 22 C        6.2310     1.1290    -1.1870 C.3   1 <1>   0.1200 
 23 H        0.1550    -1.3900    -0.5850 H     1 <1>   0.3700 
 24 H        1.4640    -3.2060     1.2900 H     1 <1>   0.0800 
 25 H        1.5680    -1.9270     2.4620 H     1 <1>   0.0800 
 26 H        2.6880     0.1350     1.8550 H     1 <1>   0.0800 
 27 H        1.1710     0.4340     1.0460 H     1 <1>   0.0800 
 28 H        3.4180    -2.9670     0.1280 H     1 <1>   0.0800 
 29 H        3.9820    -1.8340     1.3370 H     1 <1>   0.0800 
 30 H       -5.0920    -2.3800    -0.7530 H     1 <1>   0.1500 
 31 H       -3.0220    -3.3660     1.3950 H     1 <1>   0.0800 
 32 H       -1.9710    -3.9460     0.1220 H     1 <1>   0.0800 
 33 H       -3.6930    -4.1350    -0.0200 H     1 <1>   0.0800 
 34 H       -3.4230     1.2530    -2.1560 H     1 <1>   0.1500 
 35 H       -0.0830     0.4210    -1.8320 H     1 <1>   0.0800 
 36 H       -0.5430     1.2440    -0.3550 H     1 <1>   0.0800 
 37 H       -1.1780     1.7750    -1.8880 H     1 <1>   0.0800 
 38 H        2.9620     1.8990     0.1640 H     1 <1>   0.0800 
 39 H        2.3270     0.8340    -1.0630 H     1 <1>   0.0800 
 40 H        3.7660    -1.3390    -1.6370 H     1 <1>   0.0800 
 41 H        5.2520    -1.5700    -0.7550 H     1 <1>   0.0800 
 42 H       -5.3430    -0.2360    -1.8970 H     1 <1>   0.1500 
 43 H        7.0160     0.0650     0.5220 H     1 <1>   0.0800 
 44 H        6.6850     1.7730     0.8260 H     1 <1>   0.0800 
 45 H        6.5620     2.1120    -1.4720 H     1 <1>   0.0800 
 46 H        6.7540     0.3790    -1.7530 H     1 <1>   0.0800 
@<TRIPOS>BOND
  1   1   2  2   
  2   2   3  am  
  3   2   4  1   
  4   3   5  1   
  5   3  23  1   
  6   4   6  1   
  7   4  24  1   
  8   4  25  1   
  9   5   7  ar  
 10   5   8  ar  
 11   6   9  1   
 12   6  10  1   
 13   7  11  ar  
 14   7  12  1   
 15   8  13  ar  
 16   8  14  1   
 17   9  15  1   
 18   9  26  1   
 19   9  27  1   
 20  10  16  1   
 21  10  28  1   
 22  10  29  1   
 23  11  17  ar  
 24  11  30  1   
 25  12  31  1   
 26  12  32  1   
 27  12  33  1   
 28  13  17  ar  
 29  13  34  1   
 30  14  35  1   
 31  14  36  1   
 32  14  37  1   
 33  15  18  1   
 34  15  38  1   
 35  15  39  1   
 36  16  18  1   
 37  16  40  1   
 38  16  41  1   
 39  17  42  1   
 40  18  19  1   
 41  18  20  1   
 42  19  21  1   
 43  20  22  1   
 44  21  22  1   
 45  21  43  1   
 46  21  44  1   
 47  22  45  1   
 48  22  46  1   
@<TRIPOS>SUBSTRUCTURE
  1 ****   6 GROUP 4 **** **** 0

# MOE 2024.06 (io_trps.svl 2023.06)
