@<TRIPOS>MOLECULE
NONAME
36 38 1 0 0 
SMALL
USER_CHARGES


@<TRIPOS>ATOM
  1 S        0.1210    -0.7290    -0.3010 S.3   1 <1>  -0.0800 
  2 C        1.4210     0.3490     0.1660 C.2   1 <1>   0.1040 
  3 C       -0.9780     0.6410    -0.4210 C.2   1 <1>  -0.1400 
  4 N        2.6940    -0.0600     0.4420 N.am  1 <1>  -0.4940 
  5 C        1.0270     1.6450     0.2250 C.2   1 <1>  -0.0860 
  6 C       -0.3640     1.7900    -0.1110 C.2   1 <1>  -0.1810 
  7 C       -2.4280     0.4760    -0.8250 C.3   1 <1>   0.3000 
  8 C        3.6460     0.8530     0.7930 C.2   1 <1>   0.6900 
  9 C        2.0130     2.6220     0.5930 C.2   1 <1>   0.7160 
 10 C       -1.1600     3.0810    -0.1580 C.3   1 <1>   0.0210 
 11 O       -2.9920     1.7460    -1.0620 O.3   1 <1>  -0.5600 
 12 O        4.7600     0.4500     1.0560 O.2   1 <1>  -0.5700 
 13 N        3.3090     2.1950     0.8530 N.am  1 <1>  -0.4200 
 14 O        1.7350     3.8070     0.6870 O.2   1 <1>  -0.5700 
 15 C       -2.6880     2.7960    -0.1760 C.3   1 <1>   0.2800 
 16 C        4.3640     3.1930     1.1410 C.3   1 <1>   0.2780 
 17 C       -3.4460     4.0120    -0.7110 C.3   1 <1>  -0.2400 
 18 C       -3.2280     2.4440     1.2190 C.3   1 <1>  -0.2400 
 19 C        4.9040     3.7400    -0.1680 C.2   1 <1>  -0.2880 
 20 C        6.1370     3.5280    -0.6410 C.2   1 <1>  -0.3000 
 21 H        2.9840    -1.0360     0.3960 H     1 <1>   0.3700 
 22 H       -2.9900    -0.0150    -0.0520 H     1 <1>   0.0800 
 23 H       -2.5050    -0.0900    -1.7360 H     1 <1>   0.0800 
 24 H       -0.8770     3.6260    -1.0400 H     1 <1>   0.0800 
 25 H       -0.9230     3.6940     0.6930 H     1 <1>   0.0800 
 26 H        5.1600     2.7380     1.7050 H     1 <1>   0.0800 
 27 H        3.9630     3.9950     1.7360 H     1 <1>   0.0800 
 28 H       -3.1250     4.2390    -1.7110 H     1 <1>   0.0800 
 29 H       -3.2650     4.8700    -0.0900 H     1 <1>   0.0800 
 30 H       -4.5030     3.8150    -0.7230 H     1 <1>   0.0800 
 31 H       -2.6710     1.6400     1.6620 H     1 <1>   0.0800 
 32 H       -4.2660     2.1700     1.1580 H     1 <1>   0.0800 
 33 H       -3.1410     3.2950     1.8700 H     1 <1>   0.0800 
 34 H        4.1740     4.3320    -0.6950 H     1 <1>   0.1500 
 35 H        6.5000     3.9260    -1.5730 H     1 <1>   0.1500 
 36 H        6.8840     2.9350    -0.1410 H     1 <1>   0.1500 
@<TRIPOS>BOND
  1   1   2  1   
  2   1   3  1   
  3   2   4  1   
  4   2   5  2   
  5   3   6  2   
  6   3   7  1   
  7   4   8  am  
  8   4  21  1   
  9   5   6  1   
 10   5   9  1   
 11   6  10  1   
 12   7  11  1   
 13   7  22  1   
 14   7  23  1   
 15   8  12  2   
 16   8  13  am  
 17   9  13  am  
 18   9  14  2   
 19  10  15  1   
 20  10  24  1   
 21  10  25  1   
 22  11  15  1   
 23  13  16  1   
 24  15  17  1   
 25  15  18  1   
 26  16  19  1   
 27  16  26  1   
 28  16  27  1   
 29  17  28  1   
 30  17  29  1   
 31  17  30  1   
 32  18  31  1   
 33  18  32  1   
 34  18  33  1   
 35  19  20  2   
 36  19  34  1   
 37  20  35  1   
 38  20  36  1   
@<TRIPOS>SUBSTRUCTURE
  1 ****   5 GROUP 4 **** **** 0

# MOE 2024.06 (io_trps.svl 2023.06)
