@<TRIPOS>MOLECULE
NONAME
36 36 1 0 0 
SMALL
USER_CHARGES


@<TRIPOS>ATOM
  1 S        0.1960    -0.2020     0.8440 S.o2  1 <1>   1.3330 
  2 O        0.4150     1.1560     1.2710 O.2   1 <1>  -0.6500 
  3 O        0.6900    -1.3200     1.6070 O.2   1 <1>  -0.6500 
  4 N       -1.5070    -0.3540     0.6850 N.am  1 <1>  -0.7570 
  5 C        0.7290    -0.3480    -0.8460 C.3   1 <1>  -0.1350 
  6 C       -2.3350    -1.4630     0.5470 C.ar  1 <1>   0.1990 
  7 C       -3.7350    -1.2990     0.5340 C.ar  1 <1>   0.0860 
  8 C       -1.8050    -2.7460     0.4110 C.ar  1 <1>  -0.1500 
  9 C       -4.3530     0.0090     0.6250 C.2   1 <1>   0.5440 
 10 C       -4.5370    -2.4380     0.4130 C.ar  1 <1>  -0.1500 
 11 C       -2.6180    -3.8520     0.2790 C.ar  1 <1>  -0.1500 
 12 O       -3.8810     0.8770     1.3360 O.2   1 <1>  -0.5700 
 13 N       -5.4760     0.2810    -0.1150 N.am  1 <1>  -0.7300 
 14 C       -3.9920    -3.6990     0.2840 C.ar  1 <1>  -0.1500 
 15 C       -6.2830     1.5060    -0.1760 C.3   1 <1>   0.3000 
 16 C       -7.4290     1.2180    -1.1440 C.3   1 <1>  -0.2400 
 17 C       -5.4370     2.6590    -0.7150 C.3   1 <1>  -0.2400 
 18 C       -6.8530     1.8250     1.2070 C.3   1 <1>  -0.2400 
 19 H       -1.9700     0.5010     1.0220 H     1 <1>   0.4200 
 20 H        0.2730     0.4160    -1.4440 H     1 <1>   0.0800 
 21 H        0.4560    -1.3070    -1.2410 H     1 <1>   0.0800 
 22 H        1.7940    -0.2410    -0.9050 H     1 <1>   0.0800 
 23 H       -0.7430    -2.8980     0.4150 H     1 <1>   0.1500 
 24 H       -5.6070    -2.3350     0.4300 H     1 <1>   0.1500 
 25 H       -2.1860    -4.8340     0.1800 H     1 <1>   0.1500 
 26 H       -5.7830    -0.4220    -0.7830 H     1 <1>   0.3700 
 27 H       -4.6290    -4.5630     0.1910 H     1 <1>   0.1500 
 28 H       -7.0500     0.9820    -2.1220 H     1 <1>   0.0800 
 29 H       -8.0620     2.0830    -1.2310 H     1 <1>   0.0800 
 30 H       -8.0300     0.4010    -0.7870 H     1 <1>   0.0800 
 31 H       -5.0080     2.4010    -1.6660 H     1 <1>   0.0800 
 32 H       -4.6460     2.9030    -0.0300 H     1 <1>   0.0800 
 33 H       -6.0450     3.5360    -0.8410 H     1 <1>   0.0800 
 34 H       -7.4000     0.9850     1.5930 H     1 <1>   0.0800 
 35 H       -7.5160     2.6690     1.1480 H     1 <1>   0.0800 
 36 H       -6.0650     2.0740     1.8950 H     1 <1>   0.0800 
@<TRIPOS>BOND
  1   1   2  2   
  2   1   3  2   
  3   1   4  am  
  4   1   5  1   
  5   4   6  1   
  6   4  19  1   
  7   5  20  1   
  8   5  21  1   
  9   5  22  1   
 10   6   7  ar  
 11   6   8  ar  
 12   7   9  1   
 13   7  10  ar  
 14   8  11  ar  
 15   8  23  1   
 16   9  12  2   
 17   9  13  am  
 18  10  14  ar  
 19  10  24  1   
 20  11  14  ar  
 21  11  25  1   
 22  13  15  1   
 23  13  26  1   
 24  14  27  1   
 25  15  16  1   
 26  15  17  1   
 27  15  18  1   
 28  16  28  1   
 29  16  29  1   
 30  16  30  1   
 31  17  31  1   
 32  17  32  1   
 33  17  33  1   
 34  18  34  1   
 35  18  35  1   
 36  18  36  1   
@<TRIPOS>SUBSTRUCTURE
  1 ****   7 GROUP 4 **** **** 0

# MOE 2024.06 (io_trps.svl 2023.06)
