@<TRIPOS>MOLECULE
NONAME
46 49 1 0 0 
SMALL
USER_CHARGES


@<TRIPOS>ATOM
  1 O        1.8020     0.8080    -1.1860 O.co2 1 <1>  -0.9000 
  2 C        1.0680     1.7960    -1.3090 C.2   1 <1>   0.9060 
  3 O        0.6490     2.1770    -2.4060 O.co2 1 <1>  -0.9000 
  4 C        0.7170     2.5680    -0.0420 C.3   1 <1>  -0.1860 
  5 C       -0.9010     2.5040     0.4350 C.3   1 <1>  -0.0190 
  6 C        1.1620     4.1460    -0.1150 C.3   1 <1>  -0.0800 
  7 C       -1.8130     1.4960    -0.3020 C.2   1 <1>   0.5690 
  8 C       -1.4420     4.0610     0.4900 C.3   1 <1>  -0.0800 
  9 C       -0.1320     4.1040     0.2130 C.3   1 <1>  -0.1600 
 10 C        0.6170     5.6830    -0.0100 C.3   1 <1>  -0.1600 
 11 O       -2.8480     1.8970    -0.7930 O.2   1 <1>  -0.5700 
 12 N       -1.5430     0.1490    -0.2990 N.am  1 <1>  -0.6600 
 13 C       -0.9770     5.6260     0.4870 C.3   1 <1>  -0.1600 
 14 C       -0.4330    -0.5550     0.4100 C.3   1 <1>   0.1400 
 15 C       -2.3720    -0.8210    -1.0640 C.3   1 <1>   0.1400 
 16 C       -0.9970    -1.6040     1.3880 C.3   1 <1>   0.2090 
 17 C       -3.0150    -1.8390    -0.1070 C.3   1 <1>   0.2090 
 18 N       -2.0020    -2.5310     0.7560 N.pl3 1 <1>  -0.8380 
 19 C       -1.6160    -3.8110     0.3980 C.ar  1 <1>   0.4100 
 20 N       -0.3490    -3.9970     0.0480 N.ar  1 <1>  -0.6200 
 21 C       -2.5560    -4.8390     0.4100 C.ar  1 <1>  -0.1500 
 22 C       -0.0170    -5.2240    -0.3110 C.ar  1 <1>   0.1600 
 23 C       -2.1980    -6.1140     0.0380 C.ar  1 <1>  -0.1500 
 24 C       -0.8830    -6.3020    -0.3350 C.ar  1 <1>  -0.1500 
 25 H        1.3000     2.0970     0.7310 H     1 <1>   0.0800 
 26 H       -0.9110     2.1470     1.4520 H     1 <1>   0.0800 
 27 H        1.9450     4.1630     0.6300 H     1 <1>   0.0800 
 28 H       -2.1760     4.0930    -0.3020 H     1 <1>   0.0800 
 29 H       -0.3970     4.0980    -0.9330 H     1 <1>   0.0800 
 30 H        0.1460     4.0850     1.3550 H     1 <1>   0.0800 
 31 H        0.6850     6.1560    -0.9790 H     1 <1>   0.0800 
 32 H        1.2100     6.2620     0.6790 H     1 <1>   0.0800 
 33 H       -1.0750     6.0450     1.4770 H     1 <1>   0.0800 
 34 H       -1.5970     6.2090    -0.1760 H     1 <1>   0.0800 
 35 H        0.1840     0.1340     0.9510 H     1 <1>   0.0800 
 36 H        0.1930    -1.0470    -0.3160 H     1 <1>   0.0800 
 37 H       -1.7440    -1.3380    -1.7680 H     1 <1>   0.0800 
 38 H       -3.1390    -0.3130    -1.6210 H     1 <1>   0.0800 
 39 H       -1.4740    -1.0890     2.2020 H     1 <1>   0.0800 
 40 H       -0.1810    -2.1700     1.8010 H     1 <1>   0.0800 
 41 H       -3.5570    -2.5620    -0.6890 H     1 <1>   0.0800 
 42 H       -3.7190    -1.3240     0.5230 H     1 <1>   0.0800 
 43 H       -3.5580    -4.6170     0.7200 H     1 <1>   0.1500 
 44 H        1.0080    -5.3760    -0.6020 H     1 <1>   0.1500 
 45 H       -2.9060    -6.9250     0.0390 H     1 <1>   0.1500 
 46 H       -0.5330    -7.2710    -0.6390 H     1 <1>   0.1500 
@<TRIPOS>BOND
  1   1   2  ar  
  2   2   3  ar  
  3   2   4  1   
  4   4   5  1   
  5   4   6  1   
  6   4  25  1   
  7   5   7  1   
  8   5   8  1   
  9   5  26  1   
 10   6   9  1   
 11   6  10  1   
 12   6  27  1   
 13   7  11  2   
 14   7  12  am  
 15   8   9  1   
 16   8  13  1   
 17   8  28  1   
 18   9  29  1   
 19   9  30  1   
 20  10  13  1   
 21  10  31  1   
 22  10  32  1   
 23  12  14  1   
 24  12  15  1   
 25  13  33  1   
 26  13  34  1   
 27  14  16  1   
 28  14  35  1   
 29  14  36  1   
 30  15  17  1   
 31  15  37  1   
 32  15  38  1   
 33  16  18  1   
 34  16  39  1   
 35  16  40  1   
 36  17  18  1   
 37  17  41  1   
 38  17  42  1   
 39  18  19  1   
 40  19  20  ar  
 41  19  21  ar  
 42  20  22  ar  
 43  21  23  ar  
 44  21  43  1   
 45  22  24  ar  
 46  22  44  1   
 47  23  24  ar  
 48  23  45  1   
 49  24  46  1   
@<TRIPOS>SUBSTRUCTURE
  1 ****  12 GROUP 4 **** **** 0

# MOE 2024.06 (io_trps.svl 2023.06)
