@<TRIPOS>MOLECULE
NONAME
48 52 1 0 0 
SMALL
USER_CHARGES


@<TRIPOS>ATOM
  1 S       -0.0500    -0.0270    -0.1640 S.3   1 <1>  -0.0800 
  2 C       -1.1010     1.3920    -0.1360 C.2   1 <1>   0.4420 
  3 C        1.3520     1.0180    -0.2100 C.ar  1 <1>   0.0400 
  4 N       -0.4730     2.5050    -0.1590 N.2   1 <1>  -0.5650 
  5 N       -2.4460     1.1230    -0.0940 N.am  1 <1>  -0.4940 
  6 C        0.9010     2.3250    -0.2010 C.ar  1 <1>   0.2270 
  7 C        2.6870     0.6630    -0.2500 C.ar  1 <1>  -0.1500 
  8 C       -3.5220     1.9520    -0.0630 C.2   1 <1>   0.6900 
  9 C        1.8450     3.3410    -0.2330 C.ar  1 <1>  -0.1500 
 10 C        3.6220     1.6940    -0.2820 C.ar  1 <1>   0.0830 
 11 O       -3.4230     3.1580    -0.0710 O.2   1 <1>  -0.5700 
 12 N       -4.7680     1.4330    -0.0220 N.am  1 <1>  -0.7300 
 13 C        3.1930     3.0210    -0.2730 C.ar  1 <1>  -0.1500 
 14 O        4.9620     1.4900    -0.3230 O.3   1 <1>  -0.3630 
 15 C       -5.2860     0.0560     0.0000 C.3   1 <1>   0.3000 
 16 C        5.5050     0.1880    -0.3350 C.3   1 <1>   0.0400 
 17 C       -6.8230     0.1440     0.0470 C.3   1 <1>  -0.1600 
 18 C       -4.7970    -0.6970     1.2530 C.3   1 <1>  -0.1600 
 19 C       -4.8760    -0.7080    -1.2760 C.3   1 <1>  -0.1600 
 20 C       -7.4420    -1.2670     0.0720 C.3   1 <1>  -0.0800 
 21 C       -5.3940    -2.1180     1.2780 C.3   1 <1>  -0.0800 
 22 C       -5.4730    -2.1290    -1.2510 C.3   1 <1>  -0.0800 
 23 C       -6.9300    -2.0190     1.3150 C.3   1 <1>  -0.1600 
 24 C       -7.0090    -2.0300    -1.1940 C.3   1 <1>  -0.1600 
 25 C       -4.9670    -2.8710     0.0020 C.3   1 <1>  -0.1600 
 26 H       -2.7000     0.1460    -0.0820 H     1 <1>   0.3700 
 27 H        2.9610    -0.3730    -0.2550 H     1 <1>   0.1500 
 28 H        1.5100     4.3620    -0.2260 H     1 <1>   0.1500 
 29 H       -5.4920     2.1500    -0.0030 H     1 <1>   0.3700 
 30 H        3.9320     3.8020    -0.2990 H     1 <1>   0.1500 
 31 H        6.5760     0.2740    -0.3690 H     1 <1>   0.0800 
 32 H        5.1530    -0.3290    -1.2100 H     1 <1>   0.0800 
 33 H        5.2070    -0.3230     0.5630 H     1 <1>   0.0800 
 34 H       -7.1870     0.6740    -0.8160 H     1 <1>   0.0800 
 35 H       -7.1320     0.6810     0.9270 H     1 <1>   0.0800 
 36 H       -5.1010    -0.1650     2.1370 H     1 <1>   0.0800 
 37 H       -3.7280    -0.7760     1.2640 H     1 <1>   0.0800 
 38 H       -3.8090    -0.7870    -1.3530 H     1 <1>   0.0800 
 39 H       -5.2350    -0.1830    -2.1440 H     1 <1>   0.0800 
 40 H       -8.5160    -1.1960     0.1060 H     1 <1>   0.0800 
 41 H       -5.0430    -2.6470     2.1480 H     1 <1>   0.0800 
 42 H       -5.1780    -2.6650    -2.1380 H     1 <1>   0.0800 
 43 H       -7.2420    -1.5050     2.2080 H     1 <1>   0.0800 
 44 H       -7.3580    -3.0070     1.3440 H     1 <1>   0.0800 
 45 H       -7.3760    -1.5230    -2.0690 H     1 <1>   0.0800 
 46 H       -7.4370    -3.0170    -1.1870 H     1 <1>   0.0800 
 47 H       -5.3710    -3.8680     0.0180 H     1 <1>   0.0800 
 48 H       -3.8950    -2.9580    -0.0320 H     1 <1>   0.0800 
@<TRIPOS>BOND
  1   1   2  1   
  2   1   3  1   
  3   2   4  2   
  4   2   5  1   
  5   3   6  ar  
  6   3   7  ar  
  7   4   6  1   
  8   5   8  am  
  9   5  26  1   
 10   6   9  ar  
 11   7  10  ar  
 12   7  27  1   
 13   8  11  2   
 14   8  12  am  
 15   9  13  ar  
 16   9  28  1   
 17  10  13  ar  
 18  10  14  1   
 19  12  15  1   
 20  12  29  1   
 21  13  30  1   
 22  14  16  1   
 23  15  17  1   
 24  15  18  1   
 25  15  19  1   
 26  16  31  1   
 27  16  32  1   
 28  16  33  1   
 29  17  20  1   
 30  17  34  1   
 31  17  35  1   
 32  18  21  1   
 33  18  36  1   
 34  18  37  1   
 35  19  22  1   
 36  19  38  1   
 37  19  39  1   
 38  20  23  1   
 39  20  24  1   
 40  20  40  1   
 41  21  23  1   
 42  21  25  1   
 43  21  41  1   
 44  22  24  1   
 45  22  25  1   
 46  22  42  1   
 47  23  43  1   
 48  23  44  1   
 49  24  45  1   
 50  24  46  1   
 51  25  47  1   
 52  25  48  1   
@<TRIPOS>SUBSTRUCTURE
  1 ****   5 GROUP 4 **** **** 0

# MOE 2024.06 (io_trps.svl 2023.06)
