@<TRIPOS>MOLECULE
NONAME
44 46 1 0 0 
SMALL
USER_CHARGES


@<TRIPOS>ATOM
  1 O      -14.2780     1.5470    -0.0890 O.3   1 <1>  -0.5600 
  2 C      -13.0760     2.1380    -0.4400 C.3   1 <1>   0.1200 
  3 C      -15.3170     1.7660    -0.9930 C.3   1 <1>   0.0400 
  4 C      -12.0730     1.7900     0.6630 C.3   1 <1>   0.3430 
  5 N      -10.7250     2.3620     0.3870 N.4   1 <1>  -0.9060 
  6 C       -9.7310     2.0330     1.4280 C.3   1 <1>   0.4860 
  7 C       -8.4330     2.6500     0.9700 C.ar  1 <1>  -0.1440 
  8 C       -7.5620     1.9260     0.1780 C.ar  1 <1>  -0.1500 
  9 C       -8.1190     3.9640     1.3350 C.ar  1 <1>  -0.1500 
 10 C       -6.3820     2.5160    -0.2650 C.ar  1 <1>   0.0000 
 11 C       -6.9520     4.5530     0.9010 C.ar  1 <1>  -0.1500 
 12 C       -6.0820     3.8240     0.0910 C.ar  1 <1>  -0.1520 
 13 C       -5.3120     2.0440    -1.0760 C.ar  1 <1>   0.0000 
 14 N       -4.8680     4.1690    -0.4750 N.pl3 1 <1>   0.0480 
 15 C       -4.3960     3.0830    -1.1860 C.ar  1 <1>  -0.1520 
 16 C       -5.0630     0.8260    -1.7090 C.ar  1 <1>  -0.1500 
 17 C       -4.1880     5.4760    -0.3460 C.3   1 <1>   0.0960 
 18 C       -3.2230     2.9180    -1.9250 C.ar  1 <1>  -0.1500 
 19 C       -3.9060     0.6660    -2.4410 C.ar  1 <1>  -0.1500 
 20 C       -3.2510     5.4760     0.8660 C.3   1 <1>  -0.2400 
 21 C       -2.9870     1.7120    -2.5480 C.ar  1 <1>  -0.1500 
 22 H      -13.2270     3.2020    -0.5070 H     1 <1>   0.0800 
 23 H      -12.7640     1.7350    -1.3890 H     1 <1>   0.0800 
 24 H      -16.1950     1.2660    -0.6220 H     1 <1>   0.0800 
 25 H      -15.0510     1.3580    -1.9530 H     1 <1>   0.0800 
 26 H      -15.5120     2.8220    -1.0690 H     1 <1>   0.0800 
 27 H      -12.0060     0.7160     0.7360 H     1 <1>   0.0800 
 28 H      -12.4480     2.1730     1.5990 H     1 <1>   0.0800 
 29 H      -10.7610     3.3850     0.3070 H     1 <1>   0.4500 
 30 H      -10.3520     2.0210    -0.5080 H     1 <1>   0.4500 
 31 H       -9.6180     0.9640     1.5220 H     1 <1>   0.0800 
 32 H      -10.0220     2.4420     2.3820 H     1 <1>   0.0800 
 33 H       -7.7580     0.9090    -0.1140 H     1 <1>   0.1500 
 34 H       -8.7830     4.5330     1.9640 H     1 <1>   0.1500 
 35 H       -6.7050     5.5620     1.1830 H     1 <1>   0.1500 
 36 H       -5.7720     0.0250    -1.6200 H     1 <1>   0.1500 
 37 H       -4.9290     6.2460    -0.2420 H     1 <1>   0.0800 
 38 H       -3.6300     5.6660    -1.2450 H     1 <1>   0.0800 
 39 H       -2.5130     3.7210    -2.0060 H     1 <1>   0.1500 
 40 H       -3.7010    -0.2670    -2.9350 H     1 <1>   0.1500 
 41 H       -3.8090     5.2990     1.7690 H     1 <1>   0.0800 
 42 H       -2.7590     6.4280     0.9480 H     1 <1>   0.0800 
 43 H       -2.5020     4.7110     0.7580 H     1 <1>   0.0800 
 44 H       -2.0890     1.5660    -3.1230 H     1 <1>   0.1500 
@<TRIPOS>BOND
  1   1   2  1   
  2   1   3  1   
  3   2   4  1   
  4   2  22  1   
  5   2  23  1   
  6   3  24  1   
  7   3  25  1   
  8   3  26  1   
  9   4   5  1   
 10   4  27  1   
 11   4  28  1   
 12   5   6  1   
 13   5  29  1   
 14   5  30  1   
 15   6   7  1   
 16   6  31  1   
 17   6  32  1   
 18   7   8  ar  
 19   7   9  ar  
 20   8  10  ar  
 21   8  33  1   
 22   9  11  ar  
 23   9  34  1   
 24  10  12  ar  
 25  10  13  1   
 26  11  12  ar  
 27  11  35  1   
 28  12  14  1   
 29  13  15  ar  
 30  13  16  ar  
 31  14  15  1   
 32  14  17  1   
 33  15  18  ar  
 34  16  19  ar  
 35  16  36  1   
 36  17  20  1   
 37  17  37  1   
 38  17  38  1   
 39  18  21  ar  
 40  18  39  1   
 41  19  21  ar  
 42  19  40  1   
 43  20  41  1   
 44  20  42  1   
 45  20  43  1   
 46  21  44  1   
@<TRIPOS>SUBSTRUCTURE
  1 ****   8 GROUP 4 **** **** 0

# MOE 2024.06 (io_trps.svl 2023.06)
