@<TRIPOS>MOLECULE
NONAME
47 48 1 0 0 
SMALL
USER_CHARGES


@<TRIPOS>ATOM
  1 S        0.3740    -1.5410     0.9130 S.3   1 <1>  -0.2860 
  2 C       -1.1480    -1.1490     0.0440 C.2   1 <1>   0.2420 
  3 C        1.4320    -0.0370     0.6340 C.3   1 <1>   0.1310 
  4 N       -1.3400    -0.0530    -0.5980 N.2   1 <1>  -0.3380 
  5 N       -2.1860    -1.9850    -0.0010 N.pl3 1 <1>   0.0480 
  6 C        2.9060    -0.3860     0.7510 C.2   1 <1>   0.5690 
  7 N       -2.5710    -0.1450    -1.1090 N.2   1 <1>  -0.3380 
  8 C       -3.0570    -1.2870    -0.7480 C.2   1 <1>   0.0060 
  9 C       -2.3090    -3.3270     0.6110 C.3   1 <1>   0.0960 
 10 O        3.6430     0.4330     1.2430 O.2   1 <1>  -0.5700 
 11 N        3.3130    -1.6050     0.2770 N.am  1 <1>  -0.5470 
 12 C       -4.4470    -1.7660    -1.1330 C.3   1 <1>   0.0200 
 13 C       -1.7150    -4.3980    -0.3100 C.3   1 <1>  -0.2400 
 14 C        4.5620    -2.2250     0.1060 C.ar  1 <1>   0.1170 
 15 C       -5.4560    -1.5050    -0.0100 C.3   1 <1>  -0.2400 
 16 C        4.6280    -3.5680    -0.2980 C.ar  1 <1>  -0.1430 
 17 C        5.7490    -1.5280     0.3150 C.ar  1 <1>  -0.1500 
 18 C        5.8750    -4.1580    -0.4700 C.ar  1 <1>  -0.1500 
 19 C        3.4020    -4.4580    -0.5650 C.3   1 <1>   0.0630 
 20 C        6.9790    -2.1300     0.1390 C.ar  1 <1>  -0.1500 
 21 C        7.0430    -3.4510    -0.2550 C.ar  1 <1>  -0.1500 
 22 C        2.5060    -3.9370    -1.6980 C.3   1 <1>  -0.2400 
 23 C        2.6030    -4.7410     0.7130 C.3   1 <1>  -0.2400 
 24 H        1.1500     0.6940     1.3680 H     1 <1>   0.0800 
 25 H        1.2240     0.3350    -0.3520 H     1 <1>   0.0800 
 26 H       -3.3470    -3.5350     0.7950 H     1 <1>   0.0800 
 27 H       -1.7950    -3.3270     1.5560 H     1 <1>   0.0800 
 28 H        2.5400    -2.2160     0.0170 H     1 <1>   0.3700 
 29 H       -4.4230    -2.8140    -1.3760 H     1 <1>   0.0800 
 30 H       -4.7610    -1.2350    -2.0160 H     1 <1>   0.0800 
 31 H       -2.2290    -4.4090    -1.2550 H     1 <1>   0.0800 
 32 H       -1.8190    -5.3670     0.1460 H     1 <1>   0.0800 
 33 H       -0.6690    -4.2120    -0.4760 H     1 <1>   0.0800 
 34 H       -5.1790    -2.0320     0.8850 H     1 <1>   0.0800 
 35 H       -6.4370    -1.8260    -0.3130 H     1 <1>   0.0800 
 36 H       -5.4920    -0.4520     0.2080 H     1 <1>   0.0800 
 37 H        5.7280    -0.4980     0.6170 H     1 <1>   0.1500 
 38 H        5.9550    -5.1860    -0.7760 H     1 <1>   0.1500 
 39 H        3.7630    -5.4150    -0.9020 H     1 <1>   0.0800 
 40 H        7.8820    -1.5710     0.3090 H     1 <1>   0.1500 
 41 H        7.9980    -3.9270    -0.3930 H     1 <1>   0.1500 
 42 H        1.9520    -3.0630    -1.4180 H     1 <1>   0.0800 
 43 H        1.8020    -4.6980    -1.9850 H     1 <1>   0.0800 
 44 H        3.1100    -3.6990    -2.5560 H     1 <1>   0.0800 
 45 H        2.1710    -3.8490     1.1220 H     1 <1>   0.0800 
 46 H        3.2540    -5.1660     1.4570 H     1 <1>   0.0800 
 47 H        1.8150    -5.4430     0.5120 H     1 <1>   0.0800 
@<TRIPOS>BOND
  1   1   2  1   
  2   1   3  1   
  3   2   4  2   
  4   2   5  1   
  5   3   6  1   
  6   3  24  1   
  7   3  25  1   
  8   4   7  1   
  9   5   8  1   
 10   5   9  1   
 11   6  10  2   
 12   6  11  am  
 13   7   8  2   
 14   8  12  1   
 15   9  13  1   
 16   9  26  1   
 17   9  27  1   
 18  11  14  1   
 19  11  28  1   
 20  12  15  1   
 21  12  29  1   
 22  12  30  1   
 23  13  31  1   
 24  13  32  1   
 25  13  33  1   
 26  14  16  ar  
 27  14  17  ar  
 28  15  34  1   
 29  15  35  1   
 30  15  36  1   
 31  16  18  ar  
 32  16  19  1   
 33  17  20  ar  
 34  17  37  1   
 35  18  21  ar  
 36  18  38  1   
 37  19  22  1   
 38  19  23  1   
 39  19  39  1   
 40  20  21  ar  
 41  20  40  1   
 42  21  41  1   
 43  22  42  1   
 44  22  43  1   
 45  22  44  1   
 46  23  45  1   
 47  23  46  1   
 48  23  47  1   
@<TRIPOS>SUBSTRUCTURE
  1 ****   1 GROUP 4 **** **** 0

# MOE 2024.06 (io_trps.svl 2023.06)
