@<TRIPOS>MOLECULE
NONAME
32 32 1 0 0 
SMALL
USER_CHARGES


@<TRIPOS>ATOM
  1 S       -0.1780    -0.3270    -1.5940 S.o2  1 <1>   1.3330 
  2 O       -0.1660     0.8900    -2.3660 O.2   1 <1>  -0.6500 
  3 O        0.6500    -1.4550    -1.9370 O.2   1 <1>  -0.6500 
  4 N       -1.8170    -0.8240    -1.6290 N.am  1 <1>  -0.7570 
  5 C        0.0550     0.0920     0.1200 C.3   1 <1>  -0.1350 
  6 C       -2.4110    -1.6960    -0.7320 C.ar  1 <1>   0.1990 
  7 C       -3.5270    -1.3630     0.0620 C.ar  1 <1>  -0.1430 
  8 C       -1.8400    -2.9620    -0.6270 C.ar  1 <1>  -0.1500 
  9 C       -3.9790    -2.3350     0.9550 C.ar  1 <1>  -0.1500 
 10 C       -4.3120    -0.0130     0.0670 C.3   1 <1>   0.1440 
 11 C       -2.3180    -3.9010     0.2600 C.ar  1 <1>  -0.1500 
 12 C       -3.3930    -3.5820     1.0600 C.ar  1 <1>  -0.1500 
 13 C       -5.8040    -0.2870    -0.2040 C.3   1 <1>  -0.2400 
 14 C       -4.1660     0.6440     1.4500 C.3   1 <1>  -0.2400 
 15 C       -3.8930     1.0510    -0.9660 C.3   1 <1>  -0.2400 
 16 H       -2.3880    -0.0580    -1.9640 H     1 <1>   0.4200 
 17 H       -0.6490     0.8430     0.4200 H     1 <1>   0.0800 
 18 H        1.0470     0.4680     0.2740 H     1 <1>   0.0800 
 19 H       -0.0820    -0.7770     0.7350 H     1 <1>   0.0800 
 20 H       -1.0080    -3.2200    -1.2570 H     1 <1>   0.1500 
 21 H       -4.8140    -2.1400     1.6020 H     1 <1>   0.1500 
 22 H       -1.8580    -4.8720     0.3250 H     1 <1>   0.1500 
 23 H       -3.7760    -4.3030     1.7610 H     1 <1>   0.1500 
 24 H       -5.9170    -0.8040    -1.1400 H     1 <1>   0.0800 
 25 H       -6.3610     0.6320    -0.2550 H     1 <1>   0.0800 
 26 H       -6.2510    -0.8860     0.5660 H     1 <1>   0.0800 
 27 H       -4.5650     0.0190     2.2270 H     1 <1>   0.0800 
 28 H       -4.6890     1.5830     1.4840 H     1 <1>   0.0800 
 29 H       -3.1280     0.8240     1.6640 H     1 <1>   0.0800 
 30 H       -4.0040     0.6750    -1.9680 H     1 <1>   0.0800 
 31 H       -2.8840     1.3800    -0.7990 H     1 <1>   0.0800 
 32 H       -4.5210     1.9210    -0.8830 H     1 <1>   0.0800 
@<TRIPOS>BOND
  1   1   2  2   
  2   1   3  2   
  3   1   4  am  
  4   1   5  1   
  5   4   6  1   
  6   4  16  1   
  7   5  17  1   
  8   5  18  1   
  9   5  19  1   
 10   6   7  ar  
 11   6   8  ar  
 12   7   9  ar  
 13   7  10  1   
 14   8  11  ar  
 15   8  20  1   
 16   9  12  ar  
 17   9  21  1   
 18  10  13  1   
 19  10  14  1   
 20  10  15  1   
 21  11  12  ar  
 22  11  22  1   
 23  12  23  1   
 24  13  24  1   
 25  13  25  1   
 26  13  26  1   
 27  14  27  1   
 28  14  28  1   
 29  14  29  1   
 30  15  30  1   
 31  15  31  1   
 32  15  32  1   
@<TRIPOS>SUBSTRUCTURE
  1 ****   6 GROUP 4 **** **** 0

# MOE 2024.06 (io_trps.svl 2023.06)
