@<TRIPOS>MOLECULE
NONAME
37 39 1 0 0 
SMALL
USER_CHARGES


@<TRIPOS>ATOM
  1 S       -0.0170     0.1350     2.4960 S.3   1 <1>  -0.2860 
  2 C       -1.5880     0.1760     1.6450 C.2   1 <1>   0.2420 
  3 C        1.0620     1.3430     1.5790 C.3   1 <1>   0.1310 
  4 N       -1.8270     0.8820     0.5980 N.2   1 <1>  -0.5650 
  5 N       -2.6130    -0.5770     2.0950 N.pl3 1 <1>   0.0330 
  6 C        2.3270     0.6480     1.0960 C.2   1 <1>   0.5690 
  7 C       -3.1280     0.5780     0.3110 C.ar  1 <1>   0.2270 
  8 C       -3.6310    -0.3300     1.2320 C.ar  1 <1>  -0.1520 
  9 O        3.3370     0.8440     1.7310 O.2   1 <1>  -0.5700 
 10 N        2.3270    -0.1630    -0.0140 N.am  1 <1>  -0.6600 
 11 C       -3.9410     1.0420    -0.7280 C.ar  1 <1>  -0.1430 
 12 C       -4.9420    -0.8000     1.1500 C.ar  1 <1>  -0.1500 
 13 C        1.1480    -0.4630    -0.8800 C.3   1 <1>   0.1400 
 14 C        3.5230    -0.9730    -0.3910 C.3   1 <1>   0.1400 
 15 C       -5.2380     0.5770    -0.8100 C.ar  1 <1>  -0.1500 
 16 C       -3.3860     2.0380    -1.7330 C.3   1 <1>  -0.0970 
 17 C       -5.7360    -0.3390     0.1240 C.ar  1 <1>  -0.1500 
 18 C        0.8950    -1.9780    -0.9270 C.3   1 <1>   0.1200 
 19 C        3.1500    -2.4630    -0.4720 C.3   1 <1>   0.1200 
 20 O        2.0540    -2.6580    -1.3230 O.3   1 <1>  -0.5600 
 21 H        1.3130     2.1200     2.2770 H     1 <1>   0.0800 
 22 H        0.5110     1.7650     0.7630 H     1 <1>   0.0800 
 23 H       -2.6070    -1.1890     2.9130 H     1 <1>   0.2700 
 24 H       -5.3180    -1.5030     1.8720 H     1 <1>   0.1500 
 25 H        1.3430    -0.1100    -1.8780 H     1 <1>   0.0800 
 26 H        0.2650     0.0300    -0.5280 H     1 <1>   0.0800 
 27 H        4.3130    -0.8450     0.3290 H     1 <1>   0.0800 
 28 H        3.8900    -0.6440    -1.3470 H     1 <1>   0.0800 
 29 H       -5.8880     0.9150    -1.5980 H     1 <1>   0.1500 
 30 H       -2.5400     1.6090    -2.2390 H     1 <1>   0.0800 
 31 H       -3.0660     2.9280    -1.2210 H     1 <1>   0.0800 
 32 H       -4.1280     2.3060    -2.4630 H     1 <1>   0.0800 
 33 H       -6.7530    -0.6790     0.0300 H     1 <1>   0.1500 
 34 H        0.1200    -2.2040    -1.6380 H     1 <1>   0.0800 
 35 H        0.5940    -2.3400     0.0410 H     1 <1>   0.0800 
 36 H        2.9000    -2.8410     0.5040 H     1 <1>   0.0800 
 37 H        3.9750    -3.0320    -0.8630 H     1 <1>   0.0800 
@<TRIPOS>BOND
  1   1   2  1   
  2   1   3  1   
  3   2   4  2   
  4   2   5  1   
  5   3   6  1   
  6   3  21  1   
  7   3  22  1   
  8   4   7  1   
  9   5   8  1   
 10   5  23  1   
 11   6   9  2   
 12   6  10  am  
 13   7   8  ar  
 14   7  11  ar  
 15   8  12  ar  
 16  10  13  1   
 17  10  14  1   
 18  11  15  ar  
 19  11  16  1   
 20  12  17  ar  
 21  12  24  1   
 22  13  18  1   
 23  13  25  1   
 24  13  26  1   
 25  14  19  1   
 26  14  27  1   
 27  14  28  1   
 28  15  17  ar  
 29  15  29  1   
 30  16  30  1   
 31  16  31  1   
 32  16  32  1   
 33  17  33  1   
 34  18  20  1   
 35  18  34  1   
 36  18  35  1   
 37  19  20  1   
 38  19  36  1   
 39  19  37  1   
@<TRIPOS>SUBSTRUCTURE
  1 ****   4 GROUP 4 **** **** 0

# MOE 2024.06 (io_trps.svl 2023.06)
