@<TRIPOS>MOLECULE
NONAME
40 43 1 0 0 
SMALL
USER_CHARGES


@<TRIPOS>ATOM
  1 BR      -1.1160     0.6540     1.2590 Br    1 <1>  -0.1110 
  2 C       -2.4560    -0.5390     0.5740 C.ar  1 <1>   0.1110 
  3 C       -2.0700    -1.7720     0.0880 C.ar  1 <1>  -0.1500 
  4 C       -3.7770    -0.1360     0.5810 C.ar  1 <1>  -0.1500 
  5 C       -3.0450    -2.6240    -0.4010 C.ar  1 <1>  -0.1500 
  6 C       -4.7380    -1.0010     0.0860 C.ar  1 <1>  -0.1500 
  7 C       -4.3970    -2.2660    -0.4090 C.ar  1 <1>   0.0860 
  8 C       -5.4020    -3.1840    -0.9150 C.2   1 <1>   0.5440 
  9 O       -5.1200    -4.0070    -1.7640 O.2   1 <1>  -0.5700 
 10 N       -6.6790    -3.1480    -0.4330 N.am  1 <1>  -0.7300 
 11 C       -7.7940    -4.0230    -0.8570 C.3   1 <1>   0.2200 
 12 C       -9.0230    -3.1700    -1.2370 C.3   1 <1>  -0.0800 
 13 C       -8.1740    -4.9920     0.2830 C.3   1 <1>  -0.0800 
 14 C       -9.5600    -2.3970    -0.0100 C.3   1 <1>  -0.1600 
 15 C      -10.1330    -4.1140    -1.7460 C.3   1 <1>  -0.1600 
 16 C       -8.7100    -4.2180     1.5090 C.3   1 <1>  -0.1600 
 17 C       -9.2840    -5.9330    -0.2280 C.3   1 <1>  -0.1600 
 18 C       -9.9440    -3.3850     1.1090 C.3   1 <1>  -0.0800 
 19 C      -10.5240    -5.1140    -0.6390 C.3   1 <1>  -0.0800 
 20 C      -11.0390    -4.3330     0.5850 C.3   1 <1>  -0.1600 
 21 H       -1.0330    -2.0570     0.0910 H     1 <1>   0.1500 
 22 H       -4.0420     0.8350     0.9610 H     1 <1>   0.1500 
 23 H       -2.7630    -3.5900    -0.7880 H     1 <1>   0.1500 
 24 H       -5.7660    -0.6870     0.0760 H     1 <1>   0.1500 
 25 H       -6.9020    -2.5600     0.3670 H     1 <1>   0.3700 
 26 H       -7.4850    -4.5940    -1.7170 H     1 <1>   0.0800 
 27 H       -8.7530    -2.4850    -2.0220 H     1 <1>   0.0800 
 28 H       -7.3110    -5.5760     0.5550 H     1 <1>   0.0800 
 29 H      -10.4240    -1.8230    -0.2960 H     1 <1>   0.0800 
 30 H       -8.8220    -1.7030     0.3490 H     1 <1>   0.0800 
 31 H       -9.7870    -4.6490    -2.6130 H     1 <1>   0.0800 
 32 H      -10.9940    -3.5400    -2.0400 H     1 <1>   0.0800 
 33 H       -8.9810    -4.9150     2.2830 H     1 <1>   0.0800 
 34 H       -7.9470    -3.5770     1.9110 H     1 <1>   0.0800 
 35 H       -9.5500    -6.6360     0.5430 H     1 <1>   0.0800 
 36 H       -8.9240    -6.4970    -1.0710 H     1 <1>   0.0800 
 37 H      -10.3120    -2.8440     1.9640 H     1 <1>   0.0800 
 38 H      -11.2940    -5.7740    -1.0000 H     1 <1>   0.0800 
 39 H      -11.9130    -3.7660     0.3140 H     1 <1>   0.0800 
 40 H      -11.3270    -5.0220     1.3610 H     1 <1>   0.0800 
@<TRIPOS>BOND
  1   1   2  1   
  2   2   3  ar  
  3   2   4  ar  
  4   3   5  ar  
  5   3  21  1   
  6   4   6  ar  
  7   4  22  1   
  8   5   7  ar  
  9   5  23  1   
 10   6   7  ar  
 11   6  24  1   
 12   7   8  1   
 13   8   9  2   
 14   8  10  am  
 15  10  11  1   
 16  10  25  1   
 17  11  12  1   
 18  11  13  1   
 19  11  26  1   
 20  12  14  1   
 21  12  15  1   
 22  12  27  1   
 23  13  16  1   
 24  13  17  1   
 25  13  28  1   
 26  14  18  1   
 27  14  29  1   
 28  14  30  1   
 29  15  19  1   
 30  15  31  1   
 31  15  32  1   
 32  16  18  1   
 33  16  33  1   
 34  16  34  1   
 35  17  19  1   
 36  17  35  1   
 37  17  36  1   
 38  18  20  1   
 39  18  37  1   
 40  19  20  1   
 41  19  38  1   
 42  20  39  1   
 43  20  40  1   
@<TRIPOS>SUBSTRUCTURE
  1 ****  10 GROUP 4 **** **** 0

# MOE 2024.06 (io_trps.svl 2023.06)
