@<TRIPOS>MOLECULE
NONAME
37 38 1 0 0 
SMALL
USER_CHARGES


@<TRIPOS>ATOM
  1 O       -0.1480    -0.9010     1.9180 O.2   1 <1>  -0.5700 
  2 C       -0.2450    -1.3700     0.7970 C.2   1 <1>   0.7160 
  3 N       -1.4860    -1.5170     0.2560 N.am  1 <1>  -0.7300 
  4 C        0.9290    -1.7710     0.0420 C.2   1 <1>   0.2030 
  5 C       -2.7590    -1.3040     0.9450 C.3   1 <1>   0.3640 
  6 N        0.9380    -2.2830    -1.1540 N.2   1 <1>  -0.4100 
  7 C        2.2400    -1.6700     0.4810 C.2   1 <1>  -0.1500 
  8 C       -3.7980    -2.2860     0.3930 C.ar  1 <1>  -0.1430 
  9 C       -3.1740     0.1610     0.8350 C.3   1 <1>  -0.2400 
 10 O        2.1690    -2.5270    -1.5340 O.3   1 <1>  -0.0190 
 11 C        2.9490    -2.1540    -0.5420 C.2   1 <1>  -0.0400 
 12 C       -4.2650    -2.3150    -0.9260 C.ar  1 <1>  -0.1430 
 13 C       -4.2950    -3.2190     1.2970 C.ar  1 <1>  -0.1500 
 14 C        4.4460    -2.3180    -0.6960 C.3   1 <1>  -0.0600 
 15 C       -5.2120    -3.2620    -1.2890 C.ar  1 <1>  -0.1500 
 16 C       -3.8160    -1.3560    -2.0240 C.3   1 <1>  -0.0970 
 17 C       -5.2350    -4.1640     0.9270 C.ar  1 <1>  -0.1430 
 18 C       -5.6940    -4.1790    -0.3750 C.ar  1 <1>  -0.1500 
 19 C       -5.7550    -5.1650     1.9420 C.3   1 <1>  -0.0970 
 20 H       -1.5650    -2.0450    -0.6150 H     1 <1>   0.3700 
 21 H       -2.6090    -1.5140     1.9910 H     1 <1>   0.0800 
 22 H        2.5540    -1.2840     1.4330 H     1 <1>   0.1500 
 23 H       -3.1830     0.4980    -0.1820 H     1 <1>   0.0800 
 24 H       -2.4880     0.7710     1.3950 H     1 <1>   0.0800 
 25 H       -4.1560     0.2870     1.2510 H     1 <1>   0.0800 
 26 H       -3.9450    -3.2170     2.3140 H     1 <1>   0.1500 
 27 H        4.9520    -1.9740     0.1880 H     1 <1>   0.0800 
 28 H        4.7900    -1.7480    -1.5400 H     1 <1>   0.0800 
 29 H        4.6850    -3.3540    -0.8530 H     1 <1>   0.0800 
 30 H       -5.5860    -3.2940    -2.2960 H     1 <1>   0.1500 
 31 H       -3.9670    -1.7950    -2.9930 H     1 <1>   0.0800 
 32 H       -4.3950    -0.4520    -1.9720 H     1 <1>   0.0800 
 33 H       -2.7750    -1.1100    -1.9460 H     1 <1>   0.0800 
 34 H       -6.4280    -4.9020    -0.6840 H     1 <1>   0.1500 
 35 H       -4.9620    -5.4770     2.5980 H     1 <1>   0.0800 
 36 H       -6.1470    -6.0360     1.4480 H     1 <1>   0.0800 
 37 H       -6.5370    -4.7170     2.5270 H     1 <1>   0.0800 
@<TRIPOS>BOND
  1   1   2  2   
  2   2   3  am  
  3   2   4  1   
  4   3   5  1   
  5   3  20  1   
  6   4   6  2   
  7   4   7  1   
  8   5   8  1   
  9   5   9  1   
 10   5  21  1   
 11   6  10  1   
 12   7  11  2   
 13   7  22  1   
 14   8  12  ar  
 15   8  13  ar  
 16   9  23  1   
 17   9  24  1   
 18   9  25  1   
 19  10  11  1   
 20  11  14  1   
 21  12  15  ar  
 22  12  16  1   
 23  13  17  ar  
 24  13  26  1   
 25  14  27  1   
 26  14  28  1   
 27  14  29  1   
 28  15  18  ar  
 29  15  30  1   
 30  16  31  1   
 31  16  32  1   
 32  16  33  1   
 33  17  18  ar  
 34  17  19  1   
 35  18  34  1   
 36  19  35  1   
 37  19  36  1   
 38  19  37  1   
@<TRIPOS>SUBSTRUCTURE
  1 ****   3 GROUP 4 **** **** 0

# MOE 2024.06 (io_trps.svl 2023.06)
