@<TRIPOS>MOLECULE
NONAME
40 41 1 0 0 
SMALL
USER_CHARGES


@<TRIPOS>ATOM
  1 S       -0.4670    -0.5430    -0.9710 S.o2  1 <1>   1.4470 
  2 O        0.9380    -0.2130    -0.8410 O.2   1 <1>  -0.6500 
  3 O       -0.8840    -1.2720    -2.1470 O.2   1 <1>  -0.6500 
  4 N       -0.9270    -1.4030     0.4240 N.am  1 <1>  -0.8490 
  5 C       -1.4160     1.0020    -0.8440 C.ar  1 <1>  -0.0090 
  6 C       -2.0680    -2.3280     0.3930 C.3   1 <1>   0.2760 
  7 C        0.1940    -1.8730     1.2810 C.3   1 <1>   0.2570 
  8 C       -1.9520     1.6010    -1.9830 C.ar  1 <1>  -0.1500 
  9 C       -1.6130     1.6300     0.3860 C.ar  1 <1>  -0.1500 
 10 C       -1.7840    -3.6370    -0.3610 C.3   1 <1>  -0.1600 
 11 C       -3.3770    -1.6720    -0.0910 C.3   1 <1>  -0.1600 
 12 C        0.7350    -0.8200     2.2630 C.2   1 <1>   0.5690 
 13 C       -2.6690     2.7840    -1.9050 C.ar  1 <1>  -0.1500 
 14 C       -2.3280     2.8120     0.4850 C.ar  1 <1>  -0.1500 
 15 C       -2.8920    -4.6770    -0.0970 C.3   1 <1>  -0.1600 
 16 C       -4.4500    -2.7030    -0.4990 C.3   1 <1>  -0.1600 
 17 O        0.4410    -0.8870     3.4290 O.2   1 <1>  -0.5700 
 18 N        1.5370     0.1750     1.8350 N.am  1 <1>  -0.8000 
 19 C       -2.8450     3.3690    -0.6680 C.ar  1 <1>   0.1900 
 20 C       -4.2640    -4.0480     0.2170 C.3   1 <1>  -0.1600 
 21 F       -3.5200     4.4820    -0.5840 F     1 <1>  -0.1900 
 22 H       -2.2550    -2.6110     1.4170 H     1 <1>   0.0800 
 23 H        1.0020    -2.2300     0.6660 H     1 <1>   0.0800 
 24 H       -0.1310    -2.7040     1.8810 H     1 <1>   0.0800 
 25 H       -1.8060     1.1330    -2.9430 H     1 <1>   0.1500 
 26 H       -1.2060     1.1870     1.2810 H     1 <1>   0.1500 
 27 H       -0.8360    -4.0550    -0.0760 H     1 <1>   0.0800 
 28 H       -1.7580    -3.4440    -1.4180 H     1 <1>   0.0800 
 29 H       -3.2150    -1.0410    -0.9430 H     1 <1>   0.0800 
 30 H       -3.7590    -1.0600     0.7070 H     1 <1>   0.0800 
 31 H       -3.0850     3.2450    -2.7840 H     1 <1>   0.1500 
 32 H       -2.4830     3.2950     1.4340 H     1 <1>   0.1500 
 33 H       -2.6080    -5.3070     0.7290 H     1 <1>   0.0800 
 34 H       -2.9790    -5.3090    -0.9650 H     1 <1>   0.0800 
 35 H       -4.3860    -2.8740    -1.5610 H     1 <1>   0.0800 
 36 H       -5.4300    -2.3070    -0.2940 H     1 <1>   0.0800 
 37 H        1.9030     0.8690     2.4860 H     1 <1>   0.3700 
 38 H        1.7570     0.2990     0.8360 H     1 <1>   0.3700 
 39 H       -4.3520    -3.8900     1.2790 H     1 <1>   0.0800 
 40 H       -5.0460    -4.7290    -0.0730 H     1 <1>   0.0800 
@<TRIPOS>BOND
  1   1   2  2   
  2   1   3  2   
  3   1   4  am  
  4   1   5  1   
  5   4   6  1   
  6   4   7  1   
  7   5   8  ar  
  8   5   9  ar  
  9   6  10  1   
 10   6  11  1   
 11   6  22  1   
 12   7  12  1   
 13   7  23  1   
 14   7  24  1   
 15   8  13  ar  
 16   8  25  1   
 17   9  14  ar  
 18   9  26  1   
 19  10  15  1   
 20  10  27  1   
 21  10  28  1   
 22  11  16  1   
 23  11  29  1   
 24  11  30  1   
 25  12  17  2   
 26  12  18  am  
 27  13  19  ar  
 28  13  31  1   
 29  14  19  ar  
 30  14  32  1   
 31  15  20  1   
 32  15  33  1   
 33  15  34  1   
 34  16  20  1   
 35  16  35  1   
 36  16  36  1   
 37  18  37  1   
 38  18  38  1   
 39  19  21  1   
 40  20  39  1   
 41  20  40  1   
@<TRIPOS>SUBSTRUCTURE
  1 ****   4 GROUP 4 **** **** 0

# MOE 2024.06 (io_trps.svl 2023.06)
