@<TRIPOS>MOLECULE
NONAME
39 39 1 0 0 
SMALL
USER_CHARGES


@<TRIPOS>ATOM
  1 CL       3.8260    -2.0070     3.2000 Cl    1 <1>  -0.1770 
  2 C        3.9820    -0.5260     2.2910 C.ar  1 <1>   0.1770 
  3 C        3.4070     0.6290     2.7840 C.ar  1 <1>  -0.1500 
  4 C        4.6780    -0.5370     1.0980 C.ar  1 <1>  -0.1500 
  5 C        3.5510     1.7880     2.0480 C.ar  1 <1>   0.1770 
  6 C        4.8150     0.6350     0.3580 C.ar  1 <1>   0.1990 
  7 CL       2.8350     3.2640     2.6400 Cl    1 <1>  -0.1770 
  8 C        4.2440     1.8030     0.8530 C.ar  1 <1>  -0.1500 
  9 N        5.5140     0.6680    -0.8490 N.am  1 <1>  -0.6930 
 10 S        5.2610    -0.4580    -2.1380 S.o2  1 <1>   1.3330 
 11 C        6.7500     1.5150    -0.9620 C.3   1 <1>   0.2570 
 12 O        5.9510     0.0740    -3.2870 O.2   1 <1>  -0.6500 
 13 O        5.5850    -1.7680    -1.6300 O.2   1 <1>  -0.6500 
 14 C        3.5100    -0.3230    -2.4270 C.3   1 <1>  -0.1350 
 15 C        7.4730     1.7800     0.3660 C.2   1 <1>   0.5690 
 16 O        7.3220     2.8750     0.8590 O.2   1 <1>  -0.5700 
 17 N        8.2600     0.8190     0.9650 N.am  1 <1>  -0.6600 
 18 C        8.3870    -0.5800     0.4640 C.3   1 <1>   0.1400 
 19 C        8.9150     1.1010     2.2720 C.3   1 <1>   0.1400 
 20 C        9.6000    -0.7070    -0.4540 C.3   1 <1>  -0.2400 
 21 C       10.2360     1.8350     2.0510 C.3   1 <1>  -0.2400 
 22 H        2.8680     0.6270     3.7130 H     1 <1>   0.1500 
 23 H        5.1170    -1.4570     0.7620 H     1 <1>   0.1500 
 24 H        4.3460     2.7250     0.3120 H     1 <1>   0.1500 
 25 H        6.4790     2.4600    -1.3950 H     1 <1>   0.0800 
 26 H        7.4540     1.0500    -1.6270 H     1 <1>   0.0800 
 27 H        2.9630    -0.6150    -1.5520 H     1 <1>   0.0800 
 28 H        3.2220    -0.9620    -3.2400 H     1 <1>   0.0800 
 29 H        3.2530     0.6870    -2.6770 H     1 <1>   0.0800 
 30 H        7.5020    -0.8670    -0.0740 H     1 <1>   0.0800 
 31 H        8.4840    -1.2600     1.2930 H     1 <1>   0.0800 
 32 H        9.0880     0.1850     2.8100 H     1 <1>   0.0800 
 33 H        8.2630     1.7150     2.8710 H     1 <1>   0.0800 
 34 H        9.5460     0.0020    -1.2590 H     1 <1>   0.0800 
 35 H        9.6260    -1.6960    -0.8750 H     1 <1>   0.0800 
 36 H       10.5080    -0.5540     0.0980 H     1 <1>   0.0800 
 37 H       10.9210     1.2300     1.4890 H     1 <1>   0.0800 
 38 H       10.6830     2.0630     3.0010 H     1 <1>   0.0800 
 39 H       10.0620     2.7590     1.5290 H     1 <1>   0.0800 
@<TRIPOS>BOND
  1   1   2  1   
  2   2   3  ar  
  3   2   4  ar  
  4   3   5  ar  
  5   3  22  1   
  6   4   6  ar  
  7   4  23  1   
  8   5   7  1   
  9   5   8  ar  
 10   6   8  ar  
 11   6   9  1   
 12   8  24  1   
 13   9  10  am  
 14   9  11  1   
 15  10  12  2   
 16  10  13  2   
 17  10  14  1   
 18  11  15  1   
 19  11  25  1   
 20  11  26  1   
 21  14  27  1   
 22  14  28  1   
 23  14  29  1   
 24  15  16  2   
 25  15  17  am  
 26  17  18  1   
 27  17  19  1   
 28  18  20  1   
 29  18  30  1   
 30  18  31  1   
 31  19  21  1   
 32  19  32  1   
 33  19  33  1   
 34  20  34  1   
 35  20  35  1   
 36  20  36  1   
 37  21  37  1   
 38  21  38  1   
 39  21  39  1   
@<TRIPOS>SUBSTRUCTURE
  1 ****   6 GROUP 4 **** **** 0

# MOE 2024.06 (io_trps.svl 2023.06)
