@<TRIPOS>MOLECULE
NONAME
46 47 1 0 0 
SMALL
USER_CHARGES


@<TRIPOS>ATOM
  1 CL       0.5030    -0.5670    -2.3270 Cl    1 <1>  -0.1770 
  2 C        1.2500    -1.9110    -1.5020 C.ar  1 <1>   0.1770 
  3 C        1.9220    -1.6900    -0.3150 C.ar  1 <1>  -0.1500 
  4 C        1.1580    -3.1780    -2.0470 C.ar  1 <1>  -0.1500 
  5 C        2.5120    -2.7590     0.3380 C.ar  1 <1>  -0.1500 
  6 C        1.7490    -4.2430    -1.3890 C.ar  1 <1>  -0.1500 
  7 C        2.4260    -4.0400    -0.1930 C.ar  1 <1>  -0.1430 
  8 C        3.0680    -5.2080     0.5360 C.3   1 <1>   0.2640 
  9 O        4.4480    -5.1370     0.3460 O.3   1 <1>  -0.5600 
 10 C        5.1760    -6.1720     0.9320 C.3   1 <1>   0.1200 
 11 C        6.6600    -5.9580     0.5990 C.3   1 <1>   0.2000 
 12 O        6.7680    -5.6890    -0.7640 O.3   1 <1>  -0.6800 
 13 C        7.5460    -7.1740     0.9440 C.3   1 <1>   0.3430 
 14 N        8.8000    -7.1520     0.1300 N.4   1 <1>  -0.9590 
 15 C        9.4210    -8.4880    -0.1210 C.3   1 <1>   0.3430 
 16 C        9.8230    -6.1470     0.5820 C.3   1 <1>   0.3430 
 17 C       10.5500    -8.3880    -1.1820 C.3   1 <1>   0.2000 
 18 C       11.2110    -6.3490    -0.0820 C.3   1 <1>   0.2000 
 19 O       11.0930    -7.0950    -1.2640 O.3   1 <1>  -0.5600 
 20 C       10.0330    -8.7130    -2.5820 C.3   1 <1>  -0.2400 
 21 C       12.2460    -7.0090     0.8390 C.3   1 <1>  -0.2400 
 22 H        1.9820    -0.6950     0.0870 H     1 <1>   0.1500 
 23 H        0.6300    -3.3220    -2.9730 H     1 <1>   0.1500 
 24 H        3.0420    -2.5920     1.2600 H     1 <1>   0.1500 
 25 H        1.6800    -5.2290    -1.8150 H     1 <1>   0.1500 
 26 H        2.7090    -6.1440     0.1430 H     1 <1>   0.0800 
 27 H        2.8570    -5.1520     1.5900 H     1 <1>   0.0800 
 28 H        4.8280    -7.1090     0.5300 H     1 <1>   0.0800 
 29 H        5.0160    -6.1520     1.9970 H     1 <1>   0.0800 
 30 H        7.0120    -5.0900     1.1300 H     1 <1>   0.0800 
 31 H        6.0040    -5.1090    -1.0050 H     1 <1>   0.4000 
 32 H        6.9900    -8.0670     0.7090 H     1 <1>   0.0800 
 33 H        7.7720    -7.1900     1.9970 H     1 <1>   0.0800 
 34 H        8.4860    -6.7970    -0.7970 H     1 <1>   0.4500 
 35 H        8.6790    -9.1910    -0.4630 H     1 <1>   0.0800 
 36 H        9.8380    -8.8700     0.7950 H     1 <1>   0.0800 
 37 H        9.9450    -6.1970     1.6500 H     1 <1>   0.0800 
 38 H        9.4710    -5.1560     0.3440 H     1 <1>   0.0800 
 39 H       11.3450    -9.0710    -0.9330 H     1 <1>   0.0800 
 40 H       11.5930    -5.3830    -0.3670 H     1 <1>   0.0800 
 41 H        9.2570    -8.0270    -2.8710 H     1 <1>   0.0800 
 42 H        9.6420    -9.7140    -2.6160 H     1 <1>   0.0800 
 43 H       10.8400    -8.6460    -3.2910 H     1 <1>   0.0800 
 44 H       11.9060    -7.9530     1.2220 H     1 <1>   0.0800 
 45 H       12.4520    -6.3640     1.6740 H     1 <1>   0.0800 
 46 H       13.1680    -7.1550     0.3020 H     1 <1>   0.0800 
@<TRIPOS>BOND
  1   1   2  1   
  2   2   3  ar  
  3   2   4  ar  
  4   3   5  ar  
  5   3  22  1   
  6   4   6  ar  
  7   4  23  1   
  8   5   7  ar  
  9   5  24  1   
 10   6   7  ar  
 11   6  25  1   
 12   7   8  1   
 13   8   9  1   
 14   8  26  1   
 15   8  27  1   
 16   9  10  1   
 17  10  11  1   
 18  10  28  1   
 19  10  29  1   
 20  11  12  1   
 21  11  13  1   
 22  11  30  1   
 23  12  31  1   
 24  13  14  1   
 25  13  32  1   
 26  13  33  1   
 27  14  15  1   
 28  14  16  1   
 29  14  34  1   
 30  15  17  1   
 31  15  35  1   
 32  15  36  1   
 33  16  18  1   
 34  16  37  1   
 35  16  38  1   
 36  17  19  1   
 37  17  20  1   
 38  17  39  1   
 39  18  19  1   
 40  18  21  1   
 41  18  40  1   
 42  20  41  1   
 43  20  42  1   
 44  20  43  1   
 45  21  44  1   
 46  21  45  1   
 47  21  46  1   
@<TRIPOS>SUBSTRUCTURE
  1 ****  12 GROUP 4 **** **** 0

# MOE 2024.06 (io_trps.svl 2023.06)
