@<TRIPOS>MOLECULE
NONAME
40 41 1 0 0 
SMALL
USER_CHARGES


@<TRIPOS>ATOM
  1 S        0.1420    -2.4490     0.8620 S.3   1 <1>  -0.2860 
  2 C       -1.6340    -2.2680     0.9800 C.2   1 <1>   0.5340 
  3 C        0.5830    -1.4470    -0.6410 C.3   1 <1>   0.1310 
  4 O       -2.2540    -1.5540     0.1020 O.3   1 <1>  -0.2800 
  5 N       -2.3890    -2.7830     1.8680 N.2   1 <1>  -0.3380 
  6 C        2.0750    -1.4880    -0.9370 C.2   1 <1>   0.5690 
  7 C       -3.4880    -1.6450     0.4910 C.2   1 <1>   0.2980 
  8 N       -3.6180    -2.3690     1.5430 N.2   1 <1>  -0.3380 
  9 O        2.4380    -1.0390    -1.9950 O.2   1 <1>  -0.5700 
 10 N        2.9190    -2.0270    -0.0030 N.am  1 <1>  -0.5470 
 11 C       -4.5670    -0.9240    -0.3020 C.3   1 <1>   0.0200 
 12 C        4.3120    -2.2120     0.0330 C.ar  1 <1>   0.1170 
 13 C       -5.9790    -1.1220     0.2740 C.3   1 <1>  -0.1600 
 14 C        4.8540    -3.1160     0.9500 C.ar  1 <1>  -0.1430 
 15 C        5.1760    -1.5100    -0.8030 C.ar  1 <1>  -0.1500 
 16 C       -7.0360    -0.3800    -0.5530 C.3   1 <1>  -0.2400 
 17 C        6.2260    -3.3000     1.0070 C.ar  1 <1>  -0.1500 
 18 C        3.9660    -3.9170     1.8960 C.3   1 <1>  -0.0970 
 19 C        6.5450    -1.6980    -0.7470 C.ar  1 <1>  -0.1430 
 20 C        7.0680    -2.5970     0.1650 C.ar  1 <1>  -0.1500 
 21 C        7.4680    -0.9240    -1.6710 C.3   1 <1>  -0.0970 
 22 H        0.2720    -0.4360    -0.4560 H     1 <1>   0.0800 
 23 H        0.0340    -1.8540    -1.4690 H     1 <1>   0.0800 
 24 H        2.4410    -2.4250     0.8050 H     1 <1>   0.3700 
 25 H       -4.5410    -1.2850    -1.3140 H     1 <1>   0.0800 
 26 H       -4.3320     0.1250    -0.3160 H     1 <1>   0.0800 
 27 H       -6.0050    -0.7630     1.2890 H     1 <1>   0.0800 
 28 H       -6.2140    -2.1730     0.2910 H     1 <1>   0.0800 
 29 H        4.7780    -0.8040    -1.5060 H     1 <1>   0.1500 
 30 H       -6.8370     0.6770    -0.5620 H     1 <1>   0.0800 
 31 H       -8.0110    -0.5390    -0.1250 H     1 <1>   0.0800 
 32 H       -7.0470    -0.7420    -1.5660 H     1 <1>   0.0800 
 33 H        6.6550    -3.9940     1.7090 H     1 <1>   0.1500 
 34 H        3.2500    -4.4900     1.3350 H     1 <1>   0.0800 
 35 H        3.4460    -3.2550     2.5650 H     1 <1>   0.0800 
 36 H        4.5500    -4.6000     2.4860 H     1 <1>   0.0800 
 37 H        8.1310    -2.7520     0.2230 H     1 <1>   0.1500 
 38 H        6.9320    -0.5770    -2.5370 H     1 <1>   0.0800 
 39 H        8.2760    -1.5520    -2.0010 H     1 <1>   0.0800 
 40 H        7.8740    -0.0750    -1.1520 H     1 <1>   0.0800 
@<TRIPOS>BOND
  1   1   2  1   
  2   1   3  1   
  3   2   4  1   
  4   2   5  2   
  5   3   6  1   
  6   3  22  1   
  7   3  23  1   
  8   4   7  1   
  9   5   8  1   
 10   6   9  2   
 11   6  10  am  
 12   7   8  2   
 13   7  11  1   
 14  10  12  1   
 15  10  24  1   
 16  11  13  1   
 17  11  25  1   
 18  11  26  1   
 19  12  14  ar  
 20  12  15  ar  
 21  13  16  1   
 22  13  27  1   
 23  13  28  1   
 24  14  17  ar  
 25  14  18  1   
 26  15  19  ar  
 27  15  29  1   
 28  16  30  1   
 29  16  31  1   
 30  16  32  1   
 31  17  20  ar  
 32  17  33  1   
 33  18  34  1   
 34  18  35  1   
 35  18  36  1   
 36  19  20  ar  
 37  19  21  1   
 38  20  37  1   
 39  21  38  1   
 40  21  39  1   
 41  21  40  1   
@<TRIPOS>SUBSTRUCTURE
  1 ****   3 GROUP 4 **** **** 0

# MOE 2024.06 (io_trps.svl 2023.06)
