@<TRIPOS>MOLECULE
NONAME
54 58 1 0 0 
SMALL
USER_CHARGES


@<TRIPOS>ATOM
  1 O        1.1460     1.3440     2.5090 O.2   1 <1>  -0.5700 
  2 C        1.2560     1.9480     1.4470 C.2   1 <1>   0.7160 
  3 N        2.4120     1.8410     0.6840 N.am  1 <1>  -0.2290 
  4 C        0.2210     2.7710     0.9440 C.2   1 <1>  -0.0860 
  5 C        2.4830     2.5380    -0.5350 C.2   1 <1>   0.4960 
  6 C        3.4970     1.0610     1.0930 C.2   1 <1>  -0.0410 
  7 C        0.4000     3.4070    -0.2570 C.2   1 <1>  -0.0260 
  8 C       -1.0500     3.1350     1.3990 C.2   1 <1>  -0.1500 
  9 N        1.5230     3.2950    -1.0060 N.2   1 <1>  -0.5760 
 10 C        3.6800     2.4000    -1.2930 C.2   1 <1>  -0.1360 
 11 C        4.6250     0.9500     0.3490 C.2   1 <1>  -0.1500 
 12 N       -0.7080     4.1410    -0.5470 N.pl3 1 <1>   0.0480 
 13 C       -1.6240     3.9700     0.4750 C.2   1 <1>  -0.2370 
 14 C        4.7250     1.6370    -0.8810 C.2   1 <1>  -0.1500 
 15 C       -0.8840     4.9780    -1.7530 C.3   1 <1>   0.0160 
 16 C       -2.9200     4.5970     0.5050 C.2   1 <1>   0.7150 
 17 O       -3.0440     5.7460     0.1150 O.2   1 <1>  -0.5700 
 18 N       -4.0350     3.9290     0.9660 N.am  1 <1>  -0.6600 
 19 C       -5.2790     4.6520     1.3430 C.3   1 <1>   0.1400 
 20 C       -4.1570     2.4460     0.9740 C.3   1 <1>   0.1400 
 21 C       -6.4190     4.2420     0.4080 C.3   1 <1>  -0.1600 
 22 C       -5.3010     2.0130     0.0520 C.3   1 <1>  -0.1600 
 23 C       -6.6260     2.7170     0.4010 C.3   1 <1>  -0.0800 
 24 C       -7.7540     2.3300    -0.5730 C.3   1 <1>  -0.0170 
 25 C       -8.0480     0.8370    -0.5460 C.ar  1 <1>  -0.1430 
 26 C       -7.6170     0.0150    -1.5760 C.ar  1 <1>  -0.1500 
 27 C       -8.7500     0.2840     0.5140 C.ar  1 <1>  -0.1500 
 28 C       -7.8810    -1.3440    -1.5460 C.ar  1 <1>  -0.1500 
 29 C       -9.0150    -1.0740     0.5470 C.ar  1 <1>  -0.1500 
 30 C       -8.5800    -1.8890    -0.4830 C.ar  1 <1>  -0.1500 
 31 H        3.3970     0.5460     2.0350 H     1 <1>   0.1500 
 32 H       -1.4770     2.8010     2.3300 H     1 <1>   0.1500 
 33 H        3.7160     2.9390    -2.2220 H     1 <1>   0.1500 
 34 H        5.4570     0.3460     0.6710 H     1 <1>   0.1500 
 35 H        5.6280     1.5390    -1.4610 H     1 <1>   0.1500 
 36 H       -0.0900     4.7860    -2.4500 H     1 <1>   0.0800 
 37 H       -0.8670     6.0130    -1.4670 H     1 <1>   0.0800 
 38 H       -1.8270     4.7480    -2.2120 H     1 <1>   0.0800 
 39 H       -5.1320     5.7180     1.2910 H     1 <1>   0.0800 
 40 H       -5.5320     4.4030     2.3590 H     1 <1>   0.0800 
 41 H       -4.3500     2.1150     1.9800 H     1 <1>   0.0800 
 42 H       -3.2490     1.9810     0.6350 H     1 <1>   0.0800 
 43 H       -6.1880     4.5890    -0.5840 H     1 <1>   0.0800 
 44 H       -7.3220     4.7320     0.7260 H     1 <1>   0.0800 
 45 H       -5.4190     0.9470     0.1350 H     1 <1>   0.0800 
 46 H       -5.0260     2.2330    -0.9640 H     1 <1>   0.0800 
 47 H       -6.9180     2.4130     1.3920 H     1 <1>   0.0800 
 48 H       -7.4880     2.6310    -1.5710 H     1 <1>   0.0800 
 49 H       -8.6530     2.8600    -0.3090 H     1 <1>   0.0800 
 50 H       -7.0720     0.4280    -2.4070 H     1 <1>   0.1500 
 51 H       -9.0930     0.9090     1.3190 H     1 <1>   0.1500 
 52 H       -7.5440    -1.9760    -2.3480 H     1 <1>   0.1500 
 53 H       -9.5600    -1.4970     1.3730 H     1 <1>   0.1500 
 54 H       -8.7850    -2.9450    -0.4590 H     1 <1>   0.1500 
@<TRIPOS>BOND
  1   1   2  2   
  2   2   3  am  
  3   2   4  1   
  4   3   5  1   
  5   3   6  1   
  6   4   7  2   
  7   4   8  1   
  8   5   9  2   
  9   5  10  1   
 10   6  11  2   
 11   6  31  1   
 12   7   9  1   
 13   7  12  1   
 14   8  13  2   
 15   8  32  1   
 16  10  14  2   
 17  10  33  1   
 18  11  14  1   
 19  11  34  1   
 20  12  13  1   
 21  12  15  1   
 22  13  16  1   
 23  14  35  1   
 24  15  36  1   
 25  15  37  1   
 26  15  38  1   
 27  16  17  2   
 28  16  18  am  
 29  18  19  1   
 30  18  20  1   
 31  19  21  1   
 32  19  39  1   
 33  19  40  1   
 34  20  22  1   
 35  20  41  1   
 36  20  42  1   
 37  21  23  1   
 38  21  43  1   
 39  21  44  1   
 40  22  23  1   
 41  22  45  1   
 42  22  46  1   
 43  23  24  1   
 44  23  47  1   
 45  24  25  1   
 46  24  48  1   
 47  24  49  1   
 48  25  26  ar  
 49  25  27  ar  
 50  26  28  ar  
 51  26  50  1   
 52  27  29  ar  
 53  27  51  1   
 54  28  30  ar  
 55  28  52  1   
 56  29  30  ar  
 57  29  53  1   
 58  30  54  1   
@<TRIPOS>SUBSTRUCTURE
  1 ****  13 GROUP 4 **** **** 0

# MOE 2024.06 (io_trps.svl 2023.06)
