@<TRIPOS>MOLECULE
NONAME
48 51 1 0 0 
SMALL
USER_CHARGES


@<TRIPOS>ATOM
  1 O       -2.0600     2.4970    -3.1280 O.2   1 <1>  -0.5700 
  2 C       -2.1820     2.9860    -2.0240 C.2   1 <1>   0.5440 
  3 N       -3.4310     3.4220    -1.7050 N.am  1 <1>  -0.7300 
  4 C       -1.0610     3.0580    -1.1110 C.ar  1 <1>   0.0860 
  5 C       -4.0250     3.5220    -0.3550 C.3   1 <1>   0.2200 
  6 C       -0.2060     1.9670    -0.9400 C.ar  1 <1>  -0.1500 
  7 C       -0.7820     4.2090    -0.3710 C.ar  1 <1>  -0.1500 
  8 C       -5.0240     2.3510    -0.0920 C.3   1 <1>   0.0000 
  9 C       -4.6160     4.9320    -0.2490 C.3   1 <1>  -0.2400 
 10 C        0.8600     2.0170    -0.0640 C.ar  1 <1>  -0.1500 
 11 C        0.2830     4.2620     0.5070 C.ar  1 <1>  -0.1500 
 12 C       -6.1920     2.3100    -1.1150 C.3   1 <1>  -0.1600 
 13 C       -4.2710     0.9960    -0.1690 C.3   1 <1>  -0.1600 
 14 C       -5.6370     2.4630     1.3300 C.3   1 <1>  -0.1600 
 15 C        1.1190     3.1660     0.6710 C.ar  1 <1>   0.1000 
 16 C       -7.1390     1.1290    -0.8260 C.3   1 <1>  -0.0800 
 17 C       -5.2100    -0.1890     0.1210 C.3   1 <1>  -0.0800 
 18 C       -6.5840     1.2860     1.6280 C.3   1 <1>  -0.0800 
 19 N        2.1850     3.2190     1.5410 N.pl3 1 <1>  -0.9000 
 20 C       -6.3500    -0.1900    -0.9130 C.3   1 <1>  -0.1600 
 21 C       -7.7210     1.2790     0.5910 C.3   1 <1>  -0.1600 
 22 C       -5.8000    -0.0340     1.5330 C.3   1 <1>  -0.1600 
 23 H       -4.1140     3.3050    -2.4530 H     1 <1>   0.3700 
 24 H       -3.2400     3.4430     0.3780 H     1 <1>   0.0800 
 25 H       -0.3930     1.0730    -1.5100 H     1 <1>   0.1500 
 26 H       -1.4140     5.0700    -0.4940 H     1 <1>   0.1500 
 27 H       -5.4250     5.0680    -0.9420 H     1 <1>   0.0800 
 28 H       -3.8560     5.6620    -0.4640 H     1 <1>   0.0800 
 29 H       -4.9740     5.1220     0.7450 H     1 <1>   0.0800 
 30 H        1.4990     1.1610     0.0540 H     1 <1>   0.1500 
 31 H        0.4740     5.1560     1.0700 H     1 <1>   0.1500 
 32 H       -5.8060     2.2070    -2.1140 H     1 <1>   0.0800 
 33 H       -6.7570     3.2230    -1.0740 H     1 <1>   0.0800 
 34 H       -3.4580     0.9880     0.5370 H     1 <1>   0.0800 
 35 H       -3.8470     0.8590    -1.1480 H     1 <1>   0.0800 
 36 H       -4.8520     2.4850     2.0650 H     1 <1>   0.0800 
 37 H       -6.1990     3.3740     1.4250 H     1 <1>   0.0800 
 38 H       -7.9380     1.1210    -1.5480 H     1 <1>   0.0800 
 39 H       -4.6600    -1.1120     0.0560 H     1 <1>   0.0800 
 40 H       -6.9960     1.3920     2.6170 H     1 <1>   0.0800 
 41 H        2.5290     4.1370     1.8350 H     1 <1>   0.4000 
 42 H        2.9300     2.5250     1.4380 H     1 <1>   0.4000 
 43 H       -7.0080    -1.0210    -0.7280 H     1 <1>   0.0800 
 44 H       -5.9440    -0.3080    -1.9020 H     1 <1>   0.0800 
 45 H       -8.3950     0.4650     0.7950 H     1 <1>   0.0800 
 46 H       -8.2850     2.1930     0.6600 H     1 <1>   0.0800 
 47 H       -5.0090    -0.0430     2.2620 H     1 <1>   0.0800 
 48 H       -6.4520    -0.8620     1.7480 H     1 <1>   0.0800 
@<TRIPOS>BOND
  1   1   2  2   
  2   2   3  am  
  3   2   4  1   
  4   3   5  1   
  5   3  23  1   
  6   4   6  ar  
  7   4   7  ar  
  8   5   8  1   
  9   5   9  1   
 10   5  24  1   
 11   6  10  ar  
 12   6  25  1   
 13   7  11  ar  
 14   7  26  1   
 15   8  12  1   
 16   8  13  1   
 17   8  14  1   
 18   9  27  1   
 19   9  28  1   
 20   9  29  1   
 21  10  15  ar  
 22  10  30  1   
 23  11  15  ar  
 24  11  31  1   
 25  12  16  1   
 26  12  32  1   
 27  12  33  1   
 28  13  17  1   
 29  13  34  1   
 30  13  35  1   
 31  14  18  1   
 32  14  36  1   
 33  14  37  1   
 34  15  19  1   
 35  16  20  1   
 36  16  21  1   
 37  16  38  1   
 38  17  20  1   
 39  17  22  1   
 40  17  39  1   
 41  18  21  1   
 42  18  22  1   
 43  18  40  1   
 44  19  41  1   
 45  19  42  1   
 46  20  43  1   
 47  20  44  1   
 48  21  45  1   
 49  21  46  1   
 50  22  47  1   
 51  22  48  1   
@<TRIPOS>SUBSTRUCTURE
  1 ****   5 GROUP 4 **** **** 0

# MOE 2024.06 (io_trps.svl 2023.06)
