@<TRIPOS>MOLECULE
NONAME
35 36 1 0 0 
SMALL
USER_CHARGES


@<TRIPOS>ATOM
  1 S       -0.2400    -0.0330    -0.0740 S.o2  1 <1>   1.3330 
  2 O        0.2810    -0.0280     1.2750 O.2   1 <1>  -0.6500 
  3 O       -0.5770     1.2140    -0.7230 O.2   1 <1>  -0.6500 
  4 N       -1.6250    -1.0120    -0.0800 N.am  1 <1>  -0.8490 
  5 C        0.8910    -0.9260    -1.1510 C.3   1 <1>  -0.0550 
  6 C       -2.8320    -0.2330     0.2460 C.3   1 <1>   0.1960 
  7 C       -1.5030    -2.1570     0.8310 C.3   1 <1>   0.1960 
  8 C        2.2550    -0.2410    -1.3500 C.3   1 <1>  -0.2400 
  9 C       -4.0900    -1.0880     0.0450 C.3   1 <1>  -0.0190 
 10 C       -2.6980    -3.0990     0.6570 C.3   1 <1>  -0.1600 
 11 C       -5.3320    -0.2670     0.3620 C.2   1 <1>   0.5690 
 12 C       -4.0250    -2.3670     0.9010 C.3   1 <1>  -0.1600 
 13 O       -5.3950     0.3010     1.4220 O.2   1 <1>  -0.5700 
 14 N       -6.3240    -0.2230    -0.5760 N.am  1 <1>  -0.4940 
 15 C       -7.5480     0.4110    -0.5880 C.2   1 <1>   0.4420 
 16 S       -8.1100     1.3870     0.7360 S.3   1 <1>  -0.0800 
 17 N       -8.3980     0.3610    -1.5470 N.2   1 <1>  -0.3380 
 18 C       -9.5470     1.6630    -0.1820 C.2   1 <1>   0.2280 
 19 N       -9.5390     1.0770    -1.3100 N.2   1 <1>  -0.3380 
 20 H        0.4270    -1.0460    -2.1110 H     1 <1>   0.0800 
 21 H        1.0610    -1.9050    -0.7490 H     1 <1>   0.0800 
 22 H       -2.9000     0.6270    -0.3980 H     1 <1>   0.0800 
 23 H       -2.7750     0.1200     1.2650 H     1 <1>   0.0800 
 24 H       -1.4560    -1.8110     1.8530 H     1 <1>   0.0800 
 25 H       -0.5960    -2.6980     0.6220 H     1 <1>   0.0800 
 26 H        2.1170     0.7350    -1.7830 H     1 <1>   0.0800 
 27 H        2.8760    -0.8260    -2.0040 H     1 <1>   0.0800 
 28 H        2.7540    -0.1280    -0.4030 H     1 <1>   0.0800 
 29 H       -4.1200    -1.3700    -0.9920 H     1 <1>   0.0800 
 30 H       -2.6070    -3.9190     1.3470 H     1 <1>   0.0800 
 31 H       -2.6790    -3.5040    -0.3400 H     1 <1>   0.0800 
 32 H       -4.8520    -3.0150     0.6680 H     1 <1>   0.0800 
 33 H       -4.0940    -2.1000     1.9430 H     1 <1>   0.0800 
 34 H       -6.1550    -0.7470    -1.4300 H     1 <1>   0.3700 
 35 H      -10.3110     2.2840     0.2500 H     1 <1>   0.1500 
@<TRIPOS>BOND
  1   1   2  2   
  2   1   3  2   
  3   1   4  am  
  4   1   5  1   
  5   4   6  1   
  6   4   7  1   
  7   5   8  1   
  8   5  20  1   
  9   5  21  1   
 10   6   9  1   
 11   6  22  1   
 12   6  23  1   
 13   7  10  1   
 14   7  24  1   
 15   7  25  1   
 16   8  26  1   
 17   8  27  1   
 18   8  28  1   
 19   9  11  1   
 20   9  12  1   
 21   9  29  1   
 22  10  12  1   
 23  10  30  1   
 24  10  31  1   
 25  11  13  2   
 26  11  14  am  
 27  12  32  1   
 28  12  33  1   
 29  14  15  1   
 30  14  34  1   
 31  15  16  1   
 32  15  17  2   
 33  16  18  1   
 34  17  19  1   
 35  18  19  2   
 36  18  35  1   
@<TRIPOS>SUBSTRUCTURE
  1 ****   9 GROUP 4 **** **** 0

# MOE 2024.06 (io_trps.svl 2023.06)
