@<TRIPOS>MOLECULE
NONAME
50 52 1 0 0 
SMALL
USER_CHARGES


@<TRIPOS>ATOM
  1 O       -1.5380     0.0810     0.6910 O.2   1 <1>  -0.5700 
  2 C       -2.3790     0.7870     0.1630 C.2   1 <1>   0.7150 
  3 N       -3.3010     0.1900    -0.6760 N.am  1 <1>  -0.6600 
  4 C       -2.3960     2.2150     0.4060 C.2   1 <1>   0.0550 
  5 C       -3.1220    -1.2140    -1.1630 C.3   1 <1>   0.1400 
  6 C       -4.6860     0.7160    -0.8690 C.3   1 <1>   0.1400 
  7 O       -2.1550     2.7110     1.6170 O.3   1 <1>  -0.2800 
  8 C       -2.6340     3.2580    -0.4400 C.2   1 <1>  -0.1500 
  9 C       -4.1500    -2.1510    -0.5160 C.3   1 <1>   0.1400 
 10 C       -5.7330    -0.2290    -0.2520 C.3   1 <1>   0.1400 
 11 C       -2.2310     4.0210     1.5660 C.2   1 <1>  -0.0100 
 12 C       -2.5270     4.4270     0.3140 C.2   1 <1>  -0.1500 
 13 N       -5.5420    -1.6390    -0.7210 N.am  1 <1>  -0.6600 
 14 C       -6.5340    -2.4480    -1.2290 C.2   1 <1>   0.5690 
 15 O       -6.2890    -3.5620    -1.6310 O.2   1 <1>  -0.5700 
 16 C       -7.9800    -1.9740    -1.3520 C.3   1 <1>   0.1810 
 17 O       -8.4950    -1.5350    -0.1040 O.3   1 <1>  -0.3630 
 18 C       -9.6970    -0.9140    -0.0250 C.ar  1 <1>   0.0820 
 19 C      -10.5970    -0.8290    -1.0820 C.ar  1 <1>  -0.1500 
 20 C      -10.0210    -0.3340     1.1900 C.ar  1 <1>  -0.1500 
 21 C      -11.7960    -0.1590    -0.9160 C.ar  1 <1>  -0.1500 
 22 C      -11.2210     0.3350     1.3500 C.ar  1 <1>  -0.1500 
 23 C      -12.1210     0.4300     0.2980 C.ar  1 <1>  -0.1430 
 24 C      -13.4410     1.1730     0.4920 C.3   1 <1>   0.0630 
 25 C      -14.6320     0.2290     0.2950 C.3   1 <1>  -0.2400 
 26 C      -13.5360     2.3750    -0.4530 C.3   1 <1>  -0.2400 
 27 H       -2.1290    -1.5700    -0.9440 H     1 <1>   0.0800 
 28 H       -3.2470    -1.2380    -2.2310 H     1 <1>   0.0800 
 29 H       -4.8790     0.8190    -1.9230 H     1 <1>   0.0800 
 30 H       -4.7950     1.6850    -0.4160 H     1 <1>   0.0800 
 31 H       -2.8530     3.2130    -1.4920 H     1 <1>   0.1500 
 32 H       -3.9500    -2.2190     0.5400 H     1 <1>   0.0800 
 33 H       -4.0400    -3.1360    -0.9340 H     1 <1>   0.0800 
 34 H       -6.7110     0.1350    -0.5050 H     1 <1>   0.0800 
 35 H       -5.6420    -0.2050     0.8200 H     1 <1>   0.0800 
 36 H       -2.0580     4.5880     2.4640 H     1 <1>   0.1500 
 37 H       -2.6550     5.4310    -0.0520 H     1 <1>   0.1500 
 38 H       -8.5940    -2.7860    -1.6970 H     1 <1>   0.0800 
 39 H       -8.0270    -1.1600    -2.0490 H     1 <1>   0.0800 
 40 H      -10.3900    -1.2770    -2.0350 H     1 <1>   0.1500 
 41 H       -9.3280    -0.4080     2.0080 H     1 <1>   0.1500 
 42 H      -12.4830    -0.1000    -1.7420 H     1 <1>   0.1500 
 43 H      -11.4500     0.7790     2.3030 H     1 <1>   0.1500 
 44 H      -13.4840     1.5460     1.5010 H     1 <1>   0.0800 
 45 H      -14.6710    -0.1360    -0.7150 H     1 <1>   0.0800 
 46 H      -15.5530     0.7420     0.5100 H     1 <1>   0.0800 
 47 H      -14.5460    -0.6110     0.9600 H     1 <1>   0.0800 
 48 H      -13.5510     2.0560    -1.4800 H     1 <1>   0.0800 
 49 H      -12.6900     3.0220    -0.3070 H     1 <1>   0.0800 
 50 H      -14.4330     2.9340    -0.2540 H     1 <1>   0.0800 
@<TRIPOS>BOND
  1   1   2  2   
  2   2   3  am  
  3   2   4  1   
  4   3   5  1   
  5   3   6  1   
  6   4   7  1   
  7   4   8  2   
  8   5   9  1   
  9   5  27  1   
 10   5  28  1   
 11   6  10  1   
 12   6  29  1   
 13   6  30  1   
 14   7  11  1   
 15   8  12  1   
 16   8  31  1   
 17   9  13  1   
 18   9  32  1   
 19   9  33  1   
 20  10  13  1   
 21  10  34  1   
 22  10  35  1   
 23  11  12  2   
 24  11  36  1   
 25  12  37  1   
 26  13  14  am  
 27  14  15  2   
 28  14  16  1   
 29  16  17  1   
 30  16  38  1   
 31  16  39  1   
 32  17  18  1   
 33  18  19  ar  
 34  18  20  ar  
 35  19  21  ar  
 36  19  40  1   
 37  20  22  ar  
 38  20  41  1   
 39  21  23  ar  
 40  21  42  1   
 41  22  23  ar  
 42  22  43  1   
 43  23  24  1   
 44  24  25  1   
 45  24  26  1   
 46  24  44  1   
 47  25  45  1   
 48  25  46  1   
 49  25  47  1   
 50  26  48  1   
 51  26  49  1   
 52  26  50  1   
@<TRIPOS>SUBSTRUCTURE
  1 ****  10 GROUP 4 **** **** 0

# MOE 2024.06 (io_trps.svl 2023.06)
