@<TRIPOS>MOLECULE
NONAME
48 50 1 0 0 
SMALL
USER_CHARGES


@<TRIPOS>ATOM
  1 CL       1.8750     1.5770     2.6430 Cl    1 <1>  -0.1770 
  2 C        2.4520     1.4000     1.0060 C.ar  1 <1>   0.1770 
  3 C        3.5420     0.5900     0.7640 C.ar  1 <1>  -0.1500 
  4 C        1.8110     2.0760    -0.0150 C.ar  1 <1>  -0.1500 
  5 C        4.0180     0.4410    -0.5340 C.ar  1 <1>   0.1000 
  6 C        2.2780     1.9320    -1.3110 C.ar  1 <1>  -0.1500 
  7 N        5.1230    -0.3560    -0.8250 N.pl3 1 <1>  -0.8380 
  8 C        3.3710     1.1200    -1.5620 C.ar  1 <1>  -0.1500 
  9 C        6.3930     0.3210    -1.2280 C.3   1 <1>   0.2090 
 10 C        5.2650    -1.7140    -0.2120 C.3   1 <1>   0.2090 
 11 C        7.4380     0.2780    -0.0940 C.3   1 <1>   0.3430 
 12 C        6.3440    -1.7350     0.8940 C.3   1 <1>   0.3430 
 13 N        7.6380    -1.1140     0.4510 N.4   1 <1>  -0.9590 
 14 C        8.6850    -1.1590     1.5000 C.3   1 <1>   0.4860 
 15 C       10.0030    -0.7650     0.8670 C.ar  1 <1>  -0.1430 
 16 C       10.5460    -1.5300    -0.1600 C.ar  1 <1>   0.0830 
 17 C       10.6680     0.3670     1.3100 C.ar  1 <1>  -0.1500 
 18 O        9.8430    -2.6240    -0.5680 O.3   1 <1>  -0.3630 
 19 C       11.7580    -1.1500    -0.7320 C.ar  1 <1>  -0.1500 
 20 C       11.8690     0.7480     0.7390 C.ar  1 <1>   0.0830 
 21 C       10.4390    -3.5880    -1.4150 C.3   1 <1>   0.0400 
 22 C       12.4160    -0.0170    -0.2860 C.ar  1 <1>  -0.1500 
 23 O       12.4410     1.8740     1.2350 O.3   1 <1>  -0.3620 
 24 C       13.7120     2.3020     0.7950 C.3   1 <1>   0.0400 
 25 H        4.0100     0.0900     1.5860 H     1 <1>   0.1500 
 26 H        0.9620     2.7010     0.2020 H     1 <1>   0.1500 
 27 H        1.7890     2.4470    -2.1200 H     1 <1>   0.1500 
 28 H        3.7280     1.0010    -2.5690 H     1 <1>   0.1500 
 29 H        6.1920     1.3480    -1.4830 H     1 <1>   0.0800 
 30 H        6.7890    -0.1600    -2.1050 H     1 <1>   0.0800 
 31 H        5.5280    -2.4170    -0.9830 H     1 <1>   0.0800 
 32 H        4.3200    -2.0270     0.1980 H     1 <1>   0.0800 
 33 H        7.1030     0.9290     0.6960 H     1 <1>   0.0800 
 34 H        8.3730     0.6650    -0.4670 H     1 <1>   0.0800 
 35 H        6.5110    -2.7550     1.1990 H     1 <1>   0.0800 
 36 H        5.9610    -1.1950     1.7440 H     1 <1>   0.0800 
 37 H        8.0360    -1.6850    -0.3140 H     1 <1>   0.4500 
 38 H        8.7730    -2.1590     1.8930 H     1 <1>   0.0800 
 39 H        8.4400    -0.4870     2.3070 H     1 <1>   0.0800 
 40 H       10.2740     0.9760     2.1060 H     1 <1>   0.1500 
 41 H       12.2070    -1.7160    -1.5270 H     1 <1>   0.1500 
 42 H       10.6260    -3.1460    -2.3780 H     1 <1>   0.0800 
 43 H        9.7570    -4.4130    -1.5230 H     1 <1>   0.0800 
 44 H       11.3560    -3.9320    -0.9680 H     1 <1>   0.0800 
 45 H       13.3480     0.2540    -0.7460 H     1 <1>   0.1500 
 46 H       13.9770     3.1860     1.3470 H     1 <1>   0.0800 
 47 H       13.6620     2.5310    -0.2550 H     1 <1>   0.0800 
 48 H       14.4300     1.5240     0.9870 H     1 <1>   0.0800 
@<TRIPOS>BOND
  1   1   2  1   
  2   2   3  ar  
  3   2   4  ar  
  4   3   5  ar  
  5   3  25  1   
  6   4   6  ar  
  7   4  26  1   
  8   5   7  1   
  9   5   8  ar  
 10   6   8  ar  
 11   6  27  1   
 12   7   9  1   
 13   7  10  1   
 14   8  28  1   
 15   9  11  1   
 16   9  29  1   
 17   9  30  1   
 18  10  12  1   
 19  10  31  1   
 20  10  32  1   
 21  11  13  1   
 22  11  33  1   
 23  11  34  1   
 24  12  13  1   
 25  12  35  1   
 26  12  36  1   
 27  13  14  1   
 28  13  37  1   
 29  14  15  1   
 30  14  38  1   
 31  14  39  1   
 32  15  16  ar  
 33  15  17  ar  
 34  16  18  1   
 35  16  19  ar  
 36  17  20  ar  
 37  17  40  1   
 38  18  21  1   
 39  19  22  ar  
 40  19  41  1   
 41  20  22  ar  
 42  20  23  1   
 43  21  42  1   
 44  21  43  1   
 45  21  44  1   
 46  22  45  1   
 47  23  24  1   
 48  24  46  1   
 49  24  47  1   
 50  24  48  1   
@<TRIPOS>SUBSTRUCTURE
  1 ****  11 GROUP 4 **** **** 0

# MOE 2024.06 (io_trps.svl 2023.06)
