@<TRIPOS>MOLECULE
NONAME
42 43 1 0 0 
SMALL
USER_CHARGES


@<TRIPOS>ATOM
  1 O       -4.2470    -4.2720    -1.2460 O.3   1 <1>  -0.3630 
  2 C       -3.5390    -4.0800    -0.1070 C.ar  1 <1>   0.0820 
  3 C       -5.3830    -5.1090    -1.2710 C.3   1 <1>   0.0400 
  4 C       -2.4740    -3.1990    -0.1860 C.ar  1 <1>  -0.1500 
  5 C       -3.8200    -4.7100     1.1010 C.ar  1 <1>  -0.1500 
  6 C       -1.6820    -2.9450     0.9230 C.ar  1 <1>  -0.1430 
  7 C       -3.0350    -4.4540     2.2110 C.ar  1 <1>  -0.1500 
  8 C       -1.9690    -3.5750     2.1250 C.ar  1 <1>  -0.1500 
  9 C       -0.5090    -2.0020     0.8060 C.3   1 <1>   0.4860 
 10 N        0.6170    -2.8130     0.3060 N.4   1 <1>  -0.9060 
 11 C        1.8730    -2.1120    -0.0950 C.3   1 <1>   0.4230 
 12 C        2.9310    -3.1800    -0.5160 C.3   1 <1>   0.3430 
 13 C        2.3360    -1.2290     1.0740 C.3   1 <1>  -0.2400 
 14 O        2.9060    -4.2350     0.3940 O.3   1 <1>  -0.6800 
 15 C        4.3580    -2.6550    -0.6410 C.ar  1 <1>  -0.1430 
 16 C        4.7970    -2.1850    -1.8720 C.ar  1 <1>  -0.1500 
 17 C        5.2350    -2.6290     0.4390 C.ar  1 <1>  -0.1500 
 18 C        6.0830    -1.6950    -2.0200 C.ar  1 <1>  -0.1500 
 19 C        6.5200    -2.1400     0.2900 C.ar  1 <1>  -0.1500 
 20 C        6.9450    -1.6720    -0.9390 C.ar  1 <1>  -0.1500 
 21 H       -5.7890    -5.0910    -2.2660 H     1 <1>   0.0800 
 22 H       -6.1100    -4.7320    -0.5740 H     1 <1>   0.0800 
 23 H       -5.0860    -6.1110    -1.0160 H     1 <1>   0.0800 
 24 H       -2.2900    -2.7210    -1.1320 H     1 <1>   0.1500 
 25 H       -4.6400    -5.3980     1.1940 H     1 <1>   0.1500 
 26 H       -3.2590    -4.9410     3.1460 H     1 <1>   0.1500 
 27 H       -1.3750    -3.3930     3.0060 H     1 <1>   0.1500 
 28 H       -0.2760    -1.5730     1.7670 H     1 <1>   0.0800 
 29 H       -0.7450    -1.2110     0.1130 H     1 <1>   0.0800 
 30 H        0.2660    -3.3910    -0.4640 H     1 <1>   0.4500 
 31 H        0.8950    -3.5030     1.0200 H     1 <1>   0.4500 
 32 H        1.6820    -1.4740    -0.9430 H     1 <1>   0.0800 
 33 H        2.6420    -3.5910    -1.4680 H     1 <1>   0.0800 
 34 H        2.5440    -1.8250     1.9460 H     1 <1>   0.0800 
 35 H        1.6120    -0.4730     1.3150 H     1 <1>   0.0800 
 36 H        3.2380    -0.7100     0.8050 H     1 <1>   0.0800 
 37 H        3.7050    -4.7880     0.2540 H     1 <1>   0.4000 
 38 H        4.1510    -2.1950    -2.7330 H     1 <1>   0.1500 
 39 H        4.9310    -2.9860     1.4090 H     1 <1>   0.1500 
 40 H        6.4180    -1.3330    -2.9770 H     1 <1>   0.1500 
 41 H        7.1940    -2.1230     1.1300 H     1 <1>   0.1500 
 42 H        7.9460    -1.2910    -1.0550 H     1 <1>   0.1500 
@<TRIPOS>BOND
  1   1   2  1   
  2   1   3  1   
  3   2   4  ar  
  4   2   5  ar  
  5   3  21  1   
  6   3  22  1   
  7   3  23  1   
  8   4   6  ar  
  9   4  24  1   
 10   5   7  ar  
 11   5  25  1   
 12   6   8  ar  
 13   6   9  1   
 14   7   8  ar  
 15   7  26  1   
 16   8  27  1   
 17   9  10  1   
 18   9  28  1   
 19   9  29  1   
 20  10  11  1   
 21  10  30  1   
 22  10  31  1   
 23  11  12  1   
 24  11  13  1   
 25  11  32  1   
 26  12  14  1   
 27  12  15  1   
 28  12  33  1   
 29  13  34  1   
 30  13  35  1   
 31  13  36  1   
 32  14  37  1   
 33  15  16  ar  
 34  15  17  ar  
 35  16  18  ar  
 36  16  38  1   
 37  17  19  ar  
 38  17  39  1   
 39  18  20  ar  
 40  18  40  1   
 41  19  20  ar  
 42  19  41  1   
 43  20  42  1   
@<TRIPOS>SUBSTRUCTURE
  1 ****  10 GROUP 4 **** **** 0

# MOE 2024.06 (io_trps.svl 2023.06)
