@<TRIPOS>MOLECULE
NONAME
47 50 1 0 0 
SMALL
USER_CHARGES


@<TRIPOS>ATOM
  1 BR       1.6640    -2.3700    -3.6870 Br    1 <1>  -0.1110 
  2 C        2.7550    -2.1370    -2.1190 C.ar  1 <1>   0.1110 
  3 C        3.9050    -1.3750    -2.2170 C.ar  1 <1>  -0.1500 
  4 C        2.3610    -2.7380    -0.9390 C.ar  1 <1>  -0.1500 
  5 C        4.6900    -1.2080    -1.0890 C.ar  1 <1>  -0.0320 
  6 C        3.1470    -2.5640     0.1870 C.ar  1 <1>  -0.1500 
  7 C        4.3030    -1.7980     0.1130 C.ar  1 <1>   0.0830 
  8 C        5.9680    -0.4000    -1.1660 C.3   1 <1>  -0.0680 
  9 O        5.0260    -1.6290     1.2510 O.3   1 <1>  -0.2330 
 10 C        6.7180    -0.2670     0.1250 C.3   1 <1>   0.0000 
 11 C        6.1540     0.9610    -0.5500 C.3   1 <1>  -0.0950 
 12 C        6.0840    -0.8280     1.3730 C.2   1 <1>   0.7200 
 13 C        8.1670    -0.6760     0.1000 C.2   1 <1>   0.7200 
 14 C        7.1190     1.9280    -1.2470 C.2   1 <1>   0.4840 
 15 C        4.8970     1.6880    -0.0280 C.3   1 <1>  -0.1450 
 16 O        6.5070    -0.5410     2.4600 O.2   1 <1>  -0.5700 
 17 O        9.0570     0.1140     0.2740 O.2   1 <1>  -0.5700 
 18 O        8.3910    -1.9620    -0.1450 O.3   1 <1>  -0.4300 
 19 O        7.2300     1.8070    -2.4420 O.2   1 <1>  -0.5700 
 20 C        7.8050     2.9620    -0.4930 C.ar  1 <1>   0.0860 
 21 C        9.6900    -2.4990    -0.2610 C.3   1 <1>   0.1200 
 22 C        7.9160     2.9530     0.9010 C.ar  1 <1>  -0.1500 
 23 C        8.3880     4.0420    -1.1590 C.ar  1 <1>  -0.1500 
 24 C       10.1710    -2.3100    -1.6980 C.3   1 <1>  -0.2400 
 25 C        8.5570     3.9680     1.5860 C.ar  1 <1>  -0.1500 
 26 C        9.0300     5.0610    -0.4800 C.ar  1 <1>  -0.1500 
 27 C        9.1180     5.0310     0.9000 C.ar  1 <1>  -0.1430 
 28 C        9.8230     6.1480     1.6500 C.3   1 <1>  -0.0970 
 29 H        4.1780    -0.9260    -3.1560 H     1 <1>   0.1500 
 30 H        1.4600    -3.3270    -0.9040 H     1 <1>   0.1500 
 31 H        2.8650    -3.0150     1.1230 H     1 <1>   0.1500 
 32 H        6.5430    -0.6300    -2.0490 H     1 <1>   0.1000 
 33 H        4.1870     1.0120     0.4130 H     1 <1>   0.0800 
 34 H        4.4100     2.1950    -0.8430 H     1 <1>   0.0800 
 35 H        5.1600     2.4200     0.7150 H     1 <1>   0.0800 
 36 H        9.6340    -3.5460    -0.0170 H     1 <1>   0.0800 
 37 H       10.3430    -2.0090     0.4420 H     1 <1>   0.0800 
 38 H        7.5110     2.1380     1.4730 H     1 <1>   0.1500 
 39 H        8.3340     4.0830    -2.2340 H     1 <1>   0.1500 
 40 H        9.4990    -2.7930    -2.3840 H     1 <1>   0.0800 
 41 H       11.1470    -2.7450    -1.8120 H     1 <1>   0.0800 
 42 H       10.2400    -1.2630    -1.9360 H     1 <1>   0.0800 
 43 H        8.6230     3.9240     2.6590 H     1 <1>   0.1500 
 44 H        9.4630     5.8770    -1.0310 H     1 <1>   0.1500 
 45 H       10.2270     5.7820     2.5770 H     1 <1>   0.0800 
 46 H        9.1280     6.9400     1.8620 H     1 <1>   0.0800 
 47 H       10.6310     6.5420     1.0610 H     1 <1>   0.0800 
@<TRIPOS>BOND
  1   1   2  1   
  2   2   3  ar  
  3   2   4  ar  
  4   3   5  ar  
  5   3  29  1   
  6   4   6  ar  
  7   4  30  1   
  8   5   7  ar  
  9   5   8  1   
 10   6   7  ar  
 11   6  31  1   
 12   7   9  1   
 13   8  10  1   
 14   8  11  1   
 15   8  32  1   
 16   9  12  1   
 17  10  11  1   
 18  10  12  1   
 19  10  13  1   
 20  11  14  1   
 21  11  15  1   
 22  12  16  2   
 23  13  17  2   
 24  13  18  1   
 25  14  19  2   
 26  14  20  1   
 27  15  33  1   
 28  15  34  1   
 29  15  35  1   
 30  18  21  1   
 31  20  22  ar  
 32  20  23  ar  
 33  21  24  1   
 34  21  36  1   
 35  21  37  1   
 36  22  25  ar  
 37  22  38  1   
 38  23  26  ar  
 39  23  39  1   
 40  24  40  1   
 41  24  41  1   
 42  24  42  1   
 43  25  27  ar  
 44  25  43  1   
 45  26  27  ar  
 46  26  44  1   
 47  27  28  1   
 48  28  45  1   
 49  28  46  1   
 50  28  47  1   
@<TRIPOS>SUBSTRUCTURE
  1 ****  11 GROUP 4 **** **** 0

# MOE 2024.06 (io_trps.svl 2023.06)
