@<TRIPOS>MOLECULE
NONAME
35 37 1 0 0 
SMALL
USER_CHARGES


@<TRIPOS>ATOM
  1 S       -0.1460    -0.3990    -0.2090 S.3   1 <1>  -0.4600 
  2 C        1.3710     0.5380    -0.5240 C.3   1 <1>   0.0700 
  3 C        0.4200    -2.1170    -0.3080 C.3   1 <1>   0.0700 
  4 C        2.4660     0.0570     0.4370 C.3   1 <1>   0.3430 
  5 C        1.6200    -2.3010     0.6320 C.3   1 <1>   0.3430 
  6 N        2.7780    -1.4110     0.2760 N.4   1 <1>  -0.9590 
  7 C        3.9890    -1.7840     1.0580 C.3   1 <1>   0.4860 
  8 C        5.1770    -1.0310     0.4930 C.ar  1 <1>  -0.1440 
  9 C        5.7480     0.0070     1.1850 C.ar  1 <1>  -0.1500 
 10 C        5.6970    -1.3920    -0.7600 C.ar  1 <1>  -0.1500 
 11 C        6.8320     0.7360     0.6590 C.ar  1 <1>   0.0000 
 12 C        6.7500    -0.7010    -1.2920 C.ar  1 <1>  -0.1500 
 13 C        7.3400     0.3780    -0.6070 C.ar  1 <1>   0.0000 
 14 C        7.4280     1.8110     1.3500 C.ar  1 <1>  -0.1500 
 15 C        8.4200     1.1130    -1.1370 C.ar  1 <1>  -0.1500 
 16 C        8.4750     2.5060     0.8110 C.ar  1 <1>  -0.1500 
 17 C        8.9770     2.1540    -0.4470 C.ar  1 <1>  -0.1500 
 18 H        1.1400     1.5760    -0.3590 H     1 <1>   0.0800 
 19 H        1.6460     0.3910    -1.5540 H     1 <1>   0.0800 
 20 H        0.6730    -2.3240    -1.3320 H     1 <1>   0.0800 
 21 H       -0.4070    -2.7360    -0.0080 H     1 <1>   0.0800 
 22 H        2.1500     0.2530     1.4480 H     1 <1>   0.0800 
 23 H        3.3540     0.6390     0.2500 H     1 <1>   0.0800 
 24 H        1.9300    -3.3330     0.5870 H     1 <1>   0.0800 
 25 H        1.3010    -2.0960     1.6420 H     1 <1>   0.0800 
 26 H        3.0190    -1.5570    -0.7120 H     1 <1>   0.4500 
 27 H        4.1740    -2.8430     0.9820 H     1 <1>   0.0800 
 28 H        3.8540    -1.5330     2.0980 H     1 <1>   0.0800 
 29 H        5.3850     0.3000     2.1550 H     1 <1>   0.1500 
 30 H        5.2760    -2.2190    -1.3070 H     1 <1>   0.1500 
 31 H        7.1550    -0.9740    -2.2510 H     1 <1>   0.1500 
 32 H        7.0470     2.0820     2.3180 H     1 <1>   0.1500 
 33 H        8.8060     0.8380    -2.1020 H     1 <1>   0.1500 
 34 H        8.9280     3.3270     1.3410 H     1 <1>   0.1500 
 35 H        9.8020     2.7110    -0.8560 H     1 <1>   0.1500 
@<TRIPOS>BOND
  1   1   2  1   
  2   1   3  1   
  3   2   4  1   
  4   2  18  1   
  5   2  19  1   
  6   3   5  1   
  7   3  20  1   
  8   3  21  1   
  9   4   6  1   
 10   4  22  1   
 11   4  23  1   
 12   5   6  1   
 13   5  24  1   
 14   5  25  1   
 15   6   7  1   
 16   6  26  1   
 17   7   8  1   
 18   7  27  1   
 19   7  28  1   
 20   8   9  ar  
 21   8  10  ar  
 22   9  11  ar  
 23   9  29  1   
 24  10  12  ar  
 25  10  30  1   
 26  11  13  ar  
 27  11  14  ar  
 28  12  13  ar  
 29  12  31  1   
 30  13  15  ar  
 31  14  16  ar  
 32  14  32  1   
 33  15  17  ar  
 34  15  33  1   
 35  16  17  ar  
 36  16  34  1   
 37  17  35  1   
@<TRIPOS>SUBSTRUCTURE
  1 ****   8 GROUP 4 **** **** 0

# MOE 2024.06 (io_trps.svl 2023.06)
