@<TRIPOS>MOLECULE
NONAME
46 48 1 0 0 
SMALL
USER_CHARGES


@<TRIPOS>ATOM
  1 O       -0.5930     0.1220     0.5800 O.2   1 <1>  -0.5750 
  2 C       -1.6000    -0.5450     0.6240 C.2   1 <1>   0.6860 
  3 N       -2.8380    -0.0430     0.2500 N.am  1 <1>  -0.4420 
  4 N       -1.5080    -1.8350     1.0540 N.am  1 <1>  -0.4960 
  5 C       -3.9250    -0.9010     0.3150 C.2   1 <1>   0.4200 
  6 C       -2.9760     1.3660    -0.2250 C.3   1 <1>   0.0510 
  7 C       -2.5700    -2.6880     1.1360 C.2   1 <1>   0.6990 
  8 N       -5.2110    -0.6270    -0.0310 N.pl3 1 <1>  -0.7040 
  9 C       -3.8570    -2.1840     0.7390 C.2   1 <1>   0.2700 
 10 O       -2.3750    -3.8170     1.5370 O.2   1 <1>  -0.5750 
 11 C       -5.9520    -1.7170     0.1800 C.cat 1 <1>   1.0680 
 12 N       -5.1690    -2.7030     0.6420 N.pl3 1 <1>  -0.7680 
 13 N       -7.2940    -1.7510    -0.0630 N.pl3 1 <1>  -0.5970 
 14 C       -5.4170    -4.1760     0.7340 C.3   1 <1>   0.3470 
 15 C       -8.2410    -2.6710     0.6620 C.3   1 <1>   0.1590 
 16 C       -7.9310    -0.9570    -1.1760 C.3   1 <1>   0.1590 
 17 C       -5.6400    -4.7900    -0.6630 C.3   1 <1>  -0.0890 
 18 C       -9.5880    -2.0010     1.0250 C.3   1 <1>   0.3360 
 19 C       -9.2770    -0.3080    -0.7730 C.3   1 <1>   0.3360 
 20 C       -5.9460    -6.2880    -0.5310 C.3   1 <1>  -0.2480 
 21 C       -4.4280    -4.6020    -1.5910 C.3   1 <1>  -0.2480 
 22 N      -10.2070    -1.2940    -0.1400 N.4   1 <1>  -0.9090 
 23 H       -0.5860    -2.1740     1.3250 H     1 <1>   0.3630 
 24 H       -2.0900     1.9340     0.0040 H     1 <1>   0.0710 
 25 H       -3.8090     1.8420     0.2600 H     1 <1>   0.0710 
 26 H       -3.1210     1.3790    -1.2910 H     1 <1>   0.0710 
 27 H       -5.5320     0.2780    -0.3580 H     1 <1>   0.4440 
 28 H       -6.2640    -4.3750     1.3630 H     1 <1>   0.0710 
 29 H       -4.5790    -4.6670     1.1970 H     1 <1>   0.0710 
 30 H       -7.7960    -3.0020     1.5830 H     1 <1>   0.0710 
 31 H       -8.4320    -3.5390     0.0530 H     1 <1>   0.0710 
 32 H       -8.1070    -1.6170    -2.0090 H     1 <1>   0.0710 
 33 H       -7.2680    -0.1850    -1.5240 H     1 <1>   0.0710 
 34 H       -6.4950    -4.3300    -1.1230 H     1 <1>   0.0710 
 35 H       -9.4180    -1.2940     1.8210 H     1 <1>   0.0710 
 36 H      -10.2680    -2.7510     1.3990 H     1 <1>   0.0710 
 37 H       -9.7420     0.1210    -1.6470 H     1 <1>   0.0710 
 38 H       -9.0830     0.4960    -0.0810 H     1 <1>   0.0710 
 39 H       -5.1120    -6.8110    -0.0960 H     1 <1>   0.0710 
 40 H       -6.1420    -6.7170    -1.4990 H     1 <1>   0.0710 
 41 H       -6.8120    -6.4520     0.0870 H     1 <1>   0.0710 
 42 H       -3.5420    -5.0220    -1.1470 H     1 <1>   0.0710 
 43 H       -4.2510    -3.5630    -1.8020 H     1 <1>   0.0710 
 44 H       -4.5990    -5.1000    -2.5300 H     1 <1>   0.0710 
 45 H      -11.0630    -0.8070     0.1710 H     1 <1>   0.4440 
 46 H      -10.5230    -1.9810    -0.8410 H     1 <1>   0.4440 
@<TRIPOS>BOND
  1   1   2  2   
  2   2   3  am  
  3   2   4  am  
  4   3   5  1   
  5   3   6  1   
  6   4   7  am  
  7   4  23  1   
  8   5   8  1   
  9   5   9  2   
 10   6  24  1   
 11   6  25  1   
 12   6  26  1   
 13   7   9  1   
 14   7  10  2   
 15   8  11  ar  
 16   8  27  1   
 17   9  12  1   
 18  11  12  ar  
 19  11  13  ar  
 20  12  14  1   
 21  13  15  1   
 22  13  16  1   
 23  14  17  1   
 24  14  28  1   
 25  14  29  1   
 26  15  18  1   
 27  15  30  1   
 28  15  31  1   
 29  16  19  1   
 30  16  32  1   
 31  16  33  1   
 32  17  20  1   
 33  17  21  1   
 34  17  34  1   
 35  18  22  1   
 36  18  35  1   
 37  18  36  1   
 38  19  22  1   
 39  19  37  1   
 40  19  38  1   
 41  20  39  1   
 42  20  40  1   
 43  20  41  1   
 44  21  42  1   
 45  21  43  1   
 46  21  44  1   
 47  22  45  1   
 48  22  46  1   
@<TRIPOS>SUBSTRUCTURE
  1 ****  12 GROUP 4 **** **** 0

# MOE 2024.06 (io_trps.svl 2023.06)
