@<TRIPOS>MOLECULE
NONAME
34 35 1 0 0 
SMALL
USER_CHARGES


@<TRIPOS>ATOM
  1 S       -0.4980    -0.8120    -1.0460 S.3   1 <1>  -0.0800 
  2 C        0.8660    -1.6900    -0.4380 C.2   1 <1>   0.4420 
  3 C       -1.2560    -1.0650     0.4890 C.2   1 <1>   0.1980 
  4 N        0.6900    -2.0760     0.7720 N.2   1 <1>  -0.3380 
  5 N        1.9240    -1.8490    -1.3060 N.am  1 <1>  -0.4940 
  6 N       -0.5200    -1.7180     1.2960 N.2   1 <1>  -0.3380 
  7 C       -2.6460    -0.5000     0.7080 C.3   1 <1>   0.3000 
  8 C        3.1460    -2.4490    -1.2640 C.2   1 <1>   0.5690 
  9 O       -3.5190    -0.9860    -0.2930 O.3   1 <1>  -0.3630 
 10 O        3.8230    -2.3720    -2.2570 O.2   1 <1>  -0.5700 
 11 C        3.7350    -3.2130    -0.0660 C.3   1 <1>  -0.0190 
 12 C       -4.8430    -0.6660    -0.3410 C.ar  1 <1>   0.0820 
 13 C        2.9600    -4.4910     0.3020 C.3   1 <1>  -0.2400 
 14 C        4.0040    -2.3310     1.1660 C.3   1 <1>  -0.2400 
 15 C       -5.5340     0.2010     0.5140 C.ar  1 <1>   0.1900 
 16 C       -5.5660    -1.2780    -1.3550 C.ar  1 <1>  -0.1500 
 17 F       -4.9290     0.8240     1.4950 F     1 <1>  -0.1900 
 18 C       -6.8870     0.4510     0.3700 C.ar  1 <1>  -0.1500 
 19 C       -6.9220    -1.0350    -1.5100 C.ar  1 <1>  -0.1500 
 20 C       -7.5840    -0.1730    -0.6510 C.ar  1 <1>  -0.1500 
 21 H        1.7780    -1.4230    -2.2180 H     1 <1>   0.3700 
 22 H       -2.6160     0.5730     0.6460 H     1 <1>   0.0800 
 23 H       -3.0190    -0.8100     1.6680 H     1 <1>   0.0800 
 24 H        4.7040    -3.5500    -0.3950 H     1 <1>   0.0800 
 25 H        1.9960    -4.2680     0.7180 H     1 <1>   0.0800 
 26 H        3.5120    -5.0610     1.0270 H     1 <1>   0.0800 
 27 H        2.8210    -5.1000    -0.5740 H     1 <1>   0.0800 
 28 H        3.0940    -2.0000     1.6270 H     1 <1>   0.0800 
 29 H        4.5770    -1.4670     0.8810 H     1 <1>   0.0800 
 30 H        4.5660    -2.8830     1.8980 H     1 <1>   0.0800 
 31 H       -5.0610    -1.9490    -2.0260 H     1 <1>   0.1500 
 32 H       -7.3850     1.1230     1.0450 H     1 <1>   0.1500 
 33 H       -7.4650    -1.5210    -2.3040 H     1 <1>   0.1500 
 34 H       -8.6380     0.0110    -0.7770 H     1 <1>   0.1500 
@<TRIPOS>BOND
  1   1   2  1   
  2   1   3  1   
  3   2   4  2   
  4   2   5  1   
  5   3   6  2   
  6   3   7  1   
  7   4   6  1   
  8   5   8  am  
  9   5  21  1   
 10   7   9  1   
 11   7  22  1   
 12   7  23  1   
 13   8  10  2   
 14   8  11  1   
 15   9  12  1   
 16  11  13  1   
 17  11  14  1   
 18  11  24  1   
 19  12  15  ar  
 20  12  16  ar  
 21  13  25  1   
 22  13  26  1   
 23  13  27  1   
 24  14  28  1   
 25  14  29  1   
 26  14  30  1   
 27  15  17  1   
 28  15  18  ar  
 29  16  19  ar  
 30  16  31  1   
 31  18  20  ar  
 32  18  32  1   
 33  19  20  ar  
 34  19  33  1   
 35  20  34  1   
@<TRIPOS>SUBSTRUCTURE
  1 ****   3 GROUP 4 **** **** 0

# MOE 2024.06 (io_trps.svl 2023.06)
