@<TRIPOS>MOLECULE
NONAME
24 24 1 0 0 
SMALL
USER_CHARGES


@<TRIPOS>ATOM
  1 S        0.0740    -0.0520     0.4210 S.3   1 <1>  -0.0800 
  2 C        0.7280     1.5780     0.6870 C.2   1 <1>  -0.0450 
  3 C       -1.5280     0.5610     0.0900 C.2   1 <1>  -0.1400 
  4 C       -0.2850     2.4870     0.5330 C.2   1 <1>   0.0830 
  5 C        2.1140     1.7010     1.0040 C.2   1 <1>   0.8050 
  6 C       -1.5580     1.9080     0.1860 C.2   1 <1>   0.0190 
  7 C       -2.5910    -0.4720    -0.2390 C.3   1 <1>  -0.0600 
  8 N       -0.1380     3.8530     0.7080 N.pl3 1 <1>  -0.8830 
  9 O        2.8050     0.7870     1.4100 O.2   1 <1>  -0.5700 
 10 O        2.7200     2.8850     0.8760 O.3   1 <1>  -0.4300 
 11 C       -2.7140     2.7300    -0.0230 C.1   1 <1>   0.5380 
 12 C        2.8980     3.4220    -0.4130 C.3   1 <1>   0.1200 
 13 N       -3.6280     3.3940    -0.1790 N.1   1 <1>  -0.5570 
 14 C        3.4800     4.8240    -0.2630 C.3   1 <1>  -0.2400 
 15 H       -2.3040    -1.0280    -1.1140 H     1 <1>   0.0800 
 16 H       -3.5390    -0.0010    -0.4260 H     1 <1>   0.0800 
 17 H       -2.7030    -1.1570     0.5830 H     1 <1>   0.0800 
 18 H        0.7150     4.2340     1.1410 H     1 <1>   0.4000 
 19 H       -0.9470     4.4870     0.7520 H     1 <1>   0.4000 
 20 H        1.9510     3.4550    -0.9250 H     1 <1>   0.0800 
 21 H        3.5770     2.7830    -0.9530 H     1 <1>   0.0800 
 22 H        2.8000     5.4560     0.2800 H     1 <1>   0.0800 
 23 H        3.6450     5.2540    -1.2340 H     1 <1>   0.0800 
 24 H        4.4210     4.7790     0.2550 H     1 <1>   0.0800 
@<TRIPOS>BOND
  1   1   2  1   
  2   1   3  1   
  3   2   4  2   
  4   2   5  1   
  5   3   6  2   
  6   3   7  1   
  7   4   6  1   
  8   4   8  1   
  9   5   9  2   
 10   5  10  1   
 11   6  11  1   
 12   7  15  1   
 13   7  16  1   
 14   7  17  1   
 15   8  18  1   
 16   8  19  1   
 17  10  12  1   
 18  11  13  3   
 19  12  14  1   
 20  12  20  1   
 21  12  21  1   
 22  14  22  1   
 23  14  23  1   
 24  14  24  1   
@<TRIPOS>SUBSTRUCTURE
  1 ****   4 GROUP 4 **** **** 0

# MOE 2024.06 (io_trps.svl 2023.06)
