@<TRIPOS>MOLECULE
NONAME
34 35 1 0 0 
SMALL
USER_CHARGES


@<TRIPOS>ATOM
  1 S        0.2850    -0.1850     1.0910 S.3   1 <1>  -0.0800 
  2 C       -1.2620    -0.6080     0.4620 C.2   1 <1>   0.4340 
  3 C        0.9220    -1.4550     0.0910 C.2   1 <1>   0.4420 
  4 S       -2.6530     0.3410     1.0600 S.3   1 <1>  -0.2860 
  5 N       -1.2520    -1.5630    -0.3750 N.2   1 <1>  -0.3380 
  6 N        0.0090    -2.0530    -0.5900 N.2   1 <1>  -0.3380 
  7 N        2.2890    -1.6420     0.1470 N.am  1 <1>  -0.4940 
  8 C       -4.1040    -0.4220     0.2100 C.3   1 <1>   0.1500 
  9 C        3.0680    -2.6170    -0.4270 C.2   1 <1>   0.5440 
 10 C       -5.1990     0.6520     0.1420 C.3   1 <1>  -0.1600 
 11 C       -4.5030    -1.6630     1.0140 C.3   1 <1>  -0.2400 
 12 O        2.5510    -3.5730    -0.9630 O.2   1 <1>  -0.5700 
 13 C        4.5120    -2.5080    -0.3460 C.ar  1 <1>   0.0860 
 14 C       -6.4330     0.2050    -0.6550 C.3   1 <1>  -0.2400 
 15 C        5.3050    -3.6470    -0.2050 C.ar  1 <1>  -0.1500 
 16 C        5.1660    -1.2740    -0.4000 C.ar  1 <1>  -0.1500 
 17 C        6.6810    -3.5630    -0.1030 C.ar  1 <1>  -0.1500 
 18 C        6.5430    -1.1840    -0.2970 C.ar  1 <1>  -0.1500 
 19 C        7.3030    -2.3290    -0.1450 C.ar  1 <1>  -0.1500 
 20 H        2.7880    -0.9830     0.7350 H     1 <1>   0.3700 
 21 H       -3.7810    -0.6930    -0.7810 H     1 <1>   0.0800 
 22 H       -4.7900     1.5290    -0.3300 H     1 <1>   0.0800 
 23 H       -5.4980     0.9250     1.1400 H     1 <1>   0.0800 
 24 H       -4.8110    -1.3850     2.0060 H     1 <1>   0.0800 
 25 H       -3.6710    -2.3410     1.0840 H     1 <1>   0.0800 
 26 H       -5.3110    -2.1790     0.5310 H     1 <1>   0.0800 
 27 H       -6.1490    -0.1020    -1.6460 H     1 <1>   0.0800 
 28 H       -7.1300     1.0200    -0.7360 H     1 <1>   0.0800 
 29 H       -6.9300    -0.6130    -0.1650 H     1 <1>   0.0800 
 30 H        4.8280    -4.6130    -0.1760 H     1 <1>   0.1500 
 31 H        4.5990    -0.3710    -0.5370 H     1 <1>   0.1500 
 32 H        7.2690    -4.4590     0.0080 H     1 <1>   0.1500 
 33 H        7.0280    -0.2230    -0.3400 H     1 <1>   0.1500 
 34 H        8.3750    -2.2610    -0.0660 H     1 <1>   0.1500 
@<TRIPOS>BOND
  1   1   2  1   
  2   1   3  1   
  3   2   4  1   
  4   2   5  2   
  5   3   6  2   
  6   3   7  1   
  7   4   8  1   
  8   5   6  1   
  9   7   9  am  
 10   7  20  1   
 11   8  10  1   
 12   8  11  1   
 13   8  21  1   
 14   9  12  2   
 15   9  13  1   
 16  10  14  1   
 17  10  22  1   
 18  10  23  1   
 19  11  24  1   
 20  11  25  1   
 21  11  26  1   
 22  13  15  ar  
 23  13  16  ar  
 24  14  27  1   
 25  14  28  1   
 26  14  29  1   
 27  15  17  ar  
 28  15  30  1   
 29  16  18  ar  
 30  16  31  1   
 31  17  19  ar  
 32  17  32  1   
 33  18  19  ar  
 34  18  33  1   
 35  19  34  1   
@<TRIPOS>SUBSTRUCTURE
  1 ****   3 GROUP 4 **** **** 0

# MOE 2024.06 (io_trps.svl 2023.06)
