@<TRIPOS>MOLECULE
NONAME
46 47 1 0 0 
SMALL
USER_CHARGES


@<TRIPOS>ATOM
  1 CL       1.7620    -0.8480    -1.4980 Cl    1 <1>  -0.1770 
  2 C        1.0260    -2.1150    -0.5440 C.ar  1 <1>   0.1770 
  3 C        1.6240    -2.6030     0.6140 C.ar  1 <1>  -0.1440 
  4 C       -0.1860    -2.6040    -0.9940 C.ar  1 <1>  -0.1500 
  5 C        0.9720    -3.6160     1.3080 C.ar  1 <1>  -0.1500 
  6 C        2.9580    -2.0880     1.1570 C.3   1 <1>   0.5020 
  7 C       -0.8330    -3.5990    -0.2860 C.ar  1 <1>   0.0830 
  8 C       -0.2350    -4.1280     0.8630 C.ar  1 <1>   0.0830 
  9 N        2.7410    -0.7250     1.6740 N.am  1 <1>  -0.7300 
 10 C        4.1160    -2.1810     0.1550 C.2   1 <1>  -0.1240 
 11 O       -2.0360    -4.0130    -0.7470 O.3   1 <1>  -0.3630 
 12 O       -0.7790    -5.1390     1.5860 O.3   1 <1>  -0.3630 
 13 C        3.4360     0.3480     1.2650 C.2   1 <1>   0.6900 
 14 C        4.8020    -1.0480    -0.1680 C.2   1 <1>  -0.0290 
 15 C        4.3300    -3.5110    -0.3320 C.2   1 <1>   0.7060 
 16 C       -3.1510    -3.6820     0.0500 C.3   1 <1>   0.1200 
 17 C       -0.9740    -6.3690     0.9210 C.3   1 <1>   0.0400 
 18 O        3.1620     1.4530     1.6700 O.2   1 <1>  -0.5700 
 19 N        4.4520     0.1660     0.3870 N.am  1 <1>  -0.5390 
 20 C        5.9810    -0.9510    -1.1250 C.3   1 <1>  -0.1020 
 21 O        4.8630    -3.7740    -1.3920 O.2   1 <1>  -0.5700 
 22 O        3.9200    -4.5340     0.4320 O.3   1 <1>  -0.4300 
 23 C       -4.4100    -4.1920    -0.6520 C.3   1 <1>  -0.1600 
 24 C        4.0550    -5.8780     0.0120 C.3   1 <1>   0.0400 
 25 C       -5.6700    -3.8680     0.1590 C.3   1 <1>  -0.2400 
 26 H       -0.6290    -2.2070    -1.8890 H     1 <1>   0.1500 
 27 H        1.3960    -4.0320     2.2050 H     1 <1>   0.1500 
 28 H        3.2310    -2.6900     2.0070 H     1 <1>   0.0800 
 29 H        1.8980    -0.5530     2.2160 H     1 <1>   0.3700 
 30 H       -3.1810    -2.6110     0.1610 H     1 <1>   0.0800 
 31 H       -3.0400    -4.1420     1.0160 H     1 <1>   0.0800 
 32 H       -1.2140    -7.1140     1.6580 H     1 <1>   0.0800 
 33 H       -0.0680    -6.6370     0.4080 H     1 <1>   0.0800 
 34 H       -1.7860    -6.2760     0.2230 H     1 <1>   0.0800 
 35 H        4.9160     1.0330     0.1160 H     1 <1>   0.3700 
 36 H        5.6590    -0.5100    -2.0510 H     1 <1>   0.0800 
 37 H        6.4150    -1.9090    -1.3370 H     1 <1>   0.0800 
 38 H        6.7540    -0.3370    -0.6980 H     1 <1>   0.0800 
 39 H       -4.3360    -5.2580    -0.7790 H     1 <1>   0.0800 
 40 H       -4.4840    -3.7330    -1.6220 H     1 <1>   0.0800 
 41 H        3.6530    -6.5170     0.7780 H     1 <1>   0.0800 
 42 H        5.0990    -6.0930    -0.1400 H     1 <1>   0.0800 
 43 H        3.5100    -6.0120    -0.9070 H     1 <1>   0.0800 
 44 H       -5.6230    -4.3310     1.1290 H     1 <1>   0.0800 
 45 H       -6.5410    -4.2360    -0.3540 H     1 <1>   0.0800 
 46 H       -5.7720    -2.8040     0.2860 H     1 <1>   0.0800 
@<TRIPOS>BOND
  1   1   2  1   
  2   2   3  ar  
  3   2   4  ar  
  4   3   5  ar  
  5   3   6  1   
  6   4   7  ar  
  7   4  26  1   
  8   5   8  ar  
  9   5  27  1   
 10   6   9  1   
 11   6  10  1   
 12   6  28  1   
 13   7   8  ar  
 14   7  11  1   
 15   8  12  1   
 16   9  13  am  
 17   9  29  1   
 18  10  14  2   
 19  10  15  1   
 20  11  16  1   
 21  12  17  1   
 22  13  18  2   
 23  13  19  am  
 24  14  19  1   
 25  14  20  1   
 26  15  21  2   
 27  15  22  1   
 28  16  23  1   
 29  16  30  1   
 30  16  31  1   
 31  17  32  1   
 32  17  33  1   
 33  17  34  1   
 34  19  35  1   
 35  20  36  1   
 36  20  37  1   
 37  20  38  1   
 38  22  24  1   
 39  23  25  1   
 40  23  39  1   
 41  23  40  1   
 42  24  41  1   
 43  24  42  1   
 44  24  43  1   
 45  25  44  1   
 46  25  45  1   
 47  25  46  1   
@<TRIPOS>SUBSTRUCTURE
  1 ****   3 GROUP 4 **** **** 0

# MOE 2024.06 (io_trps.svl 2023.06)
