@<TRIPOS>MOLECULE
NONAME
43 44 1 0 0 
SMALL
USER_CHARGES


@<TRIPOS>ATOM
  1 CL       1.9660     2.8540    -3.2260 Cl    1 <1>  -0.1770 
  2 C        2.9330     2.0990    -1.9780 C.ar  1 <1>   0.1770 
  3 C        3.2690     2.8030    -0.8300 C.ar  1 <1>  -0.1440 
  4 C        3.3440     0.7930    -2.1710 C.ar  1 <1>  -0.1500 
  5 C        4.0370     2.1710     0.1370 C.ar  1 <1>  -0.1500 
  6 C        2.8120     4.2400    -0.6280 C.3   1 <1>  -0.0960 
  7 C        4.1110     0.1740    -1.2000 C.ar  1 <1>  -0.1500 
  8 C        4.4650     0.8560    -0.0460 C.ar  1 <1>   0.0830 
  9 O        5.2300     0.1730     0.8430 O.3   1 <1>  -0.3630 
 10 C        5.7530     0.7780     2.0190 C.3   1 <1>   0.2610 
 11 C        6.7640     1.9110     1.7310 C.2   1 <1>   0.5690 
 12 C        6.3490    -0.3390     2.8850 C.3   1 <1>  -0.2400 
 13 O        6.6680     2.8960     2.4290 O.2   1 <1>  -0.5700 
 14 N        7.7310     1.8430     0.7530 N.am  1 <1>  -0.6600 
 15 C        7.9030     0.7080    -0.2070 C.3   1 <1>   0.1400 
 16 C        8.6430     3.0020     0.4990 C.3   1 <1>   0.1400 
 17 C        9.3220     0.6890    -0.8140 C.3   1 <1>   0.2000 
 18 C        9.0520     3.0790    -0.9860 C.3   1 <1>   0.2000 
 19 O        9.6550     1.8970    -1.4430 O.3   1 <1>  -0.5600 
 20 C        9.4830    -0.4110    -1.8600 C.3   1 <1>  -0.2400 
 21 C       10.0420     4.2100    -1.2520 C.3   1 <1>  -0.2400 
 22 H        3.0660     0.2730    -3.0690 H     1 <1>   0.1500 
 23 H        4.2920     2.7190     1.0250 H     1 <1>   0.1500 
 24 H        1.7380     4.2860    -0.6200 H     1 <1>   0.0800 
 25 H        3.1790     4.8580    -1.4280 H     1 <1>   0.0800 
 26 H        3.1770     4.6370     0.3020 H     1 <1>   0.0800 
 27 H        4.4390    -0.8420    -1.3330 H     1 <1>   0.1500 
 28 H        4.9200     1.1980     2.5530 H     1 <1>   0.0800 
 29 H        7.1830    -0.8030     2.3920 H     1 <1>   0.0800 
 30 H        5.5990    -1.0790     3.0970 H     1 <1>   0.0800 
 31 H        6.6930     0.0750     3.8150 H     1 <1>   0.0800 
 32 H        7.1820     0.8030    -1.0000 H     1 <1>   0.0800 
 33 H        7.7280    -0.2270     0.2920 H     1 <1>   0.0800 
 34 H        9.5220     2.9030     1.1110 H     1 <1>   0.0800 
 35 H        8.1510     3.9190     0.7730 H     1 <1>   0.0800 
 36 H       10.0350     0.5340    -0.0230 H     1 <1>   0.0800 
 37 H        8.1670     3.2360    -1.5800 H     1 <1>   0.0800 
 38 H        8.7990    -0.2530    -2.6740 H     1 <1>   0.0800 
 39 H        9.2860    -1.3720    -1.4210 H     1 <1>   0.0800 
 40 H       10.4900    -0.4080    -2.2370 H     1 <1>   0.0800 
 41 H       10.9450     4.0540    -0.6910 H     1 <1>   0.0800 
 42 H        9.6120     5.1530    -0.9650 H     1 <1>   0.0800 
 43 H       10.2770     4.2480    -2.3010 H     1 <1>   0.0800 
@<TRIPOS>BOND
  1   1   2  1   
  2   2   3  ar  
  3   2   4  ar  
  4   3   5  ar  
  5   3   6  1   
  6   4   7  ar  
  7   4  22  1   
  8   5   8  ar  
  9   5  23  1   
 10   6  24  1   
 11   6  25  1   
 12   6  26  1   
 13   7   8  ar  
 14   7  27  1   
 15   8   9  1   
 16   9  10  1   
 17  10  11  1   
 18  10  12  1   
 19  10  28  1   
 20  11  13  2   
 21  11  14  am  
 22  12  29  1   
 23  12  30  1   
 24  12  31  1   
 25  14  15  1   
 26  14  16  1   
 27  15  17  1   
 28  15  32  1   
 29  15  33  1   
 30  16  18  1   
 31  16  34  1   
 32  16  35  1   
 33  17  19  1   
 34  17  20  1   
 35  17  36  1   
 36  18  19  1   
 37  18  21  1   
 38  18  37  1   
 39  20  38  1   
 40  20  39  1   
 41  20  40  1   
 42  21  41  1   
 43  21  42  1   
 44  21  43  1   
@<TRIPOS>SUBSTRUCTURE
  1 ****  14 GROUP 4 **** **** 0

# MOE 2024.06 (io_trps.svl 2023.06)
