@<TRIPOS>MOLECULE
NONAME
47 48 1 0 0 
SMALL
USER_CHARGES


@<TRIPOS>ATOM
  1 S       -0.1020     0.4070    -1.3940 S.3   1 <1>  -0.4600 
  2 C        0.9870     0.7530     0.0130 C.3   1 <1>   0.1500 
  3 C       -1.7330     0.9470    -0.8090 C.3   1 <1>   0.0700 
  4 C        1.1900     2.2700     0.1140 C.3   1 <1>  -0.1600 
  5 C        2.3060     0.0130    -0.2320 C.3   1 <1>  -0.1600 
  6 C       -2.7860     0.4220    -1.7830 C.3   1 <1>   0.1400 
  7 C        2.2270     2.6140     1.1940 C.3   1 <1>  -0.1600 
  8 C        3.3390     0.3580     0.8500 C.3   1 <1>  -0.1600 
  9 N       -4.1180     0.9860    -1.4520 N.am  1 <1>  -0.7300 
 10 C        3.5510     1.8750     0.9500 C.3   1 <1>  -0.1600 
 11 C       -4.8970     0.5890    -0.4010 C.2   1 <1>   0.5440 
 12 O       -4.4610    -0.2610     0.3510 O.2   1 <1>  -0.5700 
 13 C       -6.2180     1.1600    -0.1920 C.ar  1 <1>   0.0860 
 14 C       -7.1940     0.4560     0.5130 C.ar  1 <1>  -0.1500 
 15 C       -6.5630     2.4200    -0.6800 C.ar  1 <1>  -0.1500 
 16 C       -8.4650     0.9800     0.7140 C.ar  1 <1>   0.0820 
 17 C       -7.8250     2.9550    -0.4920 C.ar  1 <1>   0.0820 
 18 O       -9.4470     0.3350     1.3910 O.3   1 <1>  -0.3620 
 19 C       -8.7800     2.2290     0.2080 C.ar  1 <1>  -0.1500 
 20 O       -8.0480     4.1850    -1.0170 O.3   1 <1>  -0.3620 
 21 C       -9.2210    -0.9230     1.9900 C.3   1 <1>   0.0400 
 22 C       -9.2940     4.8290    -0.8620 C.3   1 <1>   0.0400 
 23 H        0.5030     0.3710     0.8950 H     1 <1>   0.0800 
 24 H       -1.7240     2.0210    -0.7820 H     1 <1>   0.0800 
 25 H       -1.8800     0.5380     0.1750 H     1 <1>   0.0800 
 26 H        0.2580     2.7490     0.3500 H     1 <1>   0.0800 
 27 H        1.5320     2.6440    -0.8350 H     1 <1>   0.0800 
 28 H        2.6960     0.2940    -1.1950 H     1 <1>   0.0800 
 29 H        2.1260    -1.0470    -0.2390 H     1 <1>   0.0800 
 30 H       -2.8250    -0.6530    -1.7200 H     1 <1>   0.0800 
 31 H       -2.5210     0.6980    -2.7890 H     1 <1>   0.0800 
 32 H        1.8400     2.3380     2.1600 H     1 <1>   0.0800 
 33 H        2.4020     3.6760     1.2000 H     1 <1>   0.0800 
 34 H        4.2740    -0.1230     0.6210 H     1 <1>   0.0800 
 35 H        2.9990    -0.0180     1.8010 H     1 <1>   0.0800 
 36 H       -4.5060     1.6340    -2.1400 H     1 <1>   0.3700 
 37 H        4.2370     2.0920     1.7500 H     1 <1>   0.0800 
 38 H        3.9920     2.2320     0.0340 H     1 <1>   0.0800 
 39 H       -6.9290    -0.5120     0.8980 H     1 <1>   0.1500 
 40 H       -5.8410     3.0110    -1.2120 H     1 <1>   0.1500 
 41 H       -9.7700     2.6050     0.3770 H     1 <1>   0.1500 
 42 H      -10.1270    -1.2260     2.4840 H     1 <1>   0.0800 
 43 H       -8.4260    -0.8300     2.7100 H     1 <1>   0.0800 
 44 H       -8.9670    -1.6340     1.2250 H     1 <1>   0.0800 
 45 H       -9.2390     5.7860    -1.3470 H     1 <1>   0.0800 
 46 H       -9.4900     4.9620     0.1870 H     1 <1>   0.0800 
 47 H      -10.0580     4.2280    -1.3230 H     1 <1>   0.0800 
@<TRIPOS>BOND
  1   1   2  1   
  2   1   3  1   
  3   2   4  1   
  4   2   5  1   
  5   2  23  1   
  6   3   6  1   
  7   3  24  1   
  8   3  25  1   
  9   4   7  1   
 10   4  26  1   
 11   4  27  1   
 12   5   8  1   
 13   5  28  1   
 14   5  29  1   
 15   6   9  1   
 16   6  30  1   
 17   6  31  1   
 18   7  10  1   
 19   7  32  1   
 20   7  33  1   
 21   8  10  1   
 22   8  34  1   
 23   8  35  1   
 24   9  11  am  
 25   9  36  1   
 26  10  37  1   
 27  10  38  1   
 28  11  12  2   
 29  11  13  1   
 30  13  14  ar  
 31  13  15  ar  
 32  14  16  ar  
 33  14  39  1   
 34  15  17  ar  
 35  15  40  1   
 36  16  18  1   
 37  16  19  ar  
 38  17  19  ar  
 39  17  20  1   
 40  18  21  1   
 41  19  41  1   
 42  20  22  1   
 43  21  42  1   
 44  21  43  1   
 45  21  44  1   
 46  22  45  1   
 47  22  46  1   
 48  22  47  1   
@<TRIPOS>SUBSTRUCTURE
  1 ****  11 GROUP 4 **** **** 0

# MOE 2024.06 (io_trps.svl 2023.06)
