@<TRIPOS>MOLECULE
NONAME
35 36 1 0 0 
SMALL
USER_CHARGES


@<TRIPOS>ATOM
  1 I       -0.0130    -0.0130    -0.6990 I     1 <1>  -0.0810 
  2 C        1.8400    -1.0220    -0.4080 C.ar  1 <1>   0.0810 
  3 C        3.0060    -0.4020    -0.8180 C.ar  1 <1>  -0.1500 
  4 C        1.8310    -2.2710     0.1830 C.ar  1 <1>  -0.1500 
  5 C        4.2050    -1.0650    -0.6250 C.ar  1 <1>  -0.1500 
  6 C        3.0410    -2.9180     0.3660 C.ar  1 <1>  -0.1500 
  7 C        4.2370    -2.3290    -0.0350 C.ar  1 <1>   0.1000 
  8 N        5.4330    -3.0290     0.1760 N.pl3 1 <1>  -0.6000 
  9 C        6.6890    -2.7980    -0.3020 C.2   1 <1>  -0.0500 
 10 C        7.8140    -3.5460    -0.0300 C.2   1 <1>   0.0290 
 11 C        9.0680    -3.1630    -0.6090 C.2   1 <1>   0.4950 
 12 C        7.7820    -4.7070     0.8170 C.2   1 <1>   0.4950 
 13 O        9.1970    -2.1990    -1.3250 O.2   1 <1>  -0.5700 
 14 C       10.3410    -3.9490    -0.3400 C.3   1 <1>  -0.0990 
 15 O        6.7800    -5.1270     1.3520 O.2   1 <1>  -0.5700 
 16 C        9.0470    -5.4940     1.1160 C.3   1 <1>  -0.0990 
 17 C       10.0820    -5.4260    -0.0160 C.3   1 <1>   0.0000 
 18 C        9.5710    -6.1730    -1.2630 C.3   1 <1>  -0.2400 
 19 C       11.3890    -6.0900     0.4420 C.3   1 <1>  -0.2400 
 20 H        2.9800     0.5710    -1.2730 H     1 <1>   0.1500 
 21 H        0.9070    -2.7270     0.4920 H     1 <1>   0.1500 
 22 H        5.1180    -0.5920    -0.9330 H     1 <1>   0.1500 
 23 H        3.0590    -3.8910     0.8230 H     1 <1>   0.1500 
 24 H        5.3430    -3.8630     0.7840 H     1 <1>   0.4000 
 25 H        6.7920    -1.9480    -0.9570 H     1 <1>   0.1500 
 26 H       10.9830    -3.8750    -1.2000 H     1 <1>   0.0800 
 27 H       10.8480    -3.4740     0.4800 H     1 <1>   0.0800 
 28 H        9.4670    -5.1040     2.0250 H     1 <1>   0.0800 
 29 H        8.7820    -6.5210     1.3000 H     1 <1>   0.0800 
 30 H       10.3020    -6.1300    -2.0520 H     1 <1>   0.0800 
 31 H        8.6540    -5.7550    -1.6380 H     1 <1>   0.0800 
 32 H        9.3920    -7.2090    -1.0330 H     1 <1>   0.0800 
 33 H       11.7850    -5.6010     1.3150 H     1 <1>   0.0800 
 34 H       12.1320    -6.0400    -0.3360 H     1 <1>   0.0800 
 35 H       11.2250    -7.1260     0.6830 H     1 <1>   0.0800 
@<TRIPOS>BOND
  1   1   2  1   
  2   2   3  ar  
  3   2   4  ar  
  4   3   5  ar  
  5   3  20  1   
  6   4   6  ar  
  7   4  21  1   
  8   5   7  ar  
  9   5  22  1   
 10   6   7  ar  
 11   6  23  1   
 12   7   8  1   
 13   8   9  1   
 14   8  24  1   
 15   9  10  2   
 16   9  25  1   
 17  10  11  1   
 18  10  12  1   
 19  11  13  2   
 20  11  14  1   
 21  12  15  2   
 22  12  16  1   
 23  14  17  1   
 24  14  26  1   
 25  14  27  1   
 26  16  17  1   
 27  16  28  1   
 28  16  29  1   
 29  17  18  1   
 30  17  19  1   
 31  18  30  1   
 32  18  31  1   
 33  18  32  1   
 34  19  33  1   
 35  19  34  1   
 36  19  35  1   
@<TRIPOS>SUBSTRUCTURE
  1 ****   9 GROUP 4 **** **** 0

# MOE 2024.06 (io_trps.svl 2023.06)
