@<TRIPOS>MOLECULE
NONAME
32 32 1 0 0 
SMALL
USER_CHARGES


@<TRIPOS>ATOM
  1 O        0.0670    -0.4610    -0.6890 O.2   1 <1>  -0.5700 
  2 C       -0.0760    -1.6000    -0.2890 C.2   1 <1>   0.5440 
  3 N        1.0260    -2.2820     0.1550 N.am  1 <1>  -0.7300 
  4 C       -1.3900    -2.2180    -0.2630 C.ar  1 <1>   0.0860 
  5 C        2.4170    -1.7600     0.1690 C.3   1 <1>   0.0600 
  6 C       -2.5440    -1.4410    -0.1440 C.ar  1 <1>  -0.1500 
  7 C       -1.5620    -3.6020    -0.3550 C.ar  1 <1>  -0.1500 
  8 C       -3.8050    -2.0070    -0.1040 C.ar  1 <1>  -0.1500 
  9 C       -2.8190    -4.1760    -0.3140 C.ar  1 <1>  -0.1500 
 10 C       -3.9500    -3.3880    -0.1870 C.ar  1 <1>   0.0830 
 11 O       -5.1410    -4.0260    -0.1520 O.3   1 <1>  -0.3630 
 12 C       -6.3570    -3.3220    -0.0400 C.3   1 <1>   0.1200 
 13 C       -7.5000    -4.3370    -0.0380 C.3   1 <1>  -0.1600 
 14 C       -8.8620    -3.6400     0.0830 C.3   1 <1>  -0.1600 
 15 C      -10.0030    -4.6610     0.0840 C.3   1 <1>  -0.2400 
 16 H        0.8900    -3.1910     0.5990 H     1 <1>   0.3700 
 17 H        2.4690    -0.8130    -0.3410 H     1 <1>   0.0800 
 18 H        3.0710    -2.4550    -0.3280 H     1 <1>   0.0800 
 19 H        2.7450    -1.6240     1.1840 H     1 <1>   0.0800 
 20 H       -2.4400    -0.3710    -0.0830 H     1 <1>   0.1500 
 21 H       -0.7040    -4.2380    -0.4700 H     1 <1>   0.1500 
 22 H       -4.6580    -1.3610    -0.0100 H     1 <1>   0.1500 
 23 H       -2.9360    -5.2430    -0.3850 H     1 <1>   0.1500 
 24 H       -6.4410    -2.6550    -0.8810 H     1 <1>   0.0800 
 25 H       -6.3410    -2.7640     0.8800 H     1 <1>   0.0800 
 26 H       -7.3680    -5.0110     0.7910 H     1 <1>   0.0800 
 27 H       -7.4670    -4.9030    -0.9520 H     1 <1>   0.0800 
 28 H       -8.9960    -2.9620    -0.7430 H     1 <1>   0.0800 
 29 H       -8.8980    -3.0690     0.9960 H     1 <1>   0.0800 
 30 H      -10.0000    -5.2300    -0.8290 H     1 <1>   0.0800 
 31 H      -10.9490    -4.1560     0.1690 H     1 <1>   0.0800 
 32 H       -9.9010    -5.3380     0.9140 H     1 <1>   0.0800 
@<TRIPOS>BOND
  1   1   2  2   
  2   2   3  am  
  3   2   4  1   
  4   3   5  1   
  5   3  16  1   
  6   4   6  ar  
  7   4   7  ar  
  8   5  17  1   
  9   5  18  1   
 10   5  19  1   
 11   6   8  ar  
 12   6  20  1   
 13   7   9  ar  
 14   7  21  1   
 15   8  10  ar  
 16   8  22  1   
 17   9  10  ar  
 18   9  23  1   
 19  10  11  1   
 20  11  12  1   
 21  12  13  1   
 22  12  24  1   
 23  12  25  1   
 24  13  14  1   
 25  13  26  1   
 26  13  27  1   
 27  14  15  1   
 28  14  28  1   
 29  14  29  1   
 30  15  30  1   
 31  15  31  1   
 32  15  32  1   
@<TRIPOS>SUBSTRUCTURE
  1 ****  10 GROUP 4 **** **** 0

# MOE 2024.06 (io_trps.svl 2023.06)
