@<TRIPOS>MOLECULE
NONAME
47 47 1 0 0 
SMALL
USER_CHARGES


@<TRIPOS>ATOM
  1 S        0.8410     0.5520    -0.0490 S.3   1 <1>  -0.3320 
  2 C       -0.8290     1.2290    -0.1360 C.ar  1 <1>   0.1020 
  3 C        1.9590     1.8680     0.6530 C.3   1 <1>   0.2110 
  4 C       -1.1270     2.5460     0.1780 C.ar  1 <1>  -0.1500 
  5 C       -1.8260     0.3610    -0.5420 C.ar  1 <1>  -0.1500 
  6 C        3.4210     1.5670     0.3060 C.2   1 <1>   0.5690 
  7 C        1.7150     1.9100     2.1680 C.3   1 <1>  -0.2400 
  8 C       -2.4370     2.9870     0.0860 C.ar  1 <1>  -0.1500 
  9 C       -3.1320     0.8080    -0.6320 C.ar  1 <1>  -0.1500 
 10 O        4.2050     2.4860     0.2670 O.2   1 <1>  -0.5700 
 11 N        3.8030     0.2850     0.0690 N.am  1 <1>  -0.7300 
 12 C       -3.4430     2.1230    -0.3200 C.ar  1 <1>  -0.1430 
 13 C        5.1720    -0.1730    -0.2530 C.3   1 <1>   0.2200 
 14 C       -4.8770     2.6110    -0.4180 C.3   1 <1>  -0.0970 
 15 C        5.1770    -0.7890    -1.6790 C.3   1 <1>  -0.0800 
 16 C        5.6740    -1.1110     0.8790 C.3   1 <1>  -0.0800 
 17 C        6.5640    -1.3120    -2.0910 C.3   1 <1>  -0.2400 
 18 C        4.7140     0.2310    -2.7360 C.3   1 <1>  -0.2400 
 19 C        4.8540    -2.4060     1.0290 C.3   1 <1>  -0.2400 
 20 C        5.7230    -0.3810     2.2320 C.3   1 <1>  -0.2400 
 21 H        1.6910     2.7960     0.1860 H     1 <1>   0.0800 
 22 H       -0.3720     3.2370     0.4920 H     1 <1>   0.1500 
 23 H       -1.5800    -0.6570    -0.7840 H     1 <1>   0.1500 
 24 H        1.9860     0.9680     2.6110 H     1 <1>   0.0800 
 25 H        0.6830     2.1130     2.3840 H     1 <1>   0.0800 
 26 H        2.3200     2.6820     2.6100 H     1 <1>   0.0800 
 27 H       -2.6710     4.0080     0.3310 H     1 <1>   0.1500 
 28 H       -3.9050     0.1290    -0.9470 H     1 <1>   0.1500 
 29 H        3.0870    -0.4440     0.0660 H     1 <1>   0.3700 
 30 H        5.8220     0.6860    -0.2710 H     1 <1>   0.0800 
 31 H       -5.4020     2.0830    -1.1940 H     1 <1>   0.0800 
 32 H       -4.9040     3.6610    -0.6470 H     1 <1>   0.0800 
 33 H       -5.3820     2.4460     0.5170 H     1 <1>   0.0800 
 34 H        4.4920    -1.6190    -1.7010 H     1 <1>   0.0800 
 35 H        6.6880    -1.3880     0.6500 H     1 <1>   0.0800 
 36 H        7.3000    -0.5300    -2.0120 H     1 <1>   0.0800 
 37 H        6.5460    -1.6600    -3.1090 H     1 <1>   0.0800 
 38 H        6.8660    -2.1380    -1.4730 H     1 <1>   0.0800 
 39 H        5.3410     1.1050    -2.7150 H     1 <1>   0.0800 
 40 H        3.7000     0.5380    -2.5530 H     1 <1>   0.0800 
 41 H        4.7540    -0.1990    -3.7210 H     1 <1>   0.0800 
 42 H        3.8290    -2.1860     1.2710 H     1 <1>   0.0800 
 43 H        5.2630    -3.0110     1.8180 H     1 <1>   0.0800 
 44 H        4.8800    -2.9850     0.1240 H     1 <1>   0.0800 
 45 H        4.7340    -0.1340     2.5730 H     1 <1>   0.0800 
 46 H        6.2880     0.5300     2.1420 H     1 <1>   0.0800 
 47 H        6.1950    -1.0000     2.9750 H     1 <1>   0.0800 
@<TRIPOS>BOND
  1   1   2  1   
  2   1   3  1   
  3   2   4  ar  
  4   2   5  ar  
  5   3   6  1   
  6   3   7  1   
  7   3  21  1   
  8   4   8  ar  
  9   4  22  1   
 10   5   9  ar  
 11   5  23  1   
 12   6  10  2   
 13   6  11  am  
 14   7  24  1   
 15   7  25  1   
 16   7  26  1   
 17   8  12  ar  
 18   8  27  1   
 19   9  12  ar  
 20   9  28  1   
 21  11  13  1   
 22  11  29  1   
 23  12  14  1   
 24  13  15  1   
 25  13  16  1   
 26  13  30  1   
 27  14  31  1   
 28  14  32  1   
 29  14  33  1   
 30  15  17  1   
 31  15  18  1   
 32  15  34  1   
 33  16  19  1   
 34  16  20  1   
 35  16  35  1   
 36  17  36  1   
 37  17  37  1   
 38  17  38  1   
 39  18  39  1   
 40  18  40  1   
 41  18  41  1   
 42  19  42  1   
 43  19  43  1   
 44  19  44  1   
 45  20  45  1   
 46  20  46  1   
 47  20  47  1   
@<TRIPOS>SUBSTRUCTURE
  1 ****   1 GROUP 4 **** **** 0

# MOE 2024.06 (io_trps.svl 2023.06)
