@<TRIPOS>MOLECULE
NONAME
31 32 1 0 0 
SMALL
USER_CHARGES


@<TRIPOS>ATOM
  1 F        0.1410    -0.7320     0.1510 F     1 <1>  -0.3400 
  2 C       -0.6680     0.1140     0.7910 C.3   1 <1>   1.0200 
  3 F       -0.4150    -0.0390     2.0900 F     1 <1>  -0.3400 
  4 F       -1.8960    -0.3700     0.6070 F     1 <1>  -0.3400 
  5 C       -0.5230     1.6300     0.2720 C.3   1 <1>   0.5400 
  6 N       -0.7490     1.7870    -1.1880 N.3   1 <1>  -0.9000 
  7 N        0.8170     2.2130     0.4850 N.3   1 <1>  -0.9000 
  8 C       -1.5480     2.5150     1.0080 C.3   1 <1>  -0.0990 
  9 C        0.3040     2.6270    -1.7360 C.3   1 <1>   0.1100 
 10 C        1.4620     2.3910    -0.8000 C.3   1 <1>   0.1100 
 11 C       -1.5010     3.9840     0.6200 C.2   1 <1>   0.4230 
 12 O       -0.6130     4.6320     1.1170 O.2   1 <1>  -0.5700 
 13 C       -2.4950     4.5730    -0.2600 C.ar  1 <1>   0.0860 
 14 C       -3.3010     3.8310    -1.1300 C.ar  1 <1>  -0.1500 
 15 C       -2.6800     5.9580    -0.2640 C.ar  1 <1>  -0.1500 
 16 C       -4.2440     4.4350    -1.9420 C.ar  1 <1>  -0.1500 
 17 C       -3.6200     6.5700    -1.0730 C.ar  1 <1>  -0.1500 
 18 C       -4.4070     5.8080    -1.9150 C.ar  1 <1>  -0.1500 
 19 H       -0.5830     0.8510    -1.5800 H     1 <1>   0.3600 
 20 H        0.6310     3.1650     0.8470 H     1 <1>   0.3600 
 21 H       -1.3570     2.4500     2.0630 H     1 <1>   0.0800 
 22 H       -2.5380     2.1290     0.8580 H     1 <1>   0.0800 
 23 H        0.0100     3.6630    -1.7010 H     1 <1>   0.0800 
 24 H        0.5420     2.3580    -2.7510 H     1 <1>   0.0800 
 25 H        1.9870     1.4920    -1.0750 H     1 <1>   0.0800 
 26 H        2.1480     3.2210    -0.7850 H     1 <1>   0.0800 
 27 H       -3.1930     2.7640    -1.1920 H     1 <1>   0.1500 
 28 H       -2.0740     6.5670     0.3850 H     1 <1>   0.1500 
 29 H       -4.8500     3.8380    -2.6010 H     1 <1>   0.1500 
 30 H       -3.7380     7.6400    -1.0490 H     1 <1>   0.1500 
 31 H       -5.1410     6.2800    -2.5460 H     1 <1>   0.1500 
@<TRIPOS>BOND
  1   1   2  1   
  2   2   3  1   
  3   2   4  1   
  4   2   5  1   
  5   5   6  1   
  6   5   7  1   
  7   5   8  1   
  8   6   9  1   
  9   6  19  1   
 10   7  10  1   
 11   7  20  1   
 12   8  11  1   
 13   8  21  1   
 14   8  22  1   
 15   9  10  1   
 16   9  23  1   
 17   9  24  1   
 18  10  25  1   
 19  10  26  1   
 20  11  12  2   
 21  11  13  1   
 22  13  14  ar  
 23  13  15  ar  
 24  14  16  ar  
 25  14  27  1   
 26  15  17  ar  
 27  15  28  1   
 28  16  18  ar  
 29  16  29  1   
 30  17  18  ar  
 31  17  30  1   
 32  18  31  1   
@<TRIPOS>SUBSTRUCTURE
  1 ****   8 GROUP 4 **** **** 0

# MOE 2024.06 (io_trps.svl 2023.06)
