@<TRIPOS>MOLECULE
NONAME
29 29 1 0 0 
SMALL
USER_CHARGES


@<TRIPOS>ATOM
  1 CL       0.4330    -1.7560     2.2960 Cl    1 <1>  -0.1770 
  2 C        1.5510    -1.8410     0.9500 C.ar  1 <1>   0.1770 
  3 C        1.1910    -2.5290    -0.2130 C.ar  1 <1>   0.1990 
  4 C        2.7720    -1.2080     1.0760 C.ar  1 <1>  -0.1500 
  5 N       -0.0280    -3.1980    -0.3410 N.am  1 <1>  -0.6930 
  6 C        2.0970    -2.5480    -1.2680 C.ar  1 <1>  -0.1500 
  7 C        3.6510    -1.2560     0.0110 C.ar  1 <1>   0.1770 
  8 S       -1.3390    -2.5450    -1.2590 S.o2  1 <1>   1.3330 
  9 C       -0.2720    -4.5020     0.3610 C.3   1 <1>   0.2570 
 10 C        3.3250    -1.9160    -1.1610 C.ar  1 <1>  -0.1500 
 11 CL       5.2020    -0.4650     0.1460 Cl    1 <1>  -0.1770 
 12 O       -2.3360    -3.5840    -1.3440 O.2   1 <1>  -0.6500 
 13 O       -0.7750    -1.9480    -2.4430 O.2   1 <1>  -0.6500 
 14 C       -1.9500    -1.2640    -0.1860 C.3   1 <1>  -0.1350 
 15 C        0.9720    -5.1740     0.9440 C.2   1 <1>   0.6590 
 16 O        1.1600    -5.2380     2.1320 O.2   1 <1>  -0.5700 
 17 O        1.8360    -5.6800     0.0680 O.3   1 <1>  -0.4300 
 18 C        3.0370    -6.2980     0.4800 C.3   1 <1>   0.0400 
 19 H        3.0350    -0.6890     1.9790 H     1 <1>   0.1500 
 20 H        1.8310    -3.0630    -2.1760 H     1 <1>   0.1500 
 21 H       -0.7150    -5.1950    -0.3310 H     1 <1>   0.0800 
 22 H       -0.9740    -4.3390     1.1600 H     1 <1>   0.0800 
 23 H        4.0260    -1.9330    -1.9770 H     1 <1>   0.1500 
 24 H       -2.2500    -1.6790     0.7560 H     1 <1>   0.0800 
 25 H       -2.7970    -0.7830    -0.6360 H     1 <1>   0.0800 
 26 H       -1.1890    -0.5280    -0.0160 H     1 <1>   0.0800 
 27 H        3.5690    -6.6270    -0.3940 H     1 <1>   0.0800 
 28 H        2.7990    -7.1380     1.1090 H     1 <1>   0.0800 
 29 H        3.6270    -5.5810     1.0260 H     1 <1>   0.0800 
@<TRIPOS>BOND
  1   1   2  1   
  2   2   3  ar  
  3   2   4  ar  
  4   3   5  1   
  5   3   6  ar  
  6   4   7  ar  
  7   4  19  1   
  8   5   8  am  
  9   5   9  1   
 10   6  10  ar  
 11   6  20  1   
 12   7  10  ar  
 13   7  11  1   
 14   8  12  2   
 15   8  13  2   
 16   8  14  1   
 17   9  15  1   
 18   9  21  1   
 19   9  22  1   
 20  10  23  1   
 21  14  24  1   
 22  14  25  1   
 23  14  26  1   
 24  15  16  2   
 25  15  17  1   
 26  17  18  1   
 27  18  27  1   
 28  18  28  1   
 29  18  29  1   
@<TRIPOS>SUBSTRUCTURE
  1 ****   3 GROUP 4 **** **** 0

# MOE 2024.06 (io_trps.svl 2023.06)
