@<TRIPOS>MOLECULE
NONAME
53 55 1 0 0 
SMALL
USER_CHARGES


@<TRIPOS>ATOM
  1 S       -0.4010     1.2730     1.4520 S.o2  1 <1>   1.4470 
  2 O       -1.0940     2.0510     2.4560 O.2   1 <1>  -0.6500 
  3 O       -0.1110    -0.1220     1.7020 O.2   1 <1>  -0.6500 
  4 N       -1.3500     1.3310     0.0500 N.am  1 <1>  -0.8490 
  5 C        1.1280     2.1100     0.9530 C.ar  1 <1>  -0.0090 
  6 C       -2.5050     0.4180     0.1580 C.3   1 <1>   0.1960 
  7 C       -1.8300     2.6970    -0.2460 C.3   1 <1>   0.1960 
  8 C        1.8030     1.7220    -0.1970 C.ar  1 <1>  -0.1500 
  9 C        1.6620     3.1520     1.7010 C.ar  1 <1>  -0.1500 
 10 C       -3.3860     0.4080    -1.1080 C.3   1 <1>   0.2090 
 11 C       -2.6600     2.7650    -1.5440 C.3   1 <1>   0.2090 
 12 C        2.9830     2.3320    -0.6000 C.ar  1 <1>   0.1170 
 13 C        2.8260     3.7930     1.3100 C.ar  1 <1>  -0.1500 
 14 N       -3.7810     1.7810    -1.5460 N.pl3 1 <1>  -0.8380 
 15 N        3.6660     1.9270    -1.7600 N.am  1 <1>  -0.5470 
 16 C        3.4890     3.3930     0.1560 C.ar  1 <1>   0.0830 
 17 C       -5.0510     2.2410    -1.2160 C.ar  1 <1>   0.1000 
 18 C        3.9350     0.7140    -2.3090 C.2   1 <1>   0.5690 
 19 O        4.6300     3.9930    -0.2900 O.3   1 <1>  -0.3630 
 20 C       -5.9920     2.4230    -2.2200 C.ar  1 <1>  -0.1500 
 21 C       -5.4110     2.5300     0.0960 C.ar  1 <1>  -0.1500 
 22 O        4.5710     0.6460    -3.3280 O.2   1 <1>  -0.5700 
 23 C        3.4820    -0.5720    -1.6580 C.3   1 <1>  -0.1790 
 24 C        5.3020     4.9660     0.4750 C.3   1 <1>   0.1200 
 25 C       -7.2630     2.8830    -1.9270 C.ar  1 <1>  -0.1500 
 26 C       -6.6810     2.9890     0.3950 C.ar  1 <1>  -0.1500 
 27 C        6.5720     5.3580    -0.2740 C.3   1 <1>  -0.2400 
 28 C       -7.6100     3.1670    -0.6160 C.ar  1 <1>  -0.1500 
 29 H       -3.1110     0.6960     1.0030 H     1 <1>   0.0800 
 30 H       -2.1540    -0.5860     0.3270 H     1 <1>   0.0800 
 31 H       -0.9890     3.3610    -0.3480 H     1 <1>   0.0800 
 32 H       -2.4380     3.0600     0.5660 H     1 <1>   0.0800 
 33 H        1.3840     0.9310    -0.7900 H     1 <1>   0.1500 
 34 H        1.1600     3.4680     2.6010 H     1 <1>   0.1500 
 35 H       -4.2710    -0.1750    -0.9220 H     1 <1>   0.0800 
 36 H       -2.8440    -0.0670    -1.9070 H     1 <1>   0.0800 
 37 H       -2.0190     2.5640    -2.3840 H     1 <1>   0.0800 
 38 H       -3.0570     3.7580    -1.6620 H     1 <1>   0.0800 
 39 H        3.1930     4.5990     1.9170 H     1 <1>   0.1500 
 40 H        4.2230     2.6700    -2.1880 H     1 <1>   0.3700 
 41 H       -5.7130     2.1990    -3.2320 H     1 <1>   0.1500 
 42 H       -4.6950     2.3960     0.8830 H     1 <1>   0.1500 
 43 H        2.4720    -0.7900    -1.9480 H     1 <1>   0.0800 
 44 H        3.5480    -0.4970    -0.5890 H     1 <1>   0.0800 
 45 H        4.1140    -1.3780    -1.9830 H     1 <1>   0.0800 
 46 H        5.5440     4.5410     1.4340 H     1 <1>   0.0800 
 47 H        4.6540     5.8170     0.5940 H     1 <1>   0.0800 
 48 H       -7.9810     3.0190    -2.7160 H     1 <1>   0.1500 
 49 H       -6.9480     3.2100     1.4140 H     1 <1>   0.1500 
 50 H        7.2060     4.4990    -0.4040 H     1 <1>   0.0800 
 51 H        7.1120     6.1000     0.2860 H     1 <1>   0.0800 
 52 H        6.3240     5.7690    -1.2360 H     1 <1>   0.0800 
 53 H       -8.5980     3.5240    -0.3860 H     1 <1>   0.1500 
@<TRIPOS>BOND
  1   1   2  2   
  2   1   3  2   
  3   1   4  am  
  4   1   5  1   
  5   4   6  1   
  6   4   7  1   
  7   5   8  ar  
  8   5   9  ar  
  9   6  10  1   
 10   6  29  1   
 11   6  30  1   
 12   7  11  1   
 13   7  31  1   
 14   7  32  1   
 15   8  12  ar  
 16   8  33  1   
 17   9  13  ar  
 18   9  34  1   
 19  10  14  1   
 20  10  35  1   
 21  10  36  1   
 22  11  14  1   
 23  11  37  1   
 24  11  38  1   
 25  12  15  1   
 26  12  16  ar  
 27  13  16  ar  
 28  13  39  1   
 29  14  17  1   
 30  15  18  am  
 31  15  40  1   
 32  16  19  1   
 33  17  20  ar  
 34  17  21  ar  
 35  18  22  2   
 36  18  23  1   
 37  19  24  1   
 38  20  25  ar  
 39  20  41  1   
 40  21  26  ar  
 41  21  42  1   
 42  23  43  1   
 43  23  44  1   
 44  23  45  1   
 45  24  27  1   
 46  24  46  1   
 47  24  47  1   
 48  25  28  ar  
 49  25  48  1   
 50  26  28  ar  
 51  26  49  1   
 52  27  50  1   
 53  27  51  1   
 54  27  52  1   
 55  28  53  1   
@<TRIPOS>SUBSTRUCTURE
  1 ****   4 GROUP 4 **** **** 0

# MOE 2024.06 (io_trps.svl 2023.06)
