@<TRIPOS>MOLECULE
NONAME
47 49 1 0 0 
SMALL
USER_CHARGES


@<TRIPOS>ATOM
  1 O       -0.1320     0.7050    -1.4980 O.2   1 <1>  -0.5700 
  2 C        0.3130     1.4910    -0.6830 C.2   1 <1>   0.5440 
  3 N       -0.5050     1.9240     0.3400 N.am  1 <1>  -0.6600 
  4 C        1.6790     1.9560    -0.8170 C.ar  1 <1>   0.0860 
  5 C       -1.8320     1.2930     0.6170 C.3   1 <1>   0.1400 
  6 C       -0.3050     3.2080     1.0770 C.3   1 <1>   0.1400 
  7 C        2.1550     2.4550    -2.0290 C.ar  1 <1>  -0.1500 
  8 C        2.5750     1.9200     0.2520 C.ar  1 <1>  -0.1500 
  9 C       -2.9620     2.3240     0.4660 C.3   1 <1>   0.1200 
 10 C       -1.5280     4.1260     0.9080 C.3   1 <1>   0.1200 
 11 C        3.4510     2.9150    -2.1620 C.ar  1 <1>  -0.1500 
 12 C        3.8720     2.3770     0.1210 C.ar  1 <1>  -0.1500 
 13 O       -2.7060     3.4540     1.2530 O.3   1 <1>  -0.5600 
 14 C        4.3330     2.8890    -1.0860 C.ar  1 <1>   0.1170 
 15 N        5.6550     3.3350    -1.1620 N.am  1 <1>  -0.5470 
 16 C        6.3100     4.1330    -2.0620 C.2   1 <1>   0.5690 
 17 O        5.7790     4.6460    -3.0160 O.2   1 <1>  -0.5700 
 18 C        7.7910     4.3980    -1.8390 C.3   1 <1>   0.0440 
 19 C        8.2920     3.8250    -0.5160 C.ar  1 <1>  -0.1430 
 20 C        8.7700     2.5250    -0.4540 C.ar  1 <1>  -0.1500 
 21 C        8.2420     4.5890     0.6390 C.ar  1 <1>  -0.1500 
 22 C        9.1900     1.9840     0.7500 C.ar  1 <1>  -0.1430 
 23 C        8.6600     4.0540     1.8450 C.ar  1 <1>  -0.1500 
 24 C        9.1310     2.7540     1.9000 C.ar  1 <1>  -0.1500 
 25 C        9.7120     0.5600     0.8150 C.3   1 <1>  -0.0970 
 26 H       -1.8370     0.9080     1.6210 H     1 <1>   0.0800 
 27 H       -2.0110     0.4680    -0.0510 H     1 <1>   0.0800 
 28 H        0.5670     3.7240     0.7160 H     1 <1>   0.0800 
 29 H       -0.1620     2.9980     2.1220 H     1 <1>   0.0800 
 30 H        1.4900     2.4760    -2.8760 H     1 <1>   0.1500 
 31 H        2.2400     1.5210     1.1940 H     1 <1>   0.1500 
 32 H       -3.8960     1.9010     0.7900 H     1 <1>   0.0800 
 33 H       -3.0570     2.6290    -0.5620 H     1 <1>   0.0800 
 34 H       -1.6100     4.4630    -0.1110 H     1 <1>   0.0800 
 35 H       -1.4400     4.9840     1.5500 H     1 <1>   0.0800 
 36 H        3.7770     3.2900    -3.1160 H     1 <1>   0.1500 
 37 H        4.5360     2.3370     0.9660 H     1 <1>   0.1500 
 38 H        6.2560     3.0410    -0.3870 H     1 <1>   0.3700 
 39 H        7.9550     5.4590    -1.8630 H     1 <1>   0.0800 
 40 H        8.3400     3.9670    -2.6560 H     1 <1>   0.0800 
 41 H        8.8140     1.9250    -1.3470 H     1 <1>   0.1500 
 42 H        7.8770     5.6020     0.6100 H     1 <1>   0.1500 
 43 H        8.6210     4.6490     2.7410 H     1 <1>   0.1500 
 44 H        9.4540     2.3460     2.8420 H     1 <1>   0.1500 
 45 H        8.9210    -0.1050     1.1120 H     1 <1>   0.0800 
 46 H       10.5130     0.4880     1.5290 H     1 <1>   0.0800 
 47 H       10.0860     0.2480    -0.1430 H     1 <1>   0.0800 
@<TRIPOS>BOND
  1   1   2  2   
  2   2   3  am  
  3   2   4  1   
  4   3   5  1   
  5   3   6  1   
  6   4   7  ar  
  7   4   8  ar  
  8   5   9  1   
  9   5  26  1   
 10   5  27  1   
 11   6  10  1   
 12   6  28  1   
 13   6  29  1   
 14   7  11  ar  
 15   7  30  1   
 16   8  12  ar  
 17   8  31  1   
 18   9  13  1   
 19   9  32  1   
 20   9  33  1   
 21  10  13  1   
 22  10  34  1   
 23  10  35  1   
 24  11  14  ar  
 25  11  36  1   
 26  12  14  ar  
 27  12  37  1   
 28  14  15  1   
 29  15  16  am  
 30  15  38  1   
 31  16  17  2   
 32  16  18  1   
 33  18  19  1   
 34  18  39  1   
 35  18  40  1   
 36  19  20  ar  
 37  19  21  ar  
 38  20  22  ar  
 39  20  41  1   
 40  21  23  ar  
 41  21  42  1   
 42  22  24  ar  
 43  22  25  1   
 44  23  24  ar  
 45  23  43  1   
 46  24  44  1   
 47  25  45  1   
 48  25  46  1   
 49  25  47  1   
@<TRIPOS>SUBSTRUCTURE
  1 ****  12 GROUP 4 **** **** 0

# MOE 2024.06 (io_trps.svl 2023.06)
