@<TRIPOS>MOLECULE
NONAME
31 33 1 0 0 
SMALL
USER_CHARGES


@<TRIPOS>ATOM
  1 CL       6.4470     3.8380    -0.5330 Cl    1 <1>  -0.2090 
  2 C        7.2750     2.3220    -0.4450 C.2   1 <1>   0.7090 
  3 N        6.5210     1.2890     0.0160 N.pl3 1 <1>  -0.5340 
  4 N        8.5040     2.2560    -0.8080 N.2   1 <1>  -0.6610 
  5 C        7.0900     0.0420     0.1180 C.2   1 <1>  -0.0680 
  6 C        9.1200     1.0260    -0.7160 C.2   1 <1>   0.8670 
  7 N        6.5990    -1.1420     0.5300 N.pl3 1 <1>   0.0480 
  8 C        8.3940    -0.1260    -0.2340 C.2   1 <1>   0.1410 
  9 O       10.2910     0.9680    -1.0630 O.2   1 <1>  -0.5700 
 10 C        7.6580    -1.9900     0.4170 C.2   1 <1>   0.0360 
 11 C        5.2340    -1.5050     0.9860 C.3   1 <1>   0.4560 
 12 N        8.7340    -1.4390    -0.0340 N.2   1 <1>  -0.5650 
 13 O        4.3670    -0.3980     0.8760 O.3   1 <1>  -0.5600 
 14 C        4.6250    -2.6310     0.1360 C.3   1 <1>   0.2000 
 15 C        3.0780    -0.8680     0.6230 C.3   1 <1>   0.2000 
 16 O        4.4450    -3.7680     0.9180 O.3   1 <1>  -0.6800 
 17 C        3.2770    -2.0640    -0.3070 C.3   1 <1>   0.2000 
 18 C        2.2150     0.2530     0.0270 C.3   1 <1>   0.1200 
 19 O        2.2310    -2.9800    -0.1650 O.3   1 <1>  -0.6800 
 20 O        1.0100    -0.2790    -0.4220 O.3   1 <1>  -0.6800 
 21 H        5.5510     1.4500     0.3070 H     1 <1>   0.4000 
 22 H        7.5790    -3.0320     0.6850 H     1 <1>   0.1500 
 23 H        5.2670    -1.7970     2.0210 H     1 <1>   0.0800 
 24 H        5.2380    -2.8880    -0.7100 H     1 <1>   0.0800 
 25 H        2.6680    -1.1930     1.5650 H     1 <1>   0.0800 
 26 H        3.5390    -4.1070     0.7120 H     1 <1>   0.4000 
 27 H        3.3160    -1.7370    -1.3320 H     1 <1>   0.0800 
 28 H        2.7100     0.7070    -0.8140 H     1 <1>   0.0800 
 29 H        1.9990     0.9950     0.7750 H     1 <1>   0.0800 
 30 H        1.3820    -2.5110    -0.3400 H     1 <1>   0.4000 
 31 H        0.4100     0.4310    -0.7350 H     1 <1>   0.4000 
@<TRIPOS>BOND
  1   1   2  1   
  2   2   3  1   
  3   2   4  2   
  4   3   5  1   
  5   3  21  1   
  6   4   6  1   
  7   5   7  1   
  8   5   8  2   
  9   6   8  1   
 10   6   9  2   
 11   7  10  1   
 12   7  11  1   
 13   8  12  1   
 14  10  12  2   
 15  10  22  1   
 16  11  13  1   
 17  11  14  1   
 18  11  23  1   
 19  13  15  1   
 20  14  16  1   
 21  14  17  1   
 22  14  24  1   
 23  15  17  1   
 24  15  18  1   
 25  15  25  1   
 26  16  26  1   
 27  17  19  1   
 28  17  27  1   
 29  18  20  1   
 30  18  28  1   
 31  18  29  1   
 32  19  30  1   
 33  20  31  1   
@<TRIPOS>SUBSTRUCTURE
  1 ****   7 GROUP 4 **** **** 0

# MOE 2024.06 (io_trps.svl 2023.06)
