@<TRIPOS>MOLECULE
NONAME
48 50 1 0 0 
SMALL
USER_CHARGES


@<TRIPOS>ATOM
  1 O       -1.4440    -6.4740    -1.1340 O.2   1 <1>  -0.5700 
  2 C       -0.8850    -5.5160    -0.6420 C.2   1 <1>   0.6340 
  3 O       -1.6300    -4.4540    -0.3090 O.3   1 <1>  -0.4300 
  4 C        0.5440    -5.4590    -0.3980 C.ar  1 <1>   0.0860 
  5 C       -3.0250    -4.4510    -0.5250 C.3   1 <1>   0.1200 
  6 C        1.3730    -6.5310    -0.7400 C.ar  1 <1>  -0.1500 
  7 C        1.1580    -4.3450     0.1840 C.ar  1 <1>  -0.1500 
  8 C       -3.6090    -3.0990    -0.0820 C.3   1 <1>  -0.0800 
  9 C        2.7360    -6.4940    -0.5160 C.ar  1 <1>  -0.1500 
 10 C        2.5220    -4.3000     0.4120 C.ar  1 <1>  -0.1500 
 11 C       -5.1460    -3.1090    -0.2610 C.3   1 <1>   0.4230 
 12 C       -2.9710    -1.9360    -0.8690 C.3   1 <1>  -0.1600 
 13 C        3.3240    -5.3820     0.0620 C.ar  1 <1>   0.0830 
 14 N       -5.7260    -1.7200    -0.4220 N.4   1 <1>  -0.9590 
 15 C       -5.8650    -3.8620     0.8700 C.3   1 <1>  -0.1600 
 16 C       -3.5370    -0.5780    -0.4160 C.3   1 <1>  -0.1600 
 17 O        4.6620    -5.4210     0.2490 O.3   1 <1>  -0.3620 
 18 C       -4.9130    -0.6710     0.2500 C.3   1 <1>   0.3430 
 19 C       -7.1640    -1.5810    -0.0200 C.3   1 <1>   0.3430 
 20 C       -7.3650    -4.0350     0.5710 C.3   1 <1>  -0.1600 
 21 C        5.3650    -4.3450     0.8280 C.3   1 <1>   0.0400 
 22 C       -7.9260    -2.8810    -0.2760 C.3   1 <1>  -0.1600 
 23 H       -3.4420    -5.2670     0.0400 H     1 <1>   0.0800 
 24 H       -3.2000    -4.6230    -1.5740 H     1 <1>   0.0800 
 25 H        0.9380    -7.4070    -1.1910 H     1 <1>   0.1500 
 26 H        0.5590    -3.4980     0.4650 H     1 <1>   0.1500 
 27 H       -3.3820    -2.9780     0.9630 H     1 <1>   0.0800 
 28 H        3.3560    -7.3300    -0.7870 H     1 <1>   0.1500 
 29 H        2.9440    -3.4220     0.8620 H     1 <1>   0.1500 
 30 H       -5.3540    -3.6460    -1.1720 H     1 <1>   0.0800 
 31 H       -3.1660    -2.0720    -1.9200 H     1 <1>   0.0800 
 32 H       -1.9010    -1.9320    -0.7410 H     1 <1>   0.0800 
 33 H       -5.6720    -1.5190    -1.4280 H     1 <1>   0.4500 
 34 H       -5.7340    -3.3220     1.7920 H     1 <1>   0.0800 
 35 H       -5.4320    -4.8370     1.0100 H     1 <1>   0.0800 
 36 H       -3.5870     0.0880    -1.2590 H     1 <1>   0.0800 
 37 H       -2.8600    -0.1310     0.2920 H     1 <1>   0.0800 
 38 H       -4.7920    -0.9300     1.2900 H     1 <1>   0.0800 
 39 H       -5.4050     0.2870     0.1940 H     1 <1>   0.0800 
 40 H       -7.6230    -0.7710    -0.5640 H     1 <1>   0.0800 
 41 H       -7.2250    -1.3560     1.0330 H     1 <1>   0.0800 
 42 H       -7.8990    -4.0980     1.5050 H     1 <1>   0.0800 
 43 H       -7.5310    -4.9620     0.0470 H     1 <1>   0.0800 
 44 H        6.4060    -4.6120     0.8710 H     1 <1>   0.0800 
 45 H        4.9900    -4.1770     1.8220 H     1 <1>   0.0800 
 46 H        5.2360    -3.4720     0.2140 H     1 <1>   0.0800 
 47 H       -7.8690    -3.1240    -1.3240 H     1 <1>   0.0800 
 48 H       -8.9670    -2.7400    -0.0390 H     1 <1>   0.0800 
@<TRIPOS>BOND
  1   1   2  2   
  2   2   3  1   
  3   2   4  1   
  4   3   5  1   
  5   4   6  ar  
  6   4   7  ar  
  7   5   8  1   
  8   5  23  1   
  9   5  24  1   
 10   6   9  ar  
 11   6  25  1   
 12   7  10  ar  
 13   7  26  1   
 14   8  11  1   
 15   8  12  1   
 16   8  27  1   
 17   9  13  ar  
 18   9  28  1   
 19  10  13  ar  
 20  10  29  1   
 21  11  14  1   
 22  11  15  1   
 23  11  30  1   
 24  12  16  1   
 25  12  31  1   
 26  12  32  1   
 27  13  17  1   
 28  14  18  1   
 29  14  19  1   
 30  14  33  1   
 31  15  20  1   
 32  15  34  1   
 33  15  35  1   
 34  16  18  1   
 35  16  36  1   
 36  16  37  1   
 37  17  21  1   
 38  18  38  1   
 39  18  39  1   
 40  19  22  1   
 41  19  40  1   
 42  19  41  1   
 43  20  22  1   
 44  20  42  1   
 45  20  43  1   
 46  21  44  1   
 47  21  45  1   
 48  21  46  1   
 49  22  47  1   
 50  22  48  1   
@<TRIPOS>SUBSTRUCTURE
  1 ****   3 GROUP 4 **** **** 0

# MOE 2024.06 (io_trps.svl 2023.06)
