@<TRIPOS>MOLECULE
NONAME
31 31 1 0 0 
SMALL
USER_CHARGES


@<TRIPOS>ATOM
  1 F       -0.8520    -0.2270     1.6870 F     1 <1>  -0.1900 
  2 C       -1.8150    -0.8330     1.0460 C.ar  1 <1>   0.1900 
  3 C       -3.0840    -0.2910     1.0910 C.ar  1 <1>  -0.1500 
  4 C       -1.5240    -1.9900     0.3500 C.ar  1 <1>  -0.1500 
  5 C       -4.1200    -0.9230     0.4130 C.ar  1 <1>   0.1170 
  6 C       -2.5530    -2.6240    -0.3240 C.ar  1 <1>  -0.1500 
  7 N       -5.4050    -0.3630     0.4800 N.am  1 <1>  -0.5470 
  8 C       -3.8340    -2.0950    -0.2890 C.ar  1 <1>  -0.1500 
  9 C       -6.4920    -0.5030    -0.3420 C.2   1 <1>   0.5690 
 10 O       -6.4790    -1.1660    -1.3510 O.2   1 <1>  -0.5700 
 11 C       -7.7770     0.2350     0.0470 C.3   1 <1>  -0.0190 
 12 C       -8.8940    -0.8000     0.3210 C.3   1 <1>  -0.1600 
 13 C       -8.1480     1.2720    -1.0410 C.3   1 <1>  -0.1600 
 14 C      -10.2040    -0.2090     0.8570 C.3   1 <1>  -0.2400 
 15 C       -8.7470     2.5710    -0.4790 C.3   1 <1>  -0.2400 
 16 H       -3.2530     0.6120     1.6450 H     1 <1>   0.1500 
 17 H       -0.5220    -2.3790     0.3380 H     1 <1>   0.1500 
 18 H       -2.3620    -3.5280    -0.8770 H     1 <1>   0.1500 
 19 H       -5.5400     0.2880     1.2500 H     1 <1>   0.3700 
 20 H       -4.6190    -2.6070    -0.8150 H     1 <1>   0.1500 
 21 H       -7.5820     0.7610     0.9640 H     1 <1>   0.0800 
 22 H       -8.5280    -1.5110     1.0420 H     1 <1>   0.0800 
 23 H       -9.1020    -1.3470    -0.5830 H     1 <1>   0.0800 
 24 H       -8.8250     0.8290    -1.7510 H     1 <1>   0.0800 
 25 H       -7.2590     1.5400    -1.5870 H     1 <1>   0.0800 
 26 H      -10.0190     0.4170     1.7120 H     1 <1>   0.0800 
 27 H      -10.8660    -1.0030     1.1520 H     1 <1>   0.0800 
 28 H      -10.7000     0.3660     0.0960 H     1 <1>   0.0800 
 29 H       -9.6570     2.3880     0.0600 H     1 <1>   0.0800 
 30 H       -8.9680     3.2460    -1.2870 H     1 <1>   0.0800 
 31 H       -8.0480     3.0530     0.1810 H     1 <1>   0.0800 
@<TRIPOS>BOND
  1   1   2  1   
  2   2   3  ar  
  3   2   4  ar  
  4   3   5  ar  
  5   3  16  1   
  6   4   6  ar  
  7   4  17  1   
  8   5   7  1   
  9   5   8  ar  
 10   6   8  ar  
 11   6  18  1   
 12   7   9  am  
 13   7  19  1   
 14   8  20  1   
 15   9  10  2   
 16   9  11  1   
 17  11  12  1   
 18  11  13  1   
 19  11  21  1   
 20  12  14  1   
 21  12  22  1   
 22  12  23  1   
 23  13  15  1   
 24  13  24  1   
 25  13  25  1   
 26  14  26  1   
 27  14  27  1   
 28  14  28  1   
 29  15  29  1   
 30  15  30  1   
 31  15  31  1   
@<TRIPOS>SUBSTRUCTURE
  1 ****   7 GROUP 4 **** **** 0

# MOE 2024.06 (io_trps.svl 2023.06)
