@<TRIPOS>MOLECULE
NONAME
38 39 1 0 0 
SMALL
USER_CHARGES


@<TRIPOS>ATOM
  1 O        6.9230    -2.9190     0.0060 O.3   1 <1>  -0.3630 
  2 C        6.8670    -1.5610    -0.0190 C.ar  1 <1>   0.0830 
  3 C        5.7870    -3.7250    -0.1990 C.3   1 <1>   0.1200 
  4 C        8.0480    -0.8390     0.1780 C.ar  1 <1>  -0.1440 
  5 C        5.6680    -0.8820    -0.2370 C.ar  1 <1>  -0.1500 
  6 C        6.2290    -5.1820    -0.1200 C.3   1 <1>   0.0960 
  7 C        7.9940     0.5490     0.1510 C.ar  1 <1>  -0.1500 
  8 C        9.4160    -1.4940     0.4260 C.3   1 <1>   0.0640 
  9 C        5.6380     0.5000    -0.2600 C.ar  1 <1>  -0.1500 
 10 N        5.0720    -6.0620    -0.3490 N.pl3 1 <1>   0.0480 
 11 C        6.8030     1.2160    -0.0660 C.ar  1 <1>  -0.1500 
 12 C        9.8760    -2.3160    -0.7940 C.3   1 <1>  -0.1600 
 13 C        9.4230    -2.2980     1.7340 C.3   1 <1>  -0.2400 
 14 C        4.6480    -6.5870    -1.5200 C.2   1 <1>   0.0360 
 15 C        4.1830    -6.5000     0.5620 C.2   1 <1>  -0.3020 
 16 C       11.3410    -2.7670    -0.7100 C.3   1 <1>  -0.2400 
 17 N        3.5780    -7.3070    -1.4190 N.2   1 <1>  -0.5650 
 18 C        3.2840    -7.2550    -0.1060 C.2   1 <1>   0.0770 
 19 H        5.3860    -3.5010    -1.1730 H     1 <1>   0.0800 
 20 H        5.0700    -3.5020     0.5720 H     1 <1>   0.0800 
 21 H        4.7450    -1.4040    -0.3910 H     1 <1>   0.1500 
 22 H        6.6370    -5.3900     0.8520 H     1 <1>   0.0800 
 23 H        6.9730    -5.3810    -0.8700 H     1 <1>   0.0800 
 24 H        8.8870     1.1300     0.3000 H     1 <1>   0.1500 
 25 H       10.1360    -0.7030     0.5530 H     1 <1>   0.0800 
 26 H        4.7100     1.0180    -0.4290 H     1 <1>   0.1500 
 27 H        6.7840     2.2920    -0.0830 H     1 <1>   0.1500 
 28 H        9.7540    -1.7110    -1.6750 H     1 <1>   0.0800 
 29 H        9.2520    -3.1830    -0.9110 H     1 <1>   0.0800 
 30 H        8.8440    -3.1980     1.6370 H     1 <1>   0.0800 
 31 H        9.0030    -1.7050     2.5270 H     1 <1>   0.0800 
 32 H       10.4260    -2.5640     2.0090 H     1 <1>   0.0800 
 33 H        5.1660    -6.4090    -2.4470 H     1 <1>   0.1500 
 34 H        4.2330    -6.2600     1.6080 H     1 <1>   0.1500 
 35 H       11.9900    -1.9200    -0.5740 H     1 <1>   0.0800 
 36 H       11.6210    -3.2670    -1.6210 H     1 <1>   0.0800 
 37 H       11.4860    -3.4530     0.1060 H     1 <1>   0.0800 
 38 H        2.4270    -7.7730     0.2930 H     1 <1>   0.1500 
@<TRIPOS>BOND
  1   1   2  1   
  2   1   3  1   
  3   2   4  ar  
  4   2   5  ar  
  5   3   6  1   
  6   3  19  1   
  7   3  20  1   
  8   4   7  ar  
  9   4   8  1   
 10   5   9  ar  
 11   5  21  1   
 12   6  10  1   
 13   6  22  1   
 14   6  23  1   
 15   7  11  ar  
 16   7  24  1   
 17   8  12  1   
 18   8  13  1   
 19   8  25  1   
 20   9  11  ar  
 21   9  26  1   
 22  10  14  1   
 23  10  15  1   
 24  11  27  1   
 25  12  16  1   
 26  12  28  1   
 27  12  29  1   
 28  13  30  1   
 29  13  31  1   
 30  13  32  1   
 31  14  17  2   
 32  14  33  1   
 33  15  18  2   
 34  15  34  1   
 35  16  35  1   
 36  16  36  1   
 37  16  37  1   
 38  17  18  1   
 39  18  38  1   
@<TRIPOS>SUBSTRUCTURE
  1 ****   1 GROUP 4 **** **** 0

# MOE 2024.06 (io_trps.svl 2023.06)
