@<TRIPOS>MOLECULE
NONAME
52 55 1 0 0 
SMALL
USER_CHARGES


@<TRIPOS>ATOM
  1 O        1.7760    -3.4460     1.8930 O.co2 1 <1>  -0.9000 
  2 C        2.8040    -3.2590     1.2320 C.2   1 <1>   0.9060 
  3 O        3.5320    -4.2090     0.9410 O.co2 1 <1>  -0.9000 
  4 C        3.0680    -1.8620     0.7020 C.3   1 <1>  -0.1860 
  5 C        3.1650    -1.6950    -1.0080 C.3   1 <1>  -0.0190 
  6 C        4.4310    -1.1740     1.3300 C.3   1 <1>   0.0580 
  7 C        2.9940    -2.9980    -1.8210 C.2   1 <1>   0.5690 
  8 C        4.5790    -0.8580    -1.3000 C.3   1 <1>   0.0580 
  9 C        5.6670    -0.2400     0.8760 C.2   1 <1>  -0.2880 
 10 C        4.4090    -1.0940    -0.0020 C.3   1 <1>  -0.1600 
 11 O        3.9200    -3.3860    -2.4950 O.2   1 <1>  -0.5700 
 12 N        1.8090    -3.7040    -1.8400 N.am  1 <1>  -0.6600 
 13 C        5.7460    -0.0730    -0.5010 C.2   1 <1>  -0.2880 
 14 C        1.8280    -5.1200    -2.2880 C.3   1 <1>   0.1400 
 15 C        0.5580    -3.3590    -1.0990 C.3   1 <1>   0.1400 
 16 C        1.8950    -5.9830    -1.0310 C.3   1 <1>   0.3430 
 17 C        0.0250    -4.4640    -0.1430 C.3   1 <1>   0.3430 
 18 N        0.6750    -5.8340    -0.1630 N.4   1 <1>  -0.9590 
 19 C        1.0920    -6.1750     1.2290 C.3   1 <1>   0.4860 
 20 C        1.2690    -7.6840     1.3090 C.ar  1 <1>  -0.1440 
 21 C        2.5270    -8.2590     1.4760 C.ar  1 <1>  -0.1440 
 22 C        0.1490    -8.5010     1.2080 C.ar  1 <1>  -0.1500 
 23 C        2.6440    -9.6400     1.5110 C.ar  1 <1>  -0.1500 
 24 C        3.7860    -7.4120     1.6350 C.3   1 <1>  -0.0970 
 25 C        0.2770    -9.8770     1.2470 C.ar  1 <1>  -0.1500 
 26 C        1.5270   -10.4470     1.3940 C.ar  1 <1>  -0.1500 
 27 H        2.2250    -1.2800     1.0430 H     1 <1>   0.0800 
 28 H        2.3520    -1.0610    -1.3290 H     1 <1>   0.0800 
 29 H        4.9310    -2.0010     1.8180 H     1 <1>   0.0800 
 30 H        5.1760    -1.5140    -1.9130 H     1 <1>   0.0800 
 31 H        6.3100     0.1600     1.6410 H     1 <1>   0.1500 
 32 H        5.0560    -2.0620    -0.0840 H     1 <1>   0.0800 
 33 H        3.7870    -0.0500     0.0750 H     1 <1>   0.0800 
 34 H        6.4670     0.4890    -1.0700 H     1 <1>   0.1500 
 35 H        2.6880    -5.3230    -2.9020 H     1 <1>   0.0800 
 36 H        0.9480    -5.3450    -2.8640 H     1 <1>   0.0800 
 37 H       -0.2080    -3.1450    -1.8230 H     1 <1>   0.0800 
 38 H        0.6930    -2.4610    -0.5250 H     1 <1>   0.0800 
 39 H        2.7710    -5.6790    -0.4830 H     1 <1>   0.0800 
 40 H        2.0250    -7.0170    -1.3000 H     1 <1>   0.0800 
 41 H       -1.0240    -4.5850    -0.3520 H     1 <1>   0.0800 
 42 H        0.0610    -4.0710     0.8580 H     1 <1>   0.0800 
 43 H       -0.0040    -6.5440    -0.4390 H     1 <1>   0.4500 
 44 H        0.3430    -5.8610     1.9350 H     1 <1>   0.0800 
 45 H        2.0080    -5.6720     1.4820 H     1 <1>   0.0800 
 46 H       -0.8340    -8.0760     1.1050 H     1 <1>   0.1500 
 47 H        3.6100   -10.0980     1.6340 H     1 <1>   0.1500 
 48 H        4.0440    -6.9300     0.7100 H     1 <1>   0.0800 
 49 H        4.6210    -8.0150     1.9400 H     1 <1>   0.0800 
 50 H        3.6430    -6.6520     2.3840 H     1 <1>   0.0800 
 51 H       -0.5920   -10.5070     1.1680 H     1 <1>   0.1500 
 52 H        1.6320   -11.5180     1.4250 H     1 <1>   0.1500 
@<TRIPOS>BOND
  1   1   2  ar  
  2   2   3  ar  
  3   2   4  1   
  4   4   5  1   
  5   4   6  1   
  6   4  27  1   
  7   5   7  1   
  8   5   8  1   
  9   5  28  1   
 10   6   9  1   
 11   6  10  1   
 12   6  29  1   
 13   7  11  2   
 14   7  12  am  
 15   8  10  1   
 16   8  13  1   
 17   8  30  1   
 18   9  13  2   
 19   9  31  1   
 20  10  32  1   
 21  10  33  1   
 22  12  14  1   
 23  12  15  1   
 24  13  34  1   
 25  14  16  1   
 26  14  35  1   
 27  14  36  1   
 28  15  17  1   
 29  15  37  1   
 30  15  38  1   
 31  16  18  1   
 32  16  39  1   
 33  16  40  1   
 34  17  18  1   
 35  17  41  1   
 36  17  42  1   
 37  18  19  1   
 38  18  43  1   
 39  19  20  1   
 40  19  44  1   
 41  19  45  1   
 42  20  21  ar  
 43  20  22  ar  
 44  21  23  ar  
 45  21  24  1   
 46  22  25  ar  
 47  22  46  1   
 48  23  26  ar  
 49  23  47  1   
 50  24  48  1   
 51  24  49  1   
 52  24  50  1   
 53  25  26  ar  
 54  25  51  1   
 55  26  52  1   
@<TRIPOS>SUBSTRUCTURE
  1 ****   3 GROUP 4 **** **** 0

# MOE 2024.06 (io_trps.svl 2023.06)
