@<TRIPOS>MOLECULE
NONAME
42 43 1 0 0 
SMALL
USER_CHARGES


@<TRIPOS>ATOM
  1 CL      -1.5400    -1.2030     1.8500 Cl    1 <1>  -0.1770 
  2 C       -2.5960    -0.4190     0.7000 C.ar  1 <1>   0.1770 
  3 C       -2.4060     0.9020     0.3010 C.ar  1 <1>  -0.0090 
  4 C       -3.6280    -1.2000     0.2020 C.ar  1 <1>  -0.1500 
  5 S       -1.0650     1.9560     0.9150 S.o2  1 <1>   1.4470 
  6 C       -3.2960     1.4110    -0.6410 C.ar  1 <1>  -0.1500 
  7 C       -4.5040    -0.6710    -0.7280 C.ar  1 <1>  -0.1500 
  8 O       -0.5830     1.5590     2.2180 O.2   1 <1>  -0.6500 
  9 O       -1.4860     3.3290     0.7340 O.2   1 <1>  -0.6500 
 10 N        0.1940     1.6920    -0.1930 N.am  1 <1>  -0.8490 
 11 C       -4.3250     0.6350    -1.1410 C.ar  1 <1>   0.1770 
 12 C        1.1460     2.8220    -0.1930 C.3   1 <1>   0.1960 
 13 C        0.9240     0.4350     0.0630 C.3   1 <1>   0.1960 
 14 CL      -5.4170     1.3160    -2.3170 Cl    1 <1>  -0.1770 
 15 C        2.2510     2.6420    -1.2470 C.3   1 <1>   0.1400 
 16 C        2.0340     0.1800    -0.9740 C.3   1 <1>   0.1400 
 17 N        2.9630     1.3440    -1.0530 N.am  1 <1>  -0.6600 
 18 C        4.2390     1.3130    -0.5640 C.2   1 <1>   0.6900 
 19 O        4.7460     2.3090    -0.0810 O.2   1 <1>  -0.5700 
 20 N        4.9430     0.1580    -0.6370 N.am  1 <1>  -0.7300 
 21 C        6.3290    -0.0100    -0.1610 C.3   1 <1>   0.1400 
 22 C        6.5140    -1.4410     0.3450 C.3   1 <1>  -0.1600 
 23 C        7.9400    -1.6690     0.8580 C.3   1 <1>  -0.2400 
 24 H       -3.7420    -2.2150     0.5420 H     1 <1>   0.1500 
 25 H       -3.1920     2.4250    -0.9920 H     1 <1>   0.1500 
 26 H       -5.3130    -1.2560    -1.1300 H     1 <1>   0.1500 
 27 H        1.5990     2.9250     0.7800 H     1 <1>   0.0800 
 28 H        0.6260     3.7400    -0.4120 H     1 <1>   0.0800 
 29 H        0.2410    -0.3930     0.0270 H     1 <1>   0.0800 
 30 H        1.3680     0.4580     1.0460 H     1 <1>   0.0800 
 31 H        2.9420     3.4650    -1.1830 H     1 <1>   0.0800 
 32 H        1.8120     2.6610    -2.2280 H     1 <1>   0.0800 
 33 H        1.5880     0.0190    -1.9400 H     1 <1>   0.0800 
 34 H        2.5660    -0.7120    -0.6980 H     1 <1>   0.0800 
 35 H        4.6070    -0.5390    -1.2940 H     1 <1>   0.3700 
 36 H        6.5270     0.6900     0.6350 H     1 <1>   0.0800 
 37 H        7.0100     0.1930    -0.9700 H     1 <1>   0.0800 
 38 H        6.3140    -2.1340    -0.4530 H     1 <1>   0.0800 
 39 H        5.8190    -1.6250     1.1460 H     1 <1>   0.0800 
 40 H        8.6560    -1.5050     0.0720 H     1 <1>   0.0800 
 41 H        8.0470    -2.6800     1.2120 H     1 <1>   0.0800 
 42 H        8.1580    -0.9980     1.6710 H     1 <1>   0.0800 
@<TRIPOS>BOND
  1   1   2  1   
  2   2   3  ar  
  3   2   4  ar  
  4   3   5  1   
  5   3   6  ar  
  6   4   7  ar  
  7   4  24  1   
  8   5   8  2   
  9   5   9  2   
 10   5  10  am  
 11   6  11  ar  
 12   6  25  1   
 13   7  11  ar  
 14   7  26  1   
 15  10  12  1   
 16  10  13  1   
 17  11  14  1   
 18  12  15  1   
 19  12  27  1   
 20  12  28  1   
 21  13  16  1   
 22  13  29  1   
 23  13  30  1   
 24  15  17  1   
 25  15  31  1   
 26  15  32  1   
 27  16  17  1   
 28  16  33  1   
 29  16  34  1   
 30  17  18  am  
 31  18  19  2   
 32  18  20  am  
 33  20  21  1   
 34  20  35  1   
 35  21  22  1   
 36  21  36  1   
 37  21  37  1   
 38  22  23  1   
 39  22  38  1   
 40  22  39  1   
 41  23  40  1   
 42  23  41  1   
 43  23  42  1   
@<TRIPOS>SUBSTRUCTURE
  1 ****  13 GROUP 4 **** **** 0

# MOE 2024.06 (io_trps.svl 2023.06)
