@<TRIPOS>MOLECULE
NONAME
38 39 1 0 0 
SMALL
USER_CHARGES


@<TRIPOS>ATOM
  1 O       -1.7310     0.8370    -0.3020 O.3   1 <1>  -0.3630 
  2 C       -0.9120     1.8530     0.0830 C.ar  1 <1>   0.0830 
  3 C       -1.2880    -0.1540    -1.2090 C.3   1 <1>   0.0400 
  4 C       -1.3440     2.6710     1.1250 C.ar  1 <1>  -0.1440 
  5 C        0.3170     2.1050    -0.5220 C.ar  1 <1>  -0.1500 
  6 C       -0.5500     3.7240     1.5520 C.ar  1 <1>  -0.1500 
  7 C       -2.6800     2.4120     1.7920 C.3   1 <1>   0.4870 
  8 C        1.1010     3.1590    -0.0900 C.ar  1 <1>  -0.1500 
  9 C        0.6690     3.9680     0.9450 C.ar  1 <1>  -0.1500 
 10 N       -3.7490     2.5260     0.7700 N.4   1 <1>  -0.9590 
 11 C       -3.8470     3.9010     0.2040 C.3   1 <1>   0.3430 
 12 C       -5.0520     1.9990     1.2520 C.3   1 <1>   0.3430 
 13 C       -4.8320     3.9040    -0.9640 C.3   1 <1>  -0.1600 
 14 C       -6.0530     1.9760     0.0970 C.3   1 <1>  -0.1600 
 15 C       -6.2080     3.3600    -0.5500 C.3   1 <1>  -0.0800 
 16 C       -7.1470     3.2900    -1.7580 C.3   1 <1>  -0.2400 
 17 H       -1.1030     0.3010    -2.1670 H     1 <1>   0.0800 
 18 H       -2.0590    -0.8980    -1.3030 H     1 <1>   0.0800 
 19 H       -0.3920    -0.6080    -0.8230 H     1 <1>   0.0800 
 20 H        0.6830     1.4980    -1.3290 H     1 <1>   0.1500 
 21 H       -0.8630     4.3650     2.3600 H     1 <1>   0.1500 
 22 H       -2.8450     3.1180     2.5890 H     1 <1>   0.0800 
 23 H       -2.6730     1.4170     2.2060 H     1 <1>   0.0800 
 24 H        2.0510     3.3510    -0.5590 H     1 <1>   0.1500 
 25 H        1.2870     4.7860     1.2780 H     1 <1>   0.1500 
 26 H       -3.4130     1.9130     0.0070 H     1 <1>   0.4500 
 27 H       -2.8790     4.2280    -0.1450 H     1 <1>   0.0800 
 28 H       -4.1850     4.5860     0.9640 H     1 <1>   0.0800 
 29 H       -5.4300     2.6260     2.0430 H     1 <1>   0.0800 
 30 H       -4.9270     0.9990     1.6380 H     1 <1>   0.0800 
 31 H       -4.4250     3.3150    -1.7680 H     1 <1>   0.0800 
 32 H       -4.9390     4.9120    -1.3250 H     1 <1>   0.0800 
 33 H       -7.0070     1.6470     0.4710 H     1 <1>   0.0800 
 34 H       -5.7300     1.2570    -0.6360 H     1 <1>   0.0800 
 35 H       -6.6420     4.0330     0.1730 H     1 <1>   0.0800 
 36 H       -6.7560     2.6280    -2.5120 H     1 <1>   0.0800 
 37 H       -7.2710     4.2660    -2.1940 H     1 <1>   0.0800 
 38 H       -8.1170     2.9320    -1.4600 H     1 <1>   0.0800 
@<TRIPOS>BOND
  1   1   2  1   
  2   1   3  1   
  3   2   4  ar  
  4   2   5  ar  
  5   3  17  1   
  6   3  18  1   
  7   3  19  1   
  8   4   6  ar  
  9   4   7  1   
 10   5   8  ar  
 11   5  20  1   
 12   6   9  ar  
 13   6  21  1   
 14   7  10  1   
 15   7  22  1   
 16   7  23  1   
 17   8   9  ar  
 18   8  24  1   
 19   9  25  1   
 20  10  11  1   
 21  10  12  1   
 22  10  26  1   
 23  11  13  1   
 24  11  27  1   
 25  11  28  1   
 26  12  14  1   
 27  12  29  1   
 28  12  30  1   
 29  13  15  1   
 30  13  31  1   
 31  13  32  1   
 32  14  15  1   
 33  14  33  1   
 34  14  34  1   
 35  15  16  1   
 36  15  35  1   
 37  16  36  1   
 38  16  37  1   
 39  16  38  1   
@<TRIPOS>SUBSTRUCTURE
  1 ****  10 GROUP 4 **** **** 0

# MOE 2024.06 (io_trps.svl 2023.06)
