@<TRIPOS>MOLECULE
NONAME
46 48 1 0 0 
SMALL
USER_CHARGES


@<TRIPOS>ATOM
  1 O        0.4000     1.2190    -1.6150 O.2   1 <1>  -0.5700 
  2 C        0.6740     2.1130    -0.8560 C.2   1 <1>   0.5690 
  3 N        1.8750     2.2920    -0.2450 N.am  1 <1>  -0.4200 
  4 C       -0.2990     3.2080    -0.4660 C.3   1 <1>  -0.0190 
  5 C        1.8790     3.4040     0.5360 C.2   1 <1>   0.5690 
  6 C        3.0360     1.3850    -0.3880 C.3   1 <1>   0.1400 
  7 C        0.5320     4.0980     0.4980 C.3   1 <1>  -0.0190 
  8 C       -1.6190     2.6400     0.0920 C.3   1 <1>  -0.0220 
  9 O        2.8240     3.8080     1.1650 O.2   1 <1>  -0.5700 
 10 C        4.0580     1.9830    -1.3540 C.3   1 <1>  -0.0990 
 11 C       -0.0510     4.3130     1.9080 C.3   1 <1>  -0.0220 
 12 C       -2.2790     3.6260     1.0350 C.2   1 <1>  -0.2880 
 13 C        5.3500     1.2140    -1.2520 C.2   1 <1>   0.5690 
 14 C       -1.5640     4.3890     1.8630 C.2   1 <1>  -0.2880 
 15 O        5.5060     0.2410    -1.9440 O.2   1 <1>  -0.5700 
 16 N        6.2780     1.6410    -0.3620 N.am  1 <1>  -0.7300 
 17 C        7.5820     1.0030    -0.1250 C.3   1 <1>   0.2200 
 18 C        7.6290     0.4930     1.3190 C.3   1 <1>  -0.1600 
 19 C        8.6890     2.0280    -0.3910 C.3   1 <1>  -0.1600 
 20 C        9.0100    -0.0860     1.6580 C.3   1 <1>  -0.1600 
 21 C       10.0720     1.4510    -0.0550 C.3   1 <1>  -0.1600 
 22 C       10.1230     0.9370     1.3910 C.3   1 <1>  -0.1600 
 23 H       -0.5260     3.7810    -1.3470 H     1 <1>   0.0800 
 24 H        2.7120     0.4230    -0.7480 H     1 <1>   0.0800 
 25 H        3.4860     1.2480     0.5810 H     1 <1>   0.0800 
 26 H        0.6660     5.0610     0.0390 H     1 <1>   0.0800 
 27 H       -1.4390     1.7240     0.6280 H     1 <1>   0.0800 
 28 H       -2.2770     2.4150    -0.7300 H     1 <1>   0.0800 
 29 H        4.2470     3.0130    -1.1170 H     1 <1>   0.0800 
 30 H        3.6890     1.9180    -2.3620 H     1 <1>   0.0800 
 31 H        0.3530     5.2220     2.3200 H     1 <1>   0.0800 
 32 H        0.2290     3.5030     2.5610 H     1 <1>   0.0800 
 33 H       -3.3560     3.6330     0.9890 H     1 <1>   0.1500 
 34 H       -1.9970     5.0830     2.5650 H     1 <1>   0.1500 
 35 H        6.0910     2.4620     0.2150 H     1 <1>   0.3700 
 36 H        7.7070     0.1690    -0.7980 H     1 <1>   0.0800 
 37 H        6.8830    -0.2700     1.4490 H     1 <1>   0.0800 
 38 H        7.4140     1.3020     1.9950 H     1 <1>   0.0800 
 39 H        8.5220     2.9050     0.2100 H     1 <1>   0.0800 
 40 H        8.6660     2.3140    -1.4280 H     1 <1>   0.0800 
 41 H        9.1840    -0.9650     1.0600 H     1 <1>   0.0800 
 42 H        9.0330    -0.3830     2.6930 H     1 <1>   0.0800 
 43 H       10.8240     2.2090    -0.1950 H     1 <1>   0.0800 
 44 H       10.2920     0.6400    -0.7280 H     1 <1>   0.0800 
 45 H       11.0810     0.4850     1.5790 H     1 <1>   0.0800 
 46 H       10.0130     1.7670     2.0680 H     1 <1>   0.0800 
@<TRIPOS>BOND
  1   1   2  2   
  2   2   3  am  
  3   2   4  1   
  4   3   5  am  
  5   3   6  1   
  6   4   7  1   
  7   4   8  1   
  8   4  23  1   
  9   5   7  1   
 10   5   9  2   
 11   6  10  1   
 12   6  24  1   
 13   6  25  1   
 14   7  11  1   
 15   7  26  1   
 16   8  12  1   
 17   8  27  1   
 18   8  28  1   
 19  10  13  1   
 20  10  29  1   
 21  10  30  1   
 22  11  14  1   
 23  11  31  1   
 24  11  32  1   
 25  12  14  2   
 26  12  33  1   
 27  13  15  2   
 28  13  16  am  
 29  14  34  1   
 30  16  17  1   
 31  16  35  1   
 32  17  18  1   
 33  17  19  1   
 34  17  36  1   
 35  18  20  1   
 36  18  37  1   
 37  18  38  1   
 38  19  21  1   
 39  19  39  1   
 40  19  40  1   
 41  20  22  1   
 42  20  41  1   
 43  20  42  1   
 44  21  22  1   
 45  21  43  1   
 46  21  44  1   
 47  22  45  1   
 48  22  46  1   
@<TRIPOS>SUBSTRUCTURE
  1 ****   6 GROUP 4 **** **** 0

# MOE 2024.06 (io_trps.svl 2023.06)
