@<TRIPOS>MOLECULE
NONAME
34 36 1 0 0 
SMALL
USER_CHARGES


@<TRIPOS>ATOM
  1 S       -1.7420    -1.5670    -1.1480 S.3   1 <1>  -0.2820 
  2 C       -1.2250    -0.7310     0.3280 C.3   1 <1>  -0.0540 
  3 C       -0.7810    -2.1650     0.2250 C.3   1 <1>  -0.0590 
  4 C       -2.2900    -0.3060     1.3410 C.3   1 <1>   0.2350 
  5 N       -2.8280     1.0190     0.9870 N.am  1 <1>  -0.4770 
  6 C       -2.3630     2.2020     1.4800 C.2   1 <1>   0.6900 
  7 C       -3.8570     1.3120     0.0980 C.ar  1 <1>   0.1170 
  8 O       -1.4710     2.3070     2.3110 O.2   1 <1>  -0.5700 
  9 N       -3.0600     3.2360     0.9280 N.am  1 <1>  -0.4770 
 10 C       -4.0060     2.6890     0.0680 C.ar  1 <1>   0.1170 
 11 C       -4.6670     0.4950    -0.6780 C.ar  1 <1>  -0.1500 
 12 C       -2.7770     4.6610     1.1740 C.3   1 <1>   0.2780 
 13 C       -4.9770     3.2790    -0.7310 C.ar  1 <1>  -0.1500 
 14 C       -5.6330     1.0810    -1.4780 C.ar  1 <1>  -0.1500 
 15 C       -1.6790     5.1610     0.2390 C.2   1 <1>  -0.2760 
 16 C       -5.7880     2.4650    -1.5030 C.ar  1 <1>  -0.1500 
 17 C       -0.4760     5.5410     0.6820 C.2   1 <1>  -0.3000 
 18 C       -2.0480     5.1990    -1.2370 C.3   1 <1>  -0.1020 
 19 H       -0.4850     0.0350     0.1720 H     1 <1>   0.1000 
 20 H        0.2470    -2.3910     0.0040 H     1 <1>   0.1000 
 21 H       -1.2550    -2.9240     0.8220 H     1 <1>   0.1000 
 22 H       -1.8490    -0.2540     2.3220 H     1 <1>   0.0800 
 23 H       -3.0910    -1.0230     1.3650 H     1 <1>   0.0800 
 24 H       -4.5390    -0.5720    -0.6560 H     1 <1>   0.1500 
 25 H       -2.4620     4.7740     2.1970 H     1 <1>   0.0800 
 26 H       -3.6750     5.2360     1.0370 H     1 <1>   0.0800 
 27 H       -5.0900     4.3460    -0.7470 H     1 <1>   0.1500 
 28 H       -6.2700     0.4630    -2.0870 H     1 <1>   0.1500 
 29 H       -6.5460     2.9020    -2.1310 H     1 <1>   0.1500 
 30 H        0.3180     5.8970     0.0490 H     1 <1>   0.1500 
 31 H       -0.1790     5.5180     1.7160 H     1 <1>   0.1500 
 32 H       -2.9240     5.8030    -1.3890 H     1 <1>   0.0800 
 33 H       -2.2400     4.2050    -1.5990 H     1 <1>   0.0800 
 34 H       -1.2440     5.6150    -1.8160 H     1 <1>   0.0800 
@<TRIPOS>BOND
  1   1   2  1   
  2   1   3  1   
  3   2   3  1   
  4   2   4  1   
  5   2  19  1   
  6   3  20  1   
  7   3  21  1   
  8   4   5  1   
  9   4  22  1   
 10   4  23  1   
 11   5   6  am  
 12   5   7  1   
 13   6   8  2   
 14   6   9  am  
 15   7  10  ar  
 16   7  11  ar  
 17   9  10  1   
 18   9  12  1   
 19  10  13  ar  
 20  11  14  ar  
 21  11  24  1   
 22  12  15  1   
 23  12  25  1   
 24  12  26  1   
 25  13  16  ar  
 26  13  27  1   
 27  14  16  ar  
 28  14  28  1   
 29  15  17  2   
 30  15  18  1   
 31  16  29  1   
 32  17  30  1   
 33  17  31  1   
 34  18  32  1   
 35  18  33  1   
 36  18  34  1   
@<TRIPOS>SUBSTRUCTURE
  1 ****   7 GROUP 4 **** **** 0

# MOE 2024.06 (io_trps.svl 2023.06)
