@<TRIPOS>MOLECULE
NONAME
47 49 1 0 0 
SMALL
USER_CHARGES


@<TRIPOS>ATOM
  1 F       -1.6360     3.8310    -2.0280 F     1 <1>  -0.1900 
  2 C       -0.9560     3.6060    -0.9350 C.ar  1 <1>   0.1900 
  3 C       -1.4310     2.6590    -0.0360 C.ar  1 <1>  -0.1440 
  4 C        0.1990     4.3310    -0.7200 C.ar  1 <1>  -0.1500 
  5 C       -0.7090     2.4320     1.1320 C.ar  1 <1>  -0.1500 
  6 C       -2.7040     1.8900    -0.3340 C.3   1 <1>   0.4870 
  7 C        0.8860     4.0790     0.4510 C.ar  1 <1>   0.1900 
  8 C        0.4550     3.1460     1.3780 C.ar  1 <1>  -0.1500 
  9 N       -3.8570     2.8270    -0.3460 N.4   1 <1>  -0.9590 
 10 F        1.9800     4.7460     0.6930 F     1 <1>  -0.1900 
 11 C       -4.0750     3.4920     0.9930 C.3   1 <1>   0.3430 
 12 C       -5.1210     2.1620    -0.8280 C.3   1 <1>   0.3430 
 13 C       -5.2670     4.4700     0.9750 C.3   1 <1>   0.2090 
 14 C       -6.3190     3.1320    -0.8580 C.3   1 <1>   0.2090 
 15 N       -6.5010     3.8010     0.4640 N.pl3 1 <1>  -0.8380 
 16 C       -7.6600     4.5860     0.5570 C.ar  1 <1>   0.1000 
 17 C       -7.8720     5.7640    -0.1830 C.ar  1 <1>   0.0830 
 18 C       -8.6470     4.1620     1.4340 C.ar  1 <1>  -0.1500 
 19 O       -6.8890     6.1730    -1.0470 O.3   1 <1>  -0.3620 
 20 C       -9.0580     6.4740    -0.0210 C.ar  1 <1>  -0.1500 
 21 C       -9.8230     4.8730     1.5900 C.ar  1 <1>  -0.1500 
 22 C       -7.0330     7.3410    -1.8220 C.3   1 <1>   0.1200 
 23 C      -10.0280     6.0290     0.8620 C.ar  1 <1>  -0.1500 
 24 C       -5.7730     7.5050    -2.6660 C.3   1 <1>  -0.2400 
 25 H        0.5530     5.0600    -1.4270 H     1 <1>   0.1500 
 26 H       -1.0340     1.7010     1.8560 H     1 <1>   0.1500 
 27 H       -2.8560     1.1250     0.4100 H     1 <1>   0.0800 
 28 H       -2.6090     1.4140    -1.2970 H     1 <1>   0.0800 
 29 H        1.0300     2.9840     2.2750 H     1 <1>   0.1500 
 30 H       -3.6240     3.5740    -1.0170 H     1 <1>   0.4500 
 31 H       -3.1890     4.0310     1.2870 H     1 <1>   0.0800 
 32 H       -4.2720     2.7430     1.7410 H     1 <1>   0.0800 
 33 H       -5.3730     1.3450    -0.1720 H     1 <1>   0.0800 
 34 H       -4.9730     1.7620    -1.8170 H     1 <1>   0.0800 
 35 H       -5.0250     5.3190     0.3610 H     1 <1>   0.0800 
 36 H       -5.4510     4.8290     1.9730 H     1 <1>   0.0800 
 37 H       -7.2150     2.5870    -1.1010 H     1 <1>   0.0800 
 38 H       -6.1660     3.8690    -1.6270 H     1 <1>   0.0800 
 39 H       -8.4870     3.2630     2.0000 H     1 <1>   0.1500 
 40 H       -9.2560     7.3760    -0.5670 H     1 <1>   0.1500 
 41 H      -10.5760     4.5260     2.2760 H     1 <1>   0.1500 
 42 H       -7.1570     8.1790    -1.1580 H     1 <1>   0.0800 
 43 H       -7.9000     7.2300    -2.4510 H     1 <1>   0.0800 
 44 H      -10.9430     6.5840     0.9820 H     1 <1>   0.1500 
 45 H       -4.9110     7.6050    -2.0320 H     1 <1>   0.0800 
 46 H       -5.8570     8.3900    -3.2700 H     1 <1>   0.0800 
 47 H       -5.6500     6.6590    -3.3180 H     1 <1>   0.0800 
@<TRIPOS>BOND
  1   1   2  1   
  2   2   3  ar  
  3   2   4  ar  
  4   3   5  ar  
  5   3   6  1   
  6   4   7  ar  
  7   4  25  1   
  8   5   8  ar  
  9   5  26  1   
 10   6   9  1   
 11   6  27  1   
 12   6  28  1   
 13   7   8  ar  
 14   7  10  1   
 15   8  29  1   
 16   9  11  1   
 17   9  12  1   
 18   9  30  1   
 19  11  13  1   
 20  11  31  1   
 21  11  32  1   
 22  12  14  1   
 23  12  33  1   
 24  12  34  1   
 25  13  15  1   
 26  13  35  1   
 27  13  36  1   
 28  14  15  1   
 29  14  37  1   
 30  14  38  1   
 31  15  16  1   
 32  16  17  ar  
 33  16  18  ar  
 34  17  19  1   
 35  17  20  ar  
 36  18  21  ar  
 37  18  39  1   
 38  19  22  1   
 39  20  23  ar  
 40  20  40  1   
 41  21  23  ar  
 42  21  41  1   
 43  22  24  1   
 44  22  42  1   
 45  22  43  1   
 46  23  44  1   
 47  24  45  1   
 48  24  46  1   
 49  24  47  1   
@<TRIPOS>SUBSTRUCTURE
  1 ****  13 GROUP 4 **** **** 0

# MOE 2024.06 (io_trps.svl 2023.06)
