@<TRIPOS>MOLECULE
NONAME
43 43 1 0 0 
SMALL
USER_CHARGES


@<TRIPOS>ATOM
  1 N       -1.8510     3.3120     0.0380 N.4   1 <1>  -0.9590 
  2 C       -3.0520     3.9480     0.6440 C.3   1 <1>   0.3430 
  3 C       -1.6750     1.9010     0.4830 C.3   1 <1>   0.3430 
  4 C       -0.6400     4.1340     0.3350 C.3   1 <1>   0.3430 
  5 C       -4.3100     3.1530     0.2900 C.3   1 <1>  -0.1600 
  6 C       -2.9130     1.0800     0.1190 C.3   1 <1>  -0.1600 
  7 C        0.4890     3.7500    -0.6140 C.3   1 <1>  -0.2400 
  8 C       -4.1990     1.6780     0.7120 C.3   1 <1>   0.4230 
  9 N       -5.4030     0.8980     0.2650 N.4   1 <1>  -0.9590 
 10 C       -6.7020     1.4390     0.7690 C.3   1 <1>   0.4810 
 11 C       -5.3490    -0.5580     0.6070 C.3   1 <1>   0.3430 
 12 C       -7.8230     0.8280    -0.0530 C.2   1 <1>  -0.2760 
 13 C       -5.1770    -1.3600    -0.6770 C.3   1 <1>  -0.2400 
 14 C       -8.6780    -0.0750     0.4380 C.2   1 <1>  -0.3000 
 15 C       -7.9320     1.3390    -1.4860 C.3   1 <1>  -0.1020 
 16 H       -1.9510     3.3270    -0.9890 H     1 <1>   0.4500 
 17 H       -3.1530     4.9600     0.2810 H     1 <1>   0.0800 
 18 H       -2.9370     3.9910     1.7160 H     1 <1>   0.0800 
 19 H       -1.5160     1.8720     1.5500 H     1 <1>   0.0800 
 20 H       -0.8090     1.4680     0.0060 H     1 <1>   0.0800 
 21 H       -0.3290     3.9930     1.3590 H     1 <1>   0.0800 
 22 H       -0.8650     5.1800     0.1940 H     1 <1>   0.0800 
 23 H       -4.4840     3.2300    -0.7690 H     1 <1>   0.0800 
 24 H       -5.1250     3.6300     0.8020 H     1 <1>   0.0800 
 25 H       -2.7510     0.0880     0.4980 H     1 <1>   0.0800 
 26 H       -2.9840     1.0230    -0.9530 H     1 <1>   0.0800 
 27 H        0.8260     2.7430    -0.4480 H     1 <1>   0.0800 
 28 H        1.3280     4.4020    -0.4400 H     1 <1>   0.0800 
 29 H        0.1900     3.8710    -1.6400 H     1 <1>   0.0800 
 30 H       -4.1340     1.6310     1.7890 H     1 <1>   0.0800 
 31 H       -5.4850     0.9410    -0.7570 H     1 <1>   0.4500 
 32 H       -6.7520     2.5090     0.6680 H     1 <1>   0.0800 
 33 H       -6.8300     1.1860     1.8100 H     1 <1>   0.0800 
 34 H       -6.2650    -0.8680     1.0850 H     1 <1>   0.0800 
 35 H       -4.5380    -0.7630     1.2870 H     1 <1>   0.0800 
 36 H       -6.0190    -1.2170    -1.3300 H     1 <1>   0.0800 
 37 H       -5.1320    -2.4070    -0.4320 H     1 <1>   0.0800 
 38 H       -4.2690    -1.1040    -1.1920 H     1 <1>   0.0800 
 39 H       -9.4870    -0.5110    -0.1280 H     1 <1>   0.1500 
 40 H       -8.6650    -0.4630     1.4440 H     1 <1>   0.1500 
 41 H       -7.0580     1.0950    -2.0620 H     1 <1>   0.0800 
 42 H       -8.0720     2.4060    -1.4960 H     1 <1>   0.0800 
 43 H       -8.7820     0.8950    -1.9780 H     1 <1>   0.0800 
@<TRIPOS>BOND
  1   1   2  1   
  2   1   3  1   
  3   1   4  1   
  4   1  16  1   
  5   2   5  1   
  6   2  17  1   
  7   2  18  1   
  8   3   6  1   
  9   3  19  1   
 10   3  20  1   
 11   4   7  1   
 12   4  21  1   
 13   4  22  1   
 14   5   8  1   
 15   5  23  1   
 16   5  24  1   
 17   6   8  1   
 18   6  25  1   
 19   6  26  1   
 20   7  27  1   
 21   7  28  1   
 22   7  29  1   
 23   8   9  1   
 24   8  30  1   
 25   9  10  1   
 26   9  11  1   
 27   9  31  1   
 28  10  12  1   
 29  10  32  1   
 30  10  33  1   
 31  11  13  1   
 32  11  34  1   
 33  11  35  1   
 34  12  14  2   
 35  12  15  1   
 36  13  36  1   
 37  13  37  1   
 38  13  38  1   
 39  14  39  1   
 40  14  40  1   
 41  15  41  1   
 42  15  42  1   
 43  15  43  1   
@<TRIPOS>SUBSTRUCTURE
  1 ****   8 GROUP 4 **** **** 0

# MOE 2024.06 (io_trps.svl 2023.06)
