@<TRIPOS>MOLECULE
NONAME
56 59 1 0 0 
SMALL
USER_CHARGES


@<TRIPOS>ATOM
  1 O        0.7540     0.4110     1.4980 O.2   1 <1>  -0.5700 
  2 C        1.5520     1.0980     0.9210 C.2   1 <1>   0.4950 
  3 C        2.6830     0.5800     0.2130 C.2   1 <1>  -0.1360 
  4 C        1.3630     2.6010     0.8870 C.3   1 <1>  -0.0990 
  5 C        3.6590     1.3240    -0.3430 C.2   1 <1>  -0.2760 
  6 C        2.7200     3.3270     0.8870 C.3   1 <1>  -0.1600 
  7 C        3.7080     2.8580    -0.2210 C.3   1 <1>   0.1380 
  8 C        4.7670     0.6930    -1.1780 C.3   1 <1>  -0.0220 
  9 C        5.1570     3.2980     0.1890 C.3   1 <1>  -0.0800 
 10 C        3.2320     3.4090    -1.5810 C.3   1 <1>  -0.2400 
 11 C        6.1460     1.1370    -0.6990 C.3   1 <1>  -0.1600 
 12 C        5.3620     4.8170     0.4850 C.3   1 <1>   0.2000 
 13 C        6.2760     2.6700    -0.6930 C.3   1 <1>  -0.0800 
 14 O        5.0060     5.5970    -0.5910 O.3   1 <1>  -0.6800 
 15 C        6.8060     5.1930     0.8760 C.3   1 <1>  -0.1600 
 16 C        7.6510     3.0730    -0.1200 C.3   1 <1>  -0.0800 
 17 C        7.8970     4.5890    -0.0510 C.3   1 <1>   0.0000 
 18 C        8.9240     2.5030    -0.7460 C.3   1 <1>  -0.1600 
 19 C        9.3720     4.6370     0.4670 C.3   1 <1>   0.3410 
 20 C        7.8480     5.2650    -1.4570 C.3   1 <1>  -0.2400 
 21 C       10.0450     3.4620    -0.2940 C.3   1 <1>  -0.1600 
 22 O        9.3980     4.2810     1.8170 O.3   1 <1>  -0.6800 
 23 C       10.0390     6.0300     0.3660 C.2   1 <1>   0.4480 
 24 O        9.5140     7.0060     0.8260 O.2   1 <1>  -0.5700 
 25 C       11.4160     6.1540    -0.2780 C.3   1 <1>   0.1810 
 26 O       11.3170     6.2900    -1.6640 O.3   1 <1>  -0.6800 
 27 H        2.6810    -0.4920     0.1380 H     1 <1>   0.1500 
 28 H        0.7900     2.9020     1.7460 H     1 <1>   0.0800 
 29 H        0.8030     2.8560     0.0070 H     1 <1>   0.0800 
 30 H        3.1660     3.1510     1.8500 H     1 <1>   0.0800 
 31 H        2.5500     4.3870     0.8040 H     1 <1>   0.0800 
 32 H        4.6410     0.9730    -2.2090 H     1 <1>   0.0800 
 33 H        4.7040    -0.3810    -1.1280 H     1 <1>   0.0800 
 34 H        5.3060     2.8390     1.1510 H     1 <1>   0.0800 
 35 H        2.3410     2.8990    -1.8980 H     1 <1>   0.0800 
 36 H        3.9790     3.2730    -2.3390 H     1 <1>   0.0800 
 37 H        3.0000     4.4560    -1.5210 H     1 <1>   0.0800 
 38 H        6.8890     0.7060    -1.3460 H     1 <1>   0.0800 
 39 H        6.3080     0.7520     0.2930 H     1 <1>   0.0800 
 40 H        4.7110     5.1100     1.2910 H     1 <1>   0.0800 
 41 H        6.1830     3.0150    -1.7050 H     1 <1>   0.0800 
 42 H        5.6740     5.4890    -1.2910 H     1 <1>   0.4000 
 43 H        6.9480     4.8200     1.8740 H     1 <1>   0.0800 
 44 H        6.9010     6.2630     0.9320 H     1 <1>   0.0800 
 45 H        7.6540     2.7050     0.8950 H     1 <1>   0.0800 
 46 H        8.8450     2.5030    -1.8200 H     1 <1>   0.0800 
 47 H        9.1100     1.4990    -0.4050 H     1 <1>   0.0800 
 48 H        6.9820     4.9980    -2.0250 H     1 <1>   0.0800 
 49 H        8.6960     4.9950    -2.0600 H     1 <1>   0.0800 
 50 H        7.8560     6.3370    -1.3520 H     1 <1>   0.0800 
 51 H       10.5480     3.8050    -1.1790 H     1 <1>   0.0800 
 52 H       10.7650     2.9590     0.3280 H     1 <1>   0.0800 
 53 H        9.0440     5.0310     2.3360 H     1 <1>   0.4000 
 54 H       12.0220     5.2920    -0.0610 H     1 <1>   0.0800 
 55 H       11.9150     7.0280     0.1030 H     1 <1>   0.0800 
 56 H       10.8710     7.1340    -1.8860 H     1 <1>   0.4000 
@<TRIPOS>BOND
  1   1   2  2   
  2   2   3  1   
  3   2   4  1   
  4   3   5  2   
  5   3  27  1   
  6   4   6  1   
  7   4  28  1   
  8   4  29  1   
  9   5   7  1   
 10   5   8  1   
 11   6   7  1   
 12   6  30  1   
 13   6  31  1   
 14   7   9  1   
 15   7  10  1   
 16   8  11  1   
 17   8  32  1   
 18   8  33  1   
 19   9  12  1   
 20   9  13  1   
 21   9  34  1   
 22  10  35  1   
 23  10  36  1   
 24  10  37  1   
 25  11  13  1   
 26  11  38  1   
 27  11  39  1   
 28  12  14  1   
 29  12  15  1   
 30  12  40  1   
 31  13  16  1   
 32  13  41  1   
 33  14  42  1   
 34  15  17  1   
 35  15  43  1   
 36  15  44  1   
 37  16  17  1   
 38  16  18  1   
 39  16  45  1   
 40  17  19  1   
 41  17  20  1   
 42  18  21  1   
 43  18  46  1   
 44  18  47  1   
 45  19  21  1   
 46  19  22  1   
 47  19  23  1   
 48  20  48  1   
 49  20  49  1   
 50  20  50  1   
 51  21  51  1   
 52  21  52  1   
 53  22  53  1   
 54  23  24  2   
 55  23  25  1   
 56  25  26  1   
 57  25  54  1   
 58  25  55  1   
 59  26  56  1   
@<TRIPOS>SUBSTRUCTURE
  1 ****  13 GROUP 4 **** **** 0

# MOE 2024.06 (io_trps.svl 2023.06)
