@<TRIPOS>MOLECULE
NONAME
40 42 1 0 0 
SMALL
USER_CHARGES


@<TRIPOS>ATOM
  1 O      -11.8690    -0.2190     1.9860 O.3   1 <1>  -0.3630 
  2 C      -11.4560    -0.3730     0.7250 C.ar  1 <1>   0.0830 
  3 C      -13.2340    -0.6360     2.0230 C.3   1 <1>   0.4000 
  4 C      -12.4630    -0.8790    -0.0420 C.ar  1 <1>   0.0830 
  5 C      -10.2140    -0.0900     0.1940 C.ar  1 <1>  -0.1500 
  6 O      -13.5580    -1.0640     0.7010 O.3   1 <1>  -0.3630 
  7 C      -12.2860    -1.1290    -1.3880 C.ar  1 <1>  -0.1500 
  8 C      -10.0080    -0.3420    -1.1590 C.ar  1 <1>  -0.1440 
  9 C      -11.0430    -0.8550    -1.9440 C.ar  1 <1>  -0.1500 
 10 C       -8.6510    -0.0670    -1.7620 C.3   1 <1>   0.4870 
 11 N       -7.8450    -1.2820    -1.5230 N.4   1 <1>  -0.9060 
 12 C       -6.4040    -1.1170    -1.8220 C.3   1 <1>   0.4860 
 13 C       -5.8720    -0.0080    -0.9370 C.ar  1 <1>  -0.1430 
 14 C       -5.6730    -0.1840     0.4310 C.ar  1 <1>  -0.1430 
 15 C       -5.5990     1.2230    -1.5180 C.ar  1 <1>  -0.1500 
 16 C       -5.2300     0.8870     1.1910 C.ar  1 <1>  -0.1500 
 17 C       -5.9120    -1.5090     1.1470 C.3   1 <1>  -0.0970 
 18 C       -5.1550     2.2800    -0.7470 C.ar  1 <1>  -0.1500 
 19 C       -4.9710     2.1170     0.6130 C.ar  1 <1>  -0.1430 
 20 C       -4.4860     3.2770     1.4650 C.3   1 <1>  -0.0970 
 21 H      -13.8590     0.1960     2.2960 H     1 <1>   0.0800 
 22 H      -13.3440    -1.4580     2.7070 H     1 <1>   0.0800 
 23 H       -9.4520     0.3180     0.8360 H     1 <1>   0.1500 
 24 H      -13.0990    -1.5230    -1.9730 H     1 <1>   0.1500 
 25 H      -10.9000    -1.0450    -2.9950 H     1 <1>   0.1500 
 26 H       -8.2080     0.7870    -1.2730 H     1 <1>   0.0800 
 27 H       -8.7380     0.1370    -2.8170 H     1 <1>   0.0800 
 28 H       -8.2580    -2.0710    -2.0280 H     1 <1>   0.4500 
 29 H       -7.9350    -1.4840    -0.5220 H     1 <1>   0.4500 
 30 H       -6.2610    -0.8630    -2.8590 H     1 <1>   0.0800 
 31 H       -5.8700    -2.0310    -1.6170 H     1 <1>   0.0800 
 32 H       -5.7260     1.3820    -2.5750 H     1 <1>   0.1500 
 33 H       -5.0790     0.7690     2.2510 H     1 <1>   0.1500 
 34 H       -6.9480    -1.6110     1.4150 H     1 <1>   0.0800 
 35 H       -5.3320    -1.5500     2.0540 H     1 <1>   0.0800 
 36 H       -5.6100    -2.3440     0.5420 H     1 <1>   0.0800 
 37 H       -4.9490     3.2310    -1.2070 H     1 <1>   0.1500 
 38 H       -3.8990     2.9180     2.2910 H     1 <1>   0.0800 
 39 H       -5.3270     3.8250     1.8510 H     1 <1>   0.0800 
 40 H       -3.8750     3.9440     0.8830 H     1 <1>   0.0800 
@<TRIPOS>BOND
  1   1   2  1   
  2   1   3  1   
  3   2   4  ar  
  4   2   5  ar  
  5   3   6  1   
  6   3  21  1   
  7   3  22  1   
  8   4   6  1   
  9   4   7  ar  
 10   5   8  ar  
 11   5  23  1   
 12   7   9  ar  
 13   7  24  1   
 14   8   9  ar  
 15   8  10  1   
 16   9  25  1   
 17  10  11  1   
 18  10  26  1   
 19  10  27  1   
 20  11  12  1   
 21  11  28  1   
 22  11  29  1   
 23  12  13  1   
 24  12  30  1   
 25  12  31  1   
 26  13  14  ar  
 27  13  15  ar  
 28  14  16  ar  
 29  14  17  1   
 30  15  18  ar  
 31  15  32  1   
 32  16  19  ar  
 33  16  33  1   
 34  17  34  1   
 35  17  35  1   
 36  17  36  1   
 37  18  19  ar  
 38  18  37  1   
 39  19  20  1   
 40  20  38  1   
 41  20  39  1   
 42  20  40  1   
@<TRIPOS>SUBSTRUCTURE
  1 ****  10 GROUP 4 **** **** 0

# MOE 2024.06 (io_trps.svl 2023.06)
