@<TRIPOS>MOLECULE
NONAME
39 39 1 0 0 
SMALL
USER_CHARGES


@<TRIPOS>ATOM
  1 I        1.0670    -0.2910    -2.6460 I     1 <1>  -0.0810 
  2 C        0.1960    -1.8800    -1.5120 C.ar  1 <1>   0.0810 
  3 C        0.8430    -2.3960    -0.3990 C.ar  1 <1>   0.0830 
  4 C       -1.0310    -2.3570    -1.9350 C.ar  1 <1>  -0.1500 
  5 O        2.0370    -1.9290     0.0210 O.3   1 <1>  -0.5330 
  6 C        0.2420    -3.4330     0.3100 C.ar  1 <1>   0.0830 
  7 C       -1.6390    -3.3800    -1.2180 C.ar  1 <1>  -0.1430 
  8 O        0.9170    -3.9190     1.3910 O.3   1 <1>  -0.3630 
  9 C       -0.9980    -3.9180    -0.1060 C.ar  1 <1>  -0.1500 
 10 C       -2.9980    -3.8970    -1.6480 C.3   1 <1>   0.4860 
 11 C        0.5010    -5.0890     2.0630 C.3   1 <1>   0.0400 
 12 N       -4.0540    -3.3470    -0.7530 N.4   1 <1>  -0.9590 
 13 C       -5.3300    -4.0700    -0.9470 C.3   1 <1>   0.4810 
 14 C       -4.2500    -1.8780    -0.8970 C.3   1 <1>   0.3430 
 15 C       -6.1970    -3.9180     0.2960 C.2   1 <1>  -0.2760 
 16 C       -3.5800    -1.1470     0.2620 C.3   1 <1>  -0.2400 
 17 C       -5.7730    -3.6990     1.5490 C.2   1 <1>  -0.3000 
 18 C       -7.6810    -4.0660    -0.0110 C.3   1 <1>  -0.1020 
 19 H       -1.4900    -1.9260    -2.8070 H     1 <1>   0.1500 
 20 H        2.3310    -2.4250     0.8110 H     1 <1>   0.4500 
 21 H       -1.4670    -4.7170     0.4380 H     1 <1>   0.1500 
 22 H       -2.9920    -4.9730    -1.5920 H     1 <1>   0.0800 
 23 H       -3.1910    -3.6130    -2.6700 H     1 <1>   0.0800 
 24 H        1.2290    -5.3150     2.8210 H     1 <1>   0.0800 
 25 H        0.4490    -5.8990     1.3570 H     1 <1>   0.0800 
 26 H       -0.4550    -4.9100     2.5220 H     1 <1>   0.0800 
 27 H       -3.7760    -3.5190     0.2180 H     1 <1>   0.4500 
 28 H       -5.1530    -5.1190    -1.1210 H     1 <1>   0.0800 
 29 H       -5.8450    -3.6670    -1.8050 H     1 <1>   0.0800 
 30 H       -5.3040    -1.6440    -0.8820 H     1 <1>   0.0800 
 31 H       -3.8420    -1.5340    -1.8340 H     1 <1>   0.0800 
 32 H       -3.7160    -0.0880     0.1310 H     1 <1>   0.0800 
 33 H       -2.5230    -1.3360     0.3000 H     1 <1>   0.0800 
 34 H       -4.0300    -1.4180     1.1990 H     1 <1>   0.0800 
 35 H       -4.7540    -3.6020     1.8760 H     1 <1>   0.1500 
 36 H       -6.4420    -3.6050     2.3900 H     1 <1>   0.1500 
 37 H       -8.0050    -3.3090    -0.7040 H     1 <1>   0.0800 
 38 H       -8.2690    -3.9640     0.8860 H     1 <1>   0.0800 
 39 H       -7.8870    -5.0340    -0.4320 H     1 <1>   0.0800 
@<TRIPOS>BOND
  1   1   2  1   
  2   2   3  ar  
  3   2   4  ar  
  4   3   5  1   
  5   3   6  ar  
  6   4   7  ar  
  7   4  19  1   
  8   5  20  1   
  9   6   8  1   
 10   6   9  ar  
 11   7   9  ar  
 12   7  10  1   
 13   8  11  1   
 14   9  21  1   
 15  10  12  1   
 16  10  22  1   
 17  10  23  1   
 18  11  24  1   
 19  11  25  1   
 20  11  26  1   
 21  12  13  1   
 22  12  14  1   
 23  12  27  1   
 24  13  15  1   
 25  13  28  1   
 26  13  29  1   
 27  14  16  1   
 28  14  30  1   
 29  14  31  1   
 30  15  17  2   
 31  15  18  1   
 32  16  32  1   
 33  16  33  1   
 34  16  34  1   
 35  17  35  1   
 36  17  36  1   
 37  18  37  1   
 38  18  38  1   
 39  18  39  1   
@<TRIPOS>SUBSTRUCTURE
  1 ****   7 GROUP 4 **** **** 0

# MOE 2024.06 (io_trps.svl 2023.06)
