@<TRIPOS>MOLECULE
NONAME
25 25 1 0 0 
SMALL
USER_CHARGES


@<TRIPOS>ATOM
  1 O        1.6200    -1.1760     0.1710 O.2   1 <1>  -0.5700 
  2 C        0.5060    -1.0920     0.6180 C.2   1 <1>   0.5690 
  3 N        0.1890    -0.0980     1.4640 N.am  1 <1>  -0.8000 
  4 C       -0.5370    -2.1200     0.2290 C.3   1 <1>  -0.0990 
  5 C       -1.7050    -1.5230    -0.5780 C.3   1 <1>   0.0640 
  6 C       -2.5050    -0.5130     0.2460 C.ar  1 <1>  -0.1440 
  7 C       -2.6290    -2.6290    -1.1030 C.3   1 <1>  -0.2400 
  8 C       -3.1640    -0.8910     1.4080 C.ar  1 <1>  -0.1500 
  9 C       -2.5610     0.8140    -0.1560 C.ar  1 <1>  -0.1500 
 10 C       -3.8610     0.0410     2.1570 C.ar  1 <1>  -0.1500 
 11 C       -3.2580     1.7470     0.5920 C.ar  1 <1>  -0.1500 
 12 C       -3.9080     1.3620     1.7500 C.ar  1 <1>  -0.1500 
 13 H        0.8850     0.6090     1.6990 H     1 <1>   0.3700 
 14 H       -0.7820     0.1050     1.7200 H     1 <1>   0.3700 
 15 H       -0.9000    -2.5950     1.1210 H     1 <1>   0.0800 
 16 H       -0.0510    -2.8740    -0.3630 H     1 <1>   0.0800 
 17 H       -1.2850    -1.0210    -1.4330 H     1 <1>   0.0800 
 18 H       -3.0350    -3.2090    -0.2950 H     1 <1>   0.0800 
 19 H       -2.0880    -3.2860    -1.7610 H     1 <1>   0.0800 
 20 H       -3.4430    -2.1920    -1.6540 H     1 <1>   0.0800 
 21 H       -3.1410    -1.9140     1.7400 H     1 <1>   0.1500 
 22 H       -2.0600     1.1310    -1.0540 H     1 <1>   0.1500 
 23 H       -4.3700    -0.2620     3.0560 H     1 <1>   0.1500 
 24 H       -3.2960     2.7740     0.2700 H     1 <1>   0.1500 
 25 H       -4.4510     2.0870     2.3310 H     1 <1>   0.1500 
@<TRIPOS>BOND
  1   1   2  2   
  2   2   3  am  
  3   2   4  1   
  4   3  13  1   
  5   3  14  1   
  6   4   5  1   
  7   4  15  1   
  8   4  16  1   
  9   5   6  1   
 10   5   7  1   
 11   5  17  1   
 12   6   8  ar  
 13   6   9  ar  
 14   7  18  1   
 15   7  19  1   
 16   7  20  1   
 17   8  10  ar  
 18   8  21  1   
 19   9  11  ar  
 20   9  22  1   
 21  10  12  ar  
 22  10  23  1   
 23  11  12  ar  
 24  11  24  1   
 25  12  25  1   
@<TRIPOS>SUBSTRUCTURE
  1 ****   6 GROUP 4 **** **** 0

# MOE 2024.06 (io_trps.svl 2023.06)
