@<TRIPOS>MOLECULE
NONAME
44 45 1 0 0 
SMALL
USER_CHARGES


@<TRIPOS>ATOM
  1 S       -0.0510     0.4160     0.6670 S.o2  1 <1>   1.4470 
  2 O        0.4040     0.4190     2.0400 O.2   1 <1>  -0.6500 
  3 O       -0.0650     1.6380    -0.1030 O.2   1 <1>  -0.6500 
  4 N        0.9620    -0.5990    -0.2030 N.am  1 <1>  -0.9140 
  5 C       -1.6560    -0.4200     0.5560 C.ar  1 <1>  -0.0090 
  6 C        2.3500    -0.5960     0.2110 C.3   1 <1>   0.2760 
  7 C       -1.8260    -1.7080     1.0490 C.ar  1 <1>  -0.1500 
  8 C       -2.7590     0.1960    -0.0220 C.ar  1 <1>  -0.1500 
  9 C        3.0340     0.7250    -0.1750 C.3   1 <1>  -0.1600 
 10 C        3.0340    -1.7810    -0.4800 C.3   1 <1>  -0.1600 
 11 C       -3.0470    -2.3540     0.9700 C.ar  1 <1>  -0.1500 
 12 C       -3.9820    -0.4460    -0.1040 C.ar  1 <1>  -0.1500 
 13 C        4.5390     0.6870     0.1280 C.3   1 <1>  -0.1600 
 14 C        4.5370    -1.8250    -0.1710 C.3   1 <1>  -0.1600 
 15 C       -4.1480    -1.7350     0.3930 C.ar  1 <1>   0.1170 
 16 C        5.2180    -0.5060    -0.5560 C.3   1 <1>  -0.1600 
 17 N       -5.3590    -2.4390     0.3380 N.am  1 <1>  -0.5470 
 18 C       -6.6240    -2.0770    -0.0100 C.2   1 <1>   0.7800 
 19 O       -6.9560    -0.9660    -0.3670 O.2   1 <1>  -0.5700 
 20 O       -7.5230    -3.0530     0.0710 O.3   1 <1>  -0.4300 
 21 C       -8.8740    -2.8190    -0.2570 C.3   1 <1>   0.1200 
 22 C       -9.6420    -4.1220    -0.0640 C.3   1 <1>  -0.2400 
 23 H        0.9380    -0.2180    -1.1440 H     1 <1>   0.4200 
 24 H        2.4190    -0.7430     1.2770 H     1 <1>   0.0800 
 25 H       -0.9860    -2.2080     1.5030 H     1 <1>   0.1500 
 26 H       -2.6630     1.1950    -0.4140 H     1 <1>   0.1500 
 27 H        2.6020     1.5400     0.3790 H     1 <1>   0.0800 
 28 H        2.8950     0.9140    -1.2250 H     1 <1>   0.0800 
 29 H        2.9000    -1.7040    -1.5450 H     1 <1>   0.0800 
 30 H        2.5780    -2.6960    -0.1470 H     1 <1>   0.0800 
 31 H       -3.1400    -3.3500     1.3630 H     1 <1>   0.1500 
 32 H       -4.8060     0.0700    -0.5630 H     1 <1>   0.1500 
 33 H        4.6860     0.6170     1.1930 H     1 <1>   0.0800 
 34 H        4.9970     1.6030    -0.2060 H     1 <1>   0.0800 
 35 H        4.9930    -2.6380    -0.7100 H     1 <1>   0.0800 
 36 H        4.6800    -2.0070     0.8810 H     1 <1>   0.0800 
 37 H        6.2560    -0.5400    -0.2740 H     1 <1>   0.0800 
 38 H        5.1710    -0.3790    -1.6240 H     1 <1>   0.0800 
 39 H       -5.3200    -3.4100     0.6330 H     1 <1>   0.3700 
 40 H       -8.9250    -2.4880    -1.2810 H     1 <1>   0.0800 
 41 H       -9.2540    -2.0460     0.3920 H     1 <1>   0.0800 
 42 H       -9.2460    -4.8850    -0.7100 H     1 <1>   0.0800 
 43 H      -10.6780    -3.9710    -0.3070 H     1 <1>   0.0800 
 44 H       -9.5750    -4.4440     0.9600 H     1 <1>   0.0800 
@<TRIPOS>BOND
  1   1   2  2   
  2   1   3  2   
  3   1   4  am  
  4   1   5  1   
  5   4   6  1   
  6   4  23  1   
  7   5   7  ar  
  8   5   8  ar  
  9   6   9  1   
 10   6  10  1   
 11   6  24  1   
 12   7  11  ar  
 13   7  25  1   
 14   8  12  ar  
 15   8  26  1   
 16   9  13  1   
 17   9  27  1   
 18   9  28  1   
 19  10  14  1   
 20  10  29  1   
 21  10  30  1   
 22  11  15  ar  
 23  11  31  1   
 24  12  15  ar  
 25  12  32  1   
 26  13  16  1   
 27  13  33  1   
 28  13  34  1   
 29  14  16  1   
 30  14  35  1   
 31  14  36  1   
 32  15  17  1   
 33  16  37  1   
 34  16  38  1   
 35  17  18  am  
 36  17  39  1   
 37  18  19  2   
 38  18  20  1   
 39  20  21  1   
 40  21  22  1   
 41  21  40  1   
 42  21  41  1   
 43  22  42  1   
 44  22  43  1   
 45  22  44  1   
@<TRIPOS>SUBSTRUCTURE
  1 ****   5 GROUP 4 **** **** 0

# MOE 2024.06 (io_trps.svl 2023.06)
