@<TRIPOS>MOLECULE
NONAME
55 57 1 0 0 
SMALL
USER_CHARGES


@<TRIPOS>ATOM
  1 F       -2.8780    -0.5610     0.1250 F     1 <1>  -0.1900 
  2 C       -3.0600     0.7310     0.1080 C.ar  1 <1>   0.1900 
  3 C       -3.3470     1.3490    -1.0940 C.ar  1 <1>  -0.1500 
  4 C       -2.9590     1.4350     1.2920 C.ar  1 <1>  -0.1500 
  5 C       -3.5410     2.7200    -1.1070 C.ar  1 <1>  -0.1500 
  6 C       -3.1550     2.8060     1.2690 C.ar  1 <1>  -0.1500 
  7 C       -3.4510     3.4520     0.0730 C.ar  1 <1>  -0.1430 
  8 C       -3.6770     4.9540     0.0610 C.3   1 <1>   0.4870 
  9 N       -5.1090     5.2310    -0.2140 N.4   1 <1>  -0.9590 
 10 C       -5.4350     6.6870    -0.3740 C.3   1 <1>   0.3430 
 11 C       -6.0670     4.5660     0.7330 C.3   1 <1>   0.3430 
 12 C       -6.9290     6.8940    -0.7300 C.3   1 <1>   0.1100 
 13 C       -7.5250     4.7220     0.2350 C.3   1 <1>   0.1100 
 14 N       -7.6240     5.6080    -0.9550 N.3   1 <1>  -0.8100 
 15 C       -9.0190     5.7880    -1.4630 C.3   1 <1>   0.1710 
 16 C       -9.7460     4.4870    -1.8300 C.2   1 <1>   0.5690 
 17 O       -9.5700     4.0150    -2.9270 O.2   1 <1>  -0.5700 
 18 N      -10.5490     3.9200    -0.8780 N.am  1 <1>  -0.5470 
 19 C      -11.2810     2.7190    -0.8270 C.ar  1 <1>   0.1170 
 20 C      -11.7770     2.3110     0.4150 C.ar  1 <1>   0.0830 
 21 C      -11.5400     1.9330    -1.9450 C.ar  1 <1>  -0.1500 
 22 O      -11.5040     3.1150     1.4900 O.3   1 <1>  -0.3630 
 23 C      -12.5120     1.1350     0.5190 C.ar  1 <1>  -0.1500 
 24 C      -12.2720     0.7630    -1.8380 C.ar  1 <1>  -0.1500 
 25 C      -12.0640     2.8370     2.7570 C.3   1 <1>   0.0400 
 26 C      -12.7610     0.3600    -0.6000 C.ar  1 <1>   0.0830 
 27 O      -13.4880    -0.7730    -0.4050 O.3   1 <1>  -0.3620 
 28 C      -13.7860    -1.6370    -1.4800 C.3   1 <1>   0.0400 
 29 H       -3.4130     0.7630    -1.9940 H     1 <1>   0.1500 
 30 H       -2.7280     0.9140     2.2050 H     1 <1>   0.1500 
 31 H       -3.7600     3.2010    -2.0460 H     1 <1>   0.1500 
 32 H       -3.0720     3.3560     2.1920 H     1 <1>   0.1500 
 33 H       -3.0610     5.4000    -0.7030 H     1 <1>   0.0800 
 34 H       -3.3950     5.3720     1.0140 H     1 <1>   0.0800 
 35 H       -5.3610     4.8110    -1.1220 H     1 <1>   0.4500 
 36 H       -4.8320     7.1090    -1.1610 H     1 <1>   0.0800 
 37 H       -5.2110     7.2210     0.5350 H     1 <1>   0.0800 
 38 H       -5.9760     4.9980     1.7150 H     1 <1>   0.0800 
 39 H       -5.8410     3.5140     0.8140 H     1 <1>   0.0800 
 40 H       -6.9910     7.4980    -1.6200 H     1 <1>   0.0800 
 41 H       -7.4140     7.4380     0.0640 H     1 <1>   0.0800 
 42 H       -8.1350     5.1040     1.0360 H     1 <1>   0.0800 
 43 H       -7.8970     3.7420    -0.0180 H     1 <1>   0.0800 
 44 H       -8.9860     6.3890    -2.3550 H     1 <1>   0.0800 
 45 H       -9.6040     6.3200    -0.7350 H     1 <1>   0.0800 
 46 H      -10.6080     4.4100     0.0150 H     1 <1>   0.3700 
 47 H      -11.1750     2.2290    -2.9110 H     1 <1>   0.1500 
 48 H      -12.9050     0.7900     1.4550 H     1 <1>   0.1500 
 49 H      -12.4480     0.1870    -2.7260 H     1 <1>   0.1500 
 50 H      -11.7630     3.6130     3.4370 H     1 <1>   0.0800 
 51 H      -11.6970     1.8870     3.1030 H     1 <1>   0.0800 
 52 H      -13.1370     2.8260     2.6710 H     1 <1>   0.0800 
 53 H      -14.3590    -2.4610    -1.0960 H     1 <1>   0.0800 
 54 H      -12.8660    -1.9970    -1.9050 H     1 <1>   0.0800 
 55 H      -14.3650    -1.0990    -2.2100 H     1 <1>   0.0800 
@<TRIPOS>BOND
  1   1   2  1   
  2   2   3  ar  
  3   2   4  ar  
  4   3   5  ar  
  5   3  29  1   
  6   4   6  ar  
  7   4  30  1   
  8   5   7  ar  
  9   5  31  1   
 10   6   7  ar  
 11   6  32  1   
 12   7   8  1   
 13   8   9  1   
 14   8  33  1   
 15   8  34  1   
 16   9  10  1   
 17   9  11  1   
 18   9  35  1   
 19  10  12  1   
 20  10  36  1   
 21  10  37  1   
 22  11  13  1   
 23  11  38  1   
 24  11  39  1   
 25  12  14  1   
 26  12  40  1   
 27  12  41  1   
 28  13  14  1   
 29  13  42  1   
 30  13  43  1   
 31  14  15  1   
 32  15  16  1   
 33  15  44  1   
 34  15  45  1   
 35  16  17  2   
 36  16  18  am  
 37  18  19  1   
 38  18  46  1   
 39  19  20  ar  
 40  19  21  ar  
 41  20  22  1   
 42  20  23  ar  
 43  21  24  ar  
 44  21  47  1   
 45  22  25  1   
 46  23  26  ar  
 47  23  48  1   
 48  24  26  ar  
 49  24  49  1   
 50  25  50  1   
 51  25  51  1   
 52  25  52  1   
 53  26  27  1   
 54  27  28  1   
 55  28  53  1   
 56  28  54  1   
 57  28  55  1   
@<TRIPOS>SUBSTRUCTURE
  1 ****  13 GROUP 4 **** **** 0

# MOE 2024.06 (io_trps.svl 2023.06)
