@<TRIPOS>MOLECULE
NONAME
49 51 1 0 0 
SMALL
USER_CHARGES


@<TRIPOS>ATOM
  1 O        0.2690    -2.7220    -2.3890 O.2   1 <1>  -0.5700 
  2 C       -0.1580    -2.2340    -1.3690 C.2   1 <1>   0.5690 
  3 N        0.6140    -1.4990    -0.5340 N.am  1 <1>  -0.7300 
  4 C       -1.6300    -2.4330    -0.9920 C.3   1 <1>   0.1710 
  5 C        2.0200    -1.1240    -0.7290 C.3   1 <1>   0.2200 
  6 N       -2.1980    -1.3490    -0.1350 N.3   1 <1>  -0.8100 
  7 C        2.7630    -1.3160     0.5870 C.3   1 <1>  -0.1600 
  8 C        2.0950     0.3810    -0.9560 C.3   1 <1>  -0.1600 
  9 C       -2.3410    -0.0870    -0.9020 C.3   1 <1>   0.1100 
 10 C       -3.5150    -1.7460     0.4090 C.3   1 <1>   0.1100 
 11 C        2.4560    -0.0690     1.4260 C.3   1 <1>  -0.1600 
 12 C        2.0030     1.0130     0.4370 C.3   1 <1>  -0.1600 
 13 C       -2.9210     1.0600    -0.0520 C.3   1 <1>   0.2090 
 14 C       -4.1360    -0.6570     1.3080 C.3   1 <1>   0.2090 
 15 N       -4.1870     0.6730     0.6350 N.pl3 1 <1>  -0.8380 
 16 C       -5.3970     1.0890     0.0800 C.ar  1 <1>   0.1000 
 17 C       -6.1590     2.0860     0.6900 C.ar  1 <1>  -0.1430 
 18 C       -5.8660     0.5130    -1.0970 C.ar  1 <1>  -0.1500 
 19 C       -7.3570     2.4860     0.1220 C.ar  1 <1>  -0.1500 
 20 C       -5.6790     2.7400     1.9780 C.3   1 <1>  -0.0970 
 21 C       -7.0620     0.9140    -1.6600 C.ar  1 <1>  -0.1500 
 22 C       -7.8110     1.9040    -1.0490 C.ar  1 <1>  -0.1500 
 23 H        0.1400    -1.0710     0.2660 H     1 <1>   0.3700 
 24 H       -1.6920    -3.3680    -0.4650 H     1 <1>   0.0800 
 25 H       -2.2060    -2.5250    -1.8950 H     1 <1>   0.0800 
 26 H        2.4550    -1.6880    -1.5390 H     1 <1>   0.0800 
 27 H        3.8180    -1.3460     0.3790 H     1 <1>   0.0800 
 28 H        2.4850    -2.2310     1.0800 H     1 <1>   0.0800 
 29 H        1.3290     0.7290    -1.6260 H     1 <1>   0.0800 
 30 H        3.0560     0.6120    -1.3830 H     1 <1>   0.0800 
 31 H       -2.9820    -0.2460    -1.7510 H     1 <1>   0.0800 
 32 H       -1.3800     0.2230    -1.2740 H     1 <1>   0.0800 
 33 H       -3.4030    -2.6430     0.9920 H     1 <1>   0.0800 
 34 H       -4.1950    -1.9580    -0.3960 H     1 <1>   0.0800 
 35 H        3.3260     0.2420     1.9790 H     1 <1>   0.0800 
 36 H        1.6610    -0.2810     2.1210 H     1 <1>   0.0800 
 37 H        0.9830     1.2870     0.6460 H     1 <1>   0.0800 
 38 H        2.6200     1.8930     0.5030 H     1 <1>   0.0800 
 39 H       -3.1040     1.9140    -0.6810 H     1 <1>   0.0800 
 40 H       -2.1980     1.3470     0.6910 H     1 <1>   0.0800 
 41 H       -3.5510    -0.5680     2.2060 H     1 <1>   0.0800 
 42 H       -5.1310    -0.9510     1.5910 H     1 <1>   0.0800 
 43 H       -5.2860    -0.2540    -1.5700 H     1 <1>   0.1500 
 44 H       -7.9470     3.2540     0.5890 H     1 <1>   0.1500 
 45 H       -5.5710     1.9920     2.7430 H     1 <1>   0.0800 
 46 H       -6.3710     3.4870     2.3190 H     1 <1>   0.0800 
 47 H       -4.7230     3.2020     1.8130 H     1 <1>   0.0800 
 48 H       -7.4100     0.4590    -2.5700 H     1 <1>   0.1500 
 49 H       -8.7430     2.2210    -1.4830 H     1 <1>   0.1500 
@<TRIPOS>BOND
  1   1   2  2   
  2   2   3  am  
  3   2   4  1   
  4   3   5  1   
  5   3  23  1   
  6   4   6  1   
  7   4  24  1   
  8   4  25  1   
  9   5   7  1   
 10   5   8  1   
 11   5  26  1   
 12   6   9  1   
 13   6  10  1   
 14   7  11  1   
 15   7  27  1   
 16   7  28  1   
 17   8  12  1   
 18   8  29  1   
 19   8  30  1   
 20   9  13  1   
 21   9  31  1   
 22   9  32  1   
 23  10  14  1   
 24  10  33  1   
 25  10  34  1   
 26  11  12  1   
 27  11  35  1   
 28  11  36  1   
 29  12  37  1   
 30  12  38  1   
 31  13  15  1   
 32  13  39  1   
 33  13  40  1   
 34  14  15  1   
 35  14  41  1   
 36  14  42  1   
 37  15  16  1   
 38  16  17  ar  
 39  16  18  ar  
 40  17  19  ar  
 41  17  20  1   
 42  18  21  ar  
 43  18  43  1   
 44  19  22  ar  
 45  19  44  1   
 46  20  45  1   
 47  20  46  1   
 48  20  47  1   
 49  21  22  ar  
 50  21  48  1   
 51  22  49  1   
@<TRIPOS>SUBSTRUCTURE
  1 ****   9 GROUP 4 **** **** 0

# MOE 2024.06 (io_trps.svl 2023.06)
