@<TRIPOS>MOLECULE
NONAME
41 42 1 0 0 
SMALL
USER_CHARGES


@<TRIPOS>ATOM
  1 CL      -0.1070     0.2130     0.1930 Cl    1 <1>  -0.1770 
  2 C       -1.5890    -0.7170     0.2320 C.ar  1 <1>   0.1770 
  3 C       -2.8280    -0.1010     0.0890 C.ar  1 <1>  -0.1440 
  4 C       -1.4650    -2.0820     0.4030 C.ar  1 <1>  -0.1500 
  5 C       -3.9760    -0.9010     0.1000 C.ar  1 <1>   0.1170 
  6 C       -2.9180     1.4180    -0.0780 C.3   1 <1>  -0.0960 
  7 C       -2.6010    -2.8670     0.4250 C.ar  1 <1>  -0.1500 
  8 N       -5.2410    -0.3150    -0.0940 N.am  1 <1>  -0.5470 
  9 C       -3.8410    -2.2780     0.2710 C.ar  1 <1>  -0.1500 
 10 C       -6.4680    -0.6990     0.3890 C.2   1 <1>   0.5690 
 11 O       -6.6310    -1.6440     1.1240 O.2   1 <1>  -0.5700 
 12 C       -7.7300     0.0900    -0.0060 C.3   1 <1>   0.4040 
 13 N       -9.0060    -0.7020     0.1770 N.4   1 <1>  -0.9590 
 14 C       -9.1170    -1.7890    -0.8400 C.3   1 <1>   0.3430 
 15 C      -10.1970     0.1830     0.2890 C.3   1 <1>   0.3430 
 16 C       -9.8690    -2.9780    -0.2430 C.3   1 <1>  -0.1600 
 17 C      -11.4410    -0.5740     0.7580 C.3   1 <1>  -0.1600 
 18 C      -11.4010    -2.9050    -0.3470 C.3   1 <1>  -0.1600 
 19 C      -12.0260    -1.5030    -0.3150 C.3   1 <1>  -0.1600 
 20 H       -0.4900    -2.5210     0.5160 H     1 <1>   0.1500 
 21 H       -2.0770     1.9120     0.3750 H     1 <1>   0.0800 
 22 H       -3.7950     1.8120     0.3990 H     1 <1>   0.0800 
 23 H       -2.9340     1.6720    -1.1230 H     1 <1>   0.0800 
 24 H       -2.5190    -3.9330     0.5600 H     1 <1>   0.1500 
 25 H       -5.1870     0.5550    -0.6220 H     1 <1>   0.3700 
 26 H       -4.7090    -2.9100     0.2810 H     1 <1>   0.1500 
 27 H       -7.6440     0.4070    -1.0300 H     1 <1>   0.0800 
 28 H       -7.7660     0.9670     0.6170 H     1 <1>   0.0800 
 29 H       -8.8780    -1.1940     1.0790 H     1 <1>   0.4500 
 30 H       -8.1280    -2.1280    -1.1060 H     1 <1>   0.0800 
 31 H       -9.6080    -1.4370    -1.7330 H     1 <1>   0.0800 
 32 H      -10.4000     0.6490    -0.6620 H     1 <1>   0.0800 
 33 H       -9.9910     0.9640     1.0040 H     1 <1>   0.0800 
 34 H       -9.5740    -3.1120     0.7840 H     1 <1>   0.0800 
 35 H       -9.5530    -3.8650    -0.7650 H     1 <1>   0.0800 
 36 H      -12.1890     0.1670     0.9840 H     1 <1>   0.0800 
 37 H      -11.2480    -1.1080     1.6730 H     1 <1>   0.0800 
 38 H      -11.8200    -3.4920     0.4540 H     1 <1>   0.0800 
 39 H      -11.7100    -3.3790    -1.2640 H     1 <1>   0.0800 
 40 H      -11.9410    -1.0410    -1.2840 H     1 <1>   0.0800 
 41 H      -13.0800    -1.6240    -0.1260 H     1 <1>   0.0800 
@<TRIPOS>BOND
  1   1   2  1   
  2   2   3  ar  
  3   2   4  ar  
  4   3   5  ar  
  5   3   6  1   
  6   4   7  ar  
  7   4  20  1   
  8   5   8  1   
  9   5   9  ar  
 10   6  21  1   
 11   6  22  1   
 12   6  23  1   
 13   7   9  ar  
 14   7  24  1   
 15   8  10  am  
 16   8  25  1   
 17   9  26  1   
 18  10  11  2   
 19  10  12  1   
 20  12  13  1   
 21  12  27  1   
 22  12  28  1   
 23  13  14  1   
 24  13  15  1   
 25  13  29  1   
 26  14  16  1   
 27  14  30  1   
 28  14  31  1   
 29  15  17  1   
 30  15  32  1   
 31  15  33  1   
 32  16  18  1   
 33  16  34  1   
 34  16  35  1   
 35  17  19  1   
 36  17  36  1   
 37  17  37  1   
 38  18  19  1   
 39  18  38  1   
 40  18  39  1   
 41  19  40  1   
 42  19  41  1   
@<TRIPOS>SUBSTRUCTURE
  1 ****  10 GROUP 4 **** **** 0

# MOE 2024.06 (io_trps.svl 2023.06)
