@<TRIPOS>MOLECULE
NONAME
30 30 1 0 0 
SMALL
USER_CHARGES


@<TRIPOS>ATOM
  1 CL      -0.5180    -0.8250    -1.1570 Cl    1 <1>  -0.1770 
  2 C       -1.6910     0.3310    -0.5650 C.ar  1 <1>   0.1770 
  3 C       -1.2890     1.4800     0.0950 C.ar  1 <1>   0.1900 
  4 C       -3.0360     0.0840    -0.7650 C.ar  1 <1>  -0.1500 
  5 F       -0.0160     1.7170     0.2850 F     1 <1>  -0.1900 
  6 C       -2.2120     2.3960     0.5610 C.ar  1 <1>  -0.1500 
  7 C       -3.9880     0.9890    -0.3020 C.ar  1 <1>   0.1170 
  8 C       -3.5590     2.1430     0.3560 C.ar  1 <1>  -0.1500 
  9 N       -5.3440     0.7170    -0.5310 N.am  1 <1>  -0.5470 
 10 C       -6.4460     1.0740     0.1880 C.2   1 <1>   0.6900 
 11 O       -6.3460     1.6250     1.2660 O.2   1 <1>  -0.5700 
 12 N       -7.6540     0.7750    -0.3540 N.am  1 <1>  -0.7300 
 13 C       -8.9910     1.0040     0.2050 C.3   1 <1>   0.3000 
 14 C       -9.1420     0.2520     1.5280 C.3   1 <1>  -0.2400 
 15 C       -9.2320     2.5030     0.3810 C.3   1 <1>  -0.2400 
 16 C       -9.9840     0.4450    -0.8130 C.3   1 <1>  -0.2400 
 17 H       -3.3350    -0.8120    -1.2740 H     1 <1>   0.1500 
 18 H       -1.8840     3.2840     1.0720 H     1 <1>   0.1500 
 19 H       -4.2850     2.8530     0.7130 H     1 <1>   0.1500 
 20 H       -5.5400     0.0440    -1.2630 H     1 <1>   0.3700 
 21 H       -7.6810     0.4880    -1.3260 H     1 <1>   0.3700 
 22 H       -8.4820     0.6560     2.2740 H     1 <1>   0.0800 
 23 H       -8.9210    -0.7920     1.3960 H     1 <1>   0.0800 
 24 H      -10.1480     0.3450     1.8940 H     1 <1>   0.0800 
 25 H       -8.5660     2.9100     1.1200 H     1 <1>   0.0800 
 26 H      -10.2380     2.6800     0.7130 H     1 <1>   0.0800 
 27 H       -9.0820     3.0230    -0.5480 H     1 <1>   0.0800 
 28 H       -9.8210    -0.6080    -0.9620 H     1 <1>   0.0800 
 29 H       -9.8950     0.9570    -1.7540 H     1 <1>   0.0800 
 30 H      -10.9900     0.5780    -0.4560 H     1 <1>   0.0800 
@<TRIPOS>BOND
  1   1   2  1   
  2   2   3  ar  
  3   2   4  ar  
  4   3   5  1   
  5   3   6  ar  
  6   4   7  ar  
  7   4  17  1   
  8   6   8  ar  
  9   6  18  1   
 10   7   8  ar  
 11   7   9  1   
 12   8  19  1   
 13   9  10  am  
 14   9  20  1   
 15  10  11  2   
 16  10  12  am  
 17  12  13  1   
 18  12  21  1   
 19  13  14  1   
 20  13  15  1   
 21  13  16  1   
 22  14  22  1   
 23  14  23  1   
 24  14  24  1   
 25  15  25  1   
 26  15  26  1   
 27  15  27  1   
 28  16  28  1   
 29  16  29  1   
 30  16  30  1   
@<TRIPOS>SUBSTRUCTURE
  1 ****   9 GROUP 4 **** **** 0

# MOE 2024.06 (io_trps.svl 2023.06)
