@<TRIPOS>MOLECULE
NONAME
45 46 1 0 0 
SMALL
USER_CHARGES


@<TRIPOS>ATOM
  1 O        1.9370     1.0650     0.6380 O.2   1 <1>  -0.5700 
  2 C        1.2800     1.8160    -0.0550 C.2   1 <1>   0.5440 
  3 N        1.6510     1.9540    -1.3640 N.am  1 <1>  -0.7300 
  4 C        0.1790     2.5860     0.4840 C.ar  1 <1>   0.0860 
  5 C        2.3660     0.9050    -2.1380 C.3   1 <1>   0.1400 
  6 C       -1.0370     1.9990     0.8520 C.ar  1 <1>  -0.1430 
  7 C        0.3140     3.9650     0.6400 C.ar  1 <1>  -0.1500 
  8 C        3.8320     1.2750    -2.4130 C.3   1 <1>  -0.1600 
  9 C       -2.0670     2.7810     1.3470 C.ar  1 <1>  -0.1500 
 10 C       -1.2470     0.4960     0.7170 C.3   1 <1>  -0.0970 
 11 C       -0.7170     4.7390     1.1350 C.ar  1 <1>  -0.1500 
 12 C        4.7350     1.2290    -1.1730 C.3   1 <1>   0.3430 
 13 C       -1.9170     4.1490     1.4910 C.ar  1 <1>  -0.1430 
 14 N        4.3860     2.3270    -0.2500 N.4   1 <1>  -0.9590 
 15 C       -3.0560     4.9920     2.0360 C.3   1 <1>  -0.0970 
 16 C        4.8060     3.7000    -0.6850 C.3   1 <1>   0.3430 
 17 C        4.7230     2.0660     1.1830 C.3   1 <1>   0.3430 
 18 C        4.6350     4.7420     0.4420 C.3   1 <1>   0.1200 
 19 C        4.0820     3.1440     2.0930 C.3   1 <1>   0.1200 
 20 O        3.6980     4.2970     1.3810 O.3   1 <1>  -0.5600 
 21 H        1.0520     2.5620    -1.9360 H     1 <1>   0.3700 
 22 H        1.8540     0.7660    -3.0760 H     1 <1>   0.0800 
 23 H        2.3200    -0.0330    -1.6060 H     1 <1>   0.0800 
 24 H        1.2430     4.4390     0.3790 H     1 <1>   0.1500 
 25 H        3.8920     2.2270    -2.9080 H     1 <1>   0.0800 
 26 H        4.2150     0.5450    -3.1040 H     1 <1>   0.0800 
 27 H       -3.0010     2.3250     1.6270 H     1 <1>   0.1500 
 28 H       -1.0980     0.1880    -0.3030 H     1 <1>   0.0800 
 29 H       -2.2420     0.2150     1.0120 H     1 <1>   0.0800 
 30 H       -0.5490    -0.0300     1.3440 H     1 <1>   0.0800 
 31 H       -0.5840     5.8010     1.2450 H     1 <1>   0.1500 
 32 H        5.7700     1.3080    -1.4620 H     1 <1>   0.0800 
 33 H        4.5910     0.2820    -0.6770 H     1 <1>   0.0800 
 34 H        3.3450     2.3280    -0.2380 H     1 <1>   0.4500 
 35 H       -3.6130     4.4390     2.7700 H     1 <1>   0.0800 
 36 H       -3.7170     5.2710     1.2350 H     1 <1>   0.0800 
 37 H       -2.6780     5.8840     2.5010 H     1 <1>   0.0800 
 38 H        4.2100     4.0030    -1.5300 H     1 <1>   0.0800 
 39 H        5.8370     3.6930    -0.9980 H     1 <1>   0.0800 
 40 H        5.7910     2.0740     1.3170 H     1 <1>   0.0800 
 41 H        4.3550     1.0970     1.4810 H     1 <1>   0.0800 
 42 H        4.2880     5.6770     0.0380 H     1 <1>   0.0800 
 43 H        5.5690     4.9170     0.9480 H     1 <1>   0.0800 
 44 H        4.7650     3.4320     2.8730 H     1 <1>   0.0800 
 45 H        3.1950     2.7450     2.5550 H     1 <1>   0.0800 
@<TRIPOS>BOND
  1   1   2  2   
  2   2   3  am  
  3   2   4  1   
  4   3   5  1   
  5   3  21  1   
  6   4   6  ar  
  7   4   7  ar  
  8   5   8  1   
  9   5  22  1   
 10   5  23  1   
 11   6   9  ar  
 12   6  10  1   
 13   7  11  ar  
 14   7  24  1   
 15   8  12  1   
 16   8  25  1   
 17   8  26  1   
 18   9  13  ar  
 19   9  27  1   
 20  10  28  1   
 21  10  29  1   
 22  10  30  1   
 23  11  13  ar  
 24  11  31  1   
 25  12  14  1   
 26  12  32  1   
 27  12  33  1   
 28  13  15  1   
 29  14  16  1   
 30  14  17  1   
 31  14  34  1   
 32  15  35  1   
 33  15  36  1   
 34  15  37  1   
 35  16  18  1   
 36  16  38  1   
 37  16  39  1   
 38  17  19  1   
 39  17  40  1   
 40  17  41  1   
 41  18  20  1   
 42  18  42  1   
 43  18  43  1   
 44  19  20  1   
 45  19  44  1   
 46  19  45  1   
@<TRIPOS>SUBSTRUCTURE
  1 ****   2 GROUP 4 **** **** 0

# MOE 2024.06 (io_trps.svl 2023.06)
