@<TRIPOS>MOLECULE
NONAME
44 46 1 0 0 
SMALL
USER_CHARGES


@<TRIPOS>ATOM
  1 BR      -0.8350     0.5230     0.6160 Br    1 <1>  -0.1110 
  2 C       -2.1730    -0.7870     0.1420 C.ar  1 <1>   0.1110 
  3 C       -1.8460    -2.1360     0.1490 C.ar  1 <1>   0.0820 
  4 C       -3.4270    -0.3190    -0.1910 C.ar  1 <1>  -0.1500 
  5 O       -0.5680    -2.4700     0.5000 O.3   1 <1>  -0.3630 
  6 C       -2.8550    -3.0470    -0.1960 C.ar  1 <1>   0.0830 
  7 C       -4.4320    -1.2130    -0.5430 C.ar  1 <1>   0.0280 
  8 C        0.0860    -3.5550    -0.1210 C.3   1 <1>   0.0400 
  9 O       -2.6130    -4.3890    -0.1590 O.3   1 <1>  -0.3630 
 10 C       -4.1110    -2.5680    -0.5600 C.ar  1 <1>  -0.1500 
 11 C       -5.7400    -0.7180    -0.8770 C.2   1 <1>  -0.1780 
 12 C       -3.6610    -5.2950     0.1080 C.3   1 <1>   0.1200 
 13 C       -6.9580    -1.1000    -0.4310 C.2   1 <1>  -0.0380 
 14 C       -3.0390    -6.6420     0.4600 C.3   1 <1>  -0.2400 
 15 N       -8.1140    -0.4150    -0.8100 N.pl3 1 <1>  -0.8380 
 16 C       -7.2260    -2.2010     0.6190 C.3   1 <1>   0.3380 
 17 C       -9.2250    -1.3180    -1.2490 C.3   1 <1>   0.2090 
 18 C       -8.6060     0.4070     0.3390 C.3   1 <1>   0.2090 
 19 O       -7.1260    -3.4390     0.0100 O.3   1 <1>  -0.6800 
 20 C       -8.6810    -2.0110     1.1300 C.3   1 <1>  -0.0800 
 21 C       -9.6620    -2.2030    -0.0560 C.3   1 <1>  -0.1600 
 22 C       -8.8290    -0.5280     1.5570 C.3   1 <1>  -0.1600 
 23 H       -3.6270     0.7370    -0.1750 H     1 <1>   0.1500 
 24 H        1.1460    -3.4140    -0.0120 H     1 <1>   0.0800 
 25 H       -0.1790    -3.5770    -1.1630 H     1 <1>   0.0800 
 26 H       -0.2110    -4.4650     0.3680 H     1 <1>   0.0800 
 27 H       -4.8690    -3.2510    -0.8810 H     1 <1>   0.1500 
 28 H       -5.7160     0.1060    -1.5670 H     1 <1>   0.1500 
 29 H       -4.2430    -4.9160     0.9320 H     1 <1>   0.0800 
 30 H       -4.2750    -5.3790    -0.7710 H     1 <1>   0.0800 
 31 H       -2.4170    -6.5430     1.3320 H     1 <1>   0.0800 
 32 H       -2.4510    -7.0050    -0.3630 H     1 <1>   0.0800 
 33 H       -3.8150    -7.3550     0.6710 H     1 <1>   0.0800 
 34 H       -6.5120    -2.1570     1.4230 H     1 <1>   0.0800 
 35 H      -10.0520    -0.7310    -1.6110 H     1 <1>   0.0800 
 36 H       -8.8720    -1.9330    -2.0600 H     1 <1>   0.0800 
 37 H       -7.8760     1.1640     0.5750 H     1 <1>   0.0800 
 38 H       -9.5240     0.8980     0.0660 H     1 <1>   0.0800 
 39 H       -7.4820    -3.3270    -0.8910 H     1 <1>   0.4000 
 40 H       -8.8940    -2.6760     1.9480 H     1 <1>   0.0800 
 41 H      -10.6590    -1.9320     0.2420 H     1 <1>   0.0800 
 42 H       -9.6960    -3.2330    -0.3630 H     1 <1>   0.0800 
 43 H       -8.1070    -0.2930     2.3190 H     1 <1>   0.0800 
 44 H       -9.8050    -0.3480     1.9710 H     1 <1>   0.0800 
@<TRIPOS>BOND
  1   1   2  1   
  2   2   3  ar  
  3   2   4  ar  
  4   3   5  1   
  5   3   6  ar  
  6   4   7  ar  
  7   4  23  1   
  8   5   8  1   
  9   6   9  1   
 10   6  10  ar  
 11   7  10  ar  
 12   7  11  1   
 13   8  24  1   
 14   8  25  1   
 15   8  26  1   
 16   9  12  1   
 17  10  27  1   
 18  11  13  2   
 19  11  28  1   
 20  12  14  1   
 21  12  29  1   
 22  12  30  1   
 23  13  15  1   
 24  13  16  1   
 25  14  31  1   
 26  14  32  1   
 27  14  33  1   
 28  15  17  1   
 29  15  18  1   
 30  16  19  1   
 31  16  20  1   
 32  16  34  1   
 33  17  21  1   
 34  17  35  1   
 35  17  36  1   
 36  18  22  1   
 37  18  37  1   
 38  18  38  1   
 39  19  39  1   
 40  20  21  1   
 41  20  22  1   
 42  20  40  1   
 43  21  41  1   
 44  21  42  1   
 45  22  43  1   
 46  22  44  1   
@<TRIPOS>SUBSTRUCTURE
  1 ****   7 GROUP 4 **** **** 0

# MOE 2024.06 (io_trps.svl 2023.06)
