@<TRIPOS>MOLECULE
NONAME
50 51 1 0 0 
SMALL
USER_CHARGES


@<TRIPOS>ATOM
  1 O       -9.8430     3.5390    -0.3440 O.3   1 <1>  -0.3630 
  2 C       -8.4900     3.6290    -0.4010 C.ar  1 <1>   0.0830 
  3 C      -10.4820     2.3160    -0.0620 C.3   1 <1>   0.1200 
  4 C       -7.6310     2.5540    -0.1970 C.ar  1 <1>  -0.1500 
  5 C       -7.9610     4.8790    -0.6810 C.ar  1 <1>  -0.1500 
  6 C      -11.9910     2.5620    -0.0660 C.3   1 <1>  -0.1600 
  7 C       -6.2590     2.7290    -0.2720 C.ar  1 <1>   0.0830 
  8 C       -6.5910     5.0600    -0.7570 C.ar  1 <1>  -0.1500 
  9 C      -12.7580     1.2830     0.2780 C.3   1 <1>   0.1100 
 10 O       -5.4940     1.6280    -0.0600 O.3   1 <1>  -0.3630 
 11 C       -5.7380     3.9900    -0.5530 C.ar  1 <1>  -0.1500 
 12 N      -14.2060     1.4780     0.0900 N.3   1 <1>  -0.8100 
 13 C       -4.0870     1.6930    -0.1120 C.3   1 <1>   0.1200 
 14 C      -14.9180     0.1790     0.0250 C.3   1 <1>   0.1100 
 15 C      -14.8130     2.3460     1.1330 C.3   1 <1>   0.1100 
 16 C       -3.5330     0.2960     0.1680 C.3   1 <1>  -0.1600 
 17 C      -16.4350     0.3510    -0.2430 C.3   1 <1>   0.3430 
 18 C      -16.3470     2.4920     0.9700 C.3   1 <1>   0.3430 
 19 C       -2.0010     0.2840     0.1280 C.3   1 <1>  -0.2400 
 20 N      -16.8210     1.8000    -0.2730 N.4   1 <1>  -0.9590 
 21 C      -18.2620     2.0290    -0.5750 C.3   1 <1>   0.2630 
 22 H      -10.1500     1.9770     0.9040 H     1 <1>   0.0800 
 23 H      -10.2060     1.6060    -0.8240 H     1 <1>   0.0800 
 24 H       -7.9970     1.5700     0.0200 H     1 <1>   0.1500 
 25 H       -8.6290     5.7060    -0.8380 H     1 <1>   0.1500 
 26 H      -12.2820     2.8980    -1.0460 H     1 <1>   0.0800 
 27 H      -12.2060     3.3290     0.6550 H     1 <1>   0.0800 
 28 H       -6.1920     6.0360    -0.9740 H     1 <1>   0.1500 
 29 H      -12.5480     0.9790     1.2910 H     1 <1>   0.0800 
 30 H      -12.4200     0.5020    -0.3840 H     1 <1>   0.0800 
 31 H       -4.6800     4.1570    -0.6170 H     1 <1>   0.1500 
 32 H       -3.7510     2.3920     0.6340 H     1 <1>   0.0800 
 33 H       -3.7990     2.0260    -1.0950 H     1 <1>   0.0800 
 34 H      -14.7810    -0.3590     0.9490 H     1 <1>   0.0800 
 35 H      -14.4970    -0.4230    -0.7630 H     1 <1>   0.0800 
 36 H      -14.3780     3.3290     1.0820 H     1 <1>   0.0800 
 37 H      -14.6000     1.9510     2.1120 H     1 <1>   0.0800 
 38 H       -3.9130    -0.3890    -0.5700 H     1 <1>   0.0800 
 39 H       -3.8650    -0.0270     1.1400 H     1 <1>   0.0800 
 40 H      -16.9900    -0.1660     0.5220 H     1 <1>   0.0800 
 41 H      -16.6740    -0.1090    -1.1880 H     1 <1>   0.0800 
 42 H      -16.5950     3.5400     0.9270 H     1 <1>   0.0800 
 43 H      -16.8370     2.0730     1.8330 H     1 <1>   0.0800 
 44 H       -1.6470     0.5880    -0.8410 H     1 <1>   0.0800 
 45 H       -1.6370    -0.7090     0.3280 H     1 <1>   0.0800 
 46 H       -1.5990     0.9500     0.8710 H     1 <1>   0.0800 
 47 H      -16.2190     2.1970    -1.0150 H     1 <1>   0.4500 
 48 H      -18.8790     1.6130     0.2050 H     1 <1>   0.0800 
 49 H      -18.5260     1.5640    -1.5110 H     1 <1>   0.0800 
 50 H      -18.4650     3.0850    -0.6500 H     1 <1>   0.0800 
@<TRIPOS>BOND
  1   1   2  1   
  2   1   3  1   
  3   2   4  ar  
  4   2   5  ar  
  5   3   6  1   
  6   3  22  1   
  7   3  23  1   
  8   4   7  ar  
  9   4  24  1   
 10   5   8  ar  
 11   5  25  1   
 12   6   9  1   
 13   6  26  1   
 14   6  27  1   
 15   7  10  1   
 16   7  11  ar  
 17   8  11  ar  
 18   8  28  1   
 19   9  12  1   
 20   9  29  1   
 21   9  30  1   
 22  10  13  1   
 23  11  31  1   
 24  12  14  1   
 25  12  15  1   
 26  13  16  1   
 27  13  32  1   
 28  13  33  1   
 29  14  17  1   
 30  14  34  1   
 31  14  35  1   
 32  15  18  1   
 33  15  36  1   
 34  15  37  1   
 35  16  19  1   
 36  16  38  1   
 37  16  39  1   
 38  17  20  1   
 39  17  40  1   
 40  17  41  1   
 41  18  20  1   
 42  18  42  1   
 43  18  43  1   
 44  19  44  1   
 45  19  45  1   
 46  19  46  1   
 47  20  21  1   
 48  20  47  1   
 49  21  48  1   
 50  21  49  1   
 51  21  50  1   
@<TRIPOS>SUBSTRUCTURE
  1 ****   3 GROUP 4 **** **** 0

# MOE 2024.06 (io_trps.svl 2023.06)
