@<TRIPOS>MOLECULE
NONAME
47 50 1 0 0 
SMALL
USER_CHARGES


@<TRIPOS>ATOM
  1 N        0.0770    -0.0210     0.2230 N.3   1 <1>  -0.8100 
  2 C        0.2610     0.8330    -0.9800 C.3   1 <1>   0.1100 
  3 C       -1.2090    -0.7500     0.1550 C.3   1 <1>   0.1100 
  4 C        1.2180    -0.9360     0.4350 C.3   1 <1>   0.2540 
  5 C       -0.9560     1.7520    -1.2490 C.3   1 <1>   0.3430 
  6 C       -2.4160     0.2100    -0.0010 C.3   1 <1>   0.3430 
  7 C        2.5120    -0.1530     0.5970 C.ar  1 <1>  -0.1440 
  8 N       -1.9690     1.6370    -0.1500 N.4   1 <1>  -0.9590 
  9 C        3.5420    -0.2960    -0.3250 C.ar  1 <1>  -0.1500 
 10 C        2.6680     0.7170     1.6700 C.ar  1 <1>  -0.1500 
 11 C       -3.0650     2.6290    -0.2670 C.3   1 <1>   0.3430 
 12 C        4.7020     0.4360    -0.1610 C.ar  1 <1>  -0.1440 
 13 C        3.8340     1.4470     1.8270 C.ar  1 <1>  -0.1500 
 14 C       -3.8260     2.7130     1.0500 C.3   1 <1>  -0.2400 
 15 C        4.8580     1.3060     0.9020 C.ar  1 <1>   0.0000 
 16 C        5.9500     0.4420    -1.0320 C.3   1 <1>   0.1270 
 17 C        6.1480     1.9290     0.8210 C.ar  1 <1>   0.0000 
 18 C        6.8150     1.4520    -0.2940 C.ar  1 <1>  -0.1440 
 19 C        6.7630     2.8650     1.6410 C.ar  1 <1>  -0.1500 
 20 C        8.0860     1.8910    -0.6110 C.ar  1 <1>  -0.1500 
 21 C        8.0370     3.3110     1.3310 C.ar  1 <1>  -0.1500 
 22 C        8.6970     2.8260     0.2100 C.ar  1 <1>  -0.1500 
 23 H        0.4380     0.2180    -1.8470 H     1 <1>   0.0800 
 24 H        1.1280     1.4580    -0.8480 H     1 <1>   0.0800 
 25 H       -1.3410    -1.3280     1.0550 H     1 <1>   0.0800 
 26 H       -1.1960    -1.4390    -0.6730 H     1 <1>   0.0800 
 27 H        1.3010    -1.6210    -0.3920 H     1 <1>   0.0800 
 28 H        1.0530    -1.5130     1.3300 H     1 <1>   0.0800 
 29 H       -1.4030     1.4810    -2.1900 H     1 <1>   0.0800 
 30 H       -0.6100     2.7690    -1.3290 H     1 <1>   0.0800 
 31 H       -3.0440     0.1130     0.8690 H     1 <1>   0.0800 
 32 H       -2.9970    -0.0880    -0.8580 H     1 <1>   0.0800 
 33 H       -1.4180     1.8160     0.7050 H     1 <1>   0.4500 
 34 H        3.4470    -0.9680    -1.1600 H     1 <1>   0.1500 
 35 H        1.8720     0.8270     2.3850 H     1 <1>   0.1500 
 36 H       -3.7340     2.3530    -1.0670 H     1 <1>   0.0800 
 37 H       -2.6510     3.5990    -0.4920 H     1 <1>   0.0800 
 38 H        3.9530     2.1190     2.6580 H     1 <1>   0.1500 
 39 H       -4.3440     1.7970     1.2660 H     1 <1>   0.0800 
 40 H       -4.5630     3.4940     0.9800 H     1 <1>   0.0800 
 41 H       -3.1620     2.9560     1.8610 H     1 <1>   0.0800 
 42 H        5.7270     0.7790    -2.0280 H     1 <1>   0.0800 
 43 H        6.4160    -0.5260    -1.0490 H     1 <1>   0.0800 
 44 H        6.2480     3.2370     2.5070 H     1 <1>   0.1500 
 45 H        8.5960     1.5140    -1.4800 H     1 <1>   0.1500 
 46 H        8.5190     4.0370     1.9620 H     1 <1>   0.1500 
 47 H        9.6870     3.1780    -0.0230 H     1 <1>   0.1500 
@<TRIPOS>BOND
  1   1   2  1   
  2   1   3  1   
  3   1   4  1   
  4   2   5  1   
  5   2  23  1   
  6   2  24  1   
  7   3   6  1   
  8   3  25  1   
  9   3  26  1   
 10   4   7  1   
 11   4  27  1   
 12   4  28  1   
 13   5   8  1   
 14   5  29  1   
 15   5  30  1   
 16   6   8  1   
 17   6  31  1   
 18   6  32  1   
 19   7   9  ar  
 20   7  10  ar  
 21   8  11  1   
 22   8  33  1   
 23   9  12  ar  
 24   9  34  1   
 25  10  13  ar  
 26  10  35  1   
 27  11  14  1   
 28  11  36  1   
 29  11  37  1   
 30  12  15  ar  
 31  12  16  1   
 32  13  15  ar  
 33  13  38  1   
 34  14  39  1   
 35  14  40  1   
 36  14  41  1   
 37  15  17  1   
 38  16  18  1   
 39  16  42  1   
 40  16  43  1   
 41  17  18  ar  
 42  17  19  ar  
 43  18  20  ar  
 44  19  21  ar  
 45  19  44  1   
 46  20  22  ar  
 47  20  45  1   
 48  21  22  ar  
 49  21  46  1   
 50  22  47  1   
@<TRIPOS>SUBSTRUCTURE
  1 ****   7 GROUP 4 **** **** 0

# MOE 2024.06 (io_trps.svl 2023.06)
