@<TRIPOS>MOLECULE
NONAME
29 30 1 0 0 
SMALL
USER_CHARGES


@<TRIPOS>ATOM
  1 CL      -1.6510     0.9830     1.8950 Cl    1 <1>  -0.1770 
  2 C       -0.7780     2.1860     0.9760 C.ar  1 <1>   0.1770 
  3 C       -1.2390     2.5610    -0.2780 C.ar  1 <1>  -0.1440 
  4 C        0.3550     2.7510     1.5290 C.ar  1 <1>  -0.1500 
  5 C       -0.5350     3.5250    -0.9860 C.ar  1 <1>  -0.1500 
  6 C       -2.4860     1.9260    -0.8610 C.3   1 <1>   0.4870 
  7 C        1.0470     3.7140     0.8170 C.ar  1 <1>  -0.1500 
  8 C        0.6010     4.0990    -0.4370 C.ar  1 <1>  -0.1500 
  9 N       -3.6720     2.3620    -0.0750 N.4   1 <1>  -0.9590 
 10 C       -4.9200     1.6390    -0.4930 C.3   1 <1>   0.3430 
 11 C       -3.8690     3.8540    -0.1160 C.3   1 <1>   0.3430 
 12 C       -6.1540     2.1650     0.2660 C.3   1 <1>   0.1200 
 13 C       -5.1550     4.2710     0.6220 C.3   1 <1>   0.1200 
 14 O       -6.2500     3.5540     0.1290 O.3   1 <1>  -0.5600 
 15 H        0.6930     2.4420     2.5030 H     1 <1>   0.1500 
 16 H       -0.8520     3.8400    -1.9660 H     1 <1>   0.1500 
 17 H       -2.3880     0.8530    -0.8160 H     1 <1>   0.0800 
 18 H       -2.5970     2.2150    -1.8930 H     1 <1>   0.0800 
 19 H        1.9330     4.1630     1.2350 H     1 <1>   0.1500 
 20 H        1.1480     4.8470    -0.9880 H     1 <1>   0.1500 
 21 H       -3.4740     2.1080     0.9050 H     1 <1>   0.4500 
 22 H       -4.8160     0.5820    -0.3110 H     1 <1>   0.0800 
 23 H       -5.0890     1.7810    -1.5480 H     1 <1>   0.0800 
 24 H       -3.9440     4.1850    -1.1390 H     1 <1>   0.0800 
 25 H       -3.0250     4.3520     0.3320 H     1 <1>   0.0800 
 26 H       -6.1020     1.9220     1.3140 H     1 <1>   0.0800 
 27 H       -7.0520     1.7340    -0.1410 H     1 <1>   0.0800 
 28 H       -5.3520     5.3180     0.4630 H     1 <1>   0.0800 
 29 H       -5.0720     4.0960     1.6810 H     1 <1>   0.0800 
@<TRIPOS>BOND
  1   1   2  1   
  2   2   3  ar  
  3   2   4  ar  
  4   3   5  ar  
  5   3   6  1   
  6   4   7  ar  
  7   4  15  1   
  8   5   8  ar  
  9   5  16  1   
 10   6   9  1   
 11   6  17  1   
 12   6  18  1   
 13   7   8  ar  
 14   7  19  1   
 15   8  20  1   
 16   9  10  1   
 17   9  11  1   
 18   9  21  1   
 19  10  12  1   
 20  10  22  1   
 21  10  23  1   
 22  11  13  1   
 23  11  24  1   
 24  11  25  1   
 25  12  14  1   
 26  12  26  1   
 27  12  27  1   
 28  13  14  1   
 29  13  28  1   
 30  13  29  1   
@<TRIPOS>SUBSTRUCTURE
  1 ****   9 GROUP 4 **** **** 0

# MOE 2024.06 (io_trps.svl 2023.06)
