@<TRIPOS>MOLECULE
NONAME
46 48 1 0 0 
SMALL
USER_CHARGES


@<TRIPOS>ATOM
  1 O       -1.1300     1.4030    -2.1630 O.2   1 <1>  -0.5700 
  2 C       -1.0260     2.2780    -1.3190 C.2   1 <1>   0.7150 
  3 N       -2.1890     2.8660    -0.8590 N.am  1 <1>  -0.6600 
  4 C        0.2990     2.6400    -0.8530 C.2   1 <1>   0.0550 
  5 C       -3.5080     2.1750    -0.9400 C.3   1 <1>   0.1400 
  6 C       -2.2750     4.1790    -0.1580 C.3   1 <1>   0.1400 
  7 O        0.5190     3.1890     0.3410 O.3   1 <1>  -0.2800 
  8 C        1.5020     2.4750    -1.4710 C.2   1 <1>  -0.1500 
  9 C       -4.1210     2.0400     0.4660 C.3   1 <1>   0.1100 
 10 C       -2.8850     3.9880     1.2400 C.3   1 <1>   0.1100 
 11 C        1.8110     3.3810     0.4920 C.2   1 <1>  -0.0100 
 12 C        2.4800     2.9590    -0.6010 C.2   1 <1>  -0.1500 
 13 N       -4.2180     3.3490     1.1640 N.3   1 <1>  -0.8100 
 14 C       -4.7950     3.1760     2.5320 C.3   1 <1>   0.1710 
 15 C       -6.2990     2.8940     2.5390 C.2   1 <1>   0.5690 
 16 O       -6.7820     2.3110     3.4790 O.2   1 <1>  -0.5700 
 17 N       -6.9990     3.3290     1.4490 N.am  1 <1>  -0.5470 
 18 C       -8.3520     3.2700     1.0860 C.ar  1 <1>   0.1170 
 19 C       -8.7070     3.6420    -0.2040 C.ar  1 <1>  -0.1500 
 20 C       -9.3600     2.8630     1.9560 C.ar  1 <1>  -0.1500 
 21 C      -10.0240     3.6100    -0.6270 C.ar  1 <1>   0.0820 
 22 C      -10.6800     2.8260     1.5440 C.ar  1 <1>  -0.1500 
 23 O      -10.2620     3.9930    -1.9070 O.3   1 <1>  -0.3630 
 24 C      -11.0180     3.1980     0.2550 C.ar  1 <1>  -0.1500 
 25 C      -11.5710     4.0140    -2.4320 C.3   1 <1>   0.0400 
 26 H       -3.3990     1.1950    -1.3720 H     1 <1>   0.0800 
 27 H       -4.1700     2.7430    -1.5690 H     1 <1>   0.0800 
 28 H       -2.9090     4.8370    -0.7260 H     1 <1>   0.0800 
 29 H       -1.3130     4.6480    -0.0830 H     1 <1>   0.0800 
 30 H        1.6780     2.0470    -2.4430 H     1 <1>   0.1500 
 31 H       -3.5110     1.3630     1.0420 H     1 <1>   0.0800 
 32 H       -5.1000     1.6010     0.3730 H     1 <1>   0.0800 
 33 H       -2.9770     4.9520     1.7100 H     1 <1>   0.0800 
 34 H       -2.2170     3.3860     1.8340 H     1 <1>   0.0800 
 35 H        2.1750     3.8210     1.4040 H     1 <1>   0.1500 
 36 H        3.5390     2.9760    -0.7910 H     1 <1>   0.1500 
 37 H       -4.6470     4.0800     3.0970 H     1 <1>   0.0800 
 38 H       -4.2890     2.3800     3.0490 H     1 <1>   0.0800 
 39 H       -6.3660     3.7280     0.7500 H     1 <1>   0.3700 
 40 H       -7.9530     3.9620    -0.8970 H     1 <1>   0.1500 
 41 H       -9.1200     2.5730     2.9620 H     1 <1>   0.1500 
 42 H      -11.4440     2.5080     2.2320 H     1 <1>   0.1500 
 43 H      -12.0500     3.1610    -0.0390 H     1 <1>   0.1500 
 44 H      -11.5170     4.3540    -3.4500 H     1 <1>   0.0800 
 45 H      -12.1680     4.6940    -1.8510 H     1 <1>   0.0800 
 46 H      -11.9760     3.0190    -2.4000 H     1 <1>   0.0800 
@<TRIPOS>BOND
  1   1   2  2   
  2   2   3  am  
  3   2   4  1   
  4   3   5  1   
  5   3   6  1   
  6   4   7  1   
  7   4   8  2   
  8   5   9  1   
  9   5  26  1   
 10   5  27  1   
 11   6  10  1   
 12   6  28  1   
 13   6  29  1   
 14   7  11  1   
 15   8  12  1   
 16   8  30  1   
 17   9  13  1   
 18   9  31  1   
 19   9  32  1   
 20  10  13  1   
 21  10  33  1   
 22  10  34  1   
 23  11  12  2   
 24  11  35  1   
 25  12  36  1   
 26  13  14  1   
 27  14  15  1   
 28  14  37  1   
 29  14  38  1   
 30  15  16  2   
 31  15  17  am  
 32  17  18  1   
 33  17  39  1   
 34  18  19  ar  
 35  18  20  ar  
 36  19  21  ar  
 37  19  40  1   
 38  20  22  ar  
 39  20  41  1   
 40  21  23  1   
 41  21  24  ar  
 42  22  24  ar  
 43  22  42  1   
 44  23  25  1   
 45  24  43  1   
 46  25  44  1   
 47  25  45  1   
 48  25  46  1   
@<TRIPOS>SUBSTRUCTURE
  1 ****  13 GROUP 4 **** **** 0

# MOE 2024.06 (io_trps.svl 2023.06)
