@<TRIPOS>MOLECULE
NONAME
48 49 1 0 0 
SMALL
USER_CHARGES


@<TRIPOS>ATOM
  1 BR      -0.9320    -0.1840    -2.3800 Br    1 <1>  -0.1110 
  2 C       -2.0240    -0.8860    -0.9530 C.ar  1 <1>   0.1110 
  3 C       -1.6250    -2.0250    -0.2710 C.ar  1 <1>   0.0830 
  4 C       -3.1910    -0.2060    -0.6560 C.ar  1 <1>  -0.1500 
  5 O       -0.4400    -2.6070    -0.5920 O.3   1 <1>  -0.3630 
  6 C       -2.4750    -2.5180     0.7260 C.ar  1 <1>   0.0830 
  7 C       -4.0090    -0.6820     0.3600 C.ar  1 <1>  -0.1440 
  8 C        0.5700    -2.6480     0.4020 C.3   1 <1>   0.2000 
  9 O       -2.2350    -3.6570     1.4210 O.3   1 <1>  -0.3630 
 10 C       -3.6400    -1.8340     1.0440 C.ar  1 <1>  -0.1500 
 11 C       -5.2930     0.0340     0.7120 C.3   1 <1>   0.4870 
 12 C        1.2950    -1.3050     0.4540 C.3   1 <1>  -0.1600 
 13 C        1.6480    -3.6160    -0.0700 C.3   1 <1>  -0.1600 
 14 C       -2.1120    -4.8580     0.6870 C.3   1 <1>   0.0400 
 15 N       -6.3590    -0.5880    -0.0980 N.4   1 <1>  -0.9060 
 16 C        2.3310    -1.3420    -0.6760 C.3   1 <1>  -0.1600 
 17 C        2.4960    -2.8180    -1.0630 C.3   1 <1>  -0.1600 
 18 C       -7.6990     0.0120     0.1130 C.3   1 <1>   0.3430 
 19 C       -8.7360    -0.6760    -0.7880 C.3   1 <1>  -0.0800 
 20 C       -8.3880    -0.5700    -2.2830 C.3   1 <1>  -0.2400 
 21 C      -10.1190    -0.0570    -0.5450 C.3   1 <1>  -0.2400 
 22 H       -3.4320     0.6800    -1.2180 H     1 <1>   0.1500 
 23 H        0.1440    -2.9350     1.3470 H     1 <1>   0.0800 
 24 H       -4.2480    -2.2310     1.8390 H     1 <1>   0.1500 
 25 H       -5.2050     1.0840     0.4820 H     1 <1>   0.0800 
 26 H       -5.5010    -0.0780     1.7640 H     1 <1>   0.0800 
 27 H        1.8140    -1.2370     1.3940 H     1 <1>   0.0800 
 28 H        0.6260    -0.4680     0.3730 H     1 <1>   0.0800 
 29 H        1.2320    -4.5070    -0.5050 H     1 <1>   0.0800 
 30 H        2.2580    -3.8890     0.7730 H     1 <1>   0.0800 
 31 H       -2.1030    -5.6780     1.3830 H     1 <1>   0.0800 
 32 H       -1.1950    -4.8490     0.1290 H     1 <1>   0.0800 
 33 H       -2.9520    -4.9510     0.0210 H     1 <1>   0.0800 
 34 H       -6.3810    -1.5930     0.1090 H     1 <1>   0.4500 
 35 H       -6.1000    -0.5120    -1.0880 H     1 <1>   0.4500 
 36 H        3.2640    -0.9160    -0.3510 H     1 <1>   0.0800 
 37 H        1.9720    -0.7860    -1.5250 H     1 <1>   0.0800 
 38 H        2.1130    -2.9660    -2.0590 H     1 <1>   0.0800 
 39 H        3.5270    -3.1260    -1.0370 H     1 <1>   0.0800 
 40 H       -7.6730     1.0640    -0.1210 H     1 <1>   0.0800 
 41 H       -7.9950    -0.0980     1.1440 H     1 <1>   0.0800 
 42 H       -8.7970    -1.7180    -0.5160 H     1 <1>   0.0800 
 43 H       -8.2770     0.4580    -2.5820 H     1 <1>   0.0800 
 44 H       -9.1770    -1.0030    -2.8750 H     1 <1>   0.0800 
 45 H       -7.4850    -1.1030    -2.5210 H     1 <1>   0.0800 
 46 H      -10.1300     0.9860    -0.8150 H     1 <1>   0.0800 
 47 H      -10.4030    -0.1470     0.4890 H     1 <1>   0.0800 
 48 H      -10.8640    -0.5630    -1.1360 H     1 <1>   0.0800 
@<TRIPOS>BOND
  1   1   2  1   
  2   2   3  ar  
  3   2   4  ar  
  4   3   5  1   
  5   3   6  ar  
  6   4   7  ar  
  7   4  22  1   
  8   5   8  1   
  9   6   9  1   
 10   6  10  ar  
 11   7  10  ar  
 12   7  11  1   
 13   8  12  1   
 14   8  13  1   
 15   8  23  1   
 16   9  14  1   
 17  10  24  1   
 18  11  15  1   
 19  11  25  1   
 20  11  26  1   
 21  12  16  1   
 22  12  27  1   
 23  12  28  1   
 24  13  17  1   
 25  13  29  1   
 26  13  30  1   
 27  14  31  1   
 28  14  32  1   
 29  14  33  1   
 30  15  18  1   
 31  15  34  1   
 32  15  35  1   
 33  16  17  1   
 34  16  36  1   
 35  16  37  1   
 36  17  38  1   
 37  17  39  1   
 38  18  19  1   
 39  18  40  1   
 40  18  41  1   
 41  19  20  1   
 42  19  21  1   
 43  19  42  1   
 44  20  43  1   
 45  20  44  1   
 46  20  45  1   
 47  21  46  1   
 48  21  47  1   
 49  21  48  1   
@<TRIPOS>SUBSTRUCTURE
  1 ****   2 GROUP 4 **** **** 0

# MOE 2024.06 (io_trps.svl 2023.06)
