@<TRIPOS>MOLECULE
NONAME
38 39 1 0 0 
SMALL
USER_CHARGES


@<TRIPOS>ATOM
  1 S        0.1860     0.4740    -0.0090 S.3   1 <1>  -0.2860 
  2 C       -1.4500     1.0120    -0.5200 C.2   1 <1>   0.2420 
  3 C        1.3010     1.4730    -1.1170 C.3   1 <1>   0.1310 
  4 N       -1.6520     1.8530    -1.4700 N.2   1 <1>  -0.3380 
  5 N       -2.5710     0.5710     0.0500 N.pl3 1 <1>   0.0480 
  6 C        2.7650     1.1160    -0.9120 C.2   1 <1>   0.5690 
  7 N       -2.9790     1.9920    -1.5540 N.2   1 <1>  -0.3380 
  8 C       -3.5050     1.2310    -0.6520 C.2   1 <1>   0.0060 
  9 C       -2.7310    -0.3900     1.1630 C.3   1 <1>   0.0960 
 10 O        3.5950     1.9250    -1.2480 O.2   1 <1>  -0.5700 
 11 N        3.0750    -0.1000    -0.3610 N.am  1 <1>  -0.5470 
 12 C       -4.9990     1.1050    -0.4250 C.3   1 <1>  -0.0600 
 13 C       -2.8130    -1.8260     0.6290 C.3   1 <1>  -0.1600 
 14 C        4.3080    -0.7090    -0.0820 C.ar  1 <1>   0.1170 
 15 C       -2.9960    -2.8320     1.7700 C.3   1 <1>  -0.2400 
 16 C        4.3420    -1.7300     0.8660 C.ar  1 <1>  -0.1500 
 17 C        5.4940    -0.3460    -0.7220 C.ar  1 <1>  -0.1500 
 18 C        5.5280    -2.3760     1.1760 C.ar  1 <1>  -0.1500 
 19 C        6.6870    -0.9800    -0.4230 C.ar  1 <1>  -0.1500 
 20 C        6.6810    -1.9860     0.5240 C.ar  1 <1>   0.1900 
 21 F        7.8040    -2.5910     0.8110 F     1 <1>  -0.1900 
 22 H        1.1310     2.5090    -0.8870 H     1 <1>   0.0800 
 23 H        1.0070     1.2760    -2.1310 H     1 <1>   0.0800 
 24 H       -3.6250    -0.1460     1.7080 H     1 <1>   0.0800 
 25 H       -1.8930    -0.2910     1.8310 H     1 <1>   0.0800 
 26 H        2.2580    -0.6230    -0.0440 H     1 <1>   0.3700 
 27 H       -5.2520     1.4390     0.5640 H     1 <1>   0.0800 
 28 H       -5.3090     0.0840    -0.5490 H     1 <1>   0.0800 
 29 H       -5.5270     1.7130    -1.1370 H     1 <1>   0.0800 
 30 H       -1.9080    -2.0620     0.0940 H     1 <1>   0.0800 
 31 H       -3.6420    -1.9120    -0.0520 H     1 <1>   0.0800 
 32 H       -2.1680    -2.7830     2.4550 H     1 <1>   0.0800 
 33 H       -3.0490    -3.8310     1.3720 H     1 <1>   0.0800 
 34 H       -3.9070    -2.6340     2.3090 H     1 <1>   0.0800 
 35 H        3.4380    -2.0220     1.3680 H     1 <1>   0.1500 
 36 H        5.4900     0.4340    -1.4620 H     1 <1>   0.1500 
 37 H        5.5630    -3.1630     1.9070 H     1 <1>   0.1500 
 38 H        7.6030    -0.7030    -0.9110 H     1 <1>   0.1500 
@<TRIPOS>BOND
  1   1   2  1   
  2   1   3  1   
  3   2   4  2   
  4   2   5  1   
  5   3   6  1   
  6   3  22  1   
  7   3  23  1   
  8   4   7  1   
  9   5   8  1   
 10   5   9  1   
 11   6  10  2   
 12   6  11  am  
 13   7   8  2   
 14   8  12  1   
 15   9  13  1   
 16   9  24  1   
 17   9  25  1   
 18  11  14  1   
 19  11  26  1   
 20  12  27  1   
 21  12  28  1   
 22  12  29  1   
 23  13  15  1   
 24  13  30  1   
 25  13  31  1   
 26  14  16  ar  
 27  14  17  ar  
 28  15  32  1   
 29  15  33  1   
 30  15  34  1   
 31  16  18  ar  
 32  16  35  1   
 33  17  19  ar  
 34  17  36  1   
 35  18  20  ar  
 36  18  37  1   
 37  19  20  ar  
 38  19  38  1   
 39  20  21  1   
@<TRIPOS>SUBSTRUCTURE
  1 ****   1 GROUP 4 **** **** 0

# MOE 2024.06 (io_trps.svl 2023.06)
