@<TRIPOS>MOLECULE
NONAME
40 41 1 0 0 
SMALL
USER_CHARGES


@<TRIPOS>ATOM
  1 O       -3.8030    -0.9310     0.5920 O.2   1 <1>  -0.5700 
  2 C       -3.0460    -0.7240    -0.3240 C.2   1 <1>   0.5690 
  3 N       -2.6090     0.5120    -0.6980 N.am  1 <1>  -0.5470 
  4 C       -2.5630    -1.9080    -1.1430 C.3   1 <1>  -0.0990 
  5 C       -2.5850     1.7250     0.0240 C.ar  1 <1>   0.1170 
  6 C       -1.0630    -2.1870    -0.9560 C.3   1 <1>  -0.2400 
  7 C       -3.7130     2.4060     0.5360 C.ar  1 <1>   0.1000 
  8 C       -1.3260     2.2820     0.2110 C.ar  1 <1>  -0.1500 
  9 N       -5.0450     1.9740     0.4300 N.pl3 1 <1>  -0.8380 
 10 C       -3.5140     3.6090     1.2040 C.ar  1 <1>  -0.1500 
 11 C       -1.1520     3.4780     0.8830 C.ar  1 <1>  -0.1500 
 12 C       -5.6570     1.6200    -0.8830 C.3   1 <1>   0.2090 
 13 C       -5.7650     1.5940     1.6840 C.3   1 <1>   0.2090 
 14 C       -2.2520     4.1450     1.3820 C.ar  1 <1>  -0.1500 
 15 C       -6.3220     0.2260    -0.8630 C.3   1 <1>   0.3430 
 16 C       -6.4320     0.2060     1.5950 C.3   1 <1>   0.3430 
 17 N       -7.2250     0.0140     0.3260 N.4   1 <1>  -0.9590 
 18 C       -7.8320    -1.3480     0.2960 C.3   1 <1>   0.2630 
 19 H       -1.9460     0.4980    -1.4700 H     1 <1>   0.3700 
 20 H       -2.7710    -1.7260    -2.1820 H     1 <1>   0.0800 
 21 H       -3.1180    -2.7800    -0.8470 H     1 <1>   0.0800 
 22 H       -0.4700    -1.3520    -1.2840 H     1 <1>   0.0800 
 23 H       -0.7750    -3.0550    -1.5240 H     1 <1>   0.0800 
 24 H       -0.8490    -2.3740     0.0820 H     1 <1>   0.0800 
 25 H       -0.4570     1.7750    -0.1670 H     1 <1>   0.1500 
 26 H       -4.3650     4.1390     1.5880 H     1 <1>   0.1500 
 27 H       -0.1660     3.8880     1.0180 H     1 <1>   0.1500 
 28 H       -4.9040     1.6470    -1.6520 H     1 <1>   0.0800 
 29 H       -6.3940     2.3630    -1.1300 H     1 <1>   0.0800 
 30 H       -6.5120     2.3380     1.8940 H     1 <1>   0.0800 
 31 H       -5.0690     1.5890     2.5060 H     1 <1>   0.0800 
 32 H       -2.1290     5.0780     1.9040 H     1 <1>   0.1500 
 33 H       -5.5440    -0.5160    -0.8520 H     1 <1>   0.0800 
 34 H       -6.8820     0.0970    -1.7740 H     1 <1>   0.0800 
 35 H       -7.0730     0.0790     2.4510 H     1 <1>   0.0800 
 36 H       -5.6630    -0.5430     1.6590 H     1 <1>   0.0800 
 37 H       -7.9570     0.7350     0.3010 H     1 <1>   0.4500 
 38 H       -7.0590    -2.0990     0.3320 H     1 <1>   0.0800 
 39 H       -8.4050    -1.4830    -0.6070 H     1 <1>   0.0800 
 40 H       -8.4850    -1.4850     1.1430 H     1 <1>   0.0800 
@<TRIPOS>BOND
  1   1   2  2   
  2   2   3  am  
  3   2   4  1   
  4   3   5  1   
  5   3  19  1   
  6   4   6  1   
  7   4  20  1   
  8   4  21  1   
  9   5   7  ar  
 10   5   8  ar  
 11   6  22  1   
 12   6  23  1   
 13   6  24  1   
 14   7   9  1   
 15   7  10  ar  
 16   8  11  ar  
 17   8  25  1   
 18   9  12  1   
 19   9  13  1   
 20  10  14  ar  
 21  10  26  1   
 22  11  14  ar  
 23  11  27  1   
 24  12  15  1   
 25  12  28  1   
 26  12  29  1   
 27  13  16  1   
 28  13  30  1   
 29  13  31  1   
 30  14  32  1   
 31  15  17  1   
 32  15  33  1   
 33  15  34  1   
 34  16  17  1   
 35  16  35  1   
 36  16  36  1   
 37  17  18  1   
 38  17  37  1   
 39  18  38  1   
 40  18  39  1   
 41  18  40  1   
@<TRIPOS>SUBSTRUCTURE
  1 ****   9 GROUP 4 **** **** 0

# MOE 2024.06 (io_trps.svl 2023.06)
