@<TRIPOS>MOLECULE
NONAME
37 39 1 0 0 
SMALL
USER_CHARGES


@<TRIPOS>ATOM
  1 O        1.3750     4.1390    -0.7690 O.2   1 <1>  -0.5700 
  2 C        1.2910     3.0550    -0.2450 C.2   1 <1>   0.4230 
  3 C        1.9660     1.8740    -0.7520 C.ar  1 <1>   0.0860 
  4 C        0.4230     2.9780     0.9840 C.3   1 <1>   0.0060 
  5 C        1.6250     0.5710    -0.3740 C.ar  1 <1>  -0.1500 
  6 C        3.0090     2.0100    -1.6710 C.ar  1 <1>  -0.1500 
  7 C       -0.9660     2.6080     0.5440 C.cat 1 <1>   0.6040 
  8 C        2.2960    -0.5290    -0.8770 C.ar  1 <1>  -0.1500 
  9 C        3.6840     0.9150    -2.1790 C.ar  1 <1>  -0.1500 
 10 N       -1.6130     1.5480     0.9640 N.pl3 1 <1>  -0.8640 
 11 N       -1.6960     3.3390    -0.3220 N.pl3 1 <1>  -0.7940 
 12 C        3.3280    -0.3600    -1.7800 C.ar  1 <1>  -0.1500 
 13 O       -1.2370     0.6220     1.7980 O.3   1 <1>  -0.4800 
 14 C       -2.8780     1.4140     0.2280 C.3   1 <1>   0.4100 
 15 C       -3.0820     2.8490    -0.2550 C.3   1 <1>   0.4100 
 16 C       -4.1570     0.9370     0.9000 C.3   1 <1>  -0.1600 
 17 C       -3.9930     2.8370    -1.4750 C.3   1 <1>  -0.1600 
 18 C       -5.2690     0.9520    -0.1830 C.3   1 <1>  -0.1600 
 19 C       -5.3590     2.2710    -1.0050 C.3   1 <1>  -0.1600 
 20 H        0.3930     3.9300     1.4770 H     1 <1>   0.0800 
 21 H        0.7990     2.2520     1.6800 H     1 <1>   0.0800 
 22 H        0.8200     0.3920     0.3200 H     1 <1>   0.1500 
 23 H        3.2960     2.9970    -1.9930 H     1 <1>   0.1500 
 24 H        2.0080    -1.5180    -0.5630 H     1 <1>   0.1500 
 25 H        4.4850     1.0530    -2.8850 H     1 <1>   0.1500 
 26 H       -1.4110     4.2360    -0.7180 H     1 <1>   0.4500 
 27 H        3.8500    -1.2170    -2.1720 H     1 <1>   0.1500 
 28 H       -2.6800     0.7710    -0.6130 H     1 <1>   0.0800 
 29 H       -3.5730     3.4060     0.5260 H     1 <1>   0.0800 
 30 H       -4.4060     1.5840     1.7220 H     1 <1>   0.0800 
 31 H       -4.0090    -0.0600     1.2760 H     1 <1>   0.0800 
 32 H       -3.5740     2.2140    -2.2460 H     1 <1>   0.0800 
 33 H       -4.1190     3.8340    -1.8560 H     1 <1>   0.0800 
 34 H       -6.2200     0.7510     0.2800 H     1 <1>   0.0800 
 35 H       -5.0780     0.1430    -0.8690 H     1 <1>   0.0800 
 36 H       -5.9950     2.1140    -1.8600 H     1 <1>   0.0800 
 37 H       -5.8410     3.0130    -0.3900 H     1 <1>   0.0800 
@<TRIPOS>BOND
  1   1   2  2   
  2   2   3  1   
  3   2   4  1   
  4   3   5  ar  
  5   3   6  ar  
  6   4   7  1   
  7   4  20  1   
  8   4  21  1   
  9   5   8  ar  
 10   5  22  1   
 11   6   9  ar  
 12   6  23  1   
 13   7  10  ar  
 14   7  11  ar  
 15   8  12  ar  
 16   8  24  1   
 17   9  12  ar  
 18   9  25  1   
 19  10  13  1   
 20  10  14  1   
 21  11  15  1   
 22  11  26  1   
 23  12  27  1   
 24  14  15  1   
 25  14  16  1   
 26  14  28  1   
 27  15  17  1   
 28  15  29  1   
 29  16  18  1   
 30  16  30  1   
 31  16  31  1   
 32  17  19  1   
 33  17  32  1   
 34  17  33  1   
 35  18  19  1   
 36  18  34  1   
 37  18  35  1   
 38  19  36  1   
 39  19  37  1   
@<TRIPOS>SUBSTRUCTURE
  1 ****   7 GROUP 4 **** **** 0

# MOE 2024.06 (io_trps.svl 2023.06)
