@<TRIPOS>MOLECULE
NONAME
40 42 1 0 0 
SMALL
USER_CHARGES


@<TRIPOS>ATOM
  1 F       -2.4280     2.8830    -1.4950 F     1 <1>  -0.3400 
  2 C       -3.3970     2.0490    -1.8510 C.3   1 <1>   1.1640 
  3 F       -4.4190     2.8110    -2.2270 F     1 <1>  -0.3400 
  4 F       -2.9740     1.4290    -2.9440 F     1 <1>  -0.3400 
  5 C       -3.7640     1.0600    -0.7360 C.ar  1 <1>  -0.1440 
  6 C       -5.0840     0.6790    -0.5220 C.ar  1 <1>  -0.1500 
  7 C       -2.7770     0.5170     0.0810 C.ar  1 <1>  -0.1500 
  8 C       -5.4340    -0.2130     0.4830 C.ar  1 <1>   0.1170 
  9 C       -3.1080    -0.3770     1.0840 C.ar  1 <1>  -0.1500 
 10 N       -6.7870    -0.5390     0.6270 N.am  1 <1>  -0.5470 
 11 C       -4.4270    -0.7400     1.2820 C.ar  1 <1>  -0.1500 
 12 C       -7.5430    -1.0290     1.6630 C.2   1 <1>   0.5440 
 13 O       -7.0020    -1.3060     2.7170 O.2   1 <1>  -0.5700 
 14 C       -8.9700    -1.2230     1.5000 C.ar  1 <1>   0.0860 
 15 C       -9.7440    -0.5600     0.5160 C.ar  1 <1>   0.4100 
 16 C       -9.6380    -2.1100     2.3370 C.ar  1 <1>  -0.1500 
 17 N      -11.0490    -0.7630     0.3430 N.ar  1 <1>  -0.6200 
 18 N       -9.2000     0.3910    -0.3350 N.pl3 1 <1>  -0.8380 
 19 C      -10.9870    -2.3080     2.1580 C.ar  1 <1>  -0.1500 
 20 C      -11.6350    -1.6180     1.1530 C.ar  1 <1>   0.1600 
 21 C       -9.5520     0.4010    -1.7800 C.3   1 <1>   0.2090 
 22 C       -9.1210     1.7880     0.1680 C.3   1 <1>   0.2090 
 23 C       -9.2100     1.8070    -2.2470 C.3   1 <1>  -0.1600 
 24 C       -9.4680     2.6750    -1.0210 C.3   1 <1>  -0.1600 
 25 H       -5.8680     1.0780    -1.1410 H     1 <1>   0.1500 
 26 H       -1.7420     0.7860    -0.0580 H     1 <1>   0.1500 
 27 H       -2.3400    -0.7940     1.7130 H     1 <1>   0.1500 
 28 H       -7.3990    -0.1990    -0.1270 H     1 <1>   0.3700 
 29 H       -4.6710    -1.4380     2.0620 H     1 <1>   0.1500 
 30 H       -9.1040    -2.6360     3.1110 H     1 <1>   0.1500 
 31 H      -11.5310    -2.9890     2.7880 H     1 <1>   0.1500 
 32 H      -12.6910    -1.7790     1.0130 H     1 <1>   0.1500 
 33 H      -10.6070     0.2210    -1.9100 H     1 <1>   0.0800 
 34 H       -8.9930    -0.3450    -2.3180 H     1 <1>   0.0800 
 35 H       -8.1190     1.9900     0.5060 H     1 <1>   0.0800 
 36 H       -9.8110     1.9450     0.9820 H     1 <1>   0.0800 
 37 H       -9.8060     2.1020    -3.0920 H     1 <1>   0.0800 
 38 H       -8.1690     1.8470    -2.5170 H     1 <1>   0.0800 
 39 H       -8.8890     3.5810    -1.0280 H     1 <1>   0.0800 
 40 H      -10.5130     2.9280    -0.9690 H     1 <1>   0.0800 
@<TRIPOS>BOND
  1   1   2  1   
  2   2   3  1   
  3   2   4  1   
  4   2   5  1   
  5   5   6  ar  
  6   5   7  ar  
  7   6   8  ar  
  8   6  25  1   
  9   7   9  ar  
 10   7  26  1   
 11   8  10  1   
 12   8  11  ar  
 13   9  11  ar  
 14   9  27  1   
 15  10  12  am  
 16  10  28  1   
 17  11  29  1   
 18  12  13  2   
 19  12  14  1   
 20  14  15  ar  
 21  14  16  ar  
 22  15  17  ar  
 23  15  18  1   
 24  16  19  ar  
 25  16  30  1   
 26  17  20  ar  
 27  18  21  1   
 28  18  22  1   
 29  19  20  ar  
 30  19  31  1   
 31  20  32  1   
 32  21  23  1   
 33  21  33  1   
 34  21  34  1   
 35  22  24  1   
 36  22  35  1   
 37  22  36  1   
 38  23  24  1   
 39  23  37  1   
 40  23  38  1   
 41  24  39  1   
 42  24  40  1   
@<TRIPOS>SUBSTRUCTURE
  1 ****  10 GROUP 4 **** **** 0

# MOE 2024.06 (io_trps.svl 2023.06)
