@<TRIPOS>MOLECULE
NONAME
36 36 1 0 0 
SMALL
USER_CHARGES


@<TRIPOS>ATOM
  1 S       -0.8200     0.3350     0.5510 S.3   1 <1>  -0.2660 
  2 C        0.6500    -0.6330     0.1560 C.1   1 <1>   0.5930 
  3 C       -2.1880    -0.8550     0.2130 C.3   1 <1>   0.0700 
  4 N        1.5550    -1.2710    -0.1020 N.1   1 <1>  -0.5570 
  5 C       -3.5140    -0.1540     0.5120 C.3   1 <1>  -0.1600 
  6 C       -4.6960    -1.0880     0.2520 C.3   1 <1>   0.1200 
  7 O       -5.8790    -0.3840     0.5440 O.3   1 <1>  -0.3630 
  8 C       -7.0960    -0.9660     0.4050 C.ar  1 <1>   0.0830 
  9 C       -8.1990    -0.1930     0.7160 C.ar  1 <1>  -0.1500 
 10 C       -7.2910    -2.2730    -0.0270 C.ar  1 <1>  -0.1500 
 11 C       -9.4760    -0.7120     0.6010 C.ar  1 <1>  -0.1500 
 12 C       -8.5720    -2.7860    -0.1400 C.ar  1 <1>  -0.1500 
 13 C       -9.6920    -2.0180     0.1710 C.ar  1 <1>  -0.1430 
 14 C      -11.1380    -2.5510     0.0590 C.3   1 <1>   0.1430 
 15 C      -11.8170    -2.4880     1.4350 C.3   1 <1>  -0.2400 
 16 C      -11.2120    -4.0080    -0.4290 C.3   1 <1>  -0.2400 
 17 C      -11.9270    -1.6890    -0.9390 C.3   1 <1>  -0.2400 
 18 H       -2.0350    -1.7080     0.8520 H     1 <1>   0.0800 
 19 H       -2.1130    -1.1440    -0.8210 H     1 <1>   0.0800 
 20 H       -3.6080     0.7150    -0.1170 H     1 <1>   0.0800 
 21 H       -3.5300     0.1550     1.5420 H     1 <1>   0.0800 
 22 H       -4.6510    -1.9520     0.8930 H     1 <1>   0.0800 
 23 H       -4.7290    -1.3880    -0.7820 H     1 <1>   0.0800 
 24 H       -8.0520     0.8180     1.0500 H     1 <1>   0.1500 
 25 H       -6.4630    -2.9070    -0.2780 H     1 <1>   0.1500 
 26 H      -10.3070    -0.0780     0.8530 H     1 <1>   0.1500 
 27 H       -8.6690    -3.8010    -0.4770 H     1 <1>   0.1500 
 28 H      -11.2510    -3.0610     2.1490 H     1 <1>   0.0800 
 29 H      -12.8130    -2.8890     1.3870 H     1 <1>   0.0800 
 30 H      -11.8810    -1.4770     1.7910 H     1 <1>   0.0800 
 31 H      -10.7720    -4.1010    -1.4060 H     1 <1>   0.0800 
 32 H      -12.2340    -4.3350    -0.4910 H     1 <1>   0.0800 
 33 H      -10.6950    -4.6600     0.2530 H     1 <1>   0.0800 
 34 H      -11.4390    -1.6980    -1.8970 H     1 <1>   0.0800 
 35 H      -11.9920    -0.6700    -0.6040 H     1 <1>   0.0800 
 36 H      -12.9270    -2.0650    -1.0590 H     1 <1>   0.0800 
@<TRIPOS>BOND
  1   1   2  1   
  2   1   3  1   
  3   2   4  3   
  4   3   5  1   
  5   3  18  1   
  6   3  19  1   
  7   5   6  1   
  8   5  20  1   
  9   5  21  1   
 10   6   7  1   
 11   6  22  1   
 12   6  23  1   
 13   7   8  1   
 14   8   9  ar  
 15   8  10  ar  
 16   9  11  ar  
 17   9  24  1   
 18  10  12  ar  
 19  10  25  1   
 20  11  13  ar  
 21  11  26  1   
 22  12  13  ar  
 23  12  27  1   
 24  13  14  1   
 25  14  15  1   
 26  14  16  1   
 27  14  17  1   
 28  15  28  1   
 29  15  29  1   
 30  15  30  1   
 31  16  31  1   
 32  16  32  1   
 33  16  33  1   
 34  17  34  1   
 35  17  35  1   
 36  17  36  1   
@<TRIPOS>SUBSTRUCTURE
  1 ****   8 GROUP 4 **** **** 0

# MOE 2024.06 (io_trps.svl 2023.06)
