@<TRIPOS>MOLECULE
NONAME
51 53 1 0 0 
SMALL
USER_CHARGES


@<TRIPOS>ATOM
  1 S        3.4090    -2.6310    -0.9380 S.3   1 <1>  -0.4100 
  2 C        2.1250    -1.8040     0.0560 C.3   1 <1>   0.1500 
  3 C        0.7560    -2.3100    -0.4130 C.3   1 <1>   0.1200 
  4 C        2.2960    -0.2820    -0.1000 C.3   1 <1>   0.3430 
  5 O        0.7180    -3.6800    -0.1930 O.3   1 <1>  -0.5600 
  6 N        3.7310     0.1360     0.0070 N.4   1 <1>  -0.9590 
  7 C       -0.4290    -4.3230    -0.6560 C.3   1 <1>   0.2640 
  8 C        4.3750    -0.0970     1.3490 C.3   1 <1>   0.3430 
  9 C        4.0040     1.5280    -0.5070 C.3   1 <1>   0.3430 
 10 C       -0.2840    -5.8090    -0.3780 C.ar  1 <1>  -0.1440 
 11 C        5.9170     0.0190     1.2550 C.3   1 <1>   0.2090 
 12 C        5.4530     2.0030    -0.2300 C.3   1 <1>   0.2090 
 13 C        0.1940    -6.6640    -1.3600 C.ar  1 <1>  -0.1500 
 14 C       -0.6290    -6.3250     0.8620 C.ar  1 <1>  -0.1500 
 15 N        6.3540     0.8520     0.0880 N.pl3 1 <1>  -0.8380 
 16 C        0.3210    -8.0190    -1.1070 C.ar  1 <1>  -0.1500 
 17 C       -0.5030    -7.6800     1.1160 C.ar  1 <1>  -0.1500 
 18 C        7.7250     1.0480    -0.0400 C.ar  1 <1>   0.1000 
 19 C       -0.0290    -8.5280     0.1310 C.ar  1 <1>  -0.1500 
 20 C        8.3740     2.1080     0.5920 C.ar  1 <1>  -0.1500 
 21 C        8.4670     0.1590    -0.8130 C.ar  1 <1>  -0.1500 
 22 C        9.7400     2.2820     0.4530 C.ar  1 <1>  -0.1500 
 23 C        9.8330     0.3190    -0.9610 C.ar  1 <1>  -0.1500 
 24 C       10.4450     1.3810    -0.3230 C.ar  1 <1>   0.1900 
 25 F       11.7370     1.5400    -0.4570 F     1 <1>  -0.1900 
 26 H        2.9670    -3.9300    -0.8930 H     1 <1>   0.1800 
 27 H        2.2790    -2.0970     1.0790 H     1 <1>   0.0800 
 28 H        0.6190    -2.1210    -1.4650 H     1 <1>   0.0800 
 29 H       -0.0390    -1.8530     0.1520 H     1 <1>   0.0800 
 30 H        1.7030     0.2280     0.6410 H     1 <1>   0.0800 
 31 H        1.9250    -0.0050    -1.0730 H     1 <1>   0.0800 
 32 H        4.2720    -0.4860    -0.6260 H     1 <1>   0.4500 
 33 H       -0.5280    -4.1470    -1.7140 H     1 <1>   0.0800 
 34 H       -1.2860    -3.9260    -0.1400 H     1 <1>   0.0800 
 35 H        4.1270    -1.0760     1.7240 H     1 <1>   0.0800 
 36 H        4.0110     0.6300     2.0560 H     1 <1>   0.0800 
 37 H        3.3210     2.2310    -0.0600 H     1 <1>   0.0800 
 38 H        3.8390     1.5500    -1.5720 H     1 <1>   0.0800 
 39 H        6.3330    -0.9680     1.1430 H     1 <1>   0.0800 
 40 H        6.3090     0.4310     2.1690 H     1 <1>   0.0800 
 41 H        5.4480     2.6890     0.5990 H     1 <1>   0.0800 
 42 H        5.8290     2.5320    -1.0890 H     1 <1>   0.0800 
 43 H        0.4730    -6.2790    -2.3250 H     1 <1>   0.1500 
 44 H       -0.9930    -5.6730     1.6360 H     1 <1>   0.1500 
 45 H        0.6920    -8.6770    -1.8730 H     1 <1>   0.1500 
 46 H       -0.7730    -8.0740     2.0800 H     1 <1>   0.1500 
 47 H        0.0700    -9.5810     0.3280 H     1 <1>   0.1500 
 48 H        7.8130     2.7950     1.1970 H     1 <1>   0.1500 
 49 H        7.9640    -0.6560    -1.3000 H     1 <1>   0.1500 
 50 H       10.2540     3.0940     0.9340 H     1 <1>   0.1500 
 51 H       10.4160    -0.3600    -1.5560 H     1 <1>   0.1500 
@<TRIPOS>BOND
  1   1   2  1   
  2   1  26  1   
  3   2   3  1   
  4   2   4  1   
  5   2  27  1   
  6   3   5  1   
  7   3  28  1   
  8   3  29  1   
  9   4   6  1   
 10   4  30  1   
 11   4  31  1   
 12   5   7  1   
 13   6   8  1   
 14   6   9  1   
 15   6  32  1   
 16   7  10  1   
 17   7  33  1   
 18   7  34  1   
 19   8  11  1   
 20   8  35  1   
 21   8  36  1   
 22   9  12  1   
 23   9  37  1   
 24   9  38  1   
 25  10  13  ar  
 26  10  14  ar  
 27  11  15  1   
 28  11  39  1   
 29  11  40  1   
 30  12  15  1   
 31  12  41  1   
 32  12  42  1   
 33  13  16  ar  
 34  13  43  1   
 35  14  17  ar  
 36  14  44  1   
 37  15  18  1   
 38  16  19  ar  
 39  16  45  1   
 40  17  19  ar  
 41  17  46  1   
 42  18  20  ar  
 43  18  21  ar  
 44  19  47  1   
 45  20  22  ar  
 46  20  48  1   
 47  21  23  ar  
 48  21  49  1   
 49  22  24  ar  
 50  22  50  1   
 51  23  24  ar  
 52  23  51  1   
 53  24  25  1   
@<TRIPOS>SUBSTRUCTURE
  1 ****   1 GROUP 4 **** **** 0

# MOE 2024.06 (io_trps.svl 2023.06)
