@<TRIPOS>MOLECULE
NONAME
35 35 1 0 0 
SMALL
USER_CHARGES


@<TRIPOS>ATOM
  1 BR       0.4070    -0.6280    -2.1160 Br    1 <1>  -0.0580 
  2 C        1.8040    -0.0490    -0.9330 C.2   1 <1>   0.0980 
  3 S        3.1490    -1.1460    -0.7400 S.3   1 <1>  -0.0800 
  4 C        1.9370     1.0750    -0.2120 C.2   1 <1>  -0.1500 
  5 C        3.9310    -0.0200     0.3800 C.2   1 <1>  -0.0220 
  6 C        3.1580     1.0810     0.5360 C.2   1 <1>  -0.1500 
  7 S        5.5320    -0.4920     1.0760 S.o2  1 <1>   1.5000 
  8 O        5.4670    -1.8150     1.6520 O.2   1 <1>  -0.6500 
  9 O        6.0520     0.6070     1.8560 O.2   1 <1>  -0.6500 
 10 N        6.5460    -0.5260    -0.2570 N.am  1 <1>  -0.9140 
 11 C        7.7640    -1.2950    -0.0420 C.3   1 <1>   0.2760 
 12 C        8.9750    -0.4640    -0.5510 C.3   1 <1>  -0.0800 
 13 C        7.6870    -2.7090    -0.7060 C.3   1 <1>  -0.0800 
 14 C       10.3140    -1.1040    -0.1360 C.3   1 <1>  -0.2400 
 15 C        8.9740     0.9910    -0.0340 C.3   1 <1>  -0.2400 
 16 C        6.3730    -3.0490    -1.4360 C.3   1 <1>  -0.2400 
 17 C        7.9660    -3.8080     0.3330 C.3   1 <1>  -0.2400 
 18 H        1.2340     1.8890    -0.1740 H     1 <1>   0.1500 
 19 H        3.4100     1.9180     1.1670 H     1 <1>   0.1500 
 20 H        6.8560     0.4380    -0.3130 H     1 <1>   0.4200 
 21 H        7.9110    -1.4210     1.0200 H     1 <1>   0.0800 
 22 H        8.9390    -0.4380    -1.6280 H     1 <1>   0.0800 
 23 H        8.4620    -2.7770    -1.4490 H     1 <1>   0.0800 
 24 H       10.3870    -1.1640     0.9360 H     1 <1>   0.0800 
 25 H       11.1390    -0.5170    -0.5000 H     1 <1>   0.0800 
 26 H       10.4200    -2.0940    -0.5410 H     1 <1>   0.0800 
 27 H        8.8830     1.0110     1.0390 H     1 <1>   0.0800 
 28 H        8.1740     1.5650    -0.4620 H     1 <1>   0.0800 
 29 H        9.8920     1.4840    -0.3030 H     1 <1>   0.0800 
 30 H        5.5510    -3.0870    -0.7440 H     1 <1>   0.0800 
 31 H        6.4510    -4.0080    -1.9170 H     1 <1>   0.0800 
 32 H        6.1590    -2.3140    -2.1910 H     1 <1>   0.0800 
 33 H        7.1960    -3.8180     1.0850 H     1 <1>   0.0800 
 34 H        8.9130    -3.6440     0.8150 H     1 <1>   0.0800 
 35 H        7.9910    -4.7740    -0.1400 H     1 <1>   0.0800 
@<TRIPOS>BOND
  1   1   2  1   
  2   2   3  1   
  3   2   4  2   
  4   3   5  1   
  5   4   6  1   
  6   4  18  1   
  7   5   6  2   
  8   5   7  1   
  9   6  19  1   
 10   7   8  2   
 11   7   9  2   
 12   7  10  am  
 13  10  11  1   
 14  10  20  1   
 15  11  12  1   
 16  11  13  1   
 17  11  21  1   
 18  12  14  1   
 19  12  15  1   
 20  12  22  1   
 21  13  16  1   
 22  13  17  1   
 23  13  23  1   
 24  14  24  1   
 25  14  25  1   
 26  14  26  1   
 27  15  27  1   
 28  15  28  1   
 29  15  29  1   
 30  16  30  1   
 31  16  31  1   
 32  16  32  1   
 33  17  33  1   
 34  17  34  1   
 35  17  35  1   
@<TRIPOS>SUBSTRUCTURE
  1 ****  10 GROUP 4 **** **** 0

# MOE 2024.06 (io_trps.svl 2023.06)
