@<TRIPOS>MOLECULE
NONAME
46 48 1 0 0 
SMALL
USER_CHARGES


@<TRIPOS>ATOM
  1 I        0.0130    -0.1350    -0.0890 I     1 <1>  -0.0810 
  2 C       -1.8780     0.8450    -0.0360 C.ar  1 <1>   0.0810 
  3 C       -1.9730     2.0720     0.5930 C.ar  1 <1>  -0.1500 
  4 C       -2.9610     0.2310    -0.6310 C.ar  1 <1>  -0.1500 
  5 C       -3.2020     2.7140     0.6300 C.ar  1 <1>  -0.1440 
  6 C       -4.1820     0.8770    -0.5880 C.ar  1 <1>  -0.1500 
  7 C       -4.3210     2.1180     0.0350 C.ar  1 <1>   0.1170 
  8 C       -3.2960     4.0710     1.3190 C.3   1 <1>  -0.0960 
  9 N       -5.5650     2.7680     0.0990 N.am  1 <1>  -0.5470 
 10 C       -6.6520     2.7270    -0.7420 C.2   1 <1>   0.5440 
 11 O       -6.5900     2.1440    -1.8040 O.2   1 <1>  -0.5700 
 12 C       -7.8740     3.4140    -0.3660 C.ar  1 <1>   0.0860 
 13 C       -8.3230     3.4590     0.9550 C.ar  1 <1>  -0.1500 
 14 C       -8.6550     4.0560    -1.3260 C.ar  1 <1>  -0.1500 
 15 C       -9.4920     4.1150     1.2990 C.ar  1 <1>  -0.1500 
 16 C       -9.8230     4.7150    -0.9910 C.ar  1 <1>  -0.1500 
 17 C      -10.2550     4.7450     0.3270 C.ar  1 <1>  -0.1430 
 18 C      -11.5490     5.4470     0.6990 C.3   1 <1>   0.4860 
 19 N      -12.6960     4.6680     0.1600 N.4   1 <1>  -0.9590 
 20 C      -14.0250     5.3370     0.3610 C.3   1 <1>   0.3430 
 21 C      -12.7380     3.2400     0.6260 C.3   1 <1>   0.3430 
 22 C      -15.1900     4.4510    -0.1400 C.3   1 <1>   0.1200 
 23 C      -13.9130     2.4740    -0.0280 C.3   1 <1>   0.1200 
 24 O      -14.7060     3.3230    -0.8160 O.3   1 <1>  -0.5600 
 25 H       -1.1000     2.5100     1.0420 H     1 <1>   0.1500 
 26 H       -2.8580    -0.7240    -1.1150 H     1 <1>   0.1500 
 27 H       -5.0350     0.4090    -1.0440 H     1 <1>   0.1500 
 28 H       -2.3260     4.4090     1.6360 H     1 <1>   0.0800 
 29 H       -3.9280     4.0020     2.1860 H     1 <1>   0.0800 
 30 H       -3.6980     4.8020     0.6400 H     1 <1>   0.0800 
 31 H       -5.6210     3.4660     0.8350 H     1 <1>   0.3700 
 32 H       -7.7520     2.9630     1.7220 H     1 <1>   0.1500 
 33 H       -8.3300     4.0310    -2.3540 H     1 <1>   0.1500 
 34 H       -9.7960     4.1250     2.3330 H     1 <1>   0.1500 
 35 H      -10.3830     5.2020    -1.7720 H     1 <1>   0.1500 
 36 H      -11.5480     6.4410     0.2820 H     1 <1>   0.0800 
 37 H      -11.6260     5.5270     1.7710 H     1 <1>   0.0800 
 38 H      -12.5780     4.5920    -0.8610 H     1 <1>   0.4500 
 39 H      -14.0480     6.2740    -0.1710 H     1 <1>   0.0800 
 40 H      -14.1800     5.5540     1.4060 H     1 <1>   0.0800 
 41 H      -12.8500     3.2040     1.6970 H     1 <1>   0.0800 
 42 H      -11.8160     2.7390     0.3790 H     1 <1>   0.0800 
 43 H      -15.8120     5.0050    -0.8230 H     1 <1>   0.0800 
 44 H      -15.8040     4.1230     0.6820 H     1 <1>   0.0800 
 45 H      -14.5350     2.0170     0.7220 H     1 <1>   0.0800 
 46 H      -13.5350     1.6960    -0.6680 H     1 <1>   0.0800 
@<TRIPOS>BOND
  1   1   2  1   
  2   2   3  ar  
  3   2   4  ar  
  4   3   5  ar  
  5   3  25  1   
  6   4   6  ar  
  7   4  26  1   
  8   5   7  ar  
  9   5   8  1   
 10   6   7  ar  
 11   6  27  1   
 12   7   9  1   
 13   8  28  1   
 14   8  29  1   
 15   8  30  1   
 16   9  10  am  
 17   9  31  1   
 18  10  11  2   
 19  10  12  1   
 20  12  13  ar  
 21  12  14  ar  
 22  13  15  ar  
 23  13  32  1   
 24  14  16  ar  
 25  14  33  1   
 26  15  17  ar  
 27  15  34  1   
 28  16  17  ar  
 29  16  35  1   
 30  17  18  1   
 31  18  19  1   
 32  18  36  1   
 33  18  37  1   
 34  19  20  1   
 35  19  21  1   
 36  19  38  1   
 37  20  22  1   
 38  20  39  1   
 39  20  40  1   
 40  21  23  1   
 41  21  41  1   
 42  21  42  1   
 43  22  24  1   
 44  22  43  1   
 45  22  44  1   
 46  23  24  1   
 47  23  45  1   
 48  23  46  1   
@<TRIPOS>SUBSTRUCTURE
  1 ****  12 GROUP 4 **** **** 0

# MOE 2024.06 (io_trps.svl 2023.06)
