@<TRIPOS>MOLECULE
NONAME
36 37 1 0 0 
SMALL
USER_CHARGES


@<TRIPOS>ATOM
  1 BR       0.2900    -0.2770    -1.4700 Br    1 <1>  -0.1110 
  2 C       -0.6850    -1.6560    -0.5310 C.ar  1 <1>   0.1110 
  3 C       -0.0030    -2.7960    -0.1110 C.ar  1 <1>   0.1170 
  4 C       -2.0330    -1.4520    -0.3120 C.ar  1 <1>  -0.1500 
  5 N        1.3740    -2.9200    -0.3810 N.am  1 <1>  -0.5470 
  6 C       -0.7540    -3.7600     0.5570 C.ar  1 <1>  -0.1500 
  7 C       -2.7510    -2.4270     0.3570 C.ar  1 <1>  -0.1500 
  8 C        2.3220    -3.8100     0.0440 C.2   1 <1>   0.5690 
  9 C       -2.1090    -3.5770     0.7890 C.ar  1 <1>  -0.1500 
 10 O        2.0880    -4.7210     0.7990 O.2   1 <1>  -0.5700 
 11 C        3.7460    -3.6040    -0.4750 C.3   1 <1>  -0.0190 
 12 C        4.5870    -4.8980    -0.4550 C.3   1 <1>  -0.1600 
 13 C        4.4690    -2.5000     0.3200 C.3   1 <1>  -0.1600 
 14 C        6.0130    -4.6560    -0.9550 C.3   1 <1>   0.1400 
 15 C        5.8990    -2.2800    -0.1830 C.3   1 <1>   0.1400 
 16 N        6.6410    -3.5700    -0.1520 N.am  1 <1>  -0.6600 
 17 C        7.7880    -3.7020     0.5900 C.2   1 <1>   0.5690 
 18 O        8.2710    -2.7790     1.2010 O.2   1 <1>  -0.5700 
 19 C        8.5060    -5.0290     0.6740 C.3   1 <1>  -0.1790 
 20 H       -2.5120    -0.5520    -0.6570 H     1 <1>   0.1500 
 21 H        1.7320    -2.1710    -0.9730 H     1 <1>   0.3700 
 22 H       -0.2920    -4.6660     0.9030 H     1 <1>   0.1500 
 23 H       -3.8040    -2.2950     0.5420 H     1 <1>   0.1500 
 24 H       -2.6660    -4.3380     1.3090 H     1 <1>   0.1500 
 25 H        3.6720    -3.2860    -1.5000 H     1 <1>   0.0800 
 26 H        4.1150    -5.6450    -1.0690 H     1 <1>   0.0800 
 27 H        4.6360    -5.2870     0.5480 H     1 <1>   0.0800 
 28 H        4.5080    -2.7700     1.3610 H     1 <1>   0.0800 
 29 H        3.9260    -1.5740     0.2450 H     1 <1>   0.0800 
 30 H        5.9910    -4.3550    -1.9890 H     1 <1>   0.0800 
 31 H        6.5740    -5.5700    -0.8890 H     1 <1>   0.0800 
 32 H        6.3850    -1.5440     0.4340 H     1 <1>   0.0800 
 33 H        5.8850    -1.9080    -1.1930 H     1 <1>   0.0800 
 34 H        8.8430    -5.3240    -0.3020 H     1 <1>   0.0800 
 35 H        7.8490    -5.7740     1.0790 H     1 <1>   0.0800 
 36 H        9.3600    -4.9370     1.3190 H     1 <1>   0.0800 
@<TRIPOS>BOND
  1   1   2  1   
  2   2   3  ar  
  3   2   4  ar  
  4   3   5  1   
  5   3   6  ar  
  6   4   7  ar  
  7   4  20  1   
  8   5   8  am  
  9   5  21  1   
 10   6   9  ar  
 11   6  22  1   
 12   7   9  ar  
 13   7  23  1   
 14   8  10  2   
 15   8  11  1   
 16   9  24  1   
 17  11  12  1   
 18  11  13  1   
 19  11  25  1   
 20  12  14  1   
 21  12  26  1   
 22  12  27  1   
 23  13  15  1   
 24  13  28  1   
 25  13  29  1   
 26  14  16  1   
 27  14  30  1   
 28  14  31  1   
 29  15  16  1   
 30  15  32  1   
 31  15  33  1   
 32  16  17  am  
 33  17  18  2   
 34  17  19  1   
 35  19  34  1   
 36  19  35  1   
 37  19  36  1   
@<TRIPOS>SUBSTRUCTURE
  1 ****   8 GROUP 4 **** **** 0

# MOE 2024.06 (io_trps.svl 2023.06)
