@<TRIPOS>MOLECULE
NONAME
46 50 1 0 0 
SMALL
USER_CHARGES


@<TRIPOS>ATOM
  1 O        0.7260    -0.4530     0.8160 O.2   1 <1>  -0.5700 
  2 C        1.7040    -1.1510     0.8330 C.2   1 <1>   0.5690 
  3 N        1.9050    -2.2950     1.5750 N.am  1 <1>  -0.4200 
  4 C        2.9980    -0.8760     0.1070 C.3   1 <1>  -0.0190 
  5 C        3.0370    -2.9530     1.1520 C.2   1 <1>   0.5690 
  6 C        1.0390    -2.7510     2.6860 C.3   1 <1>   0.1400 
  7 C        3.4970    -0.0020    -1.0680 C.3   1 <1>   0.0580 
  8 C        3.4170    -2.3350    -0.1630 C.3   1 <1>  -0.0190 
  9 O        3.5940    -3.8710     1.6930 O.2   1 <1>  -0.5700 
 10 C        0.2090    -3.9600     2.2510 C.3   1 <1>   0.1200 
 11 C        3.1930    -0.7550    -2.3710 C.2   1 <1>  -0.2880 
 12 C        5.0790     0.0300    -0.9770 C.3   1 <1>   0.0000 
 13 C        4.5300    -2.4620    -1.2550 C.3   1 <1>   0.0580 
 14 O       -0.5070    -4.4390     3.3370 O.3   1 <1>  -0.6800 
 15 C        3.7250    -1.9840    -2.4770 C.2   1 <1>  -0.2880 
 16 C        5.8620    -0.1970     0.3830 C.3   1 <1>   0.0530 
 17 C        5.6650    -1.3990    -1.3370 C.3   1 <1>   0.0000 
 18 C        6.8520     0.5160     1.2730 C.2   1 <1>   0.5770 
 19 C        6.8730    -1.0170    -0.4400 C.3   1 <1>   0.0530 
 20 O        6.7330     1.6330     1.7020 O.2   1 <1>  -0.5700 
 21 N        7.8560    -0.3720     1.5530 N.am  1 <1>  -0.4200 
 22 C        7.7820    -1.4340     0.6920 C.2   1 <1>   0.5770 
 23 C        8.8520    -0.2100     2.6360 C.3   1 <1>   0.1400 
 24 O        8.3640    -2.4830     0.7780 O.2   1 <1>  -0.5700 
 25 C        9.9450     0.7720     2.2060 C.3   1 <1>   0.1200 
 26 O       10.8140     0.9830     3.2650 O.3   1 <1>  -0.6800 
 27 H        3.4860    -0.4390     0.9500 H     1 <1>   0.0800 
 28 H        0.3820    -1.9490     2.9790 H     1 <1>   0.0800 
 29 H        1.6640    -3.0180     3.5200 H     1 <1>   0.0800 
 30 H        3.0730     0.9880    -1.0400 H     1 <1>   0.0800 
 31 H        2.5980    -2.7790    -0.7140 H     1 <1>   0.0800 
 32 H        0.8370    -4.7560     1.8870 H     1 <1>   0.0800 
 33 H       -0.4990    -3.6730     1.4920 H     1 <1>   0.0800 
 34 H        2.5900    -0.2420    -3.1040 H     1 <1>   0.1500 
 35 H        5.5150     0.8030    -1.5890 H     1 <1>   0.0000 
 36 H        4.8840    -3.4710    -1.3810 H     1 <1>   0.0800 
 37 H        0.0770    -4.9150     3.9620 H     1 <1>   0.4000 
 38 H        3.6430    -2.6600    -3.3140 H     1 <1>   0.1500 
 39 H        5.3920    -0.9100     1.0350 H     1 <1>   0.0000 
 40 H        6.0430    -1.3990    -2.3470 H     1 <1>   0.0000 
 41 H        7.4870    -0.3630    -1.0450 H     1 <1>   0.0000 
 42 H        9.2930    -1.1660     2.8610 H     1 <1>   0.0800 
 43 H        8.3510     0.1630     3.5120 H     1 <1>   0.0800 
 44 H        9.5270     1.7220     1.9200 H     1 <1>   0.0800 
 45 H       10.5160     0.3620     1.3900 H     1 <1>   0.0800 
 46 H       10.4050     1.5520     3.9480 H     1 <1>   0.4000 
@<TRIPOS>BOND
  1   1   2  2   
  2   2   3  am  
  3   2   4  1   
  4   3   5  am  
  5   3   6  1   
  6   4   7  1   
  7   4   8  1   
  8   4  27  1   
  9   5   8  1   
 10   5   9  2   
 11   6  10  1   
 12   6  28  1   
 13   6  29  1   
 14   7  11  1   
 15   7  12  1   
 16   7  30  1   
 17   8  13  1   
 18   8  31  1   
 19  10  14  1   
 20  10  32  1   
 21  10  33  1   
 22  11  15  2   
 23  11  34  1   
 24  12  16  1   
 25  12  17  1   
 26  12  35  1   
 27  13  15  1   
 28  13  17  1   
 29  13  36  1   
 30  14  37  1   
 31  15  38  1   
 32  16  18  1   
 33  16  19  1   
 34  16  39  1   
 35  17  19  1   
 36  17  40  1   
 37  18  20  2   
 38  18  21  am  
 39  19  22  1   
 40  19  41  1   
 41  21  22  am  
 42  21  23  1   
 43  22  24  2   
 44  23  25  1   
 45  23  42  1   
 46  23  43  1   
 47  25  26  1   
 48  25  44  1   
 49  25  45  1   
 50  26  46  1   
@<TRIPOS>SUBSTRUCTURE
  1 ****  16 GROUP 4 **** **** 0

# MOE 2024.06 (io_trps.svl 2023.06)
