@<TRIPOS>MOLECULE
NONAME
39 41 1 0 0 
SMALL
USER_CHARGES


@<TRIPOS>ATOM
  1 N       -2.6900     2.1800    -0.3090 N.ar  1 <1>  -0.1790 
  2 C       -3.8970     2.7740    -0.0430 C.ar  1 <1>   0.3610 
  3 C       -1.5480     2.8570    -0.4910 C.ar  1 <1>   0.2180 
  4 C       -3.9650     4.1820     0.0540 C.ar  1 <1>   0.0000 
  5 C       -5.0390     1.9630     0.1030 C.ar  1 <1>  -0.1430 
  6 C       -1.5380     4.2250    -0.3500 C.ar  1 <1>  -0.1430 
  7 C       -0.3000     2.0400    -0.8200 C.3   1 <1>  -0.0160 
  8 C       -2.7180     4.9020     0.0080 C.ar  1 <1>   0.1000 
  9 C       -5.2650     4.7470     0.1870 C.ar  1 <1>  -0.1440 
 10 C       -6.2600     2.5520     0.2870 C.ar  1 <1>  -0.1500 
 11 C       -4.9670     0.4370     0.0600 C.3   1 <1>  -0.0970 
 12 C       -0.2160     4.9790    -0.5560 C.3   1 <1>  -0.0170 
 13 C        0.7260     2.0820     0.3220 C.3   1 <1>  -0.1600 
 14 N       -2.6480     6.1980     0.3630 N.pl3 1 <1>  -0.9000 
 15 C       -6.3670     3.9370     0.3140 C.ar  1 <1>  -0.1500 
 16 C       -5.5480     6.2480     0.1790 C.3   1 <1>  -0.0970 
 17 C        0.7870     4.6650     0.5620 C.3   1 <1>  -0.1600 
 18 C        1.5740     3.3630     0.3400 C.3   1 <1>  -0.1600 
 19 H       -2.6980     1.1640    -0.3840 H     1 <1>   0.4570 
 20 H        0.1480     2.3950    -1.7320 H     1 <1>   0.0800 
 21 H       -0.5710     1.0130    -0.9920 H     1 <1>   0.0800 
 22 H       -7.1590     1.9680     0.4030 H     1 <1>   0.1500 
 23 H       -4.6340     0.0970    -0.9050 H     1 <1>   0.0800 
 24 H       -5.9390     0.0060     0.2350 H     1 <1>   0.0800 
 25 H       -4.3090     0.0630     0.8250 H     1 <1>   0.0800 
 26 H       -0.3700     6.0410    -0.5860 H     1 <1>   0.0800 
 27 H        0.2100     4.7300    -1.5120 H     1 <1>   0.0800 
 28 H        1.4000     1.2490     0.2040 H     1 <1>   0.0800 
 29 H        0.2330     1.9590     1.2720 H     1 <1>   0.0800 
 30 H       -1.7810     6.7430     0.3920 H     1 <1>   0.4000 
 31 H       -3.4610     6.7350     0.6780 H     1 <1>   0.4000 
 32 H       -7.3520     4.3580     0.4340 H     1 <1>   0.1500 
 33 H       -6.5980     6.4460     0.0550 H     1 <1>   0.0800 
 34 H       -5.2420     6.6910     1.1100 H     1 <1>   0.0800 
 35 H       -5.0390     6.7220    -0.6410 H     1 <1>   0.0800 
 36 H        0.2810     4.6380     1.5130 H     1 <1>   0.0800 
 37 H        1.5000     5.4710     0.6080 H     1 <1>   0.0800 
 38 H        2.1290     3.4370    -0.5800 H     1 <1>   0.0800 
 39 H        2.2990     3.2730     1.1320 H     1 <1>   0.0800 
@<TRIPOS>BOND
  1   1   2  ar  
  2   1   3  ar  
  3   1  19  1   
  4   2   4  ar  
  5   2   5  ar  
  6   3   6  ar  
  7   3   7  1   
  8   4   8  ar  
  9   4   9  ar  
 10   5  10  ar  
 11   5  11  1   
 12   6   8  ar  
 13   6  12  1   
 14   7  13  1   
 15   7  20  1   
 16   7  21  1   
 17   8  14  1   
 18   9  15  ar  
 19   9  16  1   
 20  10  15  ar  
 21  10  22  1   
 22  11  23  1   
 23  11  24  1   
 24  11  25  1   
 25  12  17  1   
 26  12  26  1   
 27  12  27  1   
 28  13  18  1   
 29  13  28  1   
 30  13  29  1   
 31  14  30  1   
 32  14  31  1   
 33  15  32  1   
 34  16  33  1   
 35  16  34  1   
 36  16  35  1   
 37  17  18  1   
 38  17  36  1   
 39  17  37  1   
 40  18  38  1   
 41  18  39  1   
@<TRIPOS>SUBSTRUCTURE
  1 ****   8 GROUP 4 **** **** 0

# MOE 2024.06 (io_trps.svl 2023.06)
