@<TRIPOS>MOLECULE
NONAME
48 50 1 0 0 
SMALL
USER_CHARGES


@<TRIPOS>ATOM
  1 CL       0.2350     0.1930    -0.8690 Cl    1 <1>  -0.1770 
  2 C        1.9560     0.0080    -0.6380 C.ar  1 <1>   0.1770 
  3 C        2.7710     1.1230    -0.6890 C.ar  1 <1>  -0.1500 
  4 C        2.4770    -1.2520    -0.4080 C.ar  1 <1>  -0.1500 
  5 C        4.1350     0.9710    -0.5050 C.ar  1 <1>  -0.1500 
  6 C        3.8420    -1.4020    -0.2240 C.ar  1 <1>  -0.1500 
  7 C        4.6770    -0.2860    -0.2720 C.ar  1 <1>   0.0830 
  8 O        6.0220    -0.3440    -0.1020 O.3   1 <1>  -0.3630 
  9 C        6.6760    -1.5600     0.1950 C.3   1 <1>   0.1200 
 10 C        8.1760    -1.2780     0.3460 C.3   1 <1>   0.2000 
 11 O        8.6230    -0.5740    -0.7750 O.3   1 <1>  -0.6800 
 12 C        9.0150    -2.5670     0.4950 C.3   1 <1>   0.3430 
 13 N       10.4270    -2.3220     0.0690 N.4   1 <1>  -0.9590 
 14 C       11.1300    -3.5710    -0.4010 C.3   1 <1>   0.3430 
 15 C       11.2350    -1.5840     1.1100 C.3   1 <1>   0.3430 
 16 C       12.5770    -3.2980    -0.8640 C.3   1 <1>   0.2090 
 17 C       12.6800    -1.3060     0.6470 C.3   1 <1>   0.2090 
 18 N       13.3380    -2.5630     0.1860 N.pl3 1 <1>  -0.8380 
 19 C       14.7150    -2.5020     0.0090 C.ar  1 <1>   0.1000 
 20 C       15.2870    -1.7260    -0.9940 C.ar  1 <1>  -0.1500 
 21 C       15.5480    -3.2330     0.8450 C.ar  1 <1>  -0.1500 
 22 C       16.6600    -1.6810    -1.1540 C.ar  1 <1>  -0.1500 
 23 C       16.9220    -3.1910     0.6890 C.ar  1 <1>  -0.1500 
 24 C       17.4800    -2.4140    -0.3120 C.ar  1 <1>  -0.1500 
 25 H        2.3410     2.0920    -0.8690 H     1 <1>   0.1500 
 26 H        1.8170    -2.1000    -0.3750 H     1 <1>   0.1500 
 27 H        4.7810     1.8290    -0.5410 H     1 <1>   0.1500 
 28 H        4.2240    -2.3890    -0.0480 H     1 <1>   0.1500 
 29 H        6.4960    -2.2480    -0.6140 H     1 <1>   0.0800 
 30 H        6.2660    -1.9520     1.1100 H     1 <1>   0.0800 
 31 H        8.3250    -0.6500     1.2080 H     1 <1>   0.0800 
 32 H        7.9450     0.1060    -1.0030 H     1 <1>   0.4000 
 33 H        8.5810    -3.3200    -0.1410 H     1 <1>   0.0800 
 34 H        8.9760    -2.9280     1.5090 H     1 <1>   0.0800 
 35 H       10.3270    -1.6720    -0.7350 H     1 <1>   0.4500 
 36 H       10.5820    -4.0170    -1.2140 H     1 <1>   0.0800 
 37 H       11.1700    -4.2850     0.4040 H     1 <1>   0.0800 
 38 H       11.2830    -2.1710     2.0110 H     1 <1>   0.0800 
 39 H       10.7590    -0.6470     1.3460 H     1 <1>   0.0800 
 40 H       12.5690    -2.7240    -1.7740 H     1 <1>   0.0800 
 41 H       13.0710    -4.2340    -1.0670 H     1 <1>   0.0800 
 42 H       13.2460    -0.8910     1.4650 H     1 <1>   0.0800 
 43 H       12.6750    -0.5840    -0.1520 H     1 <1>   0.0800 
 44 H       14.6580    -1.1560    -1.6500 H     1 <1>   0.1500 
 45 H       15.1120    -3.8340     1.6210 H     1 <1>   0.1500 
 46 H       17.0940    -1.0770    -1.9320 H     1 <1>   0.1500 
 47 H       17.5570    -3.7610     1.3440 H     1 <1>   0.1500 
 48 H       18.5490    -2.3800    -0.4360 H     1 <1>   0.1500 
@<TRIPOS>BOND
  1   1   2  1   
  2   2   3  ar  
  3   2   4  ar  
  4   3   5  ar  
  5   3  25  1   
  6   4   6  ar  
  7   4  26  1   
  8   5   7  ar  
  9   5  27  1   
 10   6   7  ar  
 11   6  28  1   
 12   7   8  1   
 13   8   9  1   
 14   9  10  1   
 15   9  29  1   
 16   9  30  1   
 17  10  11  1   
 18  10  12  1   
 19  10  31  1   
 20  11  32  1   
 21  12  13  1   
 22  12  33  1   
 23  12  34  1   
 24  13  14  1   
 25  13  15  1   
 26  13  35  1   
 27  14  16  1   
 28  14  36  1   
 29  14  37  1   
 30  15  17  1   
 31  15  38  1   
 32  15  39  1   
 33  16  18  1   
 34  16  40  1   
 35  16  41  1   
 36  17  18  1   
 37  17  42  1   
 38  17  43  1   
 39  18  19  1   
 40  19  20  ar  
 41  19  21  ar  
 42  20  22  ar  
 43  20  44  1   
 44  21  23  ar  
 45  21  45  1   
 46  22  24  ar  
 47  22  46  1   
 48  23  24  ar  
 49  23  47  1   
 50  24  48  1   
@<TRIPOS>SUBSTRUCTURE
  1 ****  13 GROUP 4 **** **** 0

# MOE 2024.06 (io_trps.svl 2023.06)
