@<TRIPOS>MOLECULE
NONAME
38 38 1 0 0 
SMALL
USER_CHARGES


@<TRIPOS>ATOM
  1 O       -0.3070    -0.5530    -0.3550 O.2   1 <1>  -0.5700 
  2 C       -1.1500    -1.2620     0.1310 C.2   1 <1>   0.5690 
  3 N       -0.8250    -2.1120     1.1260 N.am  1 <1>  -0.8000 
  4 C       -2.5800    -1.1830    -0.3920 C.3   1 <1>   0.1810 
  5 O       -3.4370    -2.0910     0.2930 O.3   1 <1>  -0.3630 
  6 C       -4.7570    -2.1690     0.0060 C.ar  1 <1>   0.0830 
  7 C       -5.4950    -3.0960     0.7230 C.ar  1 <1>  -0.1500 
  8 C       -5.3930    -1.3830    -0.9500 C.ar  1 <1>  -0.1500 
  9 C       -6.8520    -3.2390     0.5020 C.ar  1 <1>  -0.1500 
 10 C       -6.7520    -1.5240    -1.1720 C.ar  1 <1>  -0.1500 
 11 C       -7.4890    -2.4480    -0.4430 C.ar  1 <1>  -0.1430 
 12 C       -8.9760    -2.5820    -0.6650 C.3   1 <1>   0.4860 
 13 N       -9.6180    -1.6670     0.3030 N.4   1 <1>  -0.9060 
 14 C      -11.0770    -1.5900     0.2990 C.3   1 <1>   0.5030 
 15 C      -11.4560    -0.5880     1.3840 C.3   1 <1>  -0.2400 
 16 C      -11.5630    -1.0930    -1.0620 C.3   1 <1>  -0.2400 
 17 C      -11.6670    -2.9610     0.6270 C.3   1 <1>  -0.2400 
 18 H        0.1320    -2.1610     1.4730 H     1 <1>   0.3700 
 19 H       -1.5180    -2.7270     1.5570 H     1 <1>   0.3700 
 20 H       -2.5880    -1.4310    -1.4370 H     1 <1>   0.0800 
 21 H       -2.9500    -0.1860    -0.2450 H     1 <1>   0.0800 
 22 H       -4.9940    -3.7060     1.4550 H     1 <1>   0.1500 
 23 H       -4.8480    -0.6600    -1.5300 H     1 <1>   0.1500 
 24 H       -7.3940    -3.9740     1.0740 H     1 <1>   0.1500 
 25 H       -7.2200    -0.9060    -1.9200 H     1 <1>   0.1500 
 26 H       -9.2850    -3.6000    -0.4930 H     1 <1>   0.0800 
 27 H       -9.2250    -2.3040    -1.6770 H     1 <1>   0.0800 
 28 H       -9.2360    -0.7310     0.1470 H     1 <1>   0.4500 
 29 H       -9.3050    -1.9370     1.2390 H     1 <1>   0.4500 
 30 H      -11.1190    -0.9140     2.3520 H     1 <1>   0.0800 
 31 H      -12.5270    -0.4860     1.4300 H     1 <1>   0.0800 
 32 H      -11.0470     0.3850     1.1760 H     1 <1>   0.0800 
 33 H      -11.1120    -0.1500    -1.3150 H     1 <1>   0.0800 
 34 H      -12.6290    -0.9470    -1.0330 H     1 <1>   0.0800 
 35 H      -11.3620    -1.8060    -1.8420 H     1 <1>   0.0800 
 36 H      -12.7360    -2.8810     0.7160 H     1 <1>   0.0800 
 37 H      -11.4660    -3.6780    -0.1480 H     1 <1>   0.0800 
 38 H      -11.2890    -3.3320     1.5630 H     1 <1>   0.0800 
@<TRIPOS>BOND
  1   1   2  2   
  2   2   3  am  
  3   2   4  1   
  4   3  18  1   
  5   3  19  1   
  6   4   5  1   
  7   4  20  1   
  8   4  21  1   
  9   5   6  1   
 10   6   7  ar  
 11   6   8  ar  
 12   7   9  ar  
 13   7  22  1   
 14   8  10  ar  
 15   8  23  1   
 16   9  11  ar  
 17   9  24  1   
 18  10  11  ar  
 19  10  25  1   
 20  11  12  1   
 21  12  13  1   
 22  12  26  1   
 23  12  27  1   
 24  13  14  1   
 25  13  28  1   
 26  13  29  1   
 27  14  15  1   
 28  14  16  1   
 29  14  17  1   
 30  15  30  1   
 31  15  31  1   
 32  15  32  1   
 33  16  33  1   
 34  16  34  1   
 35  16  35  1   
 36  17  36  1   
 37  17  37  1   
 38  17  38  1   
@<TRIPOS>SUBSTRUCTURE
  1 ****  10 GROUP 4 **** **** 0

# MOE 2024.06 (io_trps.svl 2023.06)
