@<TRIPOS>MOLECULE
NONAME
25 26 1 0 0 
SMALL
USER_CHARGES


@<TRIPOS>ATOM
  1 O       -1.3640     0.4960    -0.7650 O.2   1 <1>  -0.5700 
  2 C       -2.0250    -0.4560    -0.4140 C.2   1 <1>   0.5690 
  3 N       -2.1740    -1.6050    -1.0780 N.am  1 <1>  -0.4100 
  4 C       -2.8460    -0.4900     0.8460 C.3   1 <1>  -0.0990 
  5 N       -3.0690    -2.5300    -0.4280 N.pl3 1 <1>  -0.4890 
  6 C       -3.6590    -1.7960     0.7220 C.3   1 <1>   0.2090 
  7 C       -2.7850    -3.8900    -0.3220 C.ar  1 <1>   0.1000 
  8 C       -1.6050    -4.4050     0.2350 C.ar  1 <1>  -0.1440 
  9 C       -3.7440    -4.7840    -0.7910 C.ar  1 <1>  -0.1500 
 10 C       -1.4190    -5.7760     0.3010 C.ar  1 <1>  -0.1500 
 11 C       -0.5060    -3.5010     0.7800 C.3   1 <1>  -0.0970 
 12 C       -3.5510    -6.1490    -0.7190 C.ar  1 <1>  -0.1500 
 13 C       -2.3840    -6.6480    -0.1720 C.ar  1 <1>  -0.1500 
 14 H       -1.8470    -1.7570    -2.0370 H     1 <1>   0.3700 
 15 H       -3.4900     0.3670     0.9060 H     1 <1>   0.0800 
 16 H       -2.1980    -0.5210     1.7010 H     1 <1>   0.0800 
 17 H       -4.6910    -1.5820     0.5030 H     1 <1>   0.0800 
 18 H       -3.5940    -2.3880     1.6180 H     1 <1>   0.0800 
 19 H       -4.6470    -4.3910    -1.2200 H     1 <1>   0.1500 
 20 H       -0.5170    -6.1820     0.7230 H     1 <1>   0.1500 
 21 H       -0.9200    -2.7830     1.4630 H     1 <1>   0.0800 
 22 H       -0.0260    -2.9800    -0.0280 H     1 <1>   0.0800 
 23 H        0.2400    -4.0700     1.3050 H     1 <1>   0.0800 
 24 H       -4.3050    -6.8220    -1.0890 H     1 <1>   0.1500 
 25 H       -2.2270    -7.7110    -0.1140 H     1 <1>   0.1500 
@<TRIPOS>BOND
  1   1   2  2   
  2   2   3  am  
  3   2   4  1   
  4   3   5  1   
  5   3  14  1   
  6   4   6  1   
  7   4  15  1   
  8   4  16  1   
  9   5   6  1   
 10   5   7  1   
 11   6  17  1   
 12   6  18  1   
 13   7   8  ar  
 14   7   9  ar  
 15   8  10  ar  
 16   8  11  1   
 17   9  12  ar  
 18   9  19  1   
 19  10  13  ar  
 20  10  20  1   
 21  11  21  1   
 22  11  22  1   
 23  11  23  1   
 24  12  13  ar  
 25  12  24  1   
 26  13  25  1   
@<TRIPOS>SUBSTRUCTURE
  1 ****   7 GROUP 4 **** **** 0

# MOE 2024.06 (io_trps.svl 2023.06)
