@<TRIPOS>MOLECULE
NONAME
29 28 1 0 0 
SMALL
USER_CHARGES


@<TRIPOS>ATOM
  1 P       -0.4430     0.0420     0.1310 P.3   1 <1>   1.1180 
  2 O       -1.1750     1.2820    -0.1240 O.2   1 <1>  -0.7000 
  3 O        1.1360     0.2520    -0.0790 O.3   1 <1>  -0.5510 
  4 C       -0.9370    -1.3170    -0.8950 C.2   1 <1>  -0.0820 
  5 C       -0.6130    -0.4130     1.8360 C.3   1 <1>  -0.2400 
  6 C        2.0140    -0.8260    -0.0770 C.3   1 <1>   0.1200 
  7 C       -1.6260    -0.8890    -2.0510 C.1   1 <1>   0.4920 
  8 C       -0.6720    -2.6400    -0.6440 C.2   1 <1>  -0.2880 
  9 C        3.4550    -0.3110    -0.2060 C.3   1 <1>  -0.0800 
 10 N       -2.1830    -0.5790    -3.0030 N.1   1 <1>  -0.5570 
 11 O       -0.0290    -3.0040     0.3610 O.3   1 <1>  -0.8500 
 12 C       -1.0920    -3.8090    -1.5140 C.3   1 <1>  -0.1020 
 13 C        4.4280    -1.4940    -0.2820 C.3   1 <1>  -0.2400 
 14 C        3.8400     0.6050     0.9650 C.3   1 <1>  -0.2400 
 15 H       -0.3150     0.3910     2.4780 H     1 <1>   0.0800 
 16 H       -0.0180    -1.2670     2.0910 H     1 <1>   0.0800 
 17 H       -1.6310    -0.6580     2.0620 H     1 <1>   0.0800 
 18 H        1.8880    -1.3800     0.8380 H     1 <1>   0.0800 
 19 H        1.7670    -1.4700    -0.9040 H     1 <1>   0.0800 
 20 H        3.5270     0.2450    -1.1260 H     1 <1>   0.0800 
 21 H       -1.6910    -4.4810    -0.9280 H     1 <1>   0.0800 
 22 H       -0.2140    -4.3350    -1.8390 H     1 <1>   0.0800 
 23 H       -1.6550    -3.5060    -2.3760 H     1 <1>   0.0800 
 24 H        4.3750    -2.0820     0.6170 H     1 <1>   0.0800 
 25 H        5.4370    -1.1440    -0.4100 H     1 <1>   0.0800 
 26 H        4.1770    -2.1250    -1.1160 H     1 <1>   0.0800 
 27 H        3.7500     0.0780     1.8990 H     1 <1>   0.0800 
 28 H        3.1910     1.4620     0.9930 H     1 <1>   0.0800 
 29 H        4.8520     0.9500     0.8560 H     1 <1>   0.0800 
@<TRIPOS>BOND
  1   1   2  2   
  2   1   3  1   
  3   1   4  1   
  4   1   5  1   
  5   3   6  1   
  6   4   7  1   
  7   4   8  2   
  8   5  15  1   
  9   5  16  1   
 10   5  17  1   
 11   6   9  1   
 12   6  18  1   
 13   6  19  1   
 14   7  10  3   
 15   8  11  1   
 16   8  12  1   
 17   9  13  1   
 18   9  14  1   
 19   9  20  1   
 20  12  21  1   
 21  12  22  1   
 22  12  23  1   
 23  13  24  1   
 24  13  25  1   
 25  13  26  1   
 26  14  27  1   
 27  14  28  1   
 28  14  29  1   
@<TRIPOS>SUBSTRUCTURE
  1 ****   3 GROUP 4 **** **** 0

# MOE 2024.06 (io_trps.svl 2023.06)
