@<TRIPOS>MOLECULE
NONAME
43 44 1 0 0 
SMALL
USER_CHARGES


@<TRIPOS>ATOM
  1 CL      -1.2790     3.0400    -2.4280 Cl    1 <1>  -0.1770 
  2 C       -2.1090     2.2670    -1.0940 C.ar  1 <1>   0.1770 
  3 C       -1.4680     2.1090     0.1400 C.ar  1 <1>   0.1990 
  4 C       -3.4020     1.8260    -1.3100 C.ar  1 <1>  -0.1500 
  5 N       -0.1600     2.5410     0.3790 N.am  1 <1>  -0.6930 
  6 C       -2.1790     1.4980     1.1660 C.ar  1 <1>  -0.1500 
  7 C       -4.0930     1.2120    -0.2780 C.ar  1 <1>  -0.1500 
  8 S        0.1170     4.0740     1.1290 S.o2  1 <1>   1.3330 
  9 C        1.0350     1.6390     0.2380 C.3   1 <1>   0.3370 
 10 C       -3.4700     1.0570     0.9480 C.ar  1 <1>   0.1770 
 11 O       -1.1310     4.4730     1.7320 O.2   1 <1>  -0.6500 
 12 O        1.2950     3.9290     1.9500 O.2   1 <1>  -0.6500 
 13 C        0.4600     5.1740    -0.2300 C.3   1 <1>  -0.1350 
 14 C        2.2040     2.2830    -0.5560 C.2   1 <1>   0.5690 
 15 C        0.6510     0.2930    -0.4020 C.3   1 <1>  -0.2400 
 16 CL      -4.3380     0.2830     2.2490 Cl    1 <1>  -0.1770 
 17 O        1.9690     2.6230    -1.6960 O.2   1 <1>  -0.5700 
 18 N        3.4670     2.4610    -0.0290 N.am  1 <1>  -0.6600 
 19 C        3.8650     2.3090     1.4030 C.3   1 <1>   0.1400 
 20 C        4.6030     2.8960    -0.8930 C.3   1 <1>   0.1400 
 21 C        4.9690     1.2540     1.5160 C.3   1 <1>  -0.1600 
 22 C        5.7300     1.8590    -0.8150 C.3   1 <1>  -0.1600 
 23 C        6.1740     1.6090     0.6330 C.3   1 <1>  -0.1600 
 24 H       -3.8610     1.9640    -2.2730 H     1 <1>   0.1500 
 25 H       -1.7270     1.3750     2.1330 H     1 <1>   0.1500 
 26 H       -5.1000     0.8580    -0.4160 H     1 <1>   0.1500 
 27 H        1.3650     1.4110     1.2300 H     1 <1>   0.0800 
 28 H       -0.3630     5.1830    -0.9170 H     1 <1>   0.0800 
 29 H        1.3430     4.8720    -0.7540 H     1 <1>   0.0800 
 30 H        0.6080     6.1700     0.1360 H     1 <1>   0.0800 
 31 H        0.2630     0.4480    -1.3930 H     1 <1>   0.0800 
 32 H       -0.0710    -0.2280     0.1990 H     1 <1>   0.0800 
 33 H        1.5260    -0.3250    -0.4810 H     1 <1>   0.0800 
 34 H        3.0410     2.0380     2.0320 H     1 <1>   0.0800 
 35 H        4.2330     3.2570     1.7590 H     1 <1>   0.0800 
 36 H        4.9580     3.8520    -0.5500 H     1 <1>   0.0800 
 37 H        4.2920     3.0050    -1.9180 H     1 <1>   0.0800 
 38 H        4.5720     0.2970     1.2240 H     1 <1>   0.0800 
 39 H        5.2850     1.1790     2.5420 H     1 <1>   0.0800 
 40 H        6.5680     2.2030    -1.3960 H     1 <1>   0.0800 
 41 H        5.3830     0.9400    -1.2540 H     1 <1>   0.0800 
 42 H        6.8960     0.8100     0.6610 H     1 <1>   0.0800 
 43 H        6.6470     2.4960     1.0180 H     1 <1>   0.0800 
@<TRIPOS>BOND
  1   1   2  1   
  2   2   3  ar  
  3   2   4  ar  
  4   3   5  1   
  5   3   6  ar  
  6   4   7  ar  
  7   4  24  1   
  8   5   8  am  
  9   5   9  1   
 10   6  10  ar  
 11   6  25  1   
 12   7  10  ar  
 13   7  26  1   
 14   8  11  2   
 15   8  12  2   
 16   8  13  1   
 17   9  14  1   
 18   9  15  1   
 19   9  27  1   
 20  10  16  1   
 21  13  28  1   
 22  13  29  1   
 23  13  30  1   
 24  14  17  2   
 25  14  18  am  
 26  15  31  1   
 27  15  32  1   
 28  15  33  1   
 29  18  19  1   
 30  18  20  1   
 31  19  21  1   
 32  19  34  1   
 33  19  35  1   
 34  20  22  1   
 35  20  36  1   
 36  20  37  1   
 37  21  23  1   
 38  21  38  1   
 39  21  39  1   
 40  22  23  1   
 41  22  40  1   
 42  22  41  1   
 43  23  42  1   
 44  23  43  1   
@<TRIPOS>SUBSTRUCTURE
  1 ****   5 GROUP 4 **** **** 0

# MOE 2024.06 (io_trps.svl 2023.06)
