@<TRIPOS>MOLECULE
NONAME
37 40 1 0 0 
SMALL
USER_CHARGES


@<TRIPOS>ATOM
  1 CL       0.2050    -0.2920    -0.3250 Cl    1 <1>  -0.1770 
  2 C       -0.8470     1.1040    -0.2850 C.ar  1 <1>   0.1770 
  3 C       -2.1980     0.9510    -0.0070 C.ar  1 <1>  -0.1440 
  4 C       -0.2930     2.3430    -0.5360 C.ar  1 <1>  -0.1500 
  5 C       -2.9930     2.0870     0.0120 C.ar  1 <1>  -0.1500 
  6 C       -2.8000    -0.4180     0.2710 C.3   1 <1>  -0.0960 
  7 C       -1.0860     3.4820    -0.5140 C.ar  1 <1>   0.1170 
  8 C       -2.4440     3.3320    -0.2400 C.ar  1 <1>  -0.1500 
  9 N       -0.4850     4.7220    -0.7810 N.am  1 <1>  -0.5470 
 10 C       -0.8780     5.9980    -0.4770 C.2   1 <1>   0.5690 
 11 O       -1.8970     6.2590     0.1120 O.2   1 <1>  -0.5700 
 12 C        0.0620     7.1300    -0.9080 C.3   1 <1>  -0.0190 
 13 C        1.5640     7.1080    -0.0230 C.3   1 <1>  -0.0190 
 14 C       -0.5140     8.7790    -0.6950 C.3   1 <1>  -0.0800 
 15 C        2.8460     7.9510    -0.4180 C.2   1 <1>   0.6590 
 16 C        1.2950     8.1400     1.0610 C.3   1 <1>  -0.0800 
 17 C        0.1330    10.1890     0.1310 C.3   1 <1>  -0.1600 
 18 C        0.3070     8.4700     0.1560 C.3   1 <1>  -0.1600 
 19 O        3.7680     7.4960    -1.0380 O.2   1 <1>  -0.5700 
 20 O        2.7850     9.2710    -0.0010 O.3   1 <1>  -0.4300 
 21 C        1.6160     9.6100     0.8350 C.3   1 <1>   0.2000 
 22 H        0.7570     2.4100    -0.7440 H     1 <1>   0.1500 
 23 H       -4.0460     2.0090     0.2230 H     1 <1>   0.1500 
 24 H       -2.6560    -1.0620    -0.5790 H     1 <1>   0.0800 
 25 H       -3.8550    -0.3430     0.4670 H     1 <1>   0.0800 
 26 H       -2.3240    -0.8610     1.1270 H     1 <1>   0.0800 
 27 H       -3.0880     4.1920    -0.2240 H     1 <1>   0.1500 
 28 H        0.4140     4.6530    -1.2550 H     1 <1>   0.3700 
 29 H        0.2670     6.9670    -1.9550 H     1 <1>   0.0800 
 30 H        1.8330     6.1470     0.3770 H     1 <1>   0.0800 
 31 H       -1.5870     8.7520    -0.5280 H     1 <1>   0.0800 
 32 H        0.9300     7.8180     2.0270 H     1 <1>   0.0800 
 33 H       -0.5400    10.5550     0.8970 H     1 <1>   0.0800 
 34 H        0.3260    11.0040    -0.5480 H     1 <1>   0.0800 
 35 H        0.9180     8.8330    -0.9450 H     1 <1>   0.0800 
 36 H       -0.5150     8.2620     0.8950 H     1 <1>   0.0800 
 37 H        1.9370    10.1360     1.7180 H     1 <1>   0.0800 
@<TRIPOS>BOND
  1   1   2  1   
  2   2   3  ar  
  3   2   4  ar  
  4   3   5  ar  
  5   3   6  1   
  6   4   7  ar  
  7   4  22  1   
  8   5   8  ar  
  9   5  23  1   
 10   6  24  1   
 11   6  25  1   
 12   6  26  1   
 13   7   8  ar  
 14   7   9  1   
 15   8  27  1   
 16   9  10  am  
 17   9  28  1   
 18  10  11  2   
 19  10  12  1   
 20  12  13  1   
 21  12  14  1   
 22  12  29  1   
 23  13  15  1   
 24  13  16  1   
 25  13  30  1   
 26  14  17  1   
 27  14  18  1   
 28  14  31  1   
 29  15  19  2   
 30  15  20  1   
 31  16  18  1   
 32  16  21  1   
 33  16  32  1   
 34  17  21  1   
 35  17  33  1   
 36  17  34  1   
 37  18  35  1   
 38  18  36  1   
 39  20  21  1   
 40  21  37  1   
@<TRIPOS>SUBSTRUCTURE
  1 ****   9 GROUP 4 **** **** 0

# MOE 2024.06 (io_trps.svl 2023.06)
