@<TRIPOS>MOLECULE
NONAME
41 42 1 0 0 
SMALL
USER_CHARGES


@<TRIPOS>ATOM
  1 O       -1.3440     0.6370     0.1090 O.2   1 <1>  -0.5700 
  2 C       -2.1610    -0.2630     0.0780 C.2   1 <1>   0.7060 
  3 O       -3.4300     0.0770    -0.1450 O.3   1 <1>  -0.2330 
  4 C       -1.8390    -1.6550     0.2730 C.2   1 <1>  -0.1240 
  5 C       -4.4310    -0.8220    -0.2090 C.ar  1 <1>   0.0820 
  6 C       -2.8200    -2.5980     0.2550 C.2   1 <1>  -0.1670 
  7 C       -0.3570    -1.9700     0.5030 C.3   1 <1>  -0.1020 
  8 C       -4.1750    -2.1880    -0.0210 C.ar  1 <1>   0.0280 
  9 C       -5.7080    -0.3530    -0.4690 C.ar  1 <1>  -0.1500 
 10 C       -2.5790    -4.0860     0.5230 C.3   1 <1>  -0.1020 
 11 C       -5.2690    -3.0560    -0.1250 C.ar  1 <1>  -0.1500 
 12 C       -6.7720    -1.2270    -0.5580 C.ar  1 <1>   0.0830 
 13 C       -6.5430    -2.5920    -0.3870 C.ar  1 <1>  -0.1500 
 14 O       -7.9880    -0.6940    -0.8130 O.3   1 <1>  -0.3630 
 15 C       -9.1510    -1.4970    -0.9130 C.3   1 <1>   0.1810 
 16 C      -10.3830    -0.6500    -1.2170 C.2   1 <1>   0.4480 
 17 O      -10.8500    -0.6730    -2.3190 O.2   1 <1>  -0.5700 
 18 C      -11.0320     0.1650    -0.0670 C.3   1 <1>   0.0610 
 19 C      -10.0050     1.0380     0.6790 C.3   1 <1>  -0.2400 
 20 C      -12.1230     1.1080    -0.6150 C.3   1 <1>  -0.2400 
 21 C      -11.7000    -0.7830     0.9460 C.3   1 <1>  -0.2400 
 22 H        0.2660    -1.2830    -0.0420 H     1 <1>   0.0800 
 23 H       -0.0940    -2.9540     0.1640 H     1 <1>   0.0800 
 24 H       -0.1230    -1.8800     1.5490 H     1 <1>   0.0800 
 25 H       -5.8720     0.7000    -0.6060 H     1 <1>   0.1500 
 26 H       -3.2620    -4.4370     1.2760 H     1 <1>   0.0800 
 27 H       -1.5930    -4.2930     0.8870 H     1 <1>   0.0800 
 28 H       -2.7330    -4.6510    -0.3790 H     1 <1>   0.0800 
 29 H       -5.1320    -4.1140    -0.0050 H     1 <1>   0.1500 
 30 H       -7.3440    -3.3030    -0.4570 H     1 <1>   0.1500 
 31 H       -9.2790    -2.0290     0.0100 H     1 <1>   0.0800 
 32 H       -9.0010    -2.1940    -1.7170 H     1 <1>   0.0800 
 33 H       -9.2760     0.4330     1.1870 H     1 <1>   0.0800 
 34 H      -10.4910     1.6550     1.4140 H     1 <1>   0.0800 
 35 H       -9.4890     1.6790    -0.0140 H     1 <1>   0.0800 
 36 H      -11.6980     1.7920    -1.3290 H     1 <1>   0.0800 
 37 H      -12.5780     1.6780     0.1750 H     1 <1>   0.0800 
 38 H      -12.8920     0.5440    -1.1130 H     1 <1>   0.0800 
 39 H      -10.9750    -1.4150     1.4250 H     1 <1>   0.0800 
 40 H      -12.4230    -1.4070     0.4490 H     1 <1>   0.0800 
 41 H      -12.2090    -0.2220     1.7100 H     1 <1>   0.0800 
@<TRIPOS>BOND
  1   1   2  2   
  2   2   3  1   
  3   2   4  1   
  4   3   5  1   
  5   4   6  2   
  6   4   7  1   
  7   5   8  ar  
  8   5   9  ar  
  9   6   8  1   
 10   6  10  1   
 11   7  22  1   
 12   7  23  1   
 13   7  24  1   
 14   8  11  ar  
 15   9  12  ar  
 16   9  25  1   
 17  10  26  1   
 18  10  27  1   
 19  10  28  1   
 20  11  13  ar  
 21  11  29  1   
 22  12  13  ar  
 23  12  14  1   
 24  13  30  1   
 25  14  15  1   
 26  15  16  1   
 27  15  31  1   
 28  15  32  1   
 29  16  17  2   
 30  16  18  1   
 31  18  19  1   
 32  18  20  1   
 33  18  21  1   
 34  19  33  1   
 35  19  34  1   
 36  19  35  1   
 37  20  36  1   
 38  20  37  1   
 39  20  38  1   
 40  21  39  1   
 41  21  40  1   
 42  21  41  1   
@<TRIPOS>SUBSTRUCTURE
  1 ****  12 GROUP 4 **** **** 0

# MOE 2024.06 (io_trps.svl 2023.06)
