@<TRIPOS>MOLECULE
NONAME
47 49 1 0 0 
SMALL
USER_CHARGES


@<TRIPOS>ATOM
  1 P        0.0880     0.2010    -0.2300 P.3   1 <1>   1.2420 
  2 O       -0.7210     0.6330    -1.3710 O.2   1 <1>  -0.7000 
  3 O       -0.6860     0.3150     1.1780 O.3   1 <1>  -0.5510 
  4 O        0.4190    -1.3710    -0.2930 O.3   1 <1>  -0.5510 
  5 C        1.7090     1.0070    -0.0150 C.3   1 <1>   0.4330 
  6 C       -1.4480     1.4260     1.5020 C.3   1 <1>   0.1200 
  7 C       -0.6190    -2.2770    -0.3880 C.3   1 <1>   0.1200 
  8 N        2.6750     0.3580     0.9580 N.pl3 1 <1>  -0.8690 
  9 C        1.5780     2.4960     0.3310 C.ar  1 <1>  -0.1440 
 10 C       -2.8920     1.1740     1.0750 C.3   1 <1>  -0.2400 
 11 C       -0.0130    -3.6750    -0.4350 C.3   1 <1>  -0.2400 
 12 C        3.9730     0.1560     0.5150 C.ar  1 <1>   0.1000 
 13 C        1.2720     3.3930    -0.6920 C.ar  1 <1>  -0.1500 
 14 C        1.7260     2.9720     1.6380 C.ar  1 <1>  -0.1500 
 15 C        4.7890     1.2280     0.1760 C.ar  1 <1>  -0.1500 
 16 C        4.4760    -1.1330     0.4020 C.ar  1 <1>  -0.1500 
 17 C        1.1270     4.7280    -0.3760 C.ar  1 <1>   0.0820 
 18 C        1.5760     4.3200     1.9370 C.ar  1 <1>  -0.1500 
 19 C        6.0780     1.0160    -0.2780 C.ar  1 <1>  -0.1500 
 20 C        5.7650    -1.3490    -0.0510 C.ar  1 <1>  -0.1500 
 21 O        0.8340     5.7450    -1.1930 O.3   1 <1>  -0.3620 
 22 C        1.2730     5.1810     0.9020 C.ar  1 <1>   0.0820 
 23 C        6.5680    -0.2740    -0.3940 C.ar  1 <1>  -0.1500 
 24 C        0.7920     6.9190    -0.3860 C.3   1 <1>   0.4000 
 25 O        1.0780     6.5020     0.9480 O.3   1 <1>  -0.3620 
 26 H        2.1940     0.9700    -0.9740 H     1 <1>   0.0800 
 27 H       -1.0450     2.3020     1.0220 H     1 <1>   0.0800 
 28 H       -1.3970     1.5550     2.5700 H     1 <1>   0.0800 
 29 H       -1.1780    -2.0680    -1.2860 H     1 <1>   0.0800 
 30 H       -1.2590    -2.1640     0.4720 H     1 <1>   0.0800 
 31 H        2.2490    -0.5020     1.3270 H     1 <1>   0.4000 
 32 H       -2.9580     1.0680     0.0070 H     1 <1>   0.0800 
 33 H       -3.5050     2.0060     1.3690 H     1 <1>   0.0800 
 34 H       -3.2700     0.2860     1.5500 H     1 <1>   0.0800 
 35 H        0.6320    -3.7690    -1.2900 H     1 <1>   0.0800 
 36 H       -0.7960    -4.4070    -0.5140 H     1 <1>   0.0800 
 37 H        0.5470    -3.8670     0.4630 H     1 <1>   0.0800 
 38 H        1.1410     3.0770    -1.7120 H     1 <1>   0.1500 
 39 H        1.9630     2.2910     2.4380 H     1 <1>   0.1500 
 40 H        4.4110     2.2290     0.2770 H     1 <1>   0.1500 
 41 H        3.8550    -1.9690     0.6670 H     1 <1>   0.1500 
 42 H        1.6910     4.6930     2.9380 H     1 <1>   0.1500 
 43 H        6.7010     1.8540    -0.5390 H     1 <1>   0.1500 
 44 H        6.1450    -2.3520    -0.1370 H     1 <1>   0.1500 
 45 H        7.5700    -0.4410    -0.7470 H     1 <1>   0.1500 
 46 H       -0.1920     7.3500    -0.4260 H     1 <1>   0.0800 
 47 H        1.5450     7.6120    -0.7160 H     1 <1>   0.0800 
@<TRIPOS>BOND
  1   1   2  2   
  2   1   3  1   
  3   1   4  1   
  4   1   5  1   
  5   3   6  1   
  6   4   7  1   
  7   5   8  1   
  8   5   9  1   
  9   5  26  1   
 10   6  10  1   
 11   6  27  1   
 12   6  28  1   
 13   7  11  1   
 14   7  29  1   
 15   7  30  1   
 16   8  12  1   
 17   8  31  1   
 18   9  13  ar  
 19   9  14  ar  
 20  10  32  1   
 21  10  33  1   
 22  10  34  1   
 23  11  35  1   
 24  11  36  1   
 25  11  37  1   
 26  12  15  ar  
 27  12  16  ar  
 28  13  17  ar  
 29  13  38  1   
 30  14  18  ar  
 31  14  39  1   
 32  15  19  ar  
 33  15  40  1   
 34  16  20  ar  
 35  16  41  1   
 36  17  21  1   
 37  17  22  ar  
 38  18  22  ar  
 39  18  42  1   
 40  19  23  ar  
 41  19  43  1   
 42  20  23  ar  
 43  20  44  1   
 44  21  24  1   
 45  22  25  1   
 46  23  45  1   
 47  24  25  1   
 48  24  46  1   
 49  24  47  1   
@<TRIPOS>SUBSTRUCTURE
  1 ****   5 GROUP 4 **** **** 0

# MOE 2024.06 (io_trps.svl 2023.06)
