@<TRIPOS>MOLECULE
NONAME
35 36 1 0 0 
SMALL
USER_CHARGES


@<TRIPOS>ATOM
  1 S        0.9340     0.3390     0.7160 S.3   1 <1>  -0.0800 
  2 C        1.7630     1.4220    -0.3540 C.2   1 <1>   0.4420 
  3 C       -0.5510     0.9430     0.0640 C.2   1 <1>   0.1980 
  4 N        0.9510     2.1060    -1.0740 N.2   1 <1>  -0.3380 
  5 N        3.1380     1.4000    -0.3050 N.am  1 <1>  -0.4940 
  6 N       -0.3660     1.8280    -0.8290 N.2   1 <1>  -0.3380 
  7 C       -1.8420     0.3630     0.6190 C.3   1 <1>   0.0200 
  8 C        4.0500     2.1780    -0.9520 C.2   1 <1>   0.6900 
  9 C       -3.0950     0.9670    -0.0340 C.3   1 <1>  -0.1600 
 10 O        3.7410     3.1540    -1.5950 O.2   1 <1>  -0.5700 
 11 N        5.3700     1.8820    -0.8400 N.am  1 <1>  -0.5470 
 12 C       -4.3820     0.3640     0.5440 C.3   1 <1>  -0.1600 
 13 C        6.0240     0.7660    -0.2900 C.ar  1 <1>   0.1170 
 14 C       -5.6190     0.9770    -0.1170 C.3   1 <1>  -0.2400 
 15 C        7.1650     0.9070     0.4990 C.ar  1 <1>   0.1900 
 16 C        5.5700    -0.5290    -0.5220 C.ar  1 <1>  -0.1500 
 17 F        7.6380     2.1090     0.7230 F     1 <1>  -0.1900 
 18 C        7.8250    -0.1660     1.0640 C.ar  1 <1>  -0.1500 
 19 C        6.2180    -1.6200     0.0370 C.ar  1 <1>  -0.1500 
 20 C        7.3410    -1.4430     0.8310 C.ar  1 <1>  -0.1500 
 21 H        3.5540     0.7250     0.3260 H     1 <1>   0.3700 
 22 H       -1.8700     0.5430     1.6780 H     1 <1>   0.0800 
 23 H       -1.8350    -0.7010     0.4590 H     1 <1>   0.0800 
 24 H       -3.0590     0.7910    -1.0960 H     1 <1>   0.0800 
 25 H       -3.0940     2.0330     0.1230 H     1 <1>   0.0800 
 26 H        5.9600     2.6580    -1.1450 H     1 <1>   0.3700 
 27 H       -4.4240     0.5430     1.6050 H     1 <1>   0.0800 
 28 H       -4.3890    -0.7010     0.3830 H     1 <1>   0.0800 
 29 H       -5.6460     2.0400     0.0470 H     1 <1>   0.0800 
 30 H       -6.5130     0.5440     0.2980 H     1 <1>   0.0800 
 31 H       -5.6110     0.7920    -1.1770 H     1 <1>   0.0800 
 32 H        4.7160    -0.6930    -1.1560 H     1 <1>   0.1500 
 33 H        8.6990    -0.0060     1.6700 H     1 <1>   0.1500 
 34 H        5.8520    -2.6160    -0.1510 H     1 <1>   0.1500 
 35 H        7.8390    -2.2960     1.2620 H     1 <1>   0.1500 
@<TRIPOS>BOND
  1   1   2  1   
  2   1   3  1   
  3   2   4  2   
  4   2   5  1   
  5   3   6  2   
  6   3   7  1   
  7   4   6  1   
  8   5   8  am  
  9   5  21  1   
 10   7   9  1   
 11   7  22  1   
 12   7  23  1   
 13   8  10  2   
 14   8  11  am  
 15   9  12  1   
 16   9  24  1   
 17   9  25  1   
 18  11  13  1   
 19  11  26  1   
 20  12  14  1   
 21  12  27  1   
 22  12  28  1   
 23  13  15  ar  
 24  13  16  ar  
 25  14  29  1   
 26  14  30  1   
 27  14  31  1   
 28  15  17  1   
 29  15  18  ar  
 30  16  19  ar  
 31  16  32  1   
 32  18  20  ar  
 33  18  33  1   
 34  19  20  ar  
 35  19  34  1   
 36  20  35  1   
@<TRIPOS>SUBSTRUCTURE
  1 ****   5 GROUP 4 **** **** 0

# MOE 2024.06 (io_trps.svl 2023.06)
