@<TRIPOS>MOLECULE
NONAME
37 39 1 0 0 
SMALL
USER_CHARGES


@<TRIPOS>ATOM
  1 S        0.3600     0.0610    -0.3340 S.3   1 <1>  -0.3710 
  2 C        1.0560    -1.5510    -0.0240 C.2   1 <1>   0.6510 
  3 C       -1.4630    -0.1110    -0.2450 C.3   1 <1>   0.0700 
  4 N        2.3400    -1.5920    -0.0140 N.2   1 <1>  -0.6210 
  5 N        0.2300    -2.6260     0.1870 N.am  1 <1>  -0.4200 
  6 C       -1.8210    -1.4930    -0.7680 C.3   1 <1>  -0.1600 
  7 C        2.9730    -2.7790     0.2330 C.2   1 <1>   0.1430 
  8 C        0.8320    -3.8290     0.4980 C.2   1 <1>   0.6160 
  9 C       -1.2650    -2.5790     0.1480 C.3   1 <1>   0.1400 
 10 C        2.2470    -3.9070     0.5060 C.2   1 <1>   0.0790 
 11 C        4.4190    -2.7360     0.2000 C.ar  1 <1>   0.0280 
 12 O        0.1280    -4.7960     0.7650 O.2   1 <1>  -0.5700 
 13 C        2.8410    -5.1660     0.8140 C.1   1 <1>   0.4920 
 14 C        5.1710    -3.5940    -0.6060 C.ar  1 <1>  -0.1500 
 15 C        5.1180    -1.8170     0.9820 C.ar  1 <1>  -0.1500 
 16 N        3.3520    -6.1630     1.0340 N.1   1 <1>  -0.5570 
 17 C        6.5530    -3.5560    -0.6130 C.ar  1 <1>  -0.1500 
 18 C        6.4990    -1.7710     0.9790 C.ar  1 <1>  -0.1500 
 19 C        7.2310    -2.6410     0.1870 C.ar  1 <1>   0.0830 
 20 O        8.5790    -2.5390     0.2450 O.3   1 <1>  -0.3630 
 21 C        9.4200    -3.3920    -0.4940 C.3   1 <1>   0.1200 
 22 C       10.8660    -3.0190    -0.1780 C.3   1 <1>  -0.2400 
 23 H       -1.8850     0.6690    -0.8540 H     1 <1>   0.0800 
 24 H       -1.7530     0.0250     0.7830 H     1 <1>   0.0800 
 25 H       -1.4560    -1.6240    -1.7730 H     1 <1>   0.0800 
 26 H       -2.8920    -1.5810    -0.7950 H     1 <1>   0.0800 
 27 H       -1.6310    -2.4390     1.1510 H     1 <1>   0.0800 
 28 H       -1.6420    -3.5250    -0.2050 H     1 <1>   0.0800 
 29 H        4.6680    -4.3030    -1.2390 H     1 <1>   0.1500 
 30 H        4.5660    -1.1280     1.5980 H     1 <1>   0.1500 
 31 H        7.0850    -4.2410    -1.2450 H     1 <1>   0.1500 
 32 H        7.0230    -1.0580     1.5900 H     1 <1>   0.1500 
 33 H        9.2120    -3.2540    -1.5410 H     1 <1>   0.0800 
 34 H        9.2170    -4.4080    -0.2020 H     1 <1>   0.0800 
 35 H       11.0520    -1.9980    -0.4580 H     1 <1>   0.0800 
 36 H       11.5350    -3.6550    -0.7280 H     1 <1>   0.0800 
 37 H       11.0570    -3.1450     0.8730 H     1 <1>   0.0800 
@<TRIPOS>BOND
  1   1   2  1   
  2   1   3  1   
  3   2   4  2   
  4   2   5  1   
  5   3   6  1   
  6   3  23  1   
  7   3  24  1   
  8   4   7  1   
  9   5   8  am  
 10   5   9  1   
 11   6   9  1   
 12   6  25  1   
 13   6  26  1   
 14   7  10  2   
 15   7  11  1   
 16   8  10  1   
 17   8  12  2   
 18   9  27  1   
 19   9  28  1   
 20  10  13  1   
 21  11  14  ar  
 22  11  15  ar  
 23  13  16  3   
 24  14  17  ar  
 25  14  29  1   
 26  15  18  ar  
 27  15  30  1   
 28  17  19  ar  
 29  17  31  1   
 30  18  19  ar  
 31  18  32  1   
 32  19  20  1   
 33  20  21  1   
 34  21  22  1   
 35  21  33  1   
 36  21  34  1   
 37  22  35  1   
 38  22  36  1   
 39  22  37  1   
@<TRIPOS>SUBSTRUCTURE
  1 ****   7 GROUP 4 **** **** 0

# MOE 2024.06 (io_trps.svl 2023.06)
