@<TRIPOS>MOLECULE
NONAME
37 38 1 0 0 
SMALL
USER_CHARGES


@<TRIPOS>ATOM
  1 CL      -0.3700    -0.4090    -0.7350 Cl    1 <1>  -0.1770 
  2 C        0.6660    -1.6700    -0.1030 C.ar  1 <1>   0.1770 
  3 C        0.1400    -2.8860     0.2980 C.ar  1 <1>   0.1900 
  4 C        2.0250    -1.4420    -0.0020 C.ar  1 <1>  -0.1500 
  5 F       -1.1470    -3.1080     0.2060 F     1 <1>  -0.1900 
  6 C        0.9490    -3.8860     0.8040 C.ar  1 <1>  -0.1500 
  7 C        2.8660    -2.4350     0.5010 C.ar  1 <1>   0.1170 
  8 C        2.3110    -3.6500     0.9020 C.ar  1 <1>  -0.1500 
  9 N        4.2510    -2.2520     0.6360 N.am  1 <1>  -0.5470 
 10 C        5.1050    -1.4370    -0.0550 C.2   1 <1>   0.5690 
 11 O        4.7570    -0.7360    -0.9740 O.2   1 <1>  -0.5700 
 12 C        6.5710    -1.4320     0.3500 C.3   1 <1>  -0.0190 
 13 C        7.0860     0.0110     0.4190 C.3   1 <1>   0.1960 
 14 C        7.4260    -2.2700    -0.6200 C.3   1 <1>  -0.1600 
 15 N        8.5050     0.0280     0.7930 N.am  1 <1>  -0.8490 
 16 C        8.9110    -2.1600    -0.2460 C.3   1 <1>  -0.1600 
 17 S        9.0870     1.5530     1.2510 S.o2  1 <1>   1.3330 
 18 C        9.3660    -0.7000    -0.1420 C.3   1 <1>   0.1960 
 19 O       10.4880     1.4140     1.5750 O.2   1 <1>  -0.6500 
 20 O        8.1600     2.1070     2.2090 O.2   1 <1>  -0.6500 
 21 C        8.9750     2.5320    -0.2350 C.3   1 <1>  -0.1350 
 22 H        2.4170    -0.4910    -0.3130 H     1 <1>   0.1500 
 23 H        0.5180    -4.8230     1.1100 H     1 <1>   0.1500 
 24 H        2.9490    -4.4240     1.2920 H     1 <1>   0.1500 
 25 H        4.6940    -2.8510     1.3310 H     1 <1>   0.3700 
 26 H        6.6560    -1.8480     1.3380 H     1 <1>   0.0800 
 27 H        6.5090     0.5480     1.1540 H     1 <1>   0.0800 
 28 H        6.9530     0.4940    -0.5350 H     1 <1>   0.0800 
 29 H        7.2830    -1.9090    -1.6250 H     1 <1>   0.0800 
 30 H        7.1170    -3.3010    -0.5900 H     1 <1>   0.0800 
 31 H        9.5090    -2.6660    -0.9820 H     1 <1>   0.0800 
 32 H        9.0850    -2.6390     0.7020 H     1 <1>   0.0800 
 33 H       10.3850    -0.6790     0.2100 H     1 <1>   0.0800 
 34 H        9.3310    -0.2360    -1.1130 H     1 <1>   0.0800 
 35 H        9.3320     3.5240    -0.0390 H     1 <1>   0.0800 
 36 H        9.5750     2.1050    -1.0140 H     1 <1>   0.0800 
 37 H        7.9590     2.5980    -0.5670 H     1 <1>   0.0800 
@<TRIPOS>BOND
  1   1   2  1   
  2   2   3  ar  
  3   2   4  ar  
  4   3   5  1   
  5   3   6  ar  
  6   4   7  ar  
  7   4  22  1   
  8   6   8  ar  
  9   6  23  1   
 10   7   8  ar  
 11   7   9  1   
 12   8  24  1   
 13   9  10  am  
 14   9  25  1   
 15  10  11  2   
 16  10  12  1   
 17  12  13  1   
 18  12  14  1   
 19  12  26  1   
 20  13  15  1   
 21  13  27  1   
 22  13  28  1   
 23  14  16  1   
 24  14  29  1   
 25  14  30  1   
 26  15  17  am  
 27  15  18  1   
 28  16  18  1   
 29  16  31  1   
 30  16  32  1   
 31  17  19  2   
 32  17  20  2   
 33  17  21  1   
 34  18  33  1   
 35  18  34  1   
 36  21  35  1   
 37  21  36  1   
 38  21  37  1   
@<TRIPOS>SUBSTRUCTURE
  1 ****  10 GROUP 4 **** **** 0

# MOE 2024.06 (io_trps.svl 2023.06)
