@<TRIPOS>MOLECULE
NONAME
47 48 1 0 0 
SMALL
USER_CHARGES


@<TRIPOS>ATOM
  1 O        0.8900    -0.1300    -1.4230 O.3   1 <1>  -0.3630 
  2 C        0.4890    -1.2280    -0.7330 C.ar  1 <1>   0.0830 
  3 C        1.8130     0.7430    -0.8070 C.3   1 <1>   0.1200 
  4 C        0.9260    -2.4820    -1.1570 C.ar  1 <1>  -0.1440 
  5 C       -0.3550    -1.1140     0.3730 C.ar  1 <1>  -0.1440 
  6 C        3.2080     0.1050    -0.8040 C.3   1 <1>  -0.1600 
  7 C        0.5750    -3.6050    -0.4270 C.ar  1 <1>  -0.1500 
  8 C        1.7730    -2.6590    -2.4090 C.3   1 <1>  -0.0960 
  9 C       -0.6880    -2.2530     1.0870 C.ar  1 <1>  -0.1500 
 10 C       -0.9610     0.2110     0.8180 C.3   1 <1>  -0.0970 
 11 C        4.2470     1.0250    -0.1480 C.3   1 <1>  -0.1600 
 12 C       -0.2200    -3.4970     0.7010 C.ar  1 <1>  -0.1430 
 13 C        5.6130     0.3370    -0.1020 C.3   1 <1>   0.3430 
 14 C       -0.5940    -4.7370     1.4930 C.3   1 <1>  -0.0970 
 15 N        6.5950     1.1850     0.6250 N.4   1 <1>  -0.9590 
 16 C        6.9830     2.4250    -0.0930 C.3   1 <1>   0.3430 
 17 C        7.8630     0.4710     0.9100 C.3   1 <1>   0.3430 
 18 C        8.2970     2.8420     0.5530 C.3   1 <1>  -0.1600 
 19 C        8.8600     1.5800     1.2140 C.3   1 <1>  -0.1600 
 20 H        1.4860     0.9510     0.1950 H     1 <1>   0.0800 
 21 H        1.8130     1.6560    -1.3740 H     1 <1>   0.0800 
 22 H        3.4930    -0.1030    -1.8210 H     1 <1>   0.0800 
 23 H        3.1620    -0.8220    -0.2580 H     1 <1>   0.0800 
 24 H        0.9190    -4.5750    -0.7400 H     1 <1>   0.1500 
 25 H        1.5340    -1.9050    -3.1380 H     1 <1>   0.0800 
 26 H        1.5860    -3.6190    -2.8550 H     1 <1>   0.0800 
 27 H        2.8160    -2.5910    -2.1610 H     1 <1>   0.0800 
 28 H       -1.3260    -2.1740     1.9490 H     1 <1>   0.1500 
 29 H       -0.3540     0.6570     1.5850 H     1 <1>   0.0800 
 30 H       -1.9490     0.0530     1.2110 H     1 <1>   0.0800 
 31 H       -1.0430     0.8900    -0.0120 H     1 <1>   0.0800 
 32 H        3.9260     1.2520     0.8540 H     1 <1>   0.0800 
 33 H        4.3080     1.9380    -0.7130 H     1 <1>   0.0800 
 34 H        5.9600     0.1430    -1.1050 H     1 <1>   0.0800 
 35 H        5.5080    -0.6090     0.4060 H     1 <1>   0.0800 
 36 H        0.1990    -5.4610     1.4530 H     1 <1>   0.0800 
 37 H       -1.4860    -5.1740     1.0830 H     1 <1>   0.0800 
 38 H       -0.7720    -4.4860     2.5240 H     1 <1>   0.0800 
 39 H        6.1920     1.4620     1.5300 H     1 <1>   0.4500 
 40 H        6.2320     3.1930    -0.0020 H     1 <1>   0.0800 
 41 H        7.1490     2.2060    -1.1360 H     1 <1>   0.0800 
 42 H        8.1830    -0.0690     0.0340 H     1 <1>   0.0800 
 43 H        7.7620    -0.2140     1.7380 H     1 <1>   0.0800 
 44 H        8.1160     3.6050     1.2910 H     1 <1>   0.0800 
 45 H        8.9690     3.2390    -0.1890 H     1 <1>   0.0800 
 46 H        9.8340     1.3270     0.8290 H     1 <1>   0.0800 
 47 H        8.9400     1.7180     2.2780 H     1 <1>   0.0800 
@<TRIPOS>BOND
  1   1   2  1   
  2   1   3  1   
  3   2   4  ar  
  4   2   5  ar  
  5   3   6  1   
  6   3  20  1   
  7   3  21  1   
  8   4   7  ar  
  9   4   8  1   
 10   5   9  ar  
 11   5  10  1   
 12   6  11  1   
 13   6  22  1   
 14   6  23  1   
 15   7  12  ar  
 16   7  24  1   
 17   8  25  1   
 18   8  26  1   
 19   8  27  1   
 20   9  12  ar  
 21   9  28  1   
 22  10  29  1   
 23  10  30  1   
 24  10  31  1   
 25  11  13  1   
 26  11  32  1   
 27  11  33  1   
 28  12  14  1   
 29  13  15  1   
 30  13  34  1   
 31  13  35  1   
 32  14  36  1   
 33  14  37  1   
 34  14  38  1   
 35  15  16  1   
 36  15  17  1   
 37  15  39  1   
 38  16  18  1   
 39  16  40  1   
 40  16  41  1   
 41  17  19  1   
 42  17  42  1   
 43  17  43  1   
 44  18  19  1   
 45  18  44  1   
 46  18  45  1   
 47  19  46  1   
 48  19  47  1   
@<TRIPOS>SUBSTRUCTURE
  1 ****   6 GROUP 4 **** **** 0

# MOE 2024.06 (io_trps.svl 2023.06)
