@<TRIPOS>MOLECULE
NONAME
44 45 1 0 0 
SMALL
USER_CHARGES


@<TRIPOS>ATOM
  1 O        0.7880    -1.0960     0.8800 O.3   1 <1>  -0.3630 
  2 C        0.6290    -2.3920     0.4920 C.ar  1 <1>   0.0830 
  3 C        2.0100    -0.5710     1.3550 C.3   1 <1>   0.1200 
  4 C       -0.5800    -2.7400    -0.1040 C.ar  1 <1>  -0.1440 
  5 C        1.6090    -3.3660     0.6670 C.ar  1 <1>  -0.1500 
  6 C        2.9530    -0.3180     0.1730 C.3   1 <1>  -0.1600 
  7 C       -0.7910    -4.0450    -0.5190 C.ar  1 <1>  -0.1500 
  8 C       -1.6720    -1.6980    -0.3040 C.3   1 <1>  -0.0970 
  9 C        1.3860    -4.6660     0.2480 C.ar  1 <1>  -0.1500 
 10 C        4.2880     0.2700     0.6480 C.3   1 <1>  -0.1600 
 11 C        0.1860    -5.0120    -0.3490 C.ar  1 <1>  -0.1430 
 12 C        5.2380     0.5320    -0.5260 C.3   1 <1>   0.0210 
 13 C       -0.0630    -6.4370    -0.8070 C.3   1 <1>  -0.0970 
 14 C        6.5480     1.1130    -0.0210 C.2   1 <1>  -0.1810 
 15 C        6.8450     2.4630     0.1590 C.2   1 <1>   0.1080 
 16 C        7.6720     0.4610     0.3510 C.2   1 <1>  -0.3320 
 17 N        8.0480     2.6470     0.6020 N.2   1 <1>  -0.7070 
 18 C        5.9130     3.6210    -0.1190 C.3   1 <1>  -0.0590 
 19 N        8.5580     1.4100     0.7200 N.pl3 1 <1>   0.3000 
 20 C        7.9830    -1.0250     0.3910 C.3   1 <1>  -0.0600 
 21 H        2.4280    -1.2430     2.0830 H     1 <1>   0.0800 
 22 H        1.7820     0.3590     1.8450 H     1 <1>   0.0800 
 23 H        2.5500    -3.1380     1.1250 H     1 <1>   0.1500 
 24 H        2.4780     0.3690    -0.5060 H     1 <1>   0.0800 
 25 H        3.1370    -1.2410    -0.3490 H     1 <1>   0.0800 
 26 H       -1.7260    -4.3140    -0.9780 H     1 <1>   0.1500 
 27 H       -1.9620    -1.2910     0.6470 H     1 <1>   0.0800 
 28 H       -2.5380    -2.1260    -0.7740 H     1 <1>   0.0800 
 29 H       -1.3020    -0.9000    -0.9230 H     1 <1>   0.0800 
 30 H        2.1510    -5.4080     0.3900 H     1 <1>   0.1500 
 31 H        4.7620    -0.4110     1.3330 H     1 <1>   0.0800 
 32 H        4.1120     1.1940     1.1710 H     1 <1>   0.0800 
 33 H        4.7870     1.2140    -1.2240 H     1 <1>   0.0800 
 34 H        5.4340    -0.3870    -1.0490 H     1 <1>   0.0800 
 35 H       -0.6610    -6.4430    -1.7010 H     1 <1>   0.0800 
 36 H       -0.5810    -6.9800    -0.0380 H     1 <1>   0.0800 
 37 H        0.8660    -6.9340    -1.0190 H     1 <1>   0.0800 
 38 H        4.9410     3.4210     0.2880 H     1 <1>   0.0800 
 39 H        5.8340     3.7720    -1.1790 H     1 <1>   0.0800 
 40 H        6.3010     4.5160     0.3320 H     1 <1>   0.0800 
 41 H        9.5140     1.2470     1.0550 H     1 <1>   0.2700 
 42 H        7.1250    -1.6010     0.0980 H     1 <1>   0.0800 
 43 H        8.2640    -1.3170     1.3870 H     1 <1>   0.0800 
 44 H        8.7920    -1.2510    -0.2820 H     1 <1>   0.0800 
@<TRIPOS>BOND
  1   1   2  1   
  2   1   3  1   
  3   2   4  ar  
  4   2   5  ar  
  5   3   6  1   
  6   3  21  1   
  7   3  22  1   
  8   4   7  ar  
  9   4   8  1   
 10   5   9  ar  
 11   5  23  1   
 12   6  10  1   
 13   6  24  1   
 14   6  25  1   
 15   7  11  ar  
 16   7  26  1   
 17   8  27  1   
 18   8  28  1   
 19   8  29  1   
 20   9  11  ar  
 21   9  30  1   
 22  10  12  1   
 23  10  31  1   
 24  10  32  1   
 25  11  13  1   
 26  12  14  1   
 27  12  33  1   
 28  12  34  1   
 29  13  35  1   
 30  13  36  1   
 31  13  37  1   
 32  14  15  1   
 33  14  16  2   
 34  15  17  2   
 35  15  18  1   
 36  16  19  1   
 37  16  20  1   
 38  17  19  1   
 39  18  38  1   
 40  18  39  1   
 41  18  40  1   
 42  19  41  1   
 43  20  42  1   
 44  20  43  1   
 45  20  44  1   
@<TRIPOS>SUBSTRUCTURE
  1 ****   6 GROUP 4 **** **** 0

# MOE 2024.06 (io_trps.svl 2023.06)
