@<TRIPOS>MOLECULE
NONAME
39 39 1 0 0 
SMALL
USER_CHARGES


@<TRIPOS>ATOM
  1 S       -0.0380    -0.2460     1.0220 S.2   1 <1>  -0.3800 
  2 C       -0.3110    -1.6720     0.3290 C.2   1 <1>   0.5810 
  3 S       -2.0080    -2.1870     0.2410 S.3   1 <1>  -0.3710 
  4 N        0.6350    -2.4870    -0.1910 N.am  1 <1>  -0.6600 
  5 C       -3.0030    -0.8380     1.0630 C.3   1 <1>   0.1310 
  6 C        2.0850    -2.1350    -0.2320 C.3   1 <1>   0.0600 
  7 C        0.3360    -3.8160    -0.7970 C.3   1 <1>   0.0600 
  8 C       -4.4890    -1.1570     1.0470 C.2   1 <1>   0.5690 
  9 O       -5.2000    -0.6030     1.8490 O.2   1 <1>  -0.5700 
 10 N       -4.9500    -2.0570     0.1280 N.am  1 <1>  -0.5470 
 11 C       -6.2290    -2.6120    -0.0190 C.ar  1 <1>   0.1170 
 12 C       -6.3950    -3.9890     0.1570 C.ar  1 <1>  -0.1430 
 13 C       -7.3330    -1.8270    -0.3700 C.ar  1 <1>  -0.1430 
 14 C       -7.6460    -4.5600    -0.0130 C.ar  1 <1>  -0.1500 
 15 C       -5.2330    -4.9010     0.5460 C.3   1 <1>  -0.0170 
 16 C       -8.5750    -2.4170    -0.5280 C.ar  1 <1>  -0.1500 
 17 C       -7.2170    -0.3240    -0.5980 C.3   1 <1>  -0.0970 
 18 C       -8.7340    -3.7790    -0.3520 C.ar  1 <1>  -0.1500 
 19 C       -4.4470    -5.3480    -0.6900 C.3   1 <1>  -0.2400 
 20 H       -2.8180     0.0770     0.5310 H     1 <1>   0.0800 
 21 H       -2.6570    -0.7520     2.0770 H     1 <1>   0.0800 
 22 H        2.2630    -1.1340     0.1170 H     1 <1>   0.0800 
 23 H        2.4480    -2.2090    -1.2420 H     1 <1>   0.0800 
 24 H        2.6400    -2.8160     0.3910 H     1 <1>   0.0800 
 25 H       -0.4630    -4.3070    -0.2700 H     1 <1>   0.0800 
 26 H        1.2040    -4.4520    -0.7490 H     1 <1>   0.0800 
 27 H        0.0540    -3.6880    -1.8280 H     1 <1>   0.0800 
 28 H       -4.2150    -2.5520    -0.3780 H     1 <1>   0.3700 
 29 H       -7.7830    -5.6180     0.1190 H     1 <1>   0.1500 
 30 H       -5.6130    -5.7700     1.0540 H     1 <1>   0.0800 
 31 H       -4.5790    -4.3990     1.2380 H     1 <1>   0.0800 
 32 H       -9.4300    -1.8200    -0.7900 H     1 <1>   0.1500 
 33 H       -7.2020     0.1850     0.3490 H     1 <1>   0.0800 
 34 H       -8.0500     0.0430    -1.1690 H     1 <1>   0.0800 
 35 H       -6.3160    -0.0910    -1.1340 H     1 <1>   0.0800 
 36 H       -9.7030    -4.2290    -0.4790 H     1 <1>   0.1500 
 37 H       -5.0950    -5.8800    -1.3650 H     1 <1>   0.0800 
 38 H       -3.6420    -5.9990    -0.4000 H     1 <1>   0.0800 
 39 H       -4.0370    -4.5000    -1.2070 H     1 <1>   0.0800 
@<TRIPOS>BOND
  1   1   2  2   
  2   2   3  1   
  3   2   4  am  
  4   3   5  1   
  5   4   6  1   
  6   4   7  1   
  7   5   8  1   
  8   5  20  1   
  9   5  21  1   
 10   6  22  1   
 11   6  23  1   
 12   6  24  1   
 13   7  25  1   
 14   7  26  1   
 15   7  27  1   
 16   8   9  2   
 17   8  10  am  
 18  10  11  1   
 19  10  28  1   
 20  11  12  ar  
 21  11  13  ar  
 22  12  14  ar  
 23  12  15  1   
 24  13  16  ar  
 25  13  17  1   
 26  14  18  ar  
 27  14  29  1   
 28  15  19  1   
 29  15  30  1   
 30  15  31  1   
 31  16  18  ar  
 32  16  32  1   
 33  17  33  1   
 34  17  34  1   
 35  17  35  1   
 36  18  36  1   
 37  19  37  1   
 38  19  38  1   
 39  19  39  1   
@<TRIPOS>SUBSTRUCTURE
  1 ****  10 GROUP 4 **** **** 0

# MOE 2024.06 (io_trps.svl 2023.06)
