@<TRIPOS>MOLECULE
NONAME
32 32 1 0 0 
SMALL
USER_CHARGES


@<TRIPOS>ATOM
  1 O       -0.1380    -0.1890     0.7980 O.2   1 <1>  -0.5700 
  2 C       -0.0800    -1.2120     0.1470 C.2   1 <1>   0.8700 
  3 O        1.0590    -1.7410    -0.3040 O.3   1 <1>  -0.2330 
  4 O       -1.1720    -1.9020    -0.1660 O.3   1 <1>  -0.4300 
  5 C        2.3090    -1.2160    -0.1840 C.ar  1 <1>   0.0830 
  6 C       -2.4490    -1.4710     0.2570 C.3   1 <1>   0.1200 
  7 C        2.5660     0.1490    -0.2410 C.ar  1 <1>  -0.1500 
  8 C        3.3590    -2.1060    -0.0200 C.ar  1 <1>  -0.1500 
  9 C       -3.5130    -2.4730    -0.2170 C.3   1 <1>  -0.0800 
 10 C        3.8630     0.6180    -0.1200 C.ar  1 <1>  -0.1500 
 11 C        4.6550    -1.6370     0.0990 C.ar  1 <1>  -0.1500 
 12 C       -4.9120    -1.9820     0.1750 C.3   1 <1>  -0.2400 
 13 C       -3.2750    -3.8750     0.3640 C.3   1 <1>  -0.2400 
 14 C        4.9170    -0.2770     0.0520 C.ar  1 <1>   0.0830 
 15 O        6.2150     0.1000     0.1800 O.3   1 <1>  -0.3630 
 16 C        6.5830     1.4610     0.1760 C.3   1 <1>   0.0400 
 17 H       -2.6310    -0.4960    -0.1640 H     1 <1>   0.0800 
 18 H       -2.4450    -1.3990     1.3310 H     1 <1>   0.0800 
 19 H        1.7660     0.8530    -0.3820 H     1 <1>   0.1500 
 20 H        3.1620    -3.1620     0.0140 H     1 <1>   0.1500 
 21 H       -3.4670    -2.5290    -1.2920 H     1 <1>   0.0800 
 22 H        4.0320     1.6770    -0.1640 H     1 <1>   0.1500 
 23 H        5.4730    -2.3220     0.2280 H     1 <1>   0.1500 
 24 H       -5.0040    -1.9100     1.2450 H     1 <1>   0.0800 
 25 H       -5.6620    -2.6620    -0.1880 H     1 <1>   0.0800 
 26 H       -5.1020    -1.0130    -0.2520 H     1 <1>   0.0800 
 27 H       -3.2950    -3.8480     1.4400 H     1 <1>   0.0800 
 28 H       -2.3200    -4.2560     0.0490 H     1 <1>   0.0800 
 29 H       -4.0350    -4.5550     0.0230 H     1 <1>   0.0800 
 30 H        7.6490     1.5190     0.3020 H     1 <1>   0.0800 
 31 H        6.0910     1.9580     0.9930 H     1 <1>   0.0800 
 32 H        6.3020     1.8950    -0.7670 H     1 <1>   0.0800 
@<TRIPOS>BOND
  1   1   2  2   
  2   2   3  1   
  3   2   4  1   
  4   3   5  1   
  5   4   6  1   
  6   5   7  ar  
  7   5   8  ar  
  8   6   9  1   
  9   6  17  1   
 10   6  18  1   
 11   7  10  ar  
 12   7  19  1   
 13   8  11  ar  
 14   8  20  1   
 15   9  12  1   
 16   9  13  1   
 17   9  21  1   
 18  10  14  ar  
 19  10  22  1   
 20  11  14  ar  
 21  11  23  1   
 22  12  24  1   
 23  12  25  1   
 24  12  26  1   
 25  13  27  1   
 26  13  28  1   
 27  13  29  1   
 28  14  15  1   
 29  15  16  1   
 30  16  30  1   
 31  16  31  1   
 32  16  32  1   
@<TRIPOS>SUBSTRUCTURE
  1 ****   3 GROUP 4 **** **** 0

# MOE 2024.06 (io_trps.svl 2023.06)
