@<TRIPOS>MOLECULE
NONAME
52 53 1 0 0 
SMALL
USER_CHARGES


@<TRIPOS>ATOM
  1 S        0.1900    -0.3210     0.7650 S.3   1 <1>  -0.0800 
  2 C        0.9560     1.1950     0.3010 C.2   1 <1>   0.1040 
  3 C       -1.4030     0.3770     0.6310 C.2   1 <1>  -0.1400 
  4 N        2.3430     1.2580     0.2230 N.am  1 <1>  -0.4940 
  5 C        0.0120     2.1640     0.0570 C.2   1 <1>  -0.0860 
  6 C       -1.3330     1.6670     0.2750 C.2   1 <1>  -0.1810 
  7 C       -2.6190    -0.4840     0.9030 C.3   1 <1>   0.3200 
  8 C        3.3410     0.3350     0.4460 C.2   1 <1>   0.5690 
  9 C        0.3040     3.5090    -0.3780 C.2   1 <1>   0.8060 
 10 C       -2.6310     2.4560     0.1290 C.3   1 <1>   0.0210 
 11 N       -3.8480     0.2950     0.5750 N.am  1 <1>  -0.6600 
 12 O        3.1220    -0.7980     0.7990 O.2   1 <1>  -0.5700 
 13 C        4.8170     0.7620     0.2370 C.3   1 <1>   0.0610 
 14 O       -0.5470     4.3140    -0.7100 O.2   1 <1>  -0.5700 
 15 O        1.5860     3.9100    -0.4230 O.3   1 <1>  -0.4300 
 16 C       -3.7990     1.7640     0.8580 C.3   1 <1>   0.1400 
 17 C       -4.9660    -0.3060     0.0710 C.2   1 <1>   0.7800 
 18 C        5.4740    -0.1350    -0.8290 C.3   1 <1>  -0.2400 
 19 C        4.9680     2.2270    -0.2250 C.3   1 <1>  -0.2400 
 20 C        5.5960     0.6050     1.5570 C.3   1 <1>  -0.2400 
 21 C        1.9140     5.2300    -0.8130 C.3   1 <1>   0.1200 
 22 O       -5.9740     0.3120    -0.2140 O.2   1 <1>  -0.5700 
 23 O       -4.9350    -1.6300    -0.0960 O.3   1 <1>  -0.4300 
 24 C        3.4270     5.4070    -0.7420 C.3   1 <1>  -0.2400 
 25 C       -6.0490    -2.3200    -0.6130 C.3   1 <1>   0.1200 
 26 C       -5.6920    -3.8010    -0.6880 C.3   1 <1>  -0.2400 
 27 H        2.6990     2.1740    -0.0530 H     1 <1>   0.3700 
 28 H       -2.6400    -0.7700     1.9400 H     1 <1>   0.0800 
 29 H       -2.5610    -1.3720     0.2970 H     1 <1>   0.0800 
 30 H       -2.8710     2.5640    -0.9140 H     1 <1>   0.0800 
 31 H       -2.5220     3.4380     0.5500 H     1 <1>   0.0800 
 32 H       -4.7240     2.2370     0.5750 H     1 <1>   0.0800 
 33 H       -3.6740     1.8970     1.9190 H     1 <1>   0.0800 
 34 H        4.9510    -0.0480    -1.7650 H     1 <1>   0.0800 
 35 H        5.4370    -1.1660    -0.5220 H     1 <1>   0.0800 
 36 H        6.5030     0.1360    -0.9810 H     1 <1>   0.0800 
 37 H        4.4670     2.3800    -1.1640 H     1 <1>   0.0800 
 38 H        6.0070     2.4730    -0.3600 H     1 <1>   0.0800 
 39 H        4.5620     2.8990     0.5100 H     1 <1>   0.0800 
 40 H        5.5600    -0.4180     1.8910 H     1 <1>   0.0800 
 41 H        5.1620     1.2210     2.3240 H     1 <1>   0.0800 
 42 H        6.6270     0.8840     1.4330 H     1 <1>   0.0800 
 43 H        1.4200     5.9160    -0.1430 H     1 <1>   0.0800 
 44 H        1.5570     5.3900    -1.8170 H     1 <1>   0.0800 
 45 H        3.7790     5.2230     0.2570 H     1 <1>   0.0800 
 46 H        3.6810     6.4170    -1.0090 H     1 <1>   0.0800 
 47 H        3.9130     4.7450    -1.4350 H     1 <1>   0.0800 
 48 H       -6.2720    -1.9250    -1.5900 H     1 <1>   0.0800 
 49 H       -6.8870    -2.1560     0.0430 H     1 <1>   0.0800 
 50 H       -4.8460    -3.9460    -1.3360 H     1 <1>   0.0800 
 51 H       -6.5250    -4.3550    -1.0840 H     1 <1>   0.0800 
 52 H       -5.4650    -4.1780     0.2930 H     1 <1>   0.0800 
@<TRIPOS>BOND
  1   1   2  1   
  2   1   3  1   
  3   2   4  1   
  4   2   5  2   
  5   3   6  2   
  6   3   7  1   
  7   4   8  am  
  8   4  27  1   
  9   5   6  1   
 10   5   9  1   
 11   6  10  1   
 12   7  11  1   
 13   7  28  1   
 14   7  29  1   
 15   8  12  2   
 16   8  13  1   
 17   9  14  2   
 18   9  15  1   
 19  10  16  1   
 20  10  30  1   
 21  10  31  1   
 22  11  16  1   
 23  11  17  am  
 24  13  18  1   
 25  13  19  1   
 26  13  20  1   
 27  15  21  1   
 28  16  32  1   
 29  16  33  1   
 30  17  22  2   
 31  17  23  1   
 32  18  34  1   
 33  18  35  1   
 34  18  36  1   
 35  19  37  1   
 36  19  38  1   
 37  19  39  1   
 38  20  40  1   
 39  20  41  1   
 40  20  42  1   
 41  21  24  1   
 42  21  43  1   
 43  21  44  1   
 44  23  25  1   
 45  24  45  1   
 46  24  46  1   
 47  24  47  1   
 48  25  26  1   
 49  25  48  1   
 50  25  49  1   
 51  26  50  1   
 52  26  51  1   
 53  26  52  1   
@<TRIPOS>SUBSTRUCTURE
  1 ****   5 GROUP 4 **** **** 0

# MOE 2024.06 (io_trps.svl 2023.06)
