@<TRIPOS>MOLECULE
NONAME
28 28 1 0 0 
SMALL
USER_CHARGES


@<TRIPOS>ATOM
  1 BR      -0.1810    -0.1020     0.6390 Br    1 <1>  -0.1110 
  2 C        1.3810     0.9720     0.2960 C.ar  1 <1>   0.1110 
  3 C        1.3160     2.3590     0.2760 C.ar  1 <1>  -0.0090 
  4 C        2.5530     0.2760     0.0660 C.ar  1 <1>  -0.1500 
  5 S       -0.2250     3.2640     0.5610 S.o2  1 <1>   1.4470 
  6 C        2.5010     3.0310     0.0010 C.ar  1 <1>  -0.1500 
  7 C        3.7080     0.9800    -0.2030 C.ar  1 <1>  -0.1500 
  8 O       -0.9010     2.7670     1.7390 O.2   1 <1>  -0.6500 
  9 O        0.0040     4.6850     0.4390 O.2   1 <1>  -0.6500 
 10 N       -1.1290     2.9150    -0.8140 N.am  1 <1>  -0.9140 
 11 C        3.7120     2.3750    -0.2470 C.ar  1 <1>  -0.1790 
 12 C       -2.5740     3.0450    -0.7850 C.3   1 <1>   0.2760 
 13 C        4.9310     3.1170    -0.5440 C.2   1 <1>   0.9790 
 14 C       -3.0380     4.3690    -0.1800 C.3   1 <1>  -0.2400 
 15 C       -3.2190     1.8360    -0.1130 C.3   1 <1>  -0.2400 
 16 O        4.9100     4.3560    -0.6310 O.co2 1 <1>  -0.9000 
 17 O        6.0070     2.5200    -0.7210 O.co2 1 <1>  -0.9000 
 18 H        2.5620    -0.7990     0.0950 H     1 <1>   0.1500 
 19 H        2.5040     4.1100    -0.0290 H     1 <1>   0.1500 
 20 H        4.6330     0.4570    -0.3870 H     1 <1>   0.1500 
 21 H       -0.7950     3.6220    -1.4650 H     1 <1>   0.4200 
 22 H       -2.9020     3.0330    -1.8120 H     1 <1>   0.0800 
 23 H       -2.8510     4.4020     0.8790 H     1 <1>   0.0800 
 24 H       -4.0970     4.4790    -0.3270 H     1 <1>   0.0800 
 25 H       -2.5450     5.1970    -0.6560 H     1 <1>   0.0800 
 26 H       -3.0310     1.8200     0.9430 H     1 <1>   0.0800 
 27 H       -2.8490     0.9290    -0.5540 H     1 <1>   0.0800 
 28 H       -4.2840     1.8700    -0.2560 H     1 <1>   0.0800 
@<TRIPOS>BOND
  1   1   2  1   
  2   2   3  ar  
  3   2   4  ar  
  4   3   5  1   
  5   3   6  ar  
  6   4   7  ar  
  7   4  18  1   
  8   5   8  2   
  9   5   9  2   
 10   5  10  am  
 11   6  11  ar  
 12   6  19  1   
 13   7  11  ar  
 14   7  20  1   
 15  10  12  1   
 16  10  21  1   
 17  11  13  1   
 18  12  14  1   
 19  12  15  1   
 20  12  22  1   
 21  13  16  ar  
 22  13  17  ar  
 23  14  23  1   
 24  14  24  1   
 25  14  25  1   
 26  15  26  1   
 27  15  27  1   
 28  15  28  1   
@<TRIPOS>SUBSTRUCTURE
  1 ****   3 GROUP 4 **** **** 0

# MOE 2024.06 (io_trps.svl 2023.06)
