@<TRIPOS>MOLECULE
NONAME
40 41 1 0 0 
SMALL
USER_CHARGES


@<TRIPOS>ATOM
  1 O        0.3960    -0.8590     1.4610 O.2   1 <1>  -0.5700 
  2 C        0.8110    -1.8120     0.8270 C.2   1 <1>   0.5440 
  3 N       -0.0370    -2.8740     0.5790 N.am  1 <1>  -0.6600 
  4 C        2.1800    -1.7890     0.3500 C.ar  1 <1>   0.0860 
  5 C       -1.3460    -3.0100     1.2800 C.3   1 <1>   0.1400 
  6 C        0.1960    -3.8920    -0.4850 C.3   1 <1>   0.1400 
  7 C        3.0550    -2.8490     0.5780 C.ar  1 <1>  -0.1500 
  8 C        2.6770    -0.6910    -0.3490 C.ar  1 <1>  -0.1500 
  9 C       -2.4890    -2.9440     0.2630 C.3   1 <1>  -0.1600 
 10 C       -0.9410    -3.8410    -1.5110 C.3   1 <1>  -0.1600 
 11 C        4.3580    -2.8400     0.1170 C.ar  1 <1>   0.0830 
 12 C        3.9750    -0.6620    -0.8240 C.ar  1 <1>  -0.1500 
 13 C       -2.3170    -3.9890    -0.8480 C.3   1 <1>  -0.1600 
 14 O        5.0830    -3.9520     0.4180 O.3   1 <1>  -0.3630 
 15 C        4.8340    -1.7380    -0.6110 C.ar  1 <1>   0.0830 
 16 C        6.4440    -3.8420     0.7680 C.3   1 <1>   0.1200 
 17 O        6.1040    -1.7450    -1.1030 O.3   1 <1>  -0.3630 
 18 C        6.8140    -5.0620     1.6070 C.3   1 <1>  -0.2400 
 19 C        6.6090    -0.7070    -1.9130 C.3   1 <1>   0.0400 
 20 H       -1.4690    -2.2320     2.0140 H     1 <1>   0.0800 
 21 H       -1.3680    -3.9540     1.7940 H     1 <1>   0.0800 
 22 H        0.2380    -4.8680    -0.0330 H     1 <1>   0.0800 
 23 H        1.1280    -3.7160    -0.9930 H     1 <1>   0.0800 
 24 H        2.7080    -3.7010     1.1340 H     1 <1>   0.1500 
 25 H        2.0240     0.1480    -0.5160 H     1 <1>   0.1500 
 26 H       -2.5110    -1.9560    -0.1650 H     1 <1>   0.0800 
 27 H       -3.4240    -3.1020     0.7700 H     1 <1>   0.0800 
 28 H       -0.8030    -4.6250    -2.2340 H     1 <1>   0.0800 
 29 H       -0.8920    -2.9010    -2.0340 H     1 <1>   0.0800 
 30 H        4.2950     0.2120    -1.3600 H     1 <1>   0.1500 
 31 H       -3.0930    -3.8690    -1.5840 H     1 <1>   0.0800 
 32 H       -2.4070    -4.9760    -0.4260 H     1 <1>   0.0800 
 33 H        6.5850    -2.9340     1.3290 H     1 <1>   0.0800 
 34 H        7.0260    -3.8130    -0.1360 H     1 <1>   0.0800 
 35 H        6.2160    -5.0910     2.5000 H     1 <1>   0.0800 
 36 H        7.8500    -5.0070     1.8880 H     1 <1>   0.0800 
 37 H        6.6590    -5.9610     1.0390 H     1 <1>   0.0800 
 38 H        7.6130    -0.9650    -2.1980 H     1 <1>   0.0800 
 39 H        6.6150     0.2080    -1.3460 H     1 <1>   0.0800 
 40 H        5.9930    -0.6160    -2.7900 H     1 <1>   0.0800 
@<TRIPOS>BOND
  1   1   2  2   
  2   2   3  am  
  3   2   4  1   
  4   3   5  1   
  5   3   6  1   
  6   4   7  ar  
  7   4   8  ar  
  8   5   9  1   
  9   5  20  1   
 10   5  21  1   
 11   6  10  1   
 12   6  22  1   
 13   6  23  1   
 14   7  11  ar  
 15   7  24  1   
 16   8  12  ar  
 17   8  25  1   
 18   9  13  1   
 19   9  26  1   
 20   9  27  1   
 21  10  13  1   
 22  10  28  1   
 23  10  29  1   
 24  11  14  1   
 25  11  15  ar  
 26  12  15  ar  
 27  12  30  1   
 28  13  31  1   
 29  13  32  1   
 30  14  16  1   
 31  15  17  1   
 32  16  18  1   
 33  16  33  1   
 34  16  34  1   
 35  17  19  1   
 36  18  35  1   
 37  18  36  1   
 38  18  37  1   
 39  19  38  1   
 40  19  39  1   
 41  19  40  1   
@<TRIPOS>SUBSTRUCTURE
  1 ****   7 GROUP 4 **** **** 0

# MOE 2024.06 (io_trps.svl 2023.06)
