@<TRIPOS>MOLECULE
NONAME
46 47 1 0 0 
SMALL
USER_CHARGES


@<TRIPOS>ATOM
  1 S        0.3560     0.8780     1.4090 S.3   1 <1>  -0.0800 
  2 C       -0.3210    -0.5390     0.6480 C.2   1 <1>   0.1040 
  3 C        1.9950     0.5230     0.8570 C.2   1 <1>  -0.0450 
  4 N       -1.6680    -0.8140     0.7650 N.am  1 <1>  -0.4940 
  5 C        0.6570    -1.2470     0.0000 C.2   1 <1>  -0.0860 
  6 C        1.9490    -0.6130     0.0970 C.2   1 <1>  -0.1810 
  7 C        3.0130     1.4400     1.2920 C.2   1 <1>   0.5940 
  8 C       -2.7400    -0.1620     1.3180 C.2   1 <1>   0.5690 
  9 C        0.3610    -2.4840    -0.6800 C.2   1 <1>   0.8060 
 10 C        3.1510    -1.1740    -0.6590 C.3   1 <1>  -0.0590 
 11 O        2.8030     2.5910     1.5870 O.2   1 <1>  -0.5700 
 12 C        4.4480     0.9800     1.4340 C.3   1 <1>  -0.1790 
 13 O       -2.6770     0.8960     1.8940 O.2   1 <1>  -0.5700 
 14 C       -4.0980    -0.8550     1.1770 C.3   1 <1>   0.1710 
 15 O       -0.7410    -2.7510    -1.1260 O.2   1 <1>  -0.5700 
 16 O        1.3280    -3.4010    -0.8070 O.3   1 <1>  -0.4300 
 17 N       -4.0730    -2.0780     0.3090 N.3   1 <1>  -0.8100 
 18 C        1.0950    -4.6450    -1.4290 C.3   1 <1>   0.1200 
 19 C       -5.2300    -2.9500     0.5890 C.3   1 <1>   0.1100 
 20 C       -4.0530    -1.7230    -1.1370 C.3   1 <1>   0.1100 
 21 C        2.4040    -5.4290    -1.4190 C.3   1 <1>  -0.2400 
 22 C       -6.5790    -2.3240     0.1580 C.3   1 <1>   0.1200 
 23 C       -5.4520    -1.6500    -1.7940 C.3   1 <1>   0.1200 
 24 O       -6.4400    -1.3580    -0.8500 O.3   1 <1>  -0.5600 
 25 H       -1.9920    -1.6780     0.3040 H     1 <1>   0.3700 
 26 H        3.9280    -0.4430    -0.7680 H     1 <1>   0.0800 
 27 H        2.8620    -1.4670    -1.6530 H     1 <1>   0.0800 
 28 H        3.5470    -2.0320    -0.1450 H     1 <1>   0.0800 
 29 H        4.8960     1.4750     2.2760 H     1 <1>   0.0800 
 30 H        4.4910    -0.0790     1.6020 H     1 <1>   0.0800 
 31 H        5.0000     1.2380     0.5510 H     1 <1>   0.0800 
 32 H       -4.8110    -0.1450     0.7970 H     1 <1>   0.0800 
 33 H       -4.4070    -1.1300     2.1700 H     1 <1>   0.0800 
 34 H        0.7590    -4.4680    -2.4370 H     1 <1>   0.0800 
 35 H        0.3290    -5.1650    -0.8770 H     1 <1>   0.0800 
 36 H       -5.2610    -3.2020     1.6350 H     1 <1>   0.0800 
 37 H       -5.0960    -3.8740     0.0520 H     1 <1>   0.0800 
 38 H       -3.4740    -2.4610    -1.6650 H     1 <1>   0.0800 
 39 H       -3.5530    -0.7810    -1.2810 H     1 <1>   0.0800 
 40 H        3.1610    -4.8970    -1.9660 H     1 <1>   0.0800 
 41 H        2.2560    -6.3870    -1.8840 H     1 <1>   0.0800 
 42 H        2.7330    -5.5880    -0.4080 H     1 <1>   0.0800 
 43 H       -7.0430    -1.8390     0.9980 H     1 <1>   0.0800 
 44 H       -7.2460    -3.0900    -0.1980 H     1 <1>   0.0800 
 45 H       -5.6970    -2.5890    -2.2590 H     1 <1>   0.0800 
 46 H       -5.4690    -0.8830    -2.5470 H     1 <1>   0.0800 
@<TRIPOS>BOND
  1   1   2  1   
  2   1   3  1   
  3   2   4  1   
  4   2   5  2   
  5   3   6  2   
  6   3   7  1   
  7   4   8  am  
  8   4  25  1   
  9   5   6  1   
 10   5   9  1   
 11   6  10  1   
 12   7  11  2   
 13   7  12  1   
 14   8  13  2   
 15   8  14  1   
 16   9  15  2   
 17   9  16  1   
 18  10  26  1   
 19  10  27  1   
 20  10  28  1   
 21  12  29  1   
 22  12  30  1   
 23  12  31  1   
 24  14  17  1   
 25  14  32  1   
 26  14  33  1   
 27  16  18  1   
 28  17  19  1   
 29  17  20  1   
 30  18  21  1   
 31  18  34  1   
 32  18  35  1   
 33  19  22  1   
 34  19  36  1   
 35  19  37  1   
 36  20  23  1   
 37  20  38  1   
 38  20  39  1   
 39  21  40  1   
 40  21  41  1   
 41  21  42  1   
 42  22  24  1   
 43  22  43  1   
 44  22  44  1   
 45  23  24  1   
 46  23  45  1   
 47  23  46  1   
@<TRIPOS>SUBSTRUCTURE
  1 ****   2 GROUP 4 **** **** 0

# MOE 2024.06 (io_trps.svl 2023.06)
