@<TRIPOS>MOLECULE
NONAME
41 43 1 0 0 
SMALL
USER_CHARGES


@<TRIPOS>ATOM
  1 O        1.1360    -1.4600    -1.4100 O.2   1 <1>  -0.5700 
  2 C        1.0050    -1.6080    -0.2070 C.2   1 <1>   0.7150 
  3 N        1.7350    -0.8230     0.6430 N.am  1 <1>  -0.5470 
  4 C        0.1570    -2.6350     0.3510 C.2   1 <1>   0.0550 
  5 C        2.7400     0.0860     0.2830 C.ar  1 <1>   0.1170 
  6 O       -0.2140    -3.6890    -0.3720 O.3   1 <1>  -0.2800 
  7 C       -0.3790    -2.7650     1.5990 C.2   1 <1>  -0.1500 
  8 C        4.0910    -0.3030     0.2950 C.ar  1 <1>   0.1000 
  9 C        2.3960     1.3830    -0.0620 C.ar  1 <1>  -0.1500 
 10 C       -0.9640    -4.4730     0.3680 C.2   1 <1>  -0.0100 
 11 C       -1.1050    -3.9570     1.6070 C.2   1 <1>  -0.1500 
 12 N        4.4500    -1.6380     0.5690 N.pl3 1 <1>  -0.8380 
 13 C        5.0580     0.6490    -0.0110 C.ar  1 <1>  -0.1500 
 14 C        3.3720     2.3140    -0.3710 C.ar  1 <1>  -0.1500 
 15 C        4.2060    -2.6080    -0.5510 C.3   1 <1>   0.2090 
 16 C        5.6100    -1.9350     1.4670 C.3   1 <1>   0.2090 
 17 C        4.7040     1.9470    -0.3390 C.ar  1 <1>  -0.1500 
 18 C        5.5060    -2.9980    -1.2800 C.3   1 <1>   0.3430 
 19 C        6.8700    -2.3750     0.6860 C.3   1 <1>   0.3430 
 20 N        6.5860    -3.4520    -0.3300 N.4   1 <1>  -0.9590 
 21 C        7.8220    -3.8480    -1.0700 C.3   1 <1>   0.2630 
 22 H        1.8740    -1.2320     1.5640 H     1 <1>   0.3700 
 23 H       -0.2890    -2.0950     2.4360 H     1 <1>   0.1500 
 24 H        1.3590     1.6650    -0.0880 H     1 <1>   0.1500 
 25 H       -1.3590    -5.3770    -0.0620 H     1 <1>   0.1500 
 26 H       -1.6560    -4.3560     2.4400 H     1 <1>   0.1500 
 27 H        6.0960     0.3880    -0.0070 H     1 <1>   0.1500 
 28 H        3.0920     3.3200    -0.6350 H     1 <1>   0.1500 
 29 H        3.5400    -2.1680    -1.2730 H     1 <1>   0.0800 
 30 H        3.7240    -3.4870    -0.1610 H     1 <1>   0.0800 
 31 H        5.3250    -2.7150     2.1520 H     1 <1>   0.0800 
 32 H        5.8400    -1.0640     2.0570 H     1 <1>   0.0800 
 33 H        5.4630     2.6730    -0.5760 H     1 <1>   0.1500 
 34 H        5.8470    -2.1390    -1.8330 H     1 <1>   0.0800 
 35 H        5.2840    -3.7790    -1.9890 H     1 <1>   0.0800 
 36 H        7.6110    -2.7180     1.3870 H     1 <1>   0.0800 
 37 H        7.2700    -1.5100     0.1840 H     1 <1>   0.0800 
 38 H        6.2190    -4.2700     0.1780 H     1 <1>   0.4500 
 39 H        8.2190    -3.0060    -1.6150 H     1 <1>   0.0800 
 40 H        7.6040    -4.6380    -1.7700 H     1 <1>   0.0800 
 41 H        8.5750    -4.1990    -0.3820 H     1 <1>   0.0800 
@<TRIPOS>BOND
  1   1   2  2   
  2   2   3  am  
  3   2   4  1   
  4   3   5  1   
  5   3  22  1   
  6   4   6  1   
  7   4   7  2   
  8   5   8  ar  
  9   5   9  ar  
 10   6  10  1   
 11   7  11  1   
 12   7  23  1   
 13   8  12  1   
 14   8  13  ar  
 15   9  14  ar  
 16   9  24  1   
 17  10  11  2   
 18  10  25  1   
 19  11  26  1   
 20  12  15  1   
 21  12  16  1   
 22  13  17  ar  
 23  13  27  1   
 24  14  17  ar  
 25  14  28  1   
 26  15  18  1   
 27  15  29  1   
 28  15  30  1   
 29  16  19  1   
 30  16  31  1   
 31  16  32  1   
 32  17  33  1   
 33  18  20  1   
 34  18  34  1   
 35  18  35  1   
 36  19  20  1   
 37  19  36  1   
 38  19  37  1   
 39  20  21  1   
 40  20  38  1   
 41  21  39  1   
 42  21  40  1   
 43  21  41  1   
@<TRIPOS>SUBSTRUCTURE
  1 ****  12 GROUP 4 **** **** 0

# MOE 2024.06 (io_trps.svl 2023.06)
