@<TRIPOS>MOLECULE
NONAME
47 49 1 0 0 
SMALL
USER_CHARGES


@<TRIPOS>ATOM
  1 CL       1.7130    -0.2160     3.7180 Cl    1 <1>  -0.1770 
  2 C        2.9690     0.0750     2.5390 C.ar  1 <1>   0.1770 
  3 C        2.6220     0.4540     1.2570 C.ar  1 <1>  -0.1500 
  4 C        4.2930    -0.0760     2.9040 C.ar  1 <1>  -0.1500 
  5 C        3.6210     0.6840     0.3260 C.ar  1 <1>  -0.1500 
  6 C        5.2850     0.1570     1.9670 C.ar  1 <1>  -0.1500 
  7 C        4.9640     0.5380     0.6640 C.ar  1 <1>   0.1170 
  8 N        5.9320     0.7950    -0.3170 N.am  1 <1>  -0.5470 
  9 C        7.2300     0.4060    -0.4290 C.2   1 <1>   0.6900 
 10 O        7.7810    -0.3300     0.3660 O.2   1 <1>  -0.5700 
 11 N        7.9580     0.9030    -1.4690 N.am  1 <1>  -0.6600 
 12 C        8.5470     2.2570    -1.2770 C.3   1 <1>   0.1400 
 13 C        8.8830    -0.0390    -2.1630 C.3   1 <1>   0.1400 
 14 C        9.8830     2.1500    -0.5080 C.3   1 <1>   0.3430 
 15 C       10.2220    -0.1440    -1.4030 C.3   1 <1>   0.3430 
 16 N       10.8580     1.2080    -1.1700 N.4   1 <1>  -0.9590 
 17 C       12.0940     1.1000    -0.3330 C.3   1 <1>   0.3430 
 18 C       13.2280     0.3690    -1.0550 C.3   1 <1>  -0.0170 
 19 C       14.4630     0.4140    -0.1780 C.ar  1 <1>  -0.1430 
 20 C       15.4240     1.3960    -0.3680 C.ar  1 <1>  -0.1500 
 21 C       14.6360    -0.5220     0.8300 C.ar  1 <1>  -0.1500 
 22 C       16.5430     1.4450     0.4450 C.ar  1 <1>  -0.1500 
 23 C       15.7550    -0.4730     1.6440 C.ar  1 <1>  -0.1500 
 24 C       16.7080     0.5110     1.4530 C.ar  1 <1>  -0.1500 
 25 H        1.5840     0.5650     0.9970 H     1 <1>   0.1500 
 26 H        4.5400    -0.3720     3.9080 H     1 <1>   0.1500 
 27 H        3.3490     0.9770    -0.6720 H     1 <1>   0.1500 
 28 H        6.3120     0.0410     2.2610 H     1 <1>   0.1500 
 29 H        5.5880     1.2530    -1.1560 H     1 <1>   0.3700 
 30 H        7.8650     2.8730    -0.7160 H     1 <1>   0.0800 
 31 H        8.7040     2.7240    -2.2340 H     1 <1>   0.0800 
 32 H        9.0520     0.2940    -3.1720 H     1 <1>   0.0800 
 33 H        8.4280    -1.0150    -2.2100 H     1 <1>   0.0800 
 34 H        9.6660     1.7970     0.4880 H     1 <1>   0.0800 
 35 H       10.3200     3.1310    -0.4220 H     1 <1>   0.0800 
 36 H       10.8910    -0.7790    -1.9600 H     1 <1>   0.0800 
 37 H       10.0310    -0.6210    -0.4540 H     1 <1>   0.0800 
 38 H       11.1120     1.6060    -2.0830 H     1 <1>   0.4500 
 39 H       11.8710     0.5860     0.5880 H     1 <1>   0.0800 
 40 H       12.4430     2.0880    -0.0780 H     1 <1>   0.0800 
 41 H       13.4400     0.8450    -1.9960 H     1 <1>   0.0800 
 42 H       12.9690    -0.6580    -1.2360 H     1 <1>   0.0800 
 43 H       15.3200     2.1310    -1.1480 H     1 <1>   0.1500 
 44 H       13.9100    -1.2990     0.9950 H     1 <1>   0.1500 
 45 H       17.2890     2.2070     0.2950 H     1 <1>   0.1500 
 46 H       15.8870    -1.2010     2.4260 H     1 <1>   0.1500 
 47 H       17.5780     0.5490     2.0850 H     1 <1>   0.1500 
@<TRIPOS>BOND
  1   1   2  1   
  2   2   3  ar  
  3   2   4  ar  
  4   3   5  ar  
  5   3  25  1   
  6   4   6  ar  
  7   4  26  1   
  8   5   7  ar  
  9   5  27  1   
 10   6   7  ar  
 11   6  28  1   
 12   7   8  1   
 13   8   9  am  
 14   8  29  1   
 15   9  10  2   
 16   9  11  am  
 17  11  12  1   
 18  11  13  1   
 19  12  14  1   
 20  12  30  1   
 21  12  31  1   
 22  13  15  1   
 23  13  32  1   
 24  13  33  1   
 25  14  16  1   
 26  14  34  1   
 27  14  35  1   
 28  15  16  1   
 29  15  36  1   
 30  15  37  1   
 31  16  17  1   
 32  16  38  1   
 33  17  18  1   
 34  17  39  1   
 35  17  40  1   
 36  18  19  1   
 37  18  41  1   
 38  18  42  1   
 39  19  20  ar  
 40  19  21  ar  
 41  20  22  ar  
 42  20  43  1   
 43  21  23  ar  
 44  21  44  1   
 45  22  24  ar  
 46  22  45  1   
 47  23  24  ar  
 48  23  46  1   
 49  24  47  1   
@<TRIPOS>SUBSTRUCTURE
  1 ****  10 GROUP 4 **** **** 0

# MOE 2024.06 (io_trps.svl 2023.06)
