@<TRIPOS>MOLECULE
NONAME
46 50 1 0 0 
SMALL
USER_CHARGES


@<TRIPOS>ATOM
  1 F        0.8020    -0.8970     0.8500 F     1 <1>  -0.1900 
  2 C        1.7060     0.0140     0.6160 C.ar  1 <1>   0.1900 
  3 C        2.1520     0.1970    -0.6770 C.ar  1 <1>  -0.1500 
  4 C        2.1840     0.7660     1.6690 C.ar  1 <1>  -0.1500 
  5 C        3.1120     1.1650    -0.9190 C.ar  1 <1>  -0.1500 
  6 C        3.1440     1.7310     1.4150 C.ar  1 <1>  -0.1500 
  7 C        3.6230     1.9410     0.1210 C.ar  1 <1>  -0.1430 
  8 C        4.6930     3.0210    -0.1410 C.3   1 <1>   0.4240 
  9 O        5.2520     2.8400    -1.4210 O.3   1 <1>  -0.4300 
 10 C        4.1920     4.4810     0.0430 C.3   1 <1>   0.0610 
 11 C        5.8760     2.8660     0.8290 C.3   1 <1>   0.2000 
 12 C        6.5650     2.7460    -1.4240 C.2   1 <1>   0.6590 
 13 C        4.8530     4.8240     1.3750 C.2   1 <1>   0.6590 
 14 C        2.6610     4.6790     0.0640 C.3   1 <1>  -0.1600 
 15 C        4.6270     5.4970    -1.0370 C.3   1 <1>  -0.1600 
 16 O        5.8060     3.9700     1.6970 O.3   1 <1>  -0.4300 
 17 C        7.1570     2.8350    -0.0210 C.3   1 <1>   0.0610 
 18 O        7.1850     2.6080    -2.4430 O.2   1 <1>  -0.5700 
 19 O        4.5640     5.7430     2.0910 O.2   1 <1>  -0.5700 
 20 C        2.4150     6.1610    -0.2360 C.3   1 <1>  -0.1600 
 21 C        3.7050     6.7030    -0.8570 C.3   1 <1>  -0.1600 
 22 C        8.1210     4.0260     0.1310 C.3   1 <1>  -0.1600 
 23 C        8.0530     1.6310     0.3080 C.3   1 <1>  -0.1600 
 24 C        9.4720     3.5170    -0.3750 C.3   1 <1>  -0.1600 
 25 C        9.4450     1.9920    -0.2200 C.3   1 <1>  -0.1600 
 26 H        1.7540    -0.4060    -1.4740 H     1 <1>   0.1500 
 27 H        1.8090     0.5980     2.6630 H     1 <1>   0.1500 
 28 H        3.4500     1.3020    -1.9330 H     1 <1>   0.1500 
 29 H        3.5050     2.3180     2.2440 H     1 <1>   0.1500 
 30 H        5.7830     1.9730     1.4220 H     1 <1>   0.0800 
 31 H        2.2210     4.3940     1.0040 H     1 <1>   0.0800 
 32 H        2.2120     4.0960    -0.7230 H     1 <1>   0.0800 
 33 H        4.4490     5.0950    -2.0200 H     1 <1>   0.0800 
 34 H        5.6620     5.7780    -0.9580 H     1 <1>   0.0800 
 35 H        2.2040     6.6940     0.6770 H     1 <1>   0.0800 
 36 H        1.5800     6.2800    -0.9060 H     1 <1>   0.0800 
 37 H        3.5190     7.1980    -1.7950 H     1 <1>   0.0800 
 38 H        4.1570     7.4080    -0.1790 H     1 <1>   0.0800 
 39 H        8.2320     4.2820     1.1710 H     1 <1>   0.0800 
 40 H        7.7980     4.8970    -0.4100 H     1 <1>   0.0800 
 41 H        7.6890     0.7160    -0.1280 H     1 <1>   0.0800 
 42 H        8.1150     1.5090     1.3760 H     1 <1>   0.0800 
 43 H       10.2860     3.9580     0.1760 H     1 <1>   0.0800 
 44 H        9.5860     3.7660    -1.4180 H     1 <1>   0.0800 
 45 H        9.6040     1.5330    -1.1820 H     1 <1>   0.0800 
 46 H       10.2120     1.6530     0.4550 H     1 <1>   0.0800 
@<TRIPOS>BOND
  1   1   2  1   
  2   2   3  ar  
  3   2   4  ar  
  4   3   5  ar  
  5   3  26  1   
  6   4   6  ar  
  7   4  27  1   
  8   5   7  ar  
  9   5  28  1   
 10   6   7  ar  
 11   6  29  1   
 12   7   8  1   
 13   8   9  1   
 14   8  10  1   
 15   8  11  1   
 16   9  12  1   
 17  10  13  1   
 18  10  14  1   
 19  10  15  1   
 20  11  16  1   
 21  11  17  1   
 22  11  30  1   
 23  12  17  1   
 24  12  18  2   
 25  13  16  1   
 26  13  19  2   
 27  14  20  1   
 28  14  31  1   
 29  14  32  1   
 30  15  21  1   
 31  15  33  1   
 32  15  34  1   
 33  17  22  1   
 34  17  23  1   
 35  20  21  1   
 36  20  35  1   
 37  20  36  1   
 38  21  37  1   
 39  21  38  1   
 40  22  24  1   
 41  22  39  1   
 42  22  40  1   
 43  23  25  1   
 44  23  41  1   
 45  23  42  1   
 46  24  25  1   
 47  24  43  1   
 48  24  44  1   
 49  25  45  1   
 50  25  46  1   
@<TRIPOS>SUBSTRUCTURE
  1 ****   8 GROUP 4 **** **** 0

# MOE 2024.06 (io_trps.svl 2023.06)
