@<TRIPOS>MOLECULE
NONAME
30 30 1 0 0 
SMALL
USER_CHARGES


@<TRIPOS>ATOM
  1 CL      -0.2350    -0.1720     0.9660 Cl    1 <1>  -0.1770 
  2 C        0.6040    -1.5640     0.3200 C.ar  1 <1>   0.1770 
  3 C       -0.0620    -2.6480    -0.2330 C.ar  1 <1>   0.3960 
  4 C        1.9760    -1.5930     0.3860 C.ar  1 <1>   0.1600 
  5 N        0.6430    -3.7010    -0.6610 N.ar  1 <1>  -0.6200 
  6 C       -1.5150    -2.6340    -0.3420 C.2   1 <1>   0.5440 
  7 N        2.6780    -2.6200    -0.0440 N.ar  1 <1>  -0.6200 
  8 C        1.9500    -3.6090    -0.5400 C.ar  1 <1>   0.7220 
  9 O       -2.0440    -1.7540    -1.0000 O.2   1 <1>  -0.5700 
 10 N       -2.3260    -3.5750     0.2790 N.am  1 <1>  -0.6600 
 11 S        2.8560    -5.0340    -1.1200 S.3   1 <1>  -0.3320 
 12 C       -3.8040    -3.5470     0.0950 C.3   1 <1>   0.1400 
 13 C       -1.8120    -4.5680     1.2630 C.3   1 <1>   0.1400 
 14 C        4.6380    -4.6200    -0.8500 C.3   1 <1>  -0.0100 
 15 C       -4.1800    -4.1800    -1.2440 C.3   1 <1>  -0.2400 
 16 C       -1.7160    -5.9500     0.6230 C.3   1 <1>  -0.2400 
 17 H        2.5030    -0.7540     0.8070 H     1 <1>   0.1500 
 18 H       -4.1470    -2.5260     0.1180 H     1 <1>   0.0800 
 19 H       -4.2880    -4.0760     0.8980 H     1 <1>   0.0800 
 20 H       -2.4680    -4.6040     2.1170 H     1 <1>   0.0800 
 21 H       -0.8400    -4.2730     1.6180 H     1 <1>   0.0800 
 22 H        5.2240    -5.4530    -1.1940 H     1 <1>   0.0800 
 23 H        4.7840    -4.4520     0.2020 H     1 <1>   0.0800 
 24 H        4.8610    -3.7320    -1.4160 H     1 <1>   0.0800 
 25 H       -3.7360    -3.6260    -2.0510 H     1 <1>   0.0800 
 26 H       -5.2470    -4.1580    -1.3660 H     1 <1>   0.0800 
 27 H       -3.8510    -5.2000    -1.2920 H     1 <1>   0.0800 
 28 H       -2.6930    -6.3270     0.3880 H     1 <1>   0.0800 
 29 H       -1.2480    -6.6330     1.3080 H     1 <1>   0.0800 
 30 H       -1.1220    -5.9060    -0.2730 H     1 <1>   0.0800 
@<TRIPOS>BOND
  1   1   2  1   
  2   2   3  ar  
  3   2   4  ar  
  4   3   5  ar  
  5   3   6  1   
  6   4   7  ar  
  7   4  17  1   
  8   5   8  ar  
  9   6   9  2   
 10   6  10  am  
 11   7   8  ar  
 12   8  11  1   
 13  10  12  1   
 14  10  13  1   
 15  11  14  1   
 16  12  15  1   
 17  12  18  1   
 18  12  19  1   
 19  13  16  1   
 20  13  20  1   
 21  13  21  1   
 22  14  22  1   
 23  14  23  1   
 24  14  24  1   
 25  15  25  1   
 26  15  26  1   
 27  15  27  1   
 28  16  28  1   
 29  16  29  1   
 30  16  30  1   
@<TRIPOS>SUBSTRUCTURE
  1 ****   3 GROUP 4 **** **** 0

# MOE 2024.06 (io_trps.svl 2023.06)
