@<TRIPOS>MOLECULE
NONAME
37 39 1 0 0 
SMALL
USER_CHARGES


@<TRIPOS>ATOM
  1 O        0.7930    -0.6380     2.1920 O.2   1 <1>  -0.5700 
  2 C        1.1720    -1.1100     1.1500 C.2   1 <1>   0.5690 
  3 N        0.7580    -2.2870     0.6190 N.am  1 <1>  -0.4200 
  4 C        2.2070    -0.4510     0.2540 C.3   1 <1>  -0.0190 
  5 C        1.3910    -2.5680    -0.5460 C.2   1 <1>   0.5690 
  6 C       -0.3970    -3.0470     1.1240 C.3   1 <1>   0.2840 
  7 C        2.3580    -1.4570    -0.9150 C.3   1 <1>  -0.0190 
  8 C        3.5310    -0.1580     0.9850 C.3   1 <1>  -0.1600 
  9 O        1.2320    -3.5620    -1.2090 O.2   1 <1>  -0.5700 
 10 C       -1.6620    -2.4980     0.4890 C.ar  1 <1>  -0.1440 
 11 C        3.8020    -1.9590    -1.1080 C.3   1 <1>  -0.1600 
 12 C        4.6410     0.2170    -0.0110 C.3   1 <1>  -0.1600 
 13 C       -2.3610    -1.4650     1.0930 C.ar  1 <1>  -0.1500 
 14 C       -2.1280    -3.0140    -0.7090 C.ar  1 <1>  -0.1500 
 15 C        4.7920    -0.7860    -1.1740 C.3   1 <1>  -0.1600 
 16 C       -3.5090    -0.9640     0.5080 C.ar  1 <1>  -0.1500 
 17 C       -3.2780    -2.5070    -1.2880 C.ar  1 <1>  -0.1500 
 18 C       -4.0010    -1.4690    -0.6970 C.ar  1 <1>  -0.1790 
 19 C       -5.2110    -0.9350    -1.3120 C.2   1 <1>   0.9790 
 20 O       -5.8430    -0.0080    -0.7720 O.co2 1 <1>  -0.9000 
 21 O       -5.6350    -1.3960    -2.3880 O.co2 1 <1>  -0.9000 
 22 H        1.7920     0.4690    -0.1180 H     1 <1>   0.0800 
 23 H       -0.4490    -2.9550     2.1950 H     1 <1>   0.0800 
 24 H       -0.2800    -4.0880     0.8770 H     1 <1>   0.0800 
 25 H        2.0140    -1.0000    -1.8260 H     1 <1>   0.0800 
 26 H        3.8360    -1.0260     1.5440 H     1 <1>   0.0800 
 27 H        3.3850     0.6430     1.6900 H     1 <1>   0.0800 
 28 H        3.8640    -2.5430    -2.0110 H     1 <1>   0.0800 
 29 H        4.0720    -2.6050    -0.2890 H     1 <1>   0.0800 
 30 H        5.5750     0.2940     0.5190 H     1 <1>   0.0800 
 31 H        4.4260     1.1900    -0.4180 H     1 <1>   0.0800 
 32 H       -2.0130    -1.0400     2.0190 H     1 <1>   0.1500 
 33 H       -1.5970    -3.8090    -1.2040 H     1 <1>   0.1500 
 34 H        4.6460    -0.2620    -2.1030 H     1 <1>   0.0800 
 35 H        5.7960    -1.1750    -1.1830 H     1 <1>   0.0800 
 36 H       -4.0480    -0.1600     0.9820 H     1 <1>   0.1500 
 37 H       -3.6350    -2.9120    -2.2200 H     1 <1>   0.1500 
@<TRIPOS>BOND
  1   1   2  2   
  2   2   3  am  
  3   2   4  1   
  4   3   5  am  
  5   3   6  1   
  6   4   7  1   
  7   4   8  1   
  8   4  22  1   
  9   5   7  1   
 10   5   9  2   
 11   6  10  1   
 12   6  23  1   
 13   6  24  1   
 14   7  11  1   
 15   7  25  1   
 16   8  12  1   
 17   8  26  1   
 18   8  27  1   
 19  10  13  ar  
 20  10  14  ar  
 21  11  15  1   
 22  11  28  1   
 23  11  29  1   
 24  12  15  1   
 25  12  30  1   
 26  12  31  1   
 27  13  16  ar  
 28  13  32  1   
 29  14  17  ar  
 30  14  33  1   
 31  15  34  1   
 32  15  35  1   
 33  16  18  ar  
 34  16  36  1   
 35  17  18  ar  
 36  17  37  1   
 37  18  19  1   
 38  19  20  ar  
 39  19  21  ar  
@<TRIPOS>SUBSTRUCTURE
  1 ****   3 GROUP 4 **** **** 0

# MOE 2024.06 (io_trps.svl 2023.06)
