@<TRIPOS>MOLECULE
NONAME
57 59 1 0 0 
SMALL
USER_CHARGES


@<TRIPOS>ATOM
  1 O        1.5890    -1.3030    -3.0870 O.2   1 <1>  -0.5700 
  2 C        1.0340    -1.5250    -2.0370 C.2   1 <1>   0.5690 
  3 N        1.3920    -0.9690    -0.8450 N.am  1 <1>  -0.5470 
  4 C       -0.1680    -2.4730    -2.0100 C.3   1 <1>   0.1710 
  5 C        2.2960     0.0410    -0.4750 C.ar  1 <1>   0.1170 
  6 N       -1.0410    -2.3040    -0.8100 N.3   1 <1>  -0.8100 
  7 C        2.1010     0.6950     0.7460 C.ar  1 <1>   0.0830 
  8 C        3.3730     0.4060    -1.2720 C.ar  1 <1>  -0.1500 
  9 C       -1.8180    -1.0390    -0.8740 C.3   1 <1>   0.1100 
 10 C       -1.9730    -3.4420    -0.6550 C.3   1 <1>   0.1100 
 11 O        1.0280     0.3060     1.5010 O.3   1 <1>  -0.3630 
 12 C        2.9790     1.6980     1.1430 C.ar  1 <1>  -0.1500 
 13 C        4.2440     1.4050    -0.8740 C.ar  1 <1>  -0.1500 
 14 C       -2.6840    -0.8210     0.3810 C.3   1 <1>   0.2090 
 15 C       -2.8500    -3.3140     0.6070 C.3   1 <1>   0.2090 
 16 C        0.7900     0.8660     2.7740 C.3   1 <1>   0.0400 
 17 C        4.0470     2.0570     0.3390 C.ar  1 <1>   0.0830 
 18 N       -3.5500    -1.9980     0.6830 N.pl3 1 <1>  -0.8380 
 19 O        4.8520     3.0480     0.8050 O.3   1 <1>  -0.3630 
 20 C       -4.8980    -1.9430     0.3250 C.ar  1 <1>   0.1000 
 21 C        5.9580     3.4970     0.0530 C.3   1 <1>   0.0400 
 22 C       -5.8990    -1.8200     1.2950 C.ar  1 <1>  -0.1430 
 23 C       -5.2560    -2.0170    -1.0150 C.ar  1 <1>  -0.1500 
 24 C       -7.2380    -1.7800     0.9080 C.ar  1 <1>  -0.1430 
 25 C       -5.4730    -1.7390     2.7610 C.3   1 <1>  -0.0970 
 26 C       -6.5800    -1.9710    -1.3980 C.ar  1 <1>  -0.1500 
 27 C       -7.5660    -1.8530    -0.4380 C.ar  1 <1>  -0.1500 
 28 C       -8.3740    -1.6580     1.9130 C.3   1 <1>  -0.0970 
 29 H        0.7400    -1.2300    -0.0940 H     1 <1>   0.3700 
 30 H        0.2230    -3.4740    -2.0260 H     1 <1>   0.0800 
 31 H       -0.7440    -2.3280    -2.9070 H     1 <1>   0.0800 
 32 H        3.5360    -0.0930    -2.2100 H     1 <1>   0.1500 
 33 H       -2.4570    -1.0450    -1.7390 H     1 <1>   0.0800 
 34 H       -1.1510    -0.2000    -0.9690 H     1 <1>   0.0800 
 35 H       -1.4100    -4.3570    -0.5850 H     1 <1>   0.0800 
 36 H       -2.6130    -3.5120    -1.5170 H     1 <1>   0.0800 
 37 H        2.8600     2.2220     2.0700 H     1 <1>   0.1500 
 38 H        5.0630     1.6570    -1.5210 H     1 <1>   0.1500 
 39 H       -3.3020     0.0500     0.2430 H     1 <1>   0.0800 
 40 H       -2.0400    -0.6380     1.2230 H     1 <1>   0.0800 
 41 H       -2.2290    -3.4250     1.4780 H     1 <1>   0.0800 
 42 H       -3.5790    -4.1050     0.6190 H     1 <1>   0.0800 
 43 H       -0.0820     0.3940     3.1890 H     1 <1>   0.0800 
 44 H        0.6170     1.9220     2.6650 H     1 <1>   0.0800 
 45 H        1.6420     0.6780     3.4030 H     1 <1>   0.0800 
 46 H        6.4410     4.2820     0.6070 H     1 <1>   0.0800 
 47 H        5.6080     3.8770    -0.8900 H     1 <1>   0.0800 
 48 H        6.6400     2.6770    -0.0880 H     1 <1>   0.0800 
 49 H       -4.4910    -2.1110    -1.7580 H     1 <1>   0.1500 
 50 H       -5.0580    -2.6830     3.0620 H     1 <1>   0.0800 
 51 H       -6.2800    -1.4930     3.4220 H     1 <1>   0.0800 
 52 H       -4.7160    -0.9850     2.8740 H     1 <1>   0.0800 
 53 H       -6.8450    -2.0280    -2.4390 H     1 <1>   0.1500 
 54 H       -8.5950    -1.8200    -0.7490 H     1 <1>   0.1500 
 55 H       -8.3080    -0.7180     2.4290 H     1 <1>   0.0800 
 56 H       -8.3200    -2.4600     2.6280 H     1 <1>   0.0800 
 57 H       -9.3310    -1.7090     1.4270 H     1 <1>   0.0800 
@<TRIPOS>BOND
  1   1   2  2   
  2   2   3  am  
  3   2   4  1   
  4   3   5  1   
  5   3  29  1   
  6   4   6  1   
  7   4  30  1   
  8   4  31  1   
  9   5   7  ar  
 10   5   8  ar  
 11   6   9  1   
 12   6  10  1   
 13   7  11  1   
 14   7  12  ar  
 15   8  13  ar  
 16   8  32  1   
 17   9  14  1   
 18   9  33  1   
 19   9  34  1   
 20  10  15  1   
 21  10  35  1   
 22  10  36  1   
 23  11  16  1   
 24  12  17  ar  
 25  12  37  1   
 26  13  17  ar  
 27  13  38  1   
 28  14  18  1   
 29  14  39  1   
 30  14  40  1   
 31  15  18  1   
 32  15  41  1   
 33  15  42  1   
 34  16  43  1   
 35  16  44  1   
 36  16  45  1   
 37  17  19  1   
 38  18  20  1   
 39  19  21  1   
 40  20  22  ar  
 41  20  23  ar  
 42  21  46  1   
 43  21  47  1   
 44  21  48  1   
 45  22  24  ar  
 46  22  25  1   
 47  23  26  ar  
 48  23  49  1   
 49  24  27  ar  
 50  24  28  1   
 51  25  50  1   
 52  25  51  1   
 53  25  52  1   
 54  26  27  ar  
 55  26  53  1   
 56  27  54  1   
 57  28  55  1   
 58  28  56  1   
 59  28  57  1   
@<TRIPOS>SUBSTRUCTURE
  1 ****   9 GROUP 4 **** **** 0

# MOE 2024.06 (io_trps.svl 2023.06)
