@<TRIPOS>MOLECULE
NONAME
57 60 1 0 0 
SMALL
USER_CHARGES


@<TRIPOS>ATOM
  1 F       -1.9220     1.1170    -2.9650 F     1 <1>  -0.1900 
  2 C       -2.8940     1.6570    -2.2740 C.ar  1 <1>   0.1900 
  3 C       -3.5270     0.8970    -1.3080 C.ar  1 <1>  -0.1500 
  4 C       -3.2530     2.9650    -2.5370 C.ar  1 <1>  -0.1500 
  5 C       -4.5540     1.4740    -0.5820 C.ar  1 <1>  -0.1500 
  6 C       -4.2820     3.5270    -1.8020 C.ar  1 <1>  -0.1500 
  7 C       -4.9400     2.7920    -0.8220 C.ar  1 <1>   0.1000 
  8 N       -5.9690     3.3890    -0.1060 N.pl3 1 <1>  -0.8380 
  9 C       -5.7260     3.5950     1.3510 C.3   1 <1>   0.2090 
 10 C       -7.3370     2.8470    -0.3470 C.3   1 <1>   0.2090 
 11 C       -6.8170     4.4910     1.9670 C.3   1 <1>   0.1100 
 12 C       -8.4110     3.7480     0.2930 C.3   1 <1>   0.1100 
 13 N       -8.1830     3.9590     1.7440 N.3   1 <1>  -0.8100 
 14 C       -9.1920     4.8520     2.3830 C.3   1 <1>   0.1710 
 15 C      -10.6280     4.3140     2.4510 C.2   1 <1>   0.5690 
 16 O      -11.0510     3.9150     3.5120 O.2   1 <1>  -0.5700 
 17 N      -11.3980     4.3650     1.3280 N.am  1 <1>  -0.5390 
 18 C      -12.7780     4.0290     1.1650 C.2   1 <1>   0.1230 
 19 C      -13.6710     4.8250     0.4120 C.2   1 <1>   0.6160 
 20 C      -13.4880     2.9670     1.6430 C.2   1 <1>  -0.0380 
 21 O      -13.3720     5.8580    -0.2120 O.2   1 <1>  -0.5700 
 22 N      -14.9150     4.2470     0.4500 N.am  1 <1>  -0.1570 
 23 N      -14.7900     3.0630     1.2490 N.pl3 1 <1>  -0.4890 
 24 C      -13.0090     1.8050     2.4940 C.3   1 <1>  -0.1020 
 25 C      -15.8530     4.3340    -0.6000 C.ar  1 <1>   0.1170 
 26 C      -15.9360     2.6510     2.0960 C.3   1 <1>   0.1290 
 27 C      -16.2740     3.2020    -1.2940 C.ar  1 <1>  -0.1500 
 28 C      -16.3850     5.5670    -0.9640 C.ar  1 <1>  -0.1500 
 29 C      -17.2030     3.2980    -2.3140 C.ar  1 <1>  -0.1500 
 30 C      -17.3140     5.6680    -1.9840 C.ar  1 <1>  -0.1500 
 31 C      -17.7260     4.5330    -2.6590 C.ar  1 <1>  -0.1500 
 32 H       -3.2190    -0.1180    -1.1330 H     1 <1>   0.1500 
 33 H       -2.7380     3.5250    -3.2960 H     1 <1>   0.1500 
 34 H       -5.0630     0.9070     0.1750 H     1 <1>   0.1500 
 35 H       -4.5900     4.5410    -1.9770 H     1 <1>   0.1500 
 36 H       -4.7630     4.0550     1.4880 H     1 <1>   0.0800 
 37 H       -5.7210     2.6450     1.8580 H     1 <1>   0.0800 
 38 H       -7.4130     1.8580     0.0710 H     1 <1>   0.0800 
 39 H       -7.5090     2.7790    -1.4070 H     1 <1>   0.0800 
 40 H       -6.7330     5.4740     1.5380 H     1 <1>   0.0800 
 41 H       -6.6350     4.5700     3.0250 H     1 <1>   0.0800 
 42 H       -9.3640     3.2750     0.1420 H     1 <1>   0.0800 
 43 H       -8.4110     4.6950    -0.2200 H     1 <1>   0.0800 
 44 H       -9.2040     5.8000     1.8760 H     1 <1>   0.0800 
 45 H       -8.8870     5.0350     3.3980 H     1 <1>   0.0800 
 46 H      -11.0180     4.8990     0.5450 H     1 <1>   0.3700 
 47 H      -13.4240     0.8830     2.1300 H     1 <1>   0.0800 
 48 H      -13.3070     1.9510     3.5160 H     1 <1>   0.0800 
 49 H      -11.9380     1.7260     2.4580 H     1 <1>   0.0800 
 50 H      -15.9500     3.2440     2.9930 H     1 <1>   0.0800 
 51 H      -15.8430     1.6120     2.3550 H     1 <1>   0.0800 
 52 H      -16.8570     2.7980     1.5610 H     1 <1>   0.0800 
 53 H      -15.8650     2.2430    -1.0330 H     1 <1>   0.1500 
 54 H      -16.0610     6.4520    -0.4440 H     1 <1>   0.1500 
 55 H      -17.5190     2.4150    -2.8410 H     1 <1>   0.1500 
 56 H      -17.7150     6.6300    -2.2530 H     1 <1>   0.1500 
 57 H      -18.4480     4.6100    -3.4530 H     1 <1>   0.1500 
@<TRIPOS>BOND
  1   1   2  1   
  2   2   3  ar  
  3   2   4  ar  
  4   3   5  ar  
  5   3  32  1   
  6   4   6  ar  
  7   4  33  1   
  8   5   7  ar  
  9   5  34  1   
 10   6   7  ar  
 11   6  35  1   
 12   7   8  1   
 13   8   9  1   
 14   8  10  1   
 15   9  11  1   
 16   9  36  1   
 17   9  37  1   
 18  10  12  1   
 19  10  38  1   
 20  10  39  1   
 21  11  13  1   
 22  11  40  1   
 23  11  41  1   
 24  12  13  1   
 25  12  42  1   
 26  12  43  1   
 27  13  14  1   
 28  14  15  1   
 29  14  44  1   
 30  14  45  1   
 31  15  16  2   
 32  15  17  am  
 33  17  18  1   
 34  17  46  1   
 35  18  19  1   
 36  18  20  2   
 37  19  21  2   
 38  19  22  am  
 39  20  23  1   
 40  20  24  1   
 41  22  23  1   
 42  22  25  1   
 43  23  26  1   
 44  24  47  1   
 45  24  48  1   
 46  24  49  1   
 47  25  27  ar  
 48  25  28  ar  
 49  26  50  1   
 50  26  51  1   
 51  26  52  1   
 52  27  29  ar  
 53  27  53  1   
 54  28  30  ar  
 55  28  54  1   
 56  29  31  ar  
 57  29  55  1   
 58  30  31  ar  
 59  30  56  1   
 60  31  57  1   
@<TRIPOS>SUBSTRUCTURE
  1 ****  17 GROUP 4 **** **** 0

# MOE 2024.06 (io_trps.svl 2023.06)
