@<TRIPOS>MOLECULE
NONAME
54 55 1 0 0 
SMALL
USER_CHARGES


@<TRIPOS>ATOM
  1 O        0.5020    -0.5700     0.1970 O.3   1 <1>  -0.3630 
  2 C       -0.6270    -1.0580    -0.3620 C.ar  1 <1>   0.0830 
  3 C        1.6610    -0.5280    -0.6070 C.3   1 <1>   0.1200 
  4 C       -1.2760    -2.2030     0.1320 C.ar  1 <1>  -0.1440 
  5 C       -1.1380    -0.3630    -1.4530 C.ar  1 <1>  -0.1500 
  6 C        2.8380    -0.1410     0.2820 C.3   1 <1>   0.1200 
  7 C       -2.4260    -2.6080    -0.5460 C.ar  1 <1>  -0.1500 
  8 C       -0.8470    -3.0660     1.3540 C.3   1 <1>   0.1440 
  9 C       -2.2780    -0.7940    -2.0970 C.ar  1 <1>  -0.1500 
 10 O        3.9950    -0.0910    -0.4990 O.3   1 <1>  -0.5600 
 11 C       -2.9220    -1.9250    -1.6420 C.ar  1 <1>  -0.1500 
 12 C       -1.9840    -3.0800     2.3910 C.3   1 <1>  -0.2400 
 13 C       -0.5710    -4.5060     0.8890 C.3   1 <1>  -0.2400 
 14 C        0.4140    -2.6030     2.1050 C.3   1 <1>  -0.2400 
 15 C        5.1440     0.2510     0.2000 C.3   1 <1>   0.1200 
 16 C        6.2980     0.2810    -0.8090 C.3   1 <1>   0.3430 
 17 N        7.6020     0.7020    -0.1980 N.4   1 <1>  -0.9590 
 18 C        8.5970     0.9870    -1.2730 C.3   1 <1>   0.3430 
 19 C        8.1280    -0.3080     0.7700 C.3   1 <1>   0.3430 
 20 C        9.8780     1.5510    -0.6560 C.3   1 <1>  -0.1600 
 21 C        9.3990     0.2260     1.4340 C.3   1 <1>  -0.1600 
 22 C       10.4650     0.6040     0.3990 C.3   1 <1>  -0.1600 
 23 H        1.5200     0.2050    -1.3800 H     1 <1>   0.0800 
 24 H        1.8090    -1.5040    -1.0340 H     1 <1>   0.0800 
 25 H       -0.6470     0.5270    -1.7990 H     1 <1>   0.1500 
 26 H        2.9720    -0.8780     1.0550 H     1 <1>   0.0800 
 27 H        2.6670     0.8300     0.7140 H     1 <1>   0.0800 
 28 H       -2.9670    -3.4790    -0.2280 H     1 <1>   0.1500 
 29 H       -2.6640    -0.2520    -2.9430 H     1 <1>   0.1500 
 30 H       -3.8120    -2.2730    -2.1360 H     1 <1>   0.1500 
 31 H       -2.2120    -2.0730     2.6940 H     1 <1>   0.0800 
 32 H       -1.7010    -3.6430     3.2620 H     1 <1>   0.0800 
 33 H       -2.8780    -3.5210     1.9930 H     1 <1>   0.0800 
 34 H       -1.4490    -4.9620     0.4720 H     1 <1>   0.0800 
 35 H       -0.2420    -5.1160     1.7110 H     1 <1>   0.0800 
 36 H        0.1970    -4.5040     0.1350 H     1 <1>   0.0800 
 37 H        0.2830    -1.6030     2.4770 H     1 <1>   0.0800 
 38 H        1.2680    -2.6350     1.4560 H     1 <1>   0.0800 
 39 H        0.6160    -3.2440     2.9450 H     1 <1>   0.0800 
 40 H        5.3080    -0.4930     0.9610 H     1 <1>   0.0800 
 41 H        4.9960     1.2220     0.6410 H     1 <1>   0.0800 
 42 H        6.0330     0.9720    -1.5910 H     1 <1>   0.0800 
 43 H        6.4030    -0.6990    -1.2470 H     1 <1>   0.0800 
 44 H        7.4600     1.5820     0.3140 H     1 <1>   0.4500 
 45 H        8.1930     1.7020    -1.9730 H     1 <1>   0.0800 
 46 H        8.8270     0.0800    -1.8090 H     1 <1>   0.0800 
 47 H        8.3530    -1.2270     0.2530 H     1 <1>   0.0800 
 48 H        7.3930    -0.5190     1.5300 H     1 <1>   0.0800 
 49 H        9.6710     2.5110    -0.2140 H     1 <1>   0.0800 
 50 H       10.6040     1.7080    -1.4350 H     1 <1>   0.0800 
 51 H        9.7960    -0.5280     2.0920 H     1 <1>   0.0800 
 52 H        9.1540     1.0820     2.0400 H     1 <1>   0.0800 
 53 H       11.3020     1.0750     0.8890 H     1 <1>   0.0800 
 54 H       10.8290    -0.2880    -0.0840 H     1 <1>   0.0800 
@<TRIPOS>BOND
  1   1   2  1   
  2   1   3  1   
  3   2   4  ar  
  4   2   5  ar  
  5   3   6  1   
  6   3  23  1   
  7   3  24  1   
  8   4   7  ar  
  9   4   8  1   
 10   5   9  ar  
 11   5  25  1   
 12   6  10  1   
 13   6  26  1   
 14   6  27  1   
 15   7  11  ar  
 16   7  28  1   
 17   8  12  1   
 18   8  13  1   
 19   8  14  1   
 20   9  11  ar  
 21   9  29  1   
 22  10  15  1   
 23  11  30  1   
 24  12  31  1   
 25  12  32  1   
 26  12  33  1   
 27  13  34  1   
 28  13  35  1   
 29  13  36  1   
 30  14  37  1   
 31  14  38  1   
 32  14  39  1   
 33  15  16  1   
 34  15  40  1   
 35  15  41  1   
 36  16  17  1   
 37  16  42  1   
 38  16  43  1   
 39  17  18  1   
 40  17  19  1   
 41  17  44  1   
 42  18  20  1   
 43  18  45  1   
 44  18  46  1   
 45  19  21  1   
 46  19  47  1   
 47  19  48  1   
 48  20  22  1   
 49  20  49  1   
 50  20  50  1   
 51  21  22  1   
 52  21  51  1   
 53  21  52  1   
 54  22  53  1   
 55  22  54  1   
@<TRIPOS>SUBSTRUCTURE
  1 ****   6 GROUP 4 **** **** 0

# MOE 2024.06 (io_trps.svl 2023.06)
