@<TRIPOS>MOLECULE
NONAME
38 40 1 0 0 
SMALL
USER_CHARGES


@<TRIPOS>ATOM
  1 F        0.1360    -0.6610     0.0470 F     1 <1>  -0.3400 
  2 C        0.9270    -1.0160    -0.9580 C.3   1 <1>   1.1640 
  3 F        0.7740    -0.0910    -1.8970 F     1 <1>  -0.3400 
  4 F        0.4170    -2.1380    -1.4520 F     1 <1>  -0.3400 
  5 C        2.3990    -1.1650    -0.5350 C.ar  1 <1>  -0.1440 
  6 C        3.2400    -2.0700    -1.1710 C.ar  1 <1>  -0.1500 
  7 C        2.9300    -0.3900     0.4900 C.ar  1 <1>  -0.1500 
  8 C        4.5630    -2.1980    -0.7900 C.ar  1 <1>  -0.1500 
  9 C        4.2540    -0.5230     0.8660 C.ar  1 <1>  -0.1500 
 10 C        5.1090    -1.4300     0.2390 C.ar  1 <1>   0.0540 
 11 C        6.5010    -1.5640     0.6410 C.2   1 <1>   0.4620 
 12 N        7.0700    -0.8870     1.5820 N.2   1 <1>  -0.4100 
 13 N        7.3430    -2.4310     0.0480 N.2   1 <1>  -0.5650 
 14 O        8.2710    -1.3170     1.5950 O.3   1 <1>  -0.0190 
 15 C        8.4480    -2.2360     0.6890 C.2   1 <1>   0.3930 
 16 C        9.7610    -2.8500     0.5450 C.2   1 <1>   0.7150 
 17 O        9.9810    -3.7120    -0.2880 O.2   1 <1>  -0.5700 
 18 N       10.8110    -2.4670     1.3460 N.am  1 <1>  -0.7300 
 19 C       12.1870    -3.0420     1.2940 C.3   1 <1>   0.1400 
 20 C       12.9640    -2.5670     0.0570 C.3   1 <1>   0.2000 
 21 O       14.2960    -2.9370     0.1870 O.3   1 <1>  -0.5600 
 22 C       13.0240    -1.0560    -0.1340 C.3   1 <1>  -0.1600 
 23 C       15.0850    -2.1730    -0.6670 C.3   1 <1>   0.1200 
 24 C       14.3440    -0.8520    -0.8610 C.3   1 <1>  -0.1600 
 25 H        2.8700    -2.6870    -1.9740 H     1 <1>   0.1500 
 26 H        2.3120     0.3280     1.0060 H     1 <1>   0.1500 
 27 H        5.1870    -2.9110    -1.3030 H     1 <1>   0.1500 
 28 H        4.6330     0.0920     1.6650 H     1 <1>   0.1500 
 29 H       10.6660    -1.7280     2.0370 H     1 <1>   0.3700 
 30 H       12.1210    -4.1160     1.2690 H     1 <1>   0.0800 
 31 H       12.7220    -2.7510     2.1810 H     1 <1>   0.0800 
 32 H       12.5810    -3.0470    -0.8290 H     1 <1>   0.0800 
 33 H       13.0500    -0.5670     0.8240 H     1 <1>   0.0800 
 34 H       12.1810    -0.6950    -0.6970 H     1 <1>   0.0800 
 35 H       15.1840    -2.7060    -1.5970 H     1 <1>   0.0800 
 36 H       16.0510    -2.0380    -0.2130 H     1 <1>   0.0800 
 37 H       14.9010    -0.0310    -0.4440 H     1 <1>   0.0800 
 38 H       14.1890    -0.6740    -1.9100 H     1 <1>   0.0800 
@<TRIPOS>BOND
  1   1   2  1   
  2   2   3  1   
  3   2   4  1   
  4   2   5  1   
  5   5   6  ar  
  6   5   7  ar  
  7   6   8  ar  
  8   6  25  1   
  9   7   9  ar  
 10   7  26  1   
 11   8  10  ar  
 12   8  27  1   
 13   9  10  ar  
 14   9  28  1   
 15  10  11  1   
 16  11  12  2   
 17  11  13  1   
 18  12  14  1   
 19  13  15  2   
 20  14  15  1   
 21  15  16  1   
 22  16  17  2   
 23  16  18  am  
 24  18  19  1   
 25  18  29  1   
 26  19  20  1   
 27  19  30  1   
 28  19  31  1   
 29  20  21  1   
 30  20  22  1   
 31  20  32  1   
 32  21  23  1   
 33  22  24  1   
 34  22  33  1   
 35  22  34  1   
 36  23  24  1   
 37  23  35  1   
 38  23  36  1   
 39  24  37  1   
 40  24  38  1   
@<TRIPOS>SUBSTRUCTURE
  1 ****  13 GROUP 4 **** **** 0

# MOE 2024.06 (io_trps.svl 2023.06)
