@<TRIPOS>MOLECULE
NONAME
37 39 1 0 0 
SMALL
USER_CHARGES


@<TRIPOS>ATOM
  1 O        0.1880    -0.9860     1.9040 O.2   1 <1>  -0.5700 
  2 C        0.1140    -1.7920     1.0000 C.2   1 <1>   0.4690 
  3 C       -1.1660    -2.3590     0.6430 C.ar  1 <1>   0.0860 
  4 C        1.2920    -2.1600     0.2720 C.2   1 <1>  -0.1360 
  5 C       -1.4390    -3.7300     0.6960 C.ar  1 <1>   0.1660 
  6 C       -2.1870    -1.5250     0.2130 C.ar  1 <1>  -0.1500 
  7 C        2.5620    -1.7610     0.5170 C.2   1 <1>  -0.1050 
  8 N       -2.5810    -4.2820     0.3260 N.ar  1 <1>  -0.6200 
  9 C       -0.4080    -4.7240     1.2100 C.3   1 <1>  -0.0970 
 10 C       -3.3890    -2.0840    -0.1640 C.ar  1 <1>  -0.1430 
 11 C        3.7300    -2.1390    -0.2140 C.2   1 <1>   0.0950 
 12 C       -3.5320    -3.4650    -0.0970 C.ar  1 <1>   0.1670 
 13 C       -4.5080    -1.1690    -0.6510 C.3   1 <1>  -0.0160 
 14 O        3.6410    -2.9760    -1.2390 O.3   1 <1>  -0.2800 
 15 C        5.0340    -1.7820    -0.0550 C.2   1 <1>  -0.1500 
 16 C       -4.8350    -4.1460    -0.4930 C.3   1 <1>  -0.0170 
 17 C       -5.8770    -1.8560    -0.6300 C.3   1 <1>  -0.1600 
 18 C        4.8430    -3.1620    -1.7370 C.2   1 <1>  -0.0100 
 19 C        5.7560    -2.4480    -1.0460 C.2   1 <1>  -0.1500 
 20 C       -5.7890    -3.2380    -1.2830 C.3   1 <1>  -0.1600 
 21 H        1.1110    -2.8240    -0.5540 H     1 <1>   0.1500 
 22 H       -2.0300    -0.4610     0.1780 H     1 <1>   0.1500 
 23 H        2.7490    -1.0900     1.3380 H     1 <1>   0.1500 
 24 H        0.2260    -4.2830     1.9570 H     1 <1>   0.0800 
 25 H        0.1920    -5.0800     0.3940 H     1 <1>   0.0800 
 26 H       -0.9060    -5.5660     1.6580 H     1 <1>   0.0800 
 27 H       -4.5470    -0.2840    -0.0400 H     1 <1>   0.0800 
 28 H       -4.2810    -0.8650    -1.6580 H     1 <1>   0.0800 
 29 H        5.4480    -1.1190     0.6820 H     1 <1>   0.1500 
 30 H       -4.6130    -5.0210    -1.0780 H     1 <1>   0.0800 
 31 H       -5.3210    -4.4710     0.4100 H     1 <1>   0.0800 
 32 H       -6.2090    -1.9620     0.3890 H     1 <1>   0.0800 
 33 H       -6.5940    -1.2470    -1.1530 H     1 <1>   0.0800 
 34 H        4.9630    -3.8170    -2.5830 H     1 <1>   0.1500 
 35 H        6.8190    -2.3850    -1.2020 H     1 <1>   0.1500 
 36 H       -5.4260    -3.1350    -2.2920 H     1 <1>   0.0800 
 37 H       -6.7640    -3.6910    -1.3250 H     1 <1>   0.0800 
@<TRIPOS>BOND
  1   1   2  2   
  2   2   3  1   
  3   2   4  1   
  4   3   5  ar  
  5   3   6  ar  
  6   4   7  2   
  7   4  21  1   
  8   5   8  ar  
  9   5   9  1   
 10   6  10  ar  
 11   6  22  1   
 12   7  11  1   
 13   7  23  1   
 14   8  12  ar  
 15   9  24  1   
 16   9  25  1   
 17   9  26  1   
 18  10  12  ar  
 19  10  13  1   
 20  11  14  1   
 21  11  15  2   
 22  12  16  1   
 23  13  17  1   
 24  13  27  1   
 25  13  28  1   
 26  14  18  1   
 27  15  19  1   
 28  15  29  1   
 29  16  20  1   
 30  16  30  1   
 31  16  31  1   
 32  17  20  1   
 33  17  32  1   
 34  17  33  1   
 35  18  19  2   
 36  18  34  1   
 37  19  35  1   
 38  20  36  1   
 39  20  37  1   
@<TRIPOS>SUBSTRUCTURE
  1 ****   3 GROUP 4 **** **** 0

# MOE 2024.06 (io_trps.svl 2023.06)
