@<TRIPOS>MOLECULE
NONAME
43 43 1 0 0 
SMALL
USER_CHARGES


@<TRIPOS>ATOM
  1 S        0.7440     0.7360    -0.8790 S.o2  1 <1>   1.3330 
  2 O        0.5180     1.7830    -1.8480 O.2   1 <1>  -0.6500 
  3 O        1.6480    -0.3470    -1.1690 O.2   1 <1>  -0.6500 
  4 N        1.1490     1.4750     0.5930 N.am  1 <1>  -0.8490 
  5 C       -0.8240    -0.0080    -0.4870 C.3   1 <1>  -0.1350 
  6 C        2.6290     1.5420     0.8340 C.3   1 <1>   0.4190 
  7 C        0.5350     2.8050     0.7460 C.3   1 <1>   0.1160 
  8 P        3.7420     2.4040    -0.3450 P.3   1 <1>   1.2420 
  9 C        3.0840     0.1940     1.4150 C.ar  1 <1>  -0.1440 
 10 O        3.4550     3.8330    -0.5080 O.2   1 <1>  -0.7000 
 11 O        5.2540     2.1690     0.1580 O.3   1 <1>  -0.5510 
 12 O        3.7370     1.6080    -1.7400 O.3   1 <1>  -0.5510 
 13 C        2.6580    -0.1580     2.6900 C.ar  1 <1>  -0.1500 
 14 C        3.9110    -0.6870     0.7280 C.ar  1 <1>  -0.1500 
 15 C        5.9150     3.0500     0.9990 C.3   1 <1>   0.1200 
 16 C        4.3470     2.1150    -2.8710 C.3   1 <1>   0.1200 
 17 C        3.0580    -1.3480     3.2720 C.ar  1 <1>  -0.1500 
 18 C        4.3130    -1.8780     1.3070 C.ar  1 <1>  -0.1500 
 19 C        5.4190     2.8830     2.4340 C.3   1 <1>  -0.2400 
 20 C        3.3180     2.9140    -3.6660 C.3   1 <1>  -0.2400 
 21 C        3.8900    -2.2100     2.5800 C.ar  1 <1>  -0.1500 
 22 H       -1.2030    -0.5280    -1.3440 H     1 <1>   0.0800 
 23 H       -1.5320     0.7400    -0.1960 H     1 <1>   0.0800 
 24 H       -0.7030    -0.7090     0.3150 H     1 <1>   0.0800 
 25 H        2.7050     2.1660     1.7030 H     1 <1>   0.0800 
 26 H       -0.5320     2.7350     0.6250 H     1 <1>   0.0800 
 27 H        0.9140     3.4920     0.0050 H     1 <1>   0.0800 
 28 H        0.7350     3.2020     1.7260 H     1 <1>   0.0800 
 29 H        2.0030     0.4960     3.2390 H     1 <1>   0.1500 
 30 H        4.2450    -0.4680    -0.2720 H     1 <1>   0.1500 
 31 H        5.7740     4.0560     0.6390 H     1 <1>   0.0800 
 32 H        6.9620     2.8070     0.9470 H     1 <1>   0.0800 
 33 H        4.6900     1.2770    -3.4530 H     1 <1>   0.0800 
 34 H        5.1920     2.7190    -2.5840 H     1 <1>   0.0800 
 35 H        2.7210    -1.6060     4.2610 H     1 <1>   0.1500 
 36 H        4.9520    -2.5480     0.7590 H     1 <1>   0.1500 
 37 H        4.4350     3.2960     2.5520 H     1 <1>   0.0800 
 38 H        6.0760     3.4170     3.0970 H     1 <1>   0.0800 
 39 H        5.4260     1.8440     2.7160 H     1 <1>   0.0800 
 40 H        2.4740     2.2910    -3.9040 H     1 <1>   0.0800 
 41 H        3.7580     3.2620    -4.5830 H     1 <1>   0.0800 
 42 H        2.9820     3.7670    -3.1050 H     1 <1>   0.0800 
 43 H        4.2030    -3.1360     3.0280 H     1 <1>   0.1500 
@<TRIPOS>BOND
  1   1   2  2   
  2   1   3  2   
  3   1   4  am  
  4   1   5  1   
  5   4   6  1   
  6   4   7  1   
  7   5  22  1   
  8   5  23  1   
  9   5  24  1   
 10   6   8  1   
 11   6   9  1   
 12   6  25  1   
 13   7  26  1   
 14   7  27  1   
 15   7  28  1   
 16   8  10  2   
 17   8  11  1   
 18   8  12  1   
 19   9  13  ar  
 20   9  14  ar  
 21  11  15  1   
 22  12  16  1   
 23  13  17  ar  
 24  13  29  1   
 25  14  18  ar  
 26  14  30  1   
 27  15  19  1   
 28  15  31  1   
 29  15  32  1   
 30  16  20  1   
 31  16  33  1   
 32  16  34  1   
 33  17  21  ar  
 34  17  35  1   
 35  18  21  ar  
 36  18  36  1   
 37  19  37  1   
 38  19  38  1   
 39  19  39  1   
 40  20  40  1   
 41  20  41  1   
 42  20  42  1   
 43  21  43  1   
@<TRIPOS>SUBSTRUCTURE
  1 ****   6 GROUP 4 **** **** 0

# MOE 2024.06 (io_trps.svl 2023.06)
