@<TRIPOS>MOLECULE
NONAME
44 44 1 0 0 
SMALL
USER_CHARGES


@<TRIPOS>ATOM
  1 CL       0.5020     1.4720    -2.3890 Cl    1 <1>  -0.1770 
  2 C        1.1240     2.4320    -1.0640 C.ar  1 <1>   0.1770 
  3 C        0.3240     3.3810    -0.4380 C.ar  1 <1>   0.0820 
  4 C        2.4320     2.2100    -0.6740 C.ar  1 <1>  -0.1500 
  5 O       -0.9560     3.5440    -0.8530 O.3   1 <1>  -0.3630 
  6 C        0.8780     4.1400     0.6030 C.ar  1 <1>   0.0830 
  7 C        2.9740     2.9510     0.3650 C.ar  1 <1>  -0.1440 
  8 C       -1.9040     2.6650    -0.2920 C.3   1 <1>   0.1200 
  9 O        0.2470     5.1280     1.2950 O.3   1 <1>  -0.3630 
 10 C        2.1860     3.9030     0.9980 C.ar  1 <1>  -0.1500 
 11 C        4.4070     2.7450     0.7980 C.3   1 <1>   0.4860 
 12 C       -3.2720     3.0150    -0.8670 C.3   1 <1>  -0.2400 
 13 C       -0.7970     5.8870     0.7220 C.3   1 <1>   0.0400 
 14 N        5.2070     3.7560     0.0600 N.4   1 <1>  -0.9060 
 15 C        6.6750     3.7260     0.3910 C.3   1 <1>   0.3430 
 16 C        7.5140     4.7930    -0.3760 C.3   1 <1>   0.3430 
 17 N        8.9820     4.8270    -0.0150 N.4   1 <1>  -0.9590 
 18 C        9.6470     6.0070    -0.6680 C.3   1 <1>   0.2630 
 19 C        9.7360     3.5830    -0.4010 C.3   1 <1>   0.2630 
 20 H        2.9950     1.4540    -1.1940 H     1 <1>   0.1500 
 21 H       -1.8920     2.7880     0.7780 H     1 <1>   0.0800 
 22 H       -1.6320     1.6540    -0.5450 H     1 <1>   0.0800 
 23 H        2.5650     4.4890     1.8180 H     1 <1>   0.1500 
 24 H        4.7270     1.7440     0.5520 H     1 <1>   0.0800 
 25 H        4.4920     2.8890     1.8640 H     1 <1>   0.0800 
 26 H       -3.5330     4.0280    -0.6180 H     1 <1>   0.0800 
 27 H       -4.0180     2.3580    -0.4570 H     1 <1>   0.0800 
 28 H       -3.2630     2.8980    -1.9360 H     1 <1>   0.0800 
 29 H       -0.9090     6.7910     1.2940 H     1 <1>   0.0800 
 30 H       -1.7080     5.3190     0.7660 H     1 <1>   0.0800 
 31 H       -0.5460     6.1260    -0.2970 H     1 <1>   0.0800 
 32 H        4.7690     4.6650     0.2760 H     1 <1>   0.4500 
 33 H        5.0170     3.5920    -0.9400 H     1 <1>   0.4500 
 34 H        7.0650     2.7490     0.1590 H     1 <1>   0.0800 
 35 H        6.7960     3.8930     1.4500 H     1 <1>   0.0800 
 36 H        7.0930     5.7640    -0.1700 H     1 <1>   0.0800 
 37 H        7.4240     4.6120    -1.4350 H     1 <1>   0.0800 
 38 H        9.1010     4.9670     1.0050 H     1 <1>   0.4500 
 39 H        9.5920     5.9280    -1.7420 H     1 <1>   0.0800 
 40 H       10.6870     6.0570    -0.3840 H     1 <1>   0.0800 
 41 H        9.1710     6.9270    -0.3660 H     1 <1>   0.0800 
 42 H        9.6730     3.4170    -1.4650 H     1 <1>   0.0800 
 43 H        9.3430     2.7190     0.1100 H     1 <1>   0.0800 
 44 H       10.7780     3.6830    -0.1370 H     1 <1>   0.0800 
@<TRIPOS>BOND
  1   1   2  1   
  2   2   3  ar  
  3   2   4  ar  
  4   3   5  1   
  5   3   6  ar  
  6   4   7  ar  
  7   4  20  1   
  8   5   8  1   
  9   6   9  1   
 10   6  10  ar  
 11   7  10  ar  
 12   7  11  1   
 13   8  12  1   
 14   8  21  1   
 15   8  22  1   
 16   9  13  1   
 17  10  23  1   
 18  11  14  1   
 19  11  24  1   
 20  11  25  1   
 21  12  26  1   
 22  12  27  1   
 23  12  28  1   
 24  13  29  1   
 25  13  30  1   
 26  13  31  1   
 27  14  15  1   
 28  14  32  1   
 29  14  33  1   
 30  15  16  1   
 31  15  34  1   
 32  15  35  1   
 33  16  17  1   
 34  16  36  1   
 35  16  37  1   
 36  17  18  1   
 37  17  19  1   
 38  17  38  1   
 39  18  39  1   
 40  18  40  1   
 41  18  41  1   
 42  19  42  1   
 43  19  43  1   
 44  19  44  1   
@<TRIPOS>SUBSTRUCTURE
  1 ****   7 GROUP 4 **** **** 0

# MOE 2024.06 (io_trps.svl 2023.06)
