@<TRIPOS>MOLECULE
NONAME
52 54 1 0 0 
SMALL
USER_CHARGES


@<TRIPOS>ATOM
  1 O       -0.9180    -0.0810     2.8060 O.2   1 <1>  -0.5700 
  2 C       -0.2040    -0.6100     1.9890 C.2   1 <1>   0.5690 
  3 N       -0.5790    -0.9310     0.7150 N.am  1 <1>  -0.5470 
  4 C        1.2370    -0.9540     2.3720 C.3   1 <1>   0.1710 
  5 C       -1.7710    -0.7840    -0.0080 C.ar  1 <1>   0.1170 
  6 N        2.1620    -1.0490     1.2020 N.3   1 <1>  -0.8100 
  7 C       -1.7650    -1.0970    -1.3620 C.ar  1 <1>  -0.1500 
  8 C       -2.9620    -0.3430     0.5590 C.ar  1 <1>  -0.1500 
  9 C        3.4220    -1.7250     1.5850 C.3   1 <1>   0.1100 
 10 C        2.4740     0.3010     0.6670 C.3   1 <1>   0.1100 
 11 C       -2.9100    -0.9730    -2.1290 C.ar  1 <1>  -0.1500 
 12 C       -4.1090    -0.2180    -0.2050 C.ar  1 <1>  -0.1500 
 13 C        4.4080    -1.8510     0.4080 C.3   1 <1>   0.2090 
 14 C        3.4330     0.2570    -0.5400 C.3   1 <1>   0.2090 
 15 C       -4.0910    -0.5320    -1.5540 C.ar  1 <1>  -0.1430 
 16 N        4.6610    -0.5410    -0.2600 N.pl3 1 <1>  -0.8380 
 17 C       -5.3490    -0.3920    -2.3910 C.3   1 <1>  -0.0970 
 18 C        5.8420     0.1380     0.0410 C.ar  1 <1>   0.1000 
 19 C        6.9060     0.1760    -0.8670 C.ar  1 <1>  -0.1430 
 20 C        5.9700     0.7860     1.2640 C.ar  1 <1>  -0.1500 
 21 C        8.0770     0.8550    -0.5350 C.ar  1 <1>  -0.1430 
 22 C        6.7340    -0.5440    -2.2050 C.3   1 <1>  -0.0970 
 23 C        7.1270     1.4620     1.5900 C.ar  1 <1>  -0.1500 
 24 C        8.1760     1.4940     0.6920 C.ar  1 <1>  -0.1500 
 25 C        9.2740     0.9260    -1.4740 C.3   1 <1>  -0.0970 
 26 H        0.2180    -1.3070     0.1920 H     1 <1>   0.3700 
 27 H        1.2060    -1.9020     2.8780 H     1 <1>   0.0800 
 28 H        1.5970    -0.2190     3.0700 H     1 <1>   0.0800 
 29 H       -0.8590    -1.4410    -1.8240 H     1 <1>   0.1500 
 30 H       -3.0040    -0.0960     1.6030 H     1 <1>   0.1500 
 31 H        3.2000    -2.7140     1.9470 H     1 <1>   0.0800 
 32 H        3.9020    -1.1830     2.3810 H     1 <1>   0.0800 
 33 H        2.9220     0.9050     1.4360 H     1 <1>   0.0800 
 34 H        1.5670     0.7910     0.3580 H     1 <1>   0.0800 
 35 H       -2.8800    -1.2190    -3.1750 H     1 <1>   0.1500 
 36 H       -5.0160     0.1270     0.2580 H     1 <1>   0.1500 
 37 H        4.0070    -2.5370    -0.3170 H     1 <1>   0.0800 
 38 H        5.3410    -2.2540     0.7620 H     1 <1>   0.0800 
 39 H        3.7140     1.2600    -0.8110 H     1 <1>   0.0800 
 40 H        2.9220    -0.1790    -1.3800 H     1 <1>   0.0800 
 41 H       -5.3400    -1.0930    -3.2050 H     1 <1>   0.0800 
 42 H       -5.4110     0.6040    -2.7890 H     1 <1>   0.0800 
 43 H       -6.2210    -0.5810    -1.7910 H     1 <1>   0.0800 
 44 H        5.1570     0.7580     1.9600 H     1 <1>   0.1500 
 45 H        5.8220    -0.2190    -2.6720 H     1 <1>   0.0800 
 46 H        6.6670    -1.6030    -2.0310 H     1 <1>   0.0800 
 47 H        7.5360    -0.3610    -2.8900 H     1 <1>   0.0800 
 48 H        7.2130     1.9600     2.5390 H     1 <1>   0.1500 
 49 H        9.0740     2.0230     0.9590 H     1 <1>   0.1500 
 50 H        9.6020    -0.0660    -1.7250 H     1 <1>   0.0800 
 51 H       10.0960     1.4450    -1.0170 H     1 <1>   0.0800 
 52 H        9.0020     1.4490    -2.3730 H     1 <1>   0.0800 
@<TRIPOS>BOND
  1   1   2  2   
  2   2   3  am  
  3   2   4  1   
  4   3   5  1   
  5   3  26  1   
  6   4   6  1   
  7   4  27  1   
  8   4  28  1   
  9   5   7  ar  
 10   5   8  ar  
 11   6   9  1   
 12   6  10  1   
 13   7  11  ar  
 14   7  29  1   
 15   8  12  ar  
 16   8  30  1   
 17   9  13  1   
 18   9  31  1   
 19   9  32  1   
 20  10  14  1   
 21  10  33  1   
 22  10  34  1   
 23  11  15  ar  
 24  11  35  1   
 25  12  15  ar  
 26  12  36  1   
 27  13  16  1   
 28  13  37  1   
 29  13  38  1   
 30  14  16  1   
 31  14  39  1   
 32  14  40  1   
 33  15  17  1   
 34  16  18  1   
 35  17  41  1   
 36  17  42  1   
 37  17  43  1   
 38  18  19  ar  
 39  18  20  ar  
 40  19  21  ar  
 41  19  22  1   
 42  20  23  ar  
 43  20  44  1   
 44  21  24  ar  
 45  21  25  1   
 46  22  45  1   
 47  22  46  1   
 48  22  47  1   
 49  23  24  ar  
 50  23  48  1   
 51  24  49  1   
 52  25  50  1   
 53  25  51  1   
 54  25  52  1   
@<TRIPOS>SUBSTRUCTURE
  1 ****  10 GROUP 4 **** **** 0

# MOE 2024.06 (io_trps.svl 2023.06)
