@<TRIPOS>MOLECULE
NONAME
41 43 1 0 0 
SMALL
USER_CHARGES


@<TRIPOS>ATOM
  1 S        0.0680    -0.2110     0.5150 S.o2  1 <1>   1.5760 
  2 O        0.3410    -0.7700     1.8150 O.2   1 <1>  -0.6500 
  3 O        0.1970    -0.9690    -0.7070 O.2   1 <1>  -0.6500 
  4 N        0.9390     1.2190     0.3600 N.am  1 <1>  -0.8490 
  5 N       -1.4840     0.4900     0.6190 N.am  1 <1>  -0.7570 
  6 C        2.3640     1.0270     0.5470 C.3   1 <1>   0.1960 
  7 C        0.8020     1.8670    -0.9330 C.3   1 <1>   0.1960 
  8 C       -2.6670    -0.1660     0.3200 C.ar  1 <1>   0.1990 
  9 C        2.9990     2.2930    -0.0180 C.3   1 <1>  -0.1600 
 10 C        1.9520     2.8650    -0.9750 C.3   1 <1>  -0.1600 
 11 C       -2.8780    -0.7810    -0.9080 C.ar  1 <1>  -0.1500 
 12 C       -3.6870    -0.2030     1.2620 C.ar  1 <1>  -0.1500 
 13 C       -4.0700    -1.4270    -1.1820 C.ar  1 <1>  -0.1500 
 14 C       -4.8810    -0.8470     0.9900 C.ar  1 <1>  -0.1500 
 15 C       -5.0820    -1.4670    -0.2340 C.ar  1 <1>  -0.1430 
 16 C       -6.3930    -2.1870    -0.5270 C.3   1 <1>   0.1270 
 17 C       -7.6010    -1.2830    -0.3190 C.ar  1 <1>  -0.1430 
 18 C       -8.6730    -1.6590     0.4670 C.ar  1 <1>  -0.1500 
 19 C       -7.6900    -0.0380    -0.9100 C.ar  1 <1>  -0.1500 
 20 C       -9.7480    -0.7990     0.6180 C.ar  1 <1>   0.1600 
 21 C       -8.8120     0.7460    -0.6950 C.ar  1 <1>   0.1600 
 22 N       -9.8440     0.3950     0.0550 N.ar  1 <1>  -0.6200 
 23 H       -1.4850     1.0200     1.4800 H     1 <1>   0.4200 
 24 H        2.6960     0.1690    -0.0160 H     1 <1>   0.0800 
 25 H        2.6000     0.8850     1.5890 H     1 <1>   0.0800 
 26 H       -0.1570     2.3490    -1.0270 H     1 <1>   0.0800 
 27 H        0.9220     1.1490    -1.7300 H     1 <1>   0.0800 
 28 H        3.9220     2.0630    -0.5180 H     1 <1>   0.0800 
 29 H        3.1950     2.9880     0.7800 H     1 <1>   0.0800 
 30 H        1.6090     3.8220    -0.6220 H     1 <1>   0.0800 
 31 H        2.3300     2.9730    -1.9750 H     1 <1>   0.0800 
 32 H       -2.1070    -0.7540    -1.6550 H     1 <1>   0.1500 
 33 H       -3.5480     0.2710     2.2160 H     1 <1>   0.1500 
 34 H       -4.2010    -1.8990    -2.1410 H     1 <1>   0.1500 
 35 H       -5.6580    -0.8630     1.7350 H     1 <1>   0.1500 
 36 H       -6.4610    -3.0460     0.1170 H     1 <1>   0.0800 
 37 H       -6.4010    -2.5420    -1.5420 H     1 <1>   0.0800 
 38 H       -8.6850    -2.6110     0.9650 H     1 <1>   0.1500 
 39 H       -6.8940     0.3290    -1.5330 H     1 <1>   0.1500 
 40 H      -10.5740    -1.1100     1.2340 H     1 <1>   0.1500 
 41 H       -8.8610     1.7130    -1.1640 H     1 <1>   0.1500 
@<TRIPOS>BOND
  1   1   2  2   
  2   1   3  2   
  3   1   4  am  
  4   1   5  am  
  5   4   6  1   
  6   4   7  1   
  7   5   8  1   
  8   5  23  1   
  9   6   9  1   
 10   6  24  1   
 11   6  25  1   
 12   7  10  1   
 13   7  26  1   
 14   7  27  1   
 15   8  11  ar  
 16   8  12  ar  
 17   9  10  1   
 18   9  28  1   
 19   9  29  1   
 20  10  30  1   
 21  10  31  1   
 22  11  13  ar  
 23  11  32  1   
 24  12  14  ar  
 25  12  33  1   
 26  13  15  ar  
 27  13  34  1   
 28  14  15  ar  
 29  14  35  1   
 30  15  16  1   
 31  16  17  1   
 32  16  36  1   
 33  16  37  1   
 34  17  18  ar  
 35  17  19  ar  
 36  18  20  ar  
 37  18  38  1   
 38  19  21  ar  
 39  19  39  1   
 40  20  22  ar  
 41  20  40  1   
 42  21  22  ar  
 43  21  41  1   
@<TRIPOS>SUBSTRUCTURE
  1 ****   8 GROUP 4 **** **** 0

# MOE 2024.06 (io_trps.svl 2023.06)
