@<TRIPOS>MOLECULE
NONAME
40 41 1 0 0 
SMALL
USER_CHARGES


@<TRIPOS>ATOM
  1 O        0.5560    -0.7800     1.2640 O.2   1 <1>  -0.5700 
  2 C        0.5030    -1.8900     0.7870 C.2   1 <1>   0.4950 
  3 C        1.6040    -2.5130     0.1150 C.2   1 <1>   0.0290 
  4 C       -0.8280    -2.6020     0.9630 C.3   1 <1>  -0.0990 
  5 C        1.4390    -3.8610    -0.3550 C.2   1 <1>   0.4950 
  6 C        2.7730    -1.8000    -0.0580 C.2   1 <1>  -0.0500 
  7 C       -1.0940    -3.6560    -0.1190 C.3   1 <1>   0.0000 
  8 O        2.3030    -4.5140    -0.8970 O.2   1 <1>  -0.5700 
  9 C        0.1180    -4.5940    -0.1780 C.3   1 <1>  -0.0990 
 10 N        3.8990    -2.2370    -0.6720 N.pl3 1 <1>  -0.8690 
 11 C       -1.3270    -2.9850    -1.4860 C.3   1 <1>  -0.2400 
 12 C       -2.3510    -4.4610     0.2440 C.3   1 <1>  -0.2400 
 13 C        5.1510    -1.4680    -0.8660 C.3   1 <1>   0.2090 
 14 C        6.2710    -2.0950    -0.0400 C.3   1 <1>  -0.0170 
 15 C        7.5280    -1.2490    -0.1240 C.ar  1 <1>   0.1670 
 16 N        8.1090    -1.1780    -1.3130 N.ar  1 <1>  -0.6200 
 17 C        8.0030    -0.6040     1.0090 C.ar  1 <1>  -0.1500 
 18 C        9.2050    -0.4380    -1.3740 C.ar  1 <1>   0.1600 
 19 C        9.1450     0.1640     0.9300 C.ar  1 <1>  -0.1500 
 20 C        9.7560     0.2420    -0.3020 C.ar  1 <1>  -0.1500 
 21 H       -0.8260    -3.0610     1.9350 H     1 <1>   0.0800 
 22 H       -1.6170    -1.8700     0.9560 H     1 <1>   0.0800 
 23 H        2.8140    -0.7910     0.3260 H     1 <1>   0.1500 
 24 H       -0.0040    -5.2890    -0.9900 H     1 <1>   0.0800 
 25 H        0.1850    -5.1690     0.7280 H     1 <1>   0.0800 
 26 H        3.9080    -3.1990    -1.0620 H     1 <1>   0.4000 
 27 H       -0.4800    -2.4030    -1.8020 H     1 <1>   0.0800 
 28 H       -2.1800    -2.3300    -1.4430 H     1 <1>   0.0800 
 29 H       -1.5180    -3.7280    -2.2420 H     1 <1>   0.0800 
 30 H       -3.2110    -3.8150     0.3020 H     1 <1>   0.0800 
 31 H       -2.2340    -4.9500     1.1960 H     1 <1>   0.0800 
 32 H       -2.5470    -5.2140    -0.4990 H     1 <1>   0.0800 
 33 H        5.4180    -1.4690    -1.9100 H     1 <1>   0.0800 
 34 H        5.0000    -0.4480    -0.5560 H     1 <1>   0.0800 
 35 H        6.4860    -3.0780    -0.4160 H     1 <1>   0.0800 
 36 H        5.9500    -2.1800     0.9820 H     1 <1>   0.0800 
 37 H        7.4870    -0.6990     1.9470 H     1 <1>   0.1500 
 38 H        9.6900    -0.3710    -2.3330 H     1 <1>   0.1500 
 39 H        9.5400     0.6780     1.7900 H     1 <1>   0.1500 
 40 H       10.6510     0.8230    -0.4350 H     1 <1>   0.1500 
@<TRIPOS>BOND
  1   1   2  2   
  2   2   3  1   
  3   2   4  1   
  4   3   5  1   
  5   3   6  2   
  6   4   7  1   
  7   4  21  1   
  8   4  22  1   
  9   5   8  2   
 10   5   9  1   
 11   6  10  1   
 12   6  23  1   
 13   7   9  1   
 14   7  11  1   
 15   7  12  1   
 16   9  24  1   
 17   9  25  1   
 18  10  13  1   
 19  10  26  1   
 20  11  27  1   
 21  11  28  1   
 22  11  29  1   
 23  12  30  1   
 24  12  31  1   
 25  12  32  1   
 26  13  14  1   
 27  13  33  1   
 28  13  34  1   
 29  14  15  1   
 30  14  35  1   
 31  14  36  1   
 32  15  16  ar  
 33  15  17  ar  
 34  16  18  ar  
 35  17  19  ar  
 36  17  37  1   
 37  18  20  ar  
 38  18  38  1   
 39  19  20  ar  
 40  19  39  1   
 41  20  40  1   
@<TRIPOS>SUBSTRUCTURE
  1 ****  10 GROUP 4 **** **** 0

# MOE 2024.06 (io_trps.svl 2023.06)
