@<TRIPOS>MOLECULE
NONAME
32 33 1 0 0 
SMALL
USER_CHARGES


@<TRIPOS>ATOM
  1 F        0.0620    -0.4740     0.3660 F     1 <1>  -0.1900 
  2 C        0.7870    -1.5230     0.0710 C.ar  1 <1>   0.1900 
  3 C        0.2360    -2.5720    -0.6440 C.ar  1 <1>   0.1900 
  4 C        2.1030    -1.5590     0.4840 C.ar  1 <1>  -0.1500 
  5 F       -1.0100    -2.5310    -1.0340 F     1 <1>  -0.1900 
  6 C        0.9980    -3.6820    -0.9550 C.ar  1 <1>  -0.1500 
  7 C        2.9050    -2.6640     0.1780 C.ar  1 <1>   0.0860 
  8 C        2.3210    -3.7190    -0.5400 C.ar  1 <1>  -0.1500 
  9 C        4.2930    -2.7030     0.6020 C.2   1 <1>   0.5440 
 10 O        4.6470    -2.1110     1.6020 O.2   1 <1>  -0.5700 
 11 N        5.2250    -3.3900    -0.1250 N.am  1 <1>  -0.7300 
 12 C        6.6540    -3.5090     0.2090 C.3   1 <1>   0.2200 
 13 C        7.4720    -2.7520    -0.8410 C.3   1 <1>  -0.1600 
 14 C        7.0300    -4.9940     0.2440 C.3   1 <1>  -0.1600 
 15 C        8.9790    -2.9340    -0.6080 C.3   1 <1>  -0.1600 
 16 C        8.5360    -5.1790     0.4800 C.3   1 <1>  -0.1600 
 17 C        9.3600    -4.4200    -0.5690 C.3   1 <1>  -0.1600 
 18 H        2.5130    -0.7360     1.0420 H     1 <1>   0.1500 
 19 H        0.5610    -4.4960    -1.5060 H     1 <1>   0.1500 
 20 H        2.9110    -4.5890    -0.7690 H     1 <1>   0.1500 
 21 H        4.9670    -3.7870    -1.0260 H     1 <1>   0.3700 
 22 H        6.8420    -3.0780     1.1800 H     1 <1>   0.0800 
 23 H        7.2290    -1.7050    -0.7900 H     1 <1>   0.0800 
 24 H        7.2250    -3.1140    -1.8230 H     1 <1>   0.0800 
 25 H        6.7640    -5.4570    -0.6890 H     1 <1>   0.0800 
 26 H        6.4850    -5.4790     1.0360 H     1 <1>   0.0800 
 27 H        9.2520    -2.4720     0.3270 H     1 <1>   0.0800 
 28 H        9.5290    -2.4400    -1.3910 H     1 <1>   0.0800 
 29 H        8.7820    -6.2270     0.4440 H     1 <1>   0.0800 
 30 H        8.7900    -4.8160     1.4620 H     1 <1>   0.0800 
 31 H       10.4080    -4.5170    -0.3420 H     1 <1>   0.0800 
 32 H        9.1920    -4.8570    -1.5390 H     1 <1>   0.0800 
@<TRIPOS>BOND
  1   1   2  1   
  2   2   3  ar  
  3   2   4  ar  
  4   3   5  1   
  5   3   6  ar  
  6   4   7  ar  
  7   4  18  1   
  8   6   8  ar  
  9   6  19  1   
 10   7   8  ar  
 11   7   9  1   
 12   8  20  1   
 13   9  10  2   
 14   9  11  am  
 15  11  12  1   
 16  11  21  1   
 17  12  13  1   
 18  12  14  1   
 19  12  22  1   
 20  13  15  1   
 21  13  23  1   
 22  13  24  1   
 23  14  16  1   
 24  14  25  1   
 25  14  26  1   
 26  15  17  1   
 27  15  27  1   
 28  15  28  1   
 29  16  17  1   
 30  16  29  1   
 31  16  30  1   
 32  17  31  1   
 33  17  32  1   
@<TRIPOS>SUBSTRUCTURE
  1 ****   9 GROUP 4 **** **** 0

# MOE 2024.06 (io_trps.svl 2023.06)
