@<TRIPOS>MOLECULE
NONAME
30 31 1 0 0 
SMALL
USER_CHARGES


@<TRIPOS>ATOM
  1 BR      -0.2760     0.1360     1.6080 Br    1 <1>  -0.0580 
  2 C       -1.9310     0.7750     0.8680 C.2   1 <1>   0.1980 
  3 O       -2.9600    -0.0320     0.8760 O.3   1 <1>  -0.2800 
  4 C       -2.2040     1.9740     0.3220 C.2   1 <1>  -0.1500 
  5 C       -3.9800     0.6250     0.3180 C.2   1 <1>   0.0550 
  6 C       -3.5490     1.8760    -0.0400 C.2   1 <1>  -0.1500 
  7 C       -5.2800     0.0070     0.1740 C.2   1 <1>   0.7150 
  8 O       -5.5090    -1.1290     0.5470 O.2   1 <1>  -0.5700 
  9 N       -6.3040     0.7040    -0.3940 N.am  1 <1>  -0.7300 
 10 C       -7.7270     0.2590    -0.4450 C.3   1 <1>   0.2010 
 11 C       -8.7060     1.4380    -0.4740 C.2   1 <1>   0.5690 
 12 O       -8.2720     2.5410    -0.7300 O.2   1 <1>  -0.5700 
 13 N      -10.0350     1.2350    -0.2190 N.am  1 <1>  -0.6600 
 14 C      -10.6830    -0.0570     0.0990 C.3   1 <1>   0.1400 
 15 C      -11.0190     2.3400    -0.2170 C.3   1 <1>   0.1400 
 16 C      -12.1780     0.2380     0.0520 C.3   1 <1>  -0.1600 
 17 C      -12.2880     1.7280     0.3650 C.3   1 <1>  -0.1600 
 18 H       -1.5530     2.8200     0.1880 H     1 <1>   0.1500 
 19 H       -4.1150     2.6600    -0.5120 H     1 <1>   0.1500 
 20 H       -6.1960     1.6990    -0.6100 H     1 <1>   0.3700 
 21 H       -7.9360    -0.3530     0.4140 H     1 <1>   0.0800 
 22 H       -7.8740    -0.3330    -1.3300 H     1 <1>   0.0800 
 23 H      -10.3950    -0.3620     1.0910 H     1 <1>   0.0800 
 24 H      -10.4120    -0.8180    -0.6140 H     1 <1>   0.0800 
 25 H      -11.1830     2.6640    -1.2310 H     1 <1>   0.0800 
 26 H      -10.6660     3.1680     0.3740 H     1 <1>   0.0800 
 27 H      -12.7280    -0.3690     0.7490 H     1 <1>   0.0800 
 28 H      -12.5410     0.0470    -0.9420 H     1 <1>   0.0800 
 29 H      -13.1740     2.1720    -0.0550 H     1 <1>   0.0800 
 30 H      -12.2920     1.8800     1.4300 H     1 <1>   0.0800 
@<TRIPOS>BOND
  1   1   2  1   
  2   2   3  1   
  3   2   4  2   
  4   3   5  1   
  5   4   6  1   
  6   4  18  1   
  7   5   6  2   
  8   5   7  1   
  9   6  19  1   
 10   7   8  2   
 11   7   9  am  
 12   9  10  1   
 13   9  20  1   
 14  10  11  1   
 15  10  21  1   
 16  10  22  1   
 17  11  12  2   
 18  11  13  am  
 19  13  14  1   
 20  13  15  1   
 21  14  16  1   
 22  14  23  1   
 23  14  24  1   
 24  15  17  1   
 25  15  25  1   
 26  15  26  1   
 27  16  17  1   
 28  16  27  1   
 29  16  28  1   
 30  17  29  1   
 31  17  30  1   
@<TRIPOS>SUBSTRUCTURE
  1 ****   9 GROUP 4 **** **** 0

# MOE 2024.06 (io_trps.svl 2023.06)
