@<TRIPOS>MOLECULE
NONAME
47 48 1 0 0 
SMALL
USER_CHARGES


@<TRIPOS>ATOM
  1 O       -0.2130    -1.4370    -0.2800 O.3   1 <1>  -0.3630 
  2 C       -1.4340    -1.6480     0.2840 C.ar  1 <1>   0.0830 
  3 C        0.9660    -1.3920     0.4840 C.3   1 <1>   0.1200 
  4 C       -2.5420    -1.7250    -0.5610 C.ar  1 <1>  -0.1440 
  5 C       -1.5980    -1.7940     1.6600 C.ar  1 <1>  -0.1500 
  6 C        2.1320    -1.1750    -0.4840 C.3   1 <1>  -0.1600 
  7 C       -3.8040    -1.9670    -0.0210 C.ar  1 <1>  -0.1440 
  8 C       -2.3480    -1.5510    -2.0690 C.3   1 <1>  -0.0960 
  9 C       -2.8530    -2.0220     2.1880 C.ar  1 <1>  -0.1500 
 10 C        3.4800    -1.1090     0.2490 C.3   1 <1>  -0.1600 
 11 C       -3.9480    -2.1100     1.3510 C.ar  1 <1>  -0.1500 
 12 C       -5.0500    -2.0890    -0.8880 C.3   1 <1>  -0.0970 
 13 C        4.6200    -0.9010    -0.7510 C.3   1 <1>   0.3430 
 14 N        5.9400    -0.9430    -0.0610 N.4   1 <1>  -0.9590 
 15 C        6.1830     0.2710     0.7780 C.3   1 <1>   0.3430 
 16 C        7.0380    -1.1410    -1.0530 C.3   1 <1>   0.3430 
 17 C        7.4940     0.1110     1.5500 C.3   1 <1>  -0.1600 
 18 C        8.3680    -1.3340    -0.3210 C.3   1 <1>  -0.1600 
 19 C        8.6780    -0.1570     0.6120 C.3   1 <1>  -0.1600 
 20 H        1.0660    -2.3280     1.0060 H     1 <1>   0.0800 
 21 H        0.8840    -0.5770     1.1820 H     1 <1>   0.0800 
 22 H       -0.7700    -1.7340     2.3370 H     1 <1>   0.1500 
 23 H        1.9630    -0.2550    -1.0190 H     1 <1>   0.0800 
 24 H        2.1410    -1.9860    -1.1920 H     1 <1>   0.0800 
 25 H       -3.2330    -1.1800    -2.5470 H     1 <1>   0.0800 
 26 H       -1.5630    -0.8460    -2.2730 H     1 <1>   0.0800 
 27 H       -2.0830    -2.4960    -2.5070 H     1 <1>   0.0800 
 28 H       -2.9810    -2.1330     3.2510 H     1 <1>   0.1500 
 29 H        3.6300    -2.0310     0.7830 H     1 <1>   0.0800 
 30 H        3.4470    -0.2970     0.9540 H     1 <1>   0.0800 
 31 H       -4.9180    -2.2910     1.7780 H     1 <1>   0.1500 
 32 H       -4.8810    -2.7930    -1.6820 H     1 <1>   0.0800 
 33 H       -5.2970    -1.1310    -1.3090 H     1 <1>   0.0800 
 34 H       -5.8900    -2.4330    -0.3120 H     1 <1>   0.0800 
 35 H        4.4970     0.0420    -1.2590 H     1 <1>   0.0800 
 36 H        4.5760    -1.6860    -1.4880 H     1 <1>   0.0800 
 37 H        5.9510    -1.7580     0.5650 H     1 <1>   0.4500 
 38 H        5.3750     0.4100     1.4780 H     1 <1>   0.0800 
 39 H        6.2410     1.1440     0.1490 H     1 <1>   0.0800 
 40 H        7.1060    -0.2810    -1.7000 H     1 <1>   0.0800 
 41 H        6.8360    -2.0090    -1.6610 H     1 <1>   0.0800 
 42 H        7.3970    -0.6950     2.2580 H     1 <1>   0.0800 
 43 H        7.6830     1.0090     2.1120 H     1 <1>   0.0800 
 44 H        9.1570    -1.4290    -1.0470 H     1 <1>   0.0800 
 45 H        8.3370    -2.2510     0.2410 H     1 <1>   0.0800 
 46 H        9.5630    -0.3700     1.1890 H     1 <1>   0.0800 
 47 H        8.8770     0.7250     0.0240 H     1 <1>   0.0800 
@<TRIPOS>BOND
  1   1   2  1   
  2   1   3  1   
  3   2   4  ar  
  4   2   5  ar  
  5   3   6  1   
  6   3  20  1   
  7   3  21  1   
  8   4   7  ar  
  9   4   8  1   
 10   5   9  ar  
 11   5  22  1   
 12   6  10  1   
 13   6  23  1   
 14   6  24  1   
 15   7  11  ar  
 16   7  12  1   
 17   8  25  1   
 18   8  26  1   
 19   8  27  1   
 20   9  11  ar  
 21   9  28  1   
 22  10  13  1   
 23  10  29  1   
 24  10  30  1   
 25  11  31  1   
 26  12  32  1   
 27  12  33  1   
 28  12  34  1   
 29  13  14  1   
 30  13  35  1   
 31  13  36  1   
 32  14  15  1   
 33  14  16  1   
 34  14  37  1   
 35  15  17  1   
 36  15  38  1   
 37  15  39  1   
 38  16  18  1   
 39  16  40  1   
 40  16  41  1   
 41  17  19  1   
 42  17  42  1   
 43  17  43  1   
 44  18  19  1   
 45  18  44  1   
 46  18  45  1   
 47  19  46  1   
 48  19  47  1   
@<TRIPOS>SUBSTRUCTURE
  1 ****   3 GROUP 4 **** **** 0

# MOE 2024.06 (io_trps.svl 2023.06)
