@<TRIPOS>MOLECULE
NONAME
38 39 1 0 0 
SMALL
USER_CHARGES


@<TRIPOS>ATOM
  1 O       -0.2550     0.7200     1.3410 O.2   1 <1>  -0.5700 
  2 C       -0.6560     1.3720     0.3950 C.2   1 <1>   0.6160 
  3 N       -1.7940     0.9460    -0.2400 N.am  1 <1>  -0.7300 
  4 C        0.0700     2.5520    -0.0210 C.2   1 <1>   0.0790 
  5 C       -2.5920    -0.2400     0.1170 C.3   1 <1>   0.2200 
  6 C       -0.4730     3.1940    -1.1760 C.1   1 <1>   0.4920 
  7 C        1.1840     3.0070     0.6180 C.2   1 <1>  -0.1780 
  8 C       -2.6050    -1.2010    -1.0760 C.3   1 <1>  -0.1600 
  9 C       -4.0090     0.2120     0.4830 C.3   1 <1>  -0.1600 
 10 N       -0.9610     3.6750    -2.0880 N.1   1 <1>  -0.5570 
 11 C        2.0140     4.1530     0.3490 C.ar  1 <1>   0.0280 
 12 C       -3.5150    -2.4080    -0.8060 C.3   1 <1>  -0.1600 
 13 C       -4.9220    -0.9930     0.7570 C.3   1 <1>  -0.1600 
 14 C        3.3910     4.0520     0.5320 C.ar  1 <1>  -0.1500 
 15 C        1.5060     5.3840    -0.0750 C.ar  1 <1>  -0.1500 
 16 C       -4.9350    -1.9600    -0.4350 C.3   1 <1>  -0.1600 
 17 C        4.2230     5.1300     0.2850 C.ar  1 <1>   0.0820 
 18 C        2.3390     6.4610    -0.3240 C.ar  1 <1>  -0.1500 
 19 O        5.5490     5.0180     0.4610 O.3   1 <1>  -0.5330 
 20 C        3.7040     6.3360    -0.1460 C.ar  1 <1>  -0.1500 
 21 H       -2.1580     1.4640    -1.0430 H     1 <1>   0.3700 
 22 H       -2.1530    -0.7410     0.9660 H     1 <1>   0.0800 
 23 H        1.5400     2.4350     1.4590 H     1 <1>   0.1500 
 24 H       -2.9600    -0.6860    -1.9520 H     1 <1>   0.0800 
 25 H       -1.6040    -1.5470    -1.2640 H     1 <1>   0.0800 
 26 H       -3.9680     0.8320     1.3620 H     1 <1>   0.0800 
 27 H       -4.4250     0.7880    -0.3240 H     1 <1>   0.0800 
 28 H       -3.5510    -3.0360    -1.6800 H     1 <1>   0.0800 
 29 H       -3.1030    -2.9910     0.0010 H     1 <1>   0.0800 
 30 H       -4.5730    -1.5120     1.6330 H     1 <1>   0.0800 
 31 H       -5.9230    -0.6500     0.9550 H     1 <1>   0.0800 
 32 H        3.8090     3.1210     0.8650 H     1 <1>   0.1500 
 33 H        0.4480     5.5180    -0.2060 H     1 <1>   0.1500 
 34 H       -5.5330    -2.8220    -0.1920 H     1 <1>   0.0800 
 35 H       -5.3890    -1.4750    -1.2830 H     1 <1>   0.0800 
 36 H        1.9250     7.3980    -0.6550 H     1 <1>   0.1500 
 37 H        5.8240     4.1350     0.7630 H     1 <1>   0.4500 
 38 H        4.3650     7.1630    -0.3350 H     1 <1>   0.1500 
@<TRIPOS>BOND
  1   1   2  2   
  2   2   3  am  
  3   2   4  1   
  4   3   5  1   
  5   3  21  1   
  6   4   6  1   
  7   4   7  2   
  8   5   8  1   
  9   5   9  1   
 10   5  22  1   
 11   6  10  3   
 12   7  11  1   
 13   7  23  1   
 14   8  12  1   
 15   8  24  1   
 16   8  25  1   
 17   9  13  1   
 18   9  26  1   
 19   9  27  1   
 20  11  14  ar  
 21  11  15  ar  
 22  12  16  1   
 23  12  28  1   
 24  12  29  1   
 25  13  16  1   
 26  13  30  1   
 27  13  31  1   
 28  14  17  ar  
 29  14  32  1   
 30  15  18  ar  
 31  15  33  1   
 32  16  34  1   
 33  16  35  1   
 34  17  19  1   
 35  17  20  ar  
 36  18  20  ar  
 37  18  36  1   
 38  19  37  1   
 39  20  38  1   
@<TRIPOS>SUBSTRUCTURE
  1 ****   4 GROUP 4 **** **** 0

# MOE 2024.06 (io_trps.svl 2023.06)
