@<TRIPOS>MOLECULE
NONAME
40 40 1 0 0 
SMALL
USER_CHARGES


@<TRIPOS>ATOM
  1 F       -1.3130     3.2890    -1.3800 F     1 <1>  -0.3400 
  2 C       -0.2120     2.5540    -1.3100 C.3   1 <1>   1.0200 
  3 F        0.3690     2.6720    -2.4970 F     1 <1>  -0.3400 
  4 F       -0.6070     1.2890    -1.2390 F     1 <1>  -0.3400 
  5 C        0.7470     2.9510    -0.1780 C.3   1 <1>   0.2200 
  6 N        2.0880     2.1930    -0.2050 N.am  1 <1>  -0.7300 
  7 C       -0.0010     2.8450     1.1610 C.3   1 <1>   1.0200 
  8 C        3.2860     2.8210    -0.2140 C.2   1 <1>   0.6900 
  9 F        0.7640     3.2210     2.1770 F     1 <1>  -0.3400 
 10 F       -1.0910     3.5940     1.2410 F     1 <1>  -0.3400 
 11 F       -0.3750     1.6040     1.4480 F     1 <1>  -0.3400 
 12 O        3.3160     4.0320    -0.1950 O.2   1 <1>  -0.5700 
 13 N        4.4090     2.0530    -0.2570 N.am  1 <1>  -0.5470 
 14 C        5.7630     2.4170    -0.1830 C.ar  1 <1>   0.1170 
 15 C        6.7110     1.5930    -0.7790 C.ar  1 <1>  -0.1500 
 16 C        6.2030     3.5590     0.4800 C.ar  1 <1>  -0.1500 
 17 C        8.0600     1.8950    -0.7210 C.ar  1 <1>  -0.1500 
 18 C        7.5500     3.8660     0.5410 C.ar  1 <1>  -0.1500 
 19 C        8.4880     3.0400    -0.0560 C.ar  1 <1>   0.0830 
 20 O        9.7900     3.4140     0.0550 O.3   1 <1>  -0.3630 
 21 C       10.8240     2.6150    -0.4730 C.3   1 <1>   0.1200 
 22 C       12.1840     3.2470    -0.1480 C.3   1 <1>  -0.1600 
 23 C       12.6510     3.0630     1.3080 C.3   1 <1>  -0.1600 
 24 C       11.8060     3.8330     2.3290 C.3   1 <1>  -0.2400 
 25 H        0.9460     3.9960    -0.3200 H     1 <1>   0.0800 
 26 H        2.0500     1.1810    -0.0710 H     1 <1>   0.3700 
 27 H        4.2460     1.0790    -0.4820 H     1 <1>   0.3700 
 28 H        6.3940     0.7080    -1.2980 H     1 <1>   0.1500 
 29 H        5.4940     4.2120     0.9540 H     1 <1>   0.1500 
 30 H        8.7580     1.2350    -1.1980 H     1 <1>   0.1500 
 31 H        7.8840     4.7510     1.0530 H     1 <1>   0.1500 
 32 H       10.6860     2.5640    -1.5390 H     1 <1>   0.0800 
 33 H       10.7520     1.6300    -0.0450 H     1 <1>   0.0800 
 34 H       12.1630     4.2920    -0.4060 H     1 <1>   0.0800 
 35 H       12.9160     2.7790    -0.7820 H     1 <1>   0.0800 
 36 H       13.6670     3.4110     1.3830 H     1 <1>   0.0800 
 37 H       12.6490     2.0170     1.5610 H     1 <1>   0.0800 
 38 H       10.8150     3.4210     2.3940 H     1 <1>   0.0800 
 39 H       11.7320     4.8700     2.0520 H     1 <1>   0.0800 
 40 H       12.2580     3.7690     3.3030 H     1 <1>   0.0800 
@<TRIPOS>BOND
  1   1   2  1   
  2   2   3  1   
  3   2   4  1   
  4   2   5  1   
  5   5   6  1   
  6   5   7  1   
  7   5  25  1   
  8   6   8  am  
  9   6  26  1   
 10   7   9  1   
 11   7  10  1   
 12   7  11  1   
 13   8  12  2   
 14   8  13  am  
 15  13  14  1   
 16  13  27  1   
 17  14  15  ar  
 18  14  16  ar  
 19  15  17  ar  
 20  15  28  1   
 21  16  18  ar  
 22  16  29  1   
 23  17  19  ar  
 24  17  30  1   
 25  18  19  ar  
 26  18  31  1   
 27  19  20  1   
 28  20  21  1   
 29  21  22  1   
 30  21  32  1   
 31  21  33  1   
 32  22  23  1   
 33  22  34  1   
 34  22  35  1   
 35  23  24  1   
 36  23  36  1   
 37  23  37  1   
 38  24  38  1   
 39  24  39  1   
 40  24  40  1   
@<TRIPOS>SUBSTRUCTURE
  1 ****  13 GROUP 4 **** **** 0

# MOE 2024.06 (io_trps.svl 2023.06)
