@<TRIPOS>MOLECULE
NONAME
41 43 1 0 0 
SMALL
USER_CHARGES


@<TRIPOS>ATOM
  1 O       -0.0550     1.2200     1.7680 O.2   1 <1>  -0.5700 
  2 C       -0.4610     1.9870     0.9260 C.2   1 <1>   0.5690 
  3 N        0.3180     2.7480     0.0970 N.am  1 <1>  -0.2370 
  4 C       -1.9560     2.2820     0.7160 C.3   1 <1>   0.2510 
  5 C        1.7220     2.6360    -0.0280 C.ar  1 <1>   0.1170 
  6 C       -0.4710     3.6460    -0.5700 C.2   1 <1>   0.5690 
  7 N       -2.7580     1.2070     0.0590 N.3   1 <1>  -0.8100 
  8 C       -1.9240     3.5150    -0.1950 C.3   1 <1>  -0.0990 
  9 C        2.5360     3.7640    -0.0240 C.ar  1 <1>  -0.1500 
 10 C        2.3240     1.3880    -0.1560 C.ar  1 <1>  -0.1500 
 11 O       -0.1060     4.4840    -1.3540 O.2   1 <1>  -0.5700 
 12 C       -4.2110     1.4950     0.1330 C.3   1 <1>   0.1100 
 13 C       -2.5110    -0.1300     0.6540 C.3   1 <1>   0.1100 
 14 C        3.9100     3.6560    -0.1470 C.ar  1 <1>  -0.1430 
 15 C        3.6980     1.2650    -0.2740 C.ar  1 <1>  -0.1430 
 16 C       -5.0410     0.3670    -0.5050 C.3   1 <1>   0.1200 
 17 C       -3.4060    -1.2110     0.0210 C.3   1 <1>   0.1200 
 18 C        4.4860     2.4030    -0.2700 C.ar  1 <1>  -0.1500 
 19 C        4.7810     4.8990    -0.1450 C.3   1 <1>  -0.0970 
 20 C        4.3410    -0.1040    -0.4090 C.3   1 <1>  -0.0970 
 21 O       -4.7540    -0.8510     0.1130 O.3   1 <1>  -0.5600 
 22 H       -2.3870     2.5250     1.6720 H     1 <1>   0.0800 
 23 H       -2.2310     4.3950     0.3370 H     1 <1>   0.0800 
 24 H       -2.5110     3.3960    -1.0870 H     1 <1>   0.0800 
 25 H        2.0870     4.7360     0.0720 H     1 <1>   0.1500 
 26 H        1.7090     0.5070    -0.1590 H     1 <1>   0.1500 
 27 H       -4.4330     2.4130    -0.3820 H     1 <1>   0.0800 
 28 H       -4.5150     1.6040     1.1600 H     1 <1>   0.0800 
 29 H       -2.6900    -0.1040     1.7160 H     1 <1>   0.0800 
 30 H       -1.4870    -0.4180     0.4950 H     1 <1>   0.0800 
 31 H       -4.8240     0.2830    -1.5560 H     1 <1>   0.0800 
 32 H       -6.0920     0.5590    -0.3800 H     1 <1>   0.0800 
 33 H       -3.2800    -2.1470     0.5350 H     1 <1>   0.0800 
 34 H       -3.1560    -1.3470    -1.0170 H     1 <1>   0.0800 
 35 H        5.5540     2.3130    -0.3640 H     1 <1>   0.1500 
 36 H        4.2190     5.7550    -0.4720 H     1 <1>   0.0800 
 37 H        5.6180     4.7700    -0.8080 H     1 <1>   0.0800 
 38 H        5.1490     5.0840     0.8480 H     1 <1>   0.0800 
 39 H        3.6760    -0.8730    -0.0600 H     1 <1>   0.0800 
 40 H        5.2450    -0.1470     0.1710 H     1 <1>   0.0800 
 41 H        4.5800    -0.2930    -1.4400 H     1 <1>   0.0800 
@<TRIPOS>BOND
  1   1   2  2   
  2   2   3  am  
  3   2   4  1   
  4   3   5  1   
  5   3   6  am  
  6   4   7  1   
  7   4   8  1   
  8   4  22  1   
  9   5   9  ar  
 10   5  10  ar  
 11   6   8  1   
 12   6  11  2   
 13   7  12  1   
 14   7  13  1   
 15   8  23  1   
 16   8  24  1   
 17   9  14  ar  
 18   9  25  1   
 19  10  15  ar  
 20  10  26  1   
 21  12  16  1   
 22  12  27  1   
 23  12  28  1   
 24  13  17  1   
 25  13  29  1   
 26  13  30  1   
 27  14  18  ar  
 28  14  19  1   
 29  15  18  ar  
 30  15  20  1   
 31  16  21  1   
 32  16  31  1   
 33  16  32  1   
 34  17  21  1   
 35  17  33  1   
 36  17  34  1   
 37  18  35  1   
 38  19  36  1   
 39  19  37  1   
 40  19  38  1   
 41  20  39  1   
 42  20  40  1   
 43  20  41  1   
@<TRIPOS>SUBSTRUCTURE
  1 ****   3 GROUP 4 **** **** 0

# MOE 2024.06 (io_trps.svl 2023.06)
