@<TRIPOS>MOLECULE
NONAME
34 36 1 0 0 
SMALL
USER_CHARGES


@<TRIPOS>ATOM
  1 S       -4.0720     4.5830    -0.6100 S.3   1 <1>  -0.0800 
  2 C       -2.4310     3.9150    -0.6130 C.2   1 <1>  -0.0450 
  3 C       -4.7440     3.1520    -1.3630 C.2   1 <1>  -0.1100 
  4 C       -1.3210     4.6680    -0.0810 C.2   1 <1>   0.5210 
  5 C       -2.4830     2.6760    -1.1700 C.2   1 <1>  -0.1500 
  6 C       -3.7760     2.2470    -1.5910 C.2   1 <1>  -0.1500 
  7 N       -0.1260     4.1210    -0.1160 N.2   1 <1>  -0.5120 
  8 C       -1.5030     5.9750     0.4700 C.2   1 <1>  -0.1360 
  9 N        0.9420     4.8260     0.3870 N.am  1 <1>  -0.2980 
 10 C       -0.4520     6.6760     0.9660 C.2   1 <1>  -0.1360 
 11 C        0.8390     6.1040     0.9360 C.2   1 <1>   0.6160 
 12 C        2.2790     4.1720     0.3290 C.3   1 <1>   0.2200 
 13 O        1.8180     6.6990     1.3690 O.2   1 <1>  -0.5700 
 14 C        2.6850     3.9290    -1.1300 C.3   1 <1>  -0.1600 
 15 C        2.2680     2.8610     1.1240 C.3   1 <1>  -0.1600 
 16 C        4.0200     3.1960    -1.2050 C.3   1 <1>   0.3430 
 17 C        3.6100     2.1470     1.0100 C.3   1 <1>   0.3430 
 18 N        3.9360     1.9290    -0.4270 N.4   1 <1>  -0.9060 
 19 H       -5.8020     3.1390    -1.5580 H     1 <1>   0.1500 
 20 H       -1.6280     2.0360    -1.3010 H     1 <1>   0.1500 
 21 H       -3.9220     1.2820    -2.0440 H     1 <1>   0.1500 
 22 H       -2.4870     6.3990     0.4870 H     1 <1>   0.1500 
 23 H       -0.5440     7.6590     1.3880 H     1 <1>   0.1500 
 24 H        3.0190     4.8170     0.7730 H     1 <1>   0.0800 
 25 H        2.7770     4.8770    -1.6320 H     1 <1>   0.0800 
 26 H        1.9340     3.3540    -1.6420 H     1 <1>   0.0800 
 27 H        1.4890     2.2080     0.7710 H     1 <1>   0.0800 
 28 H        2.0730     3.0790     2.1600 H     1 <1>   0.0800 
 29 H        4.7990     3.8230    -0.8000 H     1 <1>   0.0800 
 30 H        4.2580     2.9840    -2.2360 H     1 <1>   0.0800 
 31 H        3.5620     1.2020     1.5280 H     1 <1>   0.0800 
 32 H        4.3780     2.7480     1.4720 H     1 <1>   0.0800 
 33 H        4.8210     1.4100    -0.5090 H     1 <1>   0.4500 
 34 H        3.2040     1.3370    -0.8430 H     1 <1>   0.4500 
@<TRIPOS>BOND
  1   1   2  1   
  2   1   3  1   
  3   2   4  1   
  4   2   5  2   
  5   3   6  2   
  6   3  19  1   
  7   4   7  2   
  8   4   8  1   
  9   5   6  1   
 10   5  20  1   
 11   6  21  1   
 12   7   9  1   
 13   8  10  2   
 14   8  22  1   
 15   9  11  am  
 16   9  12  1   
 17  10  11  1   
 18  10  23  1   
 19  11  13  2   
 20  12  14  1   
 21  12  15  1   
 22  12  24  1   
 23  14  16  1   
 24  14  25  1   
 25  14  26  1   
 26  15  17  1   
 27  15  27  1   
 28  15  28  1   
 29  16  18  1   
 30  16  29  1   
 31  16  30  1   
 32  17  18  1   
 33  17  31  1   
 34  17  32  1   
 35  18  33  1   
 36  18  34  1   
@<TRIPOS>SUBSTRUCTURE
  1 ****   7 GROUP 4 **** **** 0

# MOE 2024.06 (io_trps.svl 2023.06)
