@<TRIPOS>MOLECULE
NONAME
47 50 1 0 0 
SMALL
USER_CHARGES


@<TRIPOS>ATOM
  1 S       -1.4470     0.0920    -0.3200 S.3   1 <1>  -0.0800 
  2 C       -1.7600    -1.0730    -1.5940 C.2   1 <1>  -0.0360 
  3 C        0.0440    -0.7170     0.1220 C.2   1 <1>  -0.1400 
  4 N       -2.9290    -0.9060    -2.3620 N.pl3 1 <1>   0.6460 
  5 C       -0.7800    -2.0100    -1.6440 C.2   1 <1>   0.0190 
  6 C        0.2440    -1.8070    -0.6470 C.2   1 <1>  -0.1810 
  7 C        0.8450    -0.0770     1.2430 C.3   1 <1>   0.0200 
  8 N       -2.8920    -0.6420    -3.6690 N.2   1 <1>  -0.7070 
  9 C       -4.2230    -0.8510    -1.9550 C.2   1 <1>   0.1330 
 10 C       -0.7700    -3.1060    -2.5690 C.1   1 <1>   0.5380 
 11 C        1.4250    -2.7690    -0.5050 C.3   1 <1>   0.0210 
 12 C        2.3470    -0.3330     1.0710 C.3   1 <1>  -0.1600 
 13 C       -4.1300    -0.4300    -3.9530 C.2   1 <1>   0.3660 
 14 N       -4.9970    -0.5290    -2.9450 N.2   1 <1>  -0.5650 
 15 C       -4.6610    -1.1170    -0.6060 C.ar  1 <1>   0.0530 
 16 N       -0.7430    -4.0130    -3.2600 N.1   1 <1>  -0.5570 
 17 C        1.8970    -2.8980     0.9520 C.3   1 <1>  -0.1600 
 18 C        2.7990    -1.7540     1.4450 C.3   1 <1>  -0.1600 
 19 C       -4.3160    -2.2950     0.0710 C.ar  1 <1>   0.0830 
 20 C       -5.4510    -0.1790     0.0550 C.ar  1 <1>  -0.1500 
 21 O       -3.5790    -3.2160    -0.6080 O.3   1 <1>  -0.3630 
 22 C       -4.7300    -2.4950     1.3840 C.ar  1 <1>  -0.1500 
 23 C       -5.8690    -0.3830     1.3630 C.ar  1 <1>   0.0830 
 24 C       -3.2210    -4.4590    -0.0440 C.3   1 <1>   0.0400 
 25 C       -5.4990    -1.5420     2.0230 C.ar  1 <1>  -0.1500 
 26 O       -6.6340     0.4970     2.0600 O.3   1 <1>  -0.3630 
 27 C       -7.1280     1.6700     1.4520 C.3   1 <1>   0.0400 
 28 H        0.5000    -0.4340     2.1970 H     1 <1>   0.0800 
 29 H        0.6820     0.9860     1.2100 H     1 <1>   0.0800 
 30 H        2.2360    -2.4570    -1.1400 H     1 <1>   0.0800 
 31 H        1.1250    -3.7510    -0.8220 H     1 <1>   0.0800 
 32 H        2.8900     0.3650     1.6840 H     1 <1>   0.0800 
 33 H        2.6150    -0.1280     0.0490 H     1 <1>   0.0800 
 34 H       -4.4710    -0.1830    -4.9470 H     1 <1>   0.1500 
 35 H        2.4450    -3.8190     1.0540 H     1 <1>   0.0800 
 36 H        1.0330    -2.9770     1.5900 H     1 <1>   0.0800 
 37 H        2.8700    -1.8250     2.5170 H     1 <1>   0.0800 
 38 H        3.7920    -1.9010     1.0550 H     1 <1>   0.0800 
 39 H       -5.7240     0.7080    -0.4830 H     1 <1>   0.1500 
 40 H       -4.4690    -3.3840     1.9260 H     1 <1>   0.1500 
 41 H       -2.6730    -5.0150    -0.7830 H     1 <1>   0.0800 
 42 H       -4.1150    -4.9920     0.2230 H     1 <1>   0.0800 
 43 H       -2.6000    -4.2860     0.8170 H     1 <1>   0.0800 
 44 H       -5.8230    -1.6900     3.0380 H     1 <1>   0.1500 
 45 H       -7.7300     2.1920     2.1740 H     1 <1>   0.0800 
 46 H       -7.7300     1.3980     0.6040 H     1 <1>   0.0800 
 47 H       -6.2980     2.2870     1.1550 H     1 <1>   0.0800 
@<TRIPOS>BOND
  1   1   2  1   
  2   1   3  1   
  3   2   4  1   
  4   2   5  2   
  5   3   6  2   
  6   3   7  1   
  7   4   8  1   
  8   4   9  1   
  9   5   6  1   
 10   5  10  1   
 11   6  11  1   
 12   7  12  1   
 13   7  28  1   
 14   7  29  1   
 15   8  13  2   
 16   9  14  2   
 17   9  15  1   
 18  10  16  3   
 19  11  17  1   
 20  11  30  1   
 21  11  31  1   
 22  12  18  1   
 23  12  32  1   
 24  12  33  1   
 25  13  14  1   
 26  13  34  1   
 27  15  19  ar  
 28  15  20  ar  
 29  17  18  1   
 30  17  35  1   
 31  17  36  1   
 32  18  37  1   
 33  18  38  1   
 34  19  21  1   
 35  19  22  ar  
 36  20  23  ar  
 37  20  39  1   
 38  21  24  1   
 39  22  25  ar  
 40  22  40  1   
 41  23  25  ar  
 42  23  26  1   
 43  24  41  1   
 44  24  42  1   
 45  24  43  1   
 46  25  44  1   
 47  26  27  1   
 48  27  45  1   
 49  27  46  1   
 50  27  47  1   
@<TRIPOS>SUBSTRUCTURE
  1 ****   2 GROUP 4 **** **** 0

# MOE 2024.06 (io_trps.svl 2023.06)
