@<TRIPOS>MOLECULE
NONAME
29 29 1 0 0 
SMALL
USER_CHARGES


@<TRIPOS>ATOM
  1 CL       0.3680     0.6050    -1.7640 Cl    1 <1>  -0.1770 
  2 C        1.7350     1.1630    -0.8290 C.ar  1 <1>   0.1770 
  3 C        2.0640     2.5050    -0.8440 C.ar  1 <1>  -0.1500 
  4 C        2.4660     0.2530    -0.0900 C.ar  1 <1>  -0.1500 
  5 C        3.1480     2.9570    -0.1070 C.ar  1 <1>  -0.1440 
  6 C        3.5470     0.7030     0.6460 C.ar  1 <1>  -0.1500 
  7 C        3.9010     2.0480     0.6410 C.ar  1 <1>   0.1000 
  8 C        3.5020     4.4390    -0.1300 C.3   1 <1>  -0.0960 
  9 N        4.9950     2.4680     1.3840 N.pl3 1 <1>  -0.8690 
 10 C        6.3480     2.0040     0.9280 C.3   1 <1>   0.2700 
 11 C        7.3120     3.1440     0.5740 C.2   1 <1>   0.6590 
 12 O        7.0000     4.3070     0.6720 O.2   1 <1>  -0.5700 
 13 O        8.5150     2.7730     0.1540 O.3   1 <1>  -0.4300 
 14 C        9.4960     3.7210    -0.1990 C.3   1 <1>   0.1200 
 15 C       10.7490     2.9680    -0.6320 C.3   1 <1>  -0.2400 
 16 H        1.4690     3.1810    -1.4290 H     1 <1>   0.1500 
 17 H        2.1880    -0.7850    -0.0900 H     1 <1>   0.1500 
 18 H        4.1220     0.0140     1.2370 H     1 <1>   0.1500 
 19 H        2.8160     4.9920    -0.7450 H     1 <1>   0.0800 
 20 H        4.4940     4.5750    -0.5230 H     1 <1>   0.0800 
 21 H        3.4630     4.8420     0.8660 H     1 <1>   0.0800 
 22 H        5.0290     3.4950     1.4710 H     1 <1>   0.4000 
 23 H        6.2420     1.3760     0.0620 H     1 <1>   0.0800 
 24 H        6.7920     1.4190     1.7120 H     1 <1>   0.0800 
 25 H        9.6950     4.3430     0.6580 H     1 <1>   0.0800 
 26 H        9.1120     4.3270    -1.0030 H     1 <1>   0.0800 
 27 H       11.1160     2.3610     0.1760 H     1 <1>   0.0800 
 28 H       11.5160     3.6690    -0.9080 H     1 <1>   0.0800 
 29 H       10.5340     2.3450    -1.4820 H     1 <1>   0.0800 
@<TRIPOS>BOND
  1   1   2  1   
  2   2   3  ar  
  3   2   4  ar  
  4   3   5  ar  
  5   3  16  1   
  6   4   6  ar  
  7   4  17  1   
  8   5   7  ar  
  9   5   8  1   
 10   6   7  ar  
 11   6  18  1   
 12   7   9  1   
 13   8  19  1   
 14   8  20  1   
 15   8  21  1   
 16   9  10  1   
 17   9  22  1   
 18  10  11  1   
 19  10  23  1   
 20  10  24  1   
 21  11  12  2   
 22  11  13  1   
 23  13  14  1   
 24  14  15  1   
 25  14  25  1   
 26  14  26  1   
 27  15  27  1   
 28  15  28  1   
 29  15  29  1   
@<TRIPOS>SUBSTRUCTURE
  1 ****   7 GROUP 4 **** **** 0

# MOE 2024.06 (io_trps.svl 2023.06)
