@<TRIPOS>MOLECULE
NONAME
44 45 1 0 0 
SMALL
USER_CHARGES


@<TRIPOS>ATOM
  1 S       -0.4900    -0.1220    -0.2570 S.3   1 <1>  -0.3610 
  2 C        0.6650    -1.4540    -0.1900 C.cat 1 <1>   0.8400 
  3 C       -1.8110    -0.3570     1.0380 C.3   1 <1>   0.2110 
  4 N        0.3190    -2.5670     0.4090 N.pl3 1 <1>  -0.7940 
  5 N        1.8270    -1.2690    -0.7730 N.pl3 1 <1>  -0.7940 
  6 C       -2.7510    -1.4900     0.6700 C.2   1 <1>   0.5690 
  7 C       -2.7160     0.8780     1.0280 C.3   1 <1>  -0.0990 
  8 C        1.0810    -3.8110     0.6200 C.3   1 <1>   0.3290 
  9 C        2.3250    -0.0650    -1.4730 C.3   1 <1>   0.3290 
 10 O       -2.4030    -2.6430     0.7480 O.2   1 <1>  -0.5700 
 11 N       -3.9760    -1.0150     0.2920 N.am  1 <1>  -0.2370 
 12 C       -4.0070     0.3480     0.4490 C.2   1 <1>   0.5690 
 13 C        0.4080    -4.9180    -0.1800 C.3   1 <1>  -0.2400 
 14 C        3.8350     0.0040    -1.2850 C.3   1 <1>  -0.2400 
 15 C       -5.0380    -1.8060    -0.2010 C.ar  1 <1>   0.1170 
 16 O       -4.9180     1.0830     0.1790 O.2   1 <1>  -0.5700 
 17 C       -5.4320    -2.9650     0.4610 C.ar  1 <1>  -0.1500 
 18 C       -5.7110    -1.4480    -1.3650 C.ar  1 <1>  -0.1500 
 19 C       -6.4610    -3.7550    -0.0240 C.ar  1 <1>  -0.1430 
 20 C       -6.7410    -2.2290    -1.8540 C.ar  1 <1>  -0.1500 
 21 C       -7.1150    -3.3810    -1.1860 C.ar  1 <1>  -0.1500 
 22 C       -6.8740    -5.0170     0.7110 C.3   1 <1>  -0.0970 
 23 H       -1.3330    -0.5140     1.9880 H     1 <1>   0.0800 
 24 H       -0.6620    -2.6870     0.7010 H     1 <1>   0.4500 
 25 H        2.4960    -2.0350    -0.7910 H     1 <1>   0.4500 
 26 H       -2.3310     1.6790     0.4230 H     1 <1>   0.0800 
 27 H       -2.9000     1.2310     2.0270 H     1 <1>   0.0800 
 28 H        1.0750    -4.0630     1.6690 H     1 <1>   0.0800 
 29 H        2.1050    -3.6980     0.3050 H     1 <1>   0.0800 
 30 H        1.8750     0.8310    -1.0750 H     1 <1>   0.0800 
 31 H        2.0880    -0.1320    -2.5230 H     1 <1>   0.0800 
 32 H       -0.6070    -5.0590     0.1490 H     1 <1>   0.0800 
 33 H        0.9380    -5.8430    -0.0360 H     1 <1>   0.0800 
 34 H        0.4130    -4.6860    -1.2300 H     1 <1>   0.0800 
 35 H        4.0840     0.0730    -0.2410 H     1 <1>   0.0800 
 36 H        4.2160     0.8800    -1.7780 H     1 <1>   0.0800 
 37 H        4.3150    -0.8560    -1.7180 H     1 <1>   0.0800 
 38 H       -4.9290    -3.2560     1.3660 H     1 <1>   0.1500 
 39 H       -5.4350    -0.5520    -1.8910 H     1 <1>   0.1500 
 40 H       -7.2550    -1.9410    -2.7550 H     1 <1>   0.1500 
 41 H       -7.9180    -3.9840    -1.5730 H     1 <1>   0.1500 
 42 H       -6.0490    -5.4170     1.2720 H     1 <1>   0.0800 
 43 H       -7.2030    -5.7660     0.0130 H     1 <1>   0.0800 
 44 H       -7.6800    -4.7960     1.3880 H     1 <1>   0.0800 
@<TRIPOS>BOND
  1   1   2  1   
  2   1   3  1   
  3   2   4  ar  
  4   2   5  ar  
  5   3   6  1   
  6   3   7  1   
  7   3  23  1   
  8   4   8  1   
  9   4  24  1   
 10   5   9  1   
 11   5  25  1   
 12   6  10  2   
 13   6  11  am  
 14   7  12  1   
 15   7  26  1   
 16   7  27  1   
 17   8  13  1   
 18   8  28  1   
 19   8  29  1   
 20   9  14  1   
 21   9  30  1   
 22   9  31  1   
 23  11  12  am  
 24  11  15  1   
 25  12  16  2   
 26  13  32  1   
 27  13  33  1   
 28  13  34  1   
 29  14  35  1   
 30  14  36  1   
 31  14  37  1   
 32  15  17  ar  
 33  15  18  ar  
 34  17  19  ar  
 35  17  38  1   
 36  18  20  ar  
 37  18  39  1   
 38  19  21  ar  
 39  19  22  1   
 40  20  21  ar  
 41  20  40  1   
 42  21  41  1   
 43  22  42  1   
 44  22  43  1   
 45  22  44  1   
@<TRIPOS>SUBSTRUCTURE
  1 ****   6 GROUP 4 **** **** 0

# MOE 2024.06 (io_trps.svl 2023.06)
