@<TRIPOS>MOLECULE
NONAME
57 59 1 0 0 
SMALL
USER_CHARGES


@<TRIPOS>ATOM
  1 S        0.6540     1.0030    -0.6520 S.o2  1 <1>   1.4470 
  2 O        1.2380     0.0210     0.2320 O.2   1 <1>  -0.6500 
  3 O        1.4110     1.4880    -1.7860 O.2   1 <1>  -0.6500 
  4 N        0.2980     2.3920     0.3110 N.am  1 <1>  -0.6930 
  5 C       -0.9830     0.4580    -1.2180 C.ar  1 <1>  -0.0090 
  6 C       -0.6950     2.3300     1.2900 C.ar  1 <1>   0.1990 
  7 C        1.3740     3.4140     0.4680 C.3   1 <1>   0.2570 
  8 C       -1.4550     0.7850    -2.4850 C.ar  1 <1>  -0.1500 
  9 C       -1.8170    -0.2870    -0.3910 C.ar  1 <1>  -0.1500 
 10 C       -1.9530     2.9100     1.0860 C.ar  1 <1>   0.0830 
 11 C       -0.4550     1.6570     2.4810 C.ar  1 <1>  -0.1500 
 12 C        2.5470     2.9640     1.3570 C.2   1 <1>   0.5690 
 13 C       -2.7080     0.3820    -2.9140 C.ar  1 <1>  -0.1500 
 14 C       -3.0720    -0.6940    -0.8100 C.ar  1 <1>  -0.1500 
 15 O       -2.1850     3.5710    -0.0830 O.3   1 <1>  -0.3620 
 16 C       -2.9340     2.8120     2.0650 C.ar  1 <1>  -0.1500 
 17 C       -1.4360     1.5560     3.4520 C.ar  1 <1>  -0.1500 
 18 O        2.4120     3.1380     2.5490 O.2   1 <1>  -0.5700 
 19 N        3.6990     2.3990     0.8540 N.am  1 <1>  -0.6600 
 20 C       -3.5190    -0.3600    -2.0750 C.ar  1 <1>  -0.1500 
 21 C       -3.4110     3.3610    -0.7450 C.3   1 <1>   0.1200 
 22 C       -2.6760     2.1330     3.2440 C.ar  1 <1>  -0.1500 
 23 C        4.0720     2.2950    -0.5860 C.3   1 <1>   0.1400 
 24 C        4.6650     1.7170     1.7640 C.3   1 <1>   0.1400 
 25 C       -3.3070     3.9840    -2.1330 C.3   1 <1>  -0.2400 
 26 C        5.4790     2.8600    -0.8090 C.3   1 <1>  -0.1600 
 27 C        6.0710     2.2890     1.5650 C.3   1 <1>  -0.1600 
 28 C        6.5160     2.1840     0.0990 C.3   1 <1>  -0.0800 
 29 C        7.8990     2.8150    -0.0940 C.3   1 <1>  -0.2400 
 30 H        0.9410     4.2830     0.9290 H     1 <1>   0.0800 
 31 H        1.7190     3.7220    -0.4980 H     1 <1>   0.0800 
 32 H       -0.8320     1.3660    -3.1450 H     1 <1>   0.1500 
 33 H       -1.4770    -0.5520     0.5970 H     1 <1>   0.1500 
 34 H        0.5100     1.2110     2.6480 H     1 <1>   0.1500 
 35 H       -3.0490     0.6450    -3.9010 H     1 <1>   0.1500 
 36 H       -3.6980    -1.2710    -0.1510 H     1 <1>   0.1500 
 37 H       -3.8960     3.2680     1.9250 H     1 <1>   0.1500 
 38 H       -1.2290     1.0330     4.3690 H     1 <1>   0.1500 
 39 H       -4.4930    -0.6770    -2.4060 H     1 <1>   0.1500 
 40 H       -4.1960     3.8320    -0.1810 H     1 <1>   0.0800 
 41 H       -3.5850     2.3000    -0.8110 H     1 <1>   0.0800 
 42 H       -3.4380     2.0590     4.0010 H     1 <1>   0.1500 
 43 H        3.3910     2.8380    -1.2110 H     1 <1>   0.0800 
 44 H        4.0410     1.2590    -0.8810 H     1 <1>   0.0800 
 45 H        4.6630     0.6640     1.5420 H     1 <1>   0.0800 
 46 H        4.3740     1.8350     2.7940 H     1 <1>   0.0800 
 47 H       -3.1380     5.0420    -2.0510 H     1 <1>   0.0800 
 48 H       -4.2220     3.8220    -2.6740 H     1 <1>   0.0800 
 49 H       -2.4990     3.5340    -2.6810 H     1 <1>   0.0800 
 50 H        5.4580     3.9180    -0.6180 H     1 <1>   0.0800 
 51 H        5.7520     2.7170    -1.8390 H     1 <1>   0.0800 
 52 H        6.7590     1.7530     2.1940 H     1 <1>   0.0800 
 53 H        6.0700     3.3180     1.8800 H     1 <1>   0.0800 
 54 H        6.5770     1.1410    -0.1660 H     1 <1>   0.0800 
 55 H        7.8790     3.8600     0.1640 H     1 <1>   0.0800 
 56 H        8.2130     2.7200    -1.1180 H     1 <1>   0.0800 
 57 H        8.6240     2.3220     0.5290 H     1 <1>   0.0800 
@<TRIPOS>BOND
  1   1   2  2   
  2   1   3  2   
  3   1   4  am  
  4   1   5  1   
  5   4   6  1   
  6   4   7  1   
  7   5   8  ar  
  8   5   9  ar  
  9   6  10  ar  
 10   6  11  ar  
 11   7  12  1   
 12   7  30  1   
 13   7  31  1   
 14   8  13  ar  
 15   8  32  1   
 16   9  14  ar  
 17   9  33  1   
 18  10  15  1   
 19  10  16  ar  
 20  11  17  ar  
 21  11  34  1   
 22  12  18  2   
 23  12  19  am  
 24  13  20  ar  
 25  13  35  1   
 26  14  20  ar  
 27  14  36  1   
 28  15  21  1   
 29  16  22  ar  
 30  16  37  1   
 31  17  22  ar  
 32  17  38  1   
 33  19  23  1   
 34  19  24  1   
 35  20  39  1   
 36  21  25  1   
 37  21  40  1   
 38  21  41  1   
 39  22  42  1   
 40  23  26  1   
 41  23  43  1   
 42  23  44  1   
 43  24  27  1   
 44  24  45  1   
 45  24  46  1   
 46  25  47  1   
 47  25  48  1   
 48  25  49  1   
 49  26  28  1   
 50  26  50  1   
 51  26  51  1   
 52  27  28  1   
 53  27  52  1   
 54  27  53  1   
 55  28  29  1   
 56  28  54  1   
 57  29  55  1   
 58  29  56  1   
 59  29  57  1   
@<TRIPOS>SUBSTRUCTURE
  1 ****   4 GROUP 4 **** **** 0

# MOE 2024.06 (io_trps.svl 2023.06)
