@<TRIPOS>MOLECULE
NONAME
39 41 1 0 0 
SMALL
USER_CHARGES


@<TRIPOS>ATOM
  1 O        0.0190     0.4860     0.2500 O.co2 1 <1>  -0.9000 
  2 C       -0.3400     1.1730     1.2130 C.2   1 <1>   0.9060 
  3 O        0.1380     1.0260     2.3380 O.co2 1 <1>  -0.9000 
  4 C       -1.3980     2.2360     1.0300 C.3   1 <1>  -0.1860 
  5 C       -2.8860     1.8050     0.9760 C.3   1 <1>  -0.0190 
  6 C       -1.2570     2.9890    -0.2980 C.3   1 <1>   0.2000 
  7 C       -3.2840     0.3330     0.8520 C.2   1 <1>   0.5690 
  8 C       -3.3360     2.5310    -0.2950 C.3   1 <1>   0.2000 
  9 O       -2.2210     2.3910    -1.0890 O.3   1 <1>  -0.5600 
 10 C       -1.8630     4.3890    -0.1640 C.3   1 <1>  -0.1600 
 11 O       -4.3430     0.0200     1.3480 O.2   1 <1>  -0.5700 
 12 N       -2.5040    -0.5510     0.1640 N.am  1 <1>  -0.5470 
 13 C       -3.3600     4.0540    -0.1070 C.3   1 <1>  -0.1600 
 14 C       -2.6500    -1.9130    -0.1220 C.ar  1 <1>   0.1170 
 15 C       -1.5050    -2.6500    -0.3890 C.ar  1 <1>  -0.1500 
 16 C       -3.8800    -2.5610    -0.1670 C.ar  1 <1>  -0.1500 
 17 C       -1.5810    -3.9980    -0.6940 C.ar  1 <1>  -0.1500 
 18 C       -3.9590    -3.9090    -0.4710 C.ar  1 <1>  -0.1500 
 19 C       -2.8100    -4.6380    -0.7390 C.ar  1 <1>  -0.1430 
 20 C       -2.8950    -6.1180    -1.0710 C.3   1 <1>  -0.0170 
 21 C       -2.8020    -6.9590     0.2030 C.3   1 <1>  -0.2400 
 22 H       -1.2540     2.9220     1.8420 H     1 <1>   0.0800 
 23 H       -3.4070     2.2030     1.8280 H     1 <1>   0.0800 
 24 H       -0.2830     2.9420    -0.7560 H     1 <1>   0.0800 
 25 H       -4.2090     2.1170    -0.7710 H     1 <1>   0.0800 
 26 H       -1.6300     4.9670    -1.0400 H     1 <1>   0.0800 
 27 H       -1.5110     4.9040     0.7120 H     1 <1>   0.0800 
 28 H       -1.5590    -0.1810    -0.0590 H     1 <1>   0.3700 
 29 H       -3.8140     4.3330     0.8270 H     1 <1>   0.0800 
 30 H       -3.8890     4.5170    -0.9200 H     1 <1>   0.0800 
 31 H       -0.5500    -2.1530    -0.3500 H     1 <1>   0.1500 
 32 H       -4.7770    -2.0070     0.0340 H     1 <1>   0.1500 
 33 H       -0.6760    -4.5420    -0.8920 H     1 <1>   0.1500 
 34 H       -4.9210    -4.3880    -0.4960 H     1 <1>   0.1500 
 35 H       -2.0950    -6.3840    -1.7400 H     1 <1>   0.0800 
 36 H       -3.8240    -6.3230    -1.5740 H     1 <1>   0.0800 
 37 H       -1.8700    -6.7670     0.7040 H     1 <1>   0.0800 
 38 H       -2.8590    -8.0060    -0.0370 H     1 <1>   0.0800 
 39 H       -3.6070    -6.7090     0.8700 H     1 <1>   0.0800 
@<TRIPOS>BOND
  1   1   2  ar  
  2   2   3  ar  
  3   2   4  1   
  4   4   5  1   
  5   4   6  1   
  6   4  22  1   
  7   5   7  1   
  8   5   8  1   
  9   5  23  1   
 10   6   9  1   
 11   6  10  1   
 12   6  24  1   
 13   7  11  2   
 14   7  12  am  
 15   8   9  1   
 16   8  13  1   
 17   8  25  1   
 18  10  13  1   
 19  10  26  1   
 20  10  27  1   
 21  12  14  1   
 22  12  28  1   
 23  13  29  1   
 24  13  30  1   
 25  14  15  ar  
 26  14  16  ar  
 27  15  17  ar  
 28  15  31  1   
 29  16  18  ar  
 30  16  32  1   
 31  17  19  ar  
 32  17  33  1   
 33  18  19  ar  
 34  18  34  1   
 35  19  20  1   
 36  20  21  1   
 37  20  35  1   
 38  20  36  1   
 39  21  37  1   
 40  21  38  1   
 41  21  39  1   
@<TRIPOS>SUBSTRUCTURE
  1 ****  12 GROUP 4 **** **** 0

# MOE 2024.06 (io_trps.svl 2023.06)
