@<TRIPOS>MOLECULE
NONAME
37 41 1 0 0 
SMALL
USER_CHARGES


@<TRIPOS>ATOM
  1 O        0.0550    -0.7120     1.6100 O.2   1 <1>  -0.5700 
  2 C       -0.3020    -1.7900     1.2100 C.2   1 <1>   0.5690 
  3 N        0.5090    -2.7870     0.7100 N.am  1 <1>  -0.2370 
  4 C       -1.7690    -2.1910     1.2210 C.3   1 <1>  -0.0190 
  5 C        1.9130    -2.6660     0.5740 C.ar  1 <1>   0.1170 
  6 C       -0.2030    -3.9080     0.3380 C.2   1 <1>   0.5690 
  7 C       -1.6960    -3.7500     0.5790 C.3   1 <1>  -0.0190 
  8 C       -2.7730    -1.3100     0.2410 C.3   1 <1>   0.0580 
  9 C        2.4710    -1.5670    -0.0720 C.ar  1 <1>  -0.1500 
 10 C        2.7630    -3.6450     1.0840 C.ar  1 <1>  -0.1500 
 11 O        0.2530    -4.9250    -0.1190 O.2   1 <1>  -0.5700 
 12 C       -2.6570    -3.7620    -0.7710 C.3   1 <1>   0.0580 
 13 C       -3.7900    -1.5290    -1.0010 C.2   1 <1>  -0.2880 
 14 C       -2.6430    -2.5600    -0.1970 C.3   1 <1>  -0.1600 
 15 C        3.8420    -1.4500    -0.2050 C.ar  1 <1>   0.0830 
 16 C        4.1370    -3.5360     0.9510 C.ar  1 <1>  -0.1500 
 17 C       -3.7300    -2.8150    -1.5310 C.2   1 <1>  -0.2880 
 18 O        4.3490    -0.3560    -0.8290 O.3   1 <1>  -0.3630 
 19 C        4.6810    -2.4430     0.3030 C.ar  1 <1>   0.0830 
 20 C        5.7310    -0.1060    -0.6580 C.3   1 <1>   0.1200 
 21 O        6.0320    -2.3620     0.1700 O.3   1 <1>  -0.3630 
 22 C        6.5240    -1.4170    -0.7610 C.3   1 <1>   0.1200 
 23 H       -2.1230    -2.1970     2.2400 H     1 <1>   0.0800 
 24 H       -2.0160    -4.4900     1.2940 H     1 <1>   0.0800 
 25 H       -2.1340    -0.5140    -0.1210 H     1 <1>   0.0800 
 26 H        1.8430    -0.7910    -0.4680 H     1 <1>   0.1500 
 27 H        2.3490    -4.5040     1.5820 H     1 <1>   0.1500 
 28 H       -1.9680    -4.0170    -1.5670 H     1 <1>   0.0800 
 29 H       -4.4080    -0.7020    -1.3110 H     1 <1>   0.1500 
 30 H       -3.5730    -2.8970     0.5120 H     1 <1>   0.0800 
 31 H       -1.7890    -2.2200    -0.9250 H     1 <1>   0.0800 
 32 H        4.7890    -4.2960     1.3430 H     1 <1>   0.1500 
 33 H       -4.2890    -3.2300    -2.3540 H     1 <1>   0.1500 
 34 H        5.8730     0.3420     0.3100 H     1 <1>   0.0800 
 35 H        6.0390     0.5890    -1.4180 H     1 <1>   0.0800 
 36 H        7.5640    -1.2530    -0.5480 H     1 <1>   0.0800 
 37 H        6.4260    -1.8360    -1.7470 H     1 <1>   0.0800 
@<TRIPOS>BOND
  1   1   2  2   
  2   2   3  am  
  3   2   4  1   
  4   3   5  1   
  5   3   6  am  
  6   4   7  1   
  7   4   8  1   
  8   4  23  1   
  9   5   9  ar  
 10   5  10  ar  
 11   6   7  1   
 12   6  11  2   
 13   7  12  1   
 14   7  24  1   
 15   8  13  1   
 16   8  14  1   
 17   8  25  1   
 18   9  15  ar  
 19   9  26  1   
 20  10  16  ar  
 21  10  27  1   
 22  12  14  1   
 23  12  17  1   
 24  12  28  1   
 25  13  17  2   
 26  13  29  1   
 27  14  30  1   
 28  14  31  1   
 29  15  18  1   
 30  15  19  ar  
 31  16  19  ar  
 32  16  32  1   
 33  17  33  1   
 34  18  20  1   
 35  19  21  1   
 36  20  22  1   
 37  20  34  1   
 38  20  35  1   
 39  21  22  1   
 40  22  36  1   
 41  22  37  1   
@<TRIPOS>SUBSTRUCTURE
  1 ****   3 GROUP 4 **** **** 0

# MOE 2024.06 (io_trps.svl 2023.06)
