@<TRIPOS>MOLECULE
NONAME
40 40 1 0 0 
SMALL
USER_CHARGES


@<TRIPOS>ATOM
  1 O       -2.6380     5.1450    -0.1540 O.3   1 <1>  -0.3630 
  2 C       -3.8400     5.7700    -0.2300 C.ar  1 <1>   0.0830 
  3 C       -1.4360     5.8720    -0.1390 C.3   1 <1>   0.1200 
  4 C       -4.9620     4.9570    -0.2370 C.ar  1 <1>  -0.1500 
  5 C       -3.9930     7.1520    -0.2980 C.ar  1 <1>  -0.1500 
  6 C       -0.3000     4.8520    -0.0480 C.3   1 <1>   0.3430 
  7 C       -6.2330     5.5030    -0.3120 C.ar  1 <1>  -0.1440 
  8 C       -5.2610     7.7010    -0.3710 C.ar  1 <1>  -0.1500 
  9 N        1.0420     5.5110    -0.0260 N.4   1 <1>  -0.9060 
 10 C       -6.3760     6.8800    -0.3780 C.ar  1 <1>  -0.1500 
 11 C       -7.4580     4.6030    -0.3190 C.3   1 <1>  -0.0170 
 12 C        2.1420     4.5220     0.0630 C.3   1 <1>   0.3430 
 13 C       -7.9580     4.3640     1.1070 C.3   1 <1>  -0.2400 
 14 C        3.4750     5.2640     0.0800 C.3   1 <1>  -0.1600 
 15 C        4.6470     4.2790     0.1720 C.3   1 <1>  -0.1600 
 16 C        5.9860     5.0210     0.1900 C.3   1 <1>  -0.2400 
 17 H       -1.4500     6.5180     0.7210 H     1 <1>   0.0800 
 18 H       -1.3790     6.4390    -1.0520 H     1 <1>   0.0800 
 19 H       -4.8360     3.8920    -0.1820 H     1 <1>   0.1500 
 20 H       -3.1540     7.8190    -0.2950 H     1 <1>   0.1500 
 21 H       -0.3640     4.1900    -0.8970 H     1 <1>   0.0800 
 22 H       -0.4320     4.2700     0.8500 H     1 <1>   0.0800 
 23 H       -5.3870     8.7680    -0.4230 H     1 <1>   0.1500 
 24 H        1.1080     6.1510     0.7760 H     1 <1>   0.4500 
 25 H        1.1720     6.0750    -0.8760 H     1 <1>   0.4500 
 26 H       -7.3580     7.3180    -0.4330 H     1 <1>   0.1500 
 27 H       -7.2130     3.6610    -0.7780 H     1 <1>   0.0800 
 28 H       -8.2380     5.0570    -0.9050 H     1 <1>   0.0800 
 29 H        2.1110     3.8540    -0.7850 H     1 <1>   0.0800 
 30 H        2.0430     3.9350     0.9630 H     1 <1>   0.0800 
 31 H       -7.1900     3.8950     1.6960 H     1 <1>   0.0800 
 32 H       -8.8240     3.7270     1.0950 H     1 <1>   0.0800 
 33 H       -8.2220     5.2990     1.5690 H     1 <1>   0.0800 
 34 H        3.5140     5.9260     0.9290 H     1 <1>   0.0800 
 35 H        3.5820     5.8450    -0.8200 H     1 <1>   0.0800 
 36 H        4.6340     3.6070    -0.6710 H     1 <1>   0.0800 
 37 H        4.5660     3.6880     1.0700 H     1 <1>   0.0800 
 38 H        6.1150     5.5990    -0.7080 H     1 <1>   0.0800 
 39 H        6.7960     4.3150     0.2540 H     1 <1>   0.0800 
 40 H        6.0470     5.6800     1.0380 H     1 <1>   0.0800 
@<TRIPOS>BOND
  1   1   2  1   
  2   1   3  1   
  3   2   4  ar  
  4   2   5  ar  
  5   3   6  1   
  6   3  17  1   
  7   3  18  1   
  8   4   7  ar  
  9   4  19  1   
 10   5   8  ar  
 11   5  20  1   
 12   6   9  1   
 13   6  21  1   
 14   6  22  1   
 15   7  10  ar  
 16   7  11  1   
 17   8  10  ar  
 18   8  23  1   
 19   9  12  1   
 20   9  24  1   
 21   9  25  1   
 22  10  26  1   
 23  11  13  1   
 24  11  27  1   
 25  11  28  1   
 26  12  14  1   
 27  12  29  1   
 28  12  30  1   
 29  13  31  1   
 30  13  32  1   
 31  13  33  1   
 32  14  15  1   
 33  14  34  1   
 34  14  35  1   
 35  15  16  1   
 36  15  36  1   
 37  15  37  1   
 38  16  38  1   
 39  16  39  1   
 40  16  40  1   
@<TRIPOS>SUBSTRUCTURE
  1 ****   1 GROUP 4 **** **** 0

# MOE 2024.06 (io_trps.svl 2023.06)
