@<TRIPOS>MOLECULE
NONAME
46 48 1 0 0 
SMALL
USER_CHARGES


@<TRIPOS>ATOM
  1 CL      -0.1650    -0.9580     1.7600 Cl    1 <1>  -0.1770 
  2 C       -1.7500    -1.4590     1.2330 C.ar  1 <1>   0.1770 
  3 C       -2.6980    -1.8120     2.1730 C.ar  1 <1>  -0.1500 
  4 C       -2.0350    -1.4950    -0.1190 C.ar  1 <1>  -0.1500 
  5 C       -3.9570    -2.2060     1.7530 C.ar  1 <1>  -0.1500 
  6 C       -3.2950    -1.8880    -0.5370 C.ar  1 <1>  -0.1500 
  7 C       -4.2640    -2.2390     0.3980 C.ar  1 <1>  -0.1430 
  8 C       -5.6500    -2.6570    -0.0590 C.3   1 <1>   0.4870 
  9 N       -6.3950    -1.4450    -0.4930 N.4   1 <1>  -0.9590 
 10 C       -6.5980    -0.4680     0.6420 C.3   1 <1>   0.3430 
 11 C       -7.7110    -1.7960    -1.1420 C.3   1 <1>   0.3430 
 12 C       -7.3500     0.8060     0.2050 C.3   1 <1>   0.2090 
 13 C       -8.4880    -0.5520    -1.6240 C.3   1 <1>   0.2090 
 14 N       -8.5910     0.4820    -0.5550 N.pl3 1 <1>  -0.8380 
 15 C       -9.8090     0.5980     0.1140 C.ar  1 <1>   0.1000 
 16 C      -10.6730     1.6580    -0.1570 C.ar  1 <1>  -0.1430 
 17 C      -10.1790    -0.3490     1.0650 C.ar  1 <1>  -0.1500 
 18 C      -11.8780     1.7510     0.5190 C.ar  1 <1>  -0.1500 
 19 C      -10.3090     2.7170    -1.1880 C.3   1 <1>  -0.0970 
 20 C      -11.3830    -0.2550     1.7400 C.ar  1 <1>  -0.1430 
 21 C      -12.2320     0.8020     1.4620 C.ar  1 <1>  -0.1500 
 22 C      -11.7890    -1.2860     2.7780 C.3   1 <1>  -0.0970 
 23 H       -2.4430    -1.7810     3.2190 H     1 <1>   0.1500 
 24 H       -1.2730    -1.2200    -0.8280 H     1 <1>   0.1500 
 25 H       -4.6860    -2.4860     2.4970 H     1 <1>   0.1500 
 26 H       -3.5010    -1.9210    -1.5940 H     1 <1>   0.1500 
 27 H       -6.1720    -3.1470     0.7470 H     1 <1>   0.0800 
 28 H       -5.5590    -3.3510    -0.8780 H     1 <1>   0.0800 
 29 H       -5.8140    -0.9630    -1.1900 H     1 <1>   0.4500 
 30 H       -5.6460    -0.1810     1.0570 H     1 <1>   0.0800 
 31 H       -7.1690    -0.9390     1.4250 H     1 <1>   0.0800 
 32 H       -8.3330    -2.3190    -0.4340 H     1 <1>   0.0800 
 33 H       -7.5480    -2.4490    -1.9820 H     1 <1>   0.0800 
 34 H       -6.7100     1.4140    -0.4100 H     1 <1>   0.0800 
 35 H       -7.6060     1.3860     1.0770 H     1 <1>   0.0800 
 36 H       -9.4780    -0.8460    -1.9320 H     1 <1>   0.0800 
 37 H       -7.9970    -0.1230    -2.4800 H     1 <1>   0.0800 
 38 H       -9.5200    -1.1640     1.2780 H     1 <1>   0.1500 
 39 H      -12.5520     2.5650     0.3180 H     1 <1>   0.1500 
 40 H      -10.1760     2.2570    -2.1500 H     1 <1>   0.0800 
 41 H       -9.3920     3.2000    -0.9040 H     1 <1>   0.0800 
 42 H      -11.0780     3.4630    -1.2680 H     1 <1>   0.0800 
 43 H      -13.1730     0.8910     1.9770 H     1 <1>   0.1500 
 44 H      -11.0520    -2.0630     2.8630 H     1 <1>   0.0800 
 45 H      -12.7270    -1.7330     2.5000 H     1 <1>   0.0800 
 46 H      -11.9020    -0.8130     3.7370 H     1 <1>   0.0800 
@<TRIPOS>BOND
  1   1   2  1   
  2   2   3  ar  
  3   2   4  ar  
  4   3   5  ar  
  5   3  23  1   
  6   4   6  ar  
  7   4  24  1   
  8   5   7  ar  
  9   5  25  1   
 10   6   7  ar  
 11   6  26  1   
 12   7   8  1   
 13   8   9  1   
 14   8  27  1   
 15   8  28  1   
 16   9  10  1   
 17   9  11  1   
 18   9  29  1   
 19  10  12  1   
 20  10  30  1   
 21  10  31  1   
 22  11  13  1   
 23  11  32  1   
 24  11  33  1   
 25  12  14  1   
 26  12  34  1   
 27  12  35  1   
 28  13  14  1   
 29  13  36  1   
 30  13  37  1   
 31  14  15  1   
 32  15  16  ar  
 33  15  17  ar  
 34  16  18  ar  
 35  16  19  1   
 36  17  20  ar  
 37  17  38  1   
 38  18  21  ar  
 39  18  39  1   
 40  19  40  1   
 41  19  41  1   
 42  19  42  1   
 43  20  21  ar  
 44  20  22  1   
 45  21  43  1   
 46  22  44  1   
 47  22  45  1   
 48  22  46  1   
@<TRIPOS>SUBSTRUCTURE
  1 ****  10 GROUP 4 **** **** 0

# MOE 2024.06 (io_trps.svl 2023.06)
