@<TRIPOS>MOLECULE
NONAME
39 40 1 0 0 
SMALL
USER_CHARGES


@<TRIPOS>ATOM
  1 O       -2.5730    -0.5800     1.3610 O.co2 1 <1>  -0.9000 
  2 C       -3.1170     0.3780     1.9190 C.2   1 <1>   0.9060 
  3 O       -3.7580     0.2400     2.9680 O.co2 1 <1>  -0.9000 
  4 C       -3.0400     1.7720     1.3260 C.3   1 <1>  -0.1860 
  5 C       -4.3930     2.2660     0.7650 C.3   1 <1>  -0.0190 
  6 C       -1.9300     1.9320     0.2770 C.3   1 <1>  -0.0220 
  7 C       -4.9130     1.4770    -0.4590 C.2   1 <1>   0.5690 
  8 C       -4.2650     3.7800     0.4800 C.3   1 <1>  -0.0220 
  9 C       -1.9080     3.3450    -0.3070 C.2   1 <1>  -0.2760 
 10 O       -4.7510     1.9520    -1.5630 O.2   1 <1>  -0.5700 
 11 N       -5.6080     0.2930    -0.3330 N.am  1 <1>  -0.6600 
 12 C       -2.9520     4.1850    -0.1980 C.2   1 <1>  -0.2760 
 13 C       -0.5860     3.6190    -1.0130 C.3   1 <1>  -0.1020 
 14 C       -5.9280    -0.5400    -1.5270 C.3   1 <1>   0.1400 
 15 C       -5.9330    -0.4230     0.9390 C.3   1 <1>   0.1400 
 16 C       -3.0210     5.6170    -0.7120 C.3   1 <1>  -0.1020 
 17 C       -7.3720    -1.0580    -1.4480 C.3   1 <1>   0.1200 
 18 C       -7.3580    -1.0030     0.9010 C.3   1 <1>   0.1200 
 19 O       -7.5870    -1.7620    -0.2570 O.3   1 <1>  -0.5600 
 20 H       -2.7820     2.4070     2.1520 H     1 <1>   0.0800 
 21 H       -5.1270     2.1760     1.5410 H     1 <1>   0.0800 
 22 H       -2.0720     1.2200    -0.5190 H     1 <1>   0.0800 
 23 H       -0.9900     1.7090     0.7500 H     1 <1>   0.0800 
 24 H       -4.3290     4.3090     1.4140 H     1 <1>   0.0800 
 25 H       -5.1000     4.0890    -0.1240 H     1 <1>   0.0800 
 26 H       -0.4010     2.8450    -1.7370 H     1 <1>   0.0800 
 27 H        0.2160     3.6170    -0.2970 H     1 <1>   0.0800 
 28 H       -0.5760     4.5560    -1.5310 H     1 <1>   0.0800 
 29 H       -5.2490    -1.3730    -1.5620 H     1 <1>   0.0800 
 30 H       -5.8060     0.0260    -2.4330 H     1 <1>   0.0800 
 31 H       -5.8680     0.2330     1.7830 H     1 <1>   0.0800 
 32 H       -5.2230    -1.2200     1.0880 H     1 <1>   0.0800 
 33 H       -3.7520     5.6820    -1.4980 H     1 <1>   0.0800 
 34 H       -2.0840     5.9660    -1.0960 H     1 <1>   0.0800 
 35 H       -3.3120     6.2760     0.0860 H     1 <1>   0.0800 
 36 H       -7.5680    -1.7290    -2.2640 H     1 <1>   0.0800 
 37 H       -8.0670    -0.2380    -1.4950 H     1 <1>   0.0800 
 38 H       -8.0800    -0.2080     0.9360 H     1 <1>   0.0800 
 39 H       -7.5090    -1.6450     1.7500 H     1 <1>   0.0800 
@<TRIPOS>BOND
  1   1   2  ar  
  2   2   3  ar  
  3   2   4  1   
  4   4   5  1   
  5   4   6  1   
  6   4  20  1   
  7   5   7  1   
  8   5   8  1   
  9   5  21  1   
 10   6   9  1   
 11   6  22  1   
 12   6  23  1   
 13   7  10  2   
 14   7  11  am  
 15   8  12  1   
 16   8  24  1   
 17   8  25  1   
 18   9  12  2   
 19   9  13  1   
 20  11  14  1   
 21  11  15  1   
 22  12  16  1   
 23  13  26  1   
 24  13  27  1   
 25  13  28  1   
 26  14  17  1   
 27  14  29  1   
 28  14  30  1   
 29  15  18  1   
 30  15  31  1   
 31  15  32  1   
 32  16  33  1   
 33  16  34  1   
 34  16  35  1   
 35  17  19  1   
 36  17  36  1   
 37  17  37  1   
 38  18  19  1   
 39  18  38  1   
 40  18  39  1   
@<TRIPOS>SUBSTRUCTURE
  1 ****   7 GROUP 4 **** **** 0

# MOE 2024.06 (io_trps.svl 2023.06)
