@<TRIPOS>MOLECULE
NONAME
50 52 1 0 0 
SMALL
USER_CHARGES


@<TRIPOS>ATOM
  1 BR       1.2610     0.0620     2.7190 Br    1 <1>  -0.1110 
  2 C        2.2440    -0.8190     1.3200 C.ar  1 <1>   0.1110 
  3 C        3.3060    -0.1530     0.7380 C.ar  1 <1>  -0.1500 
  4 C        1.8670    -2.0900     0.9370 C.ar  1 <1>  -0.1500 
  5 C        4.0230    -0.7870    -0.2670 C.ar  1 <1>  -0.1440 
  6 C        2.5800    -2.7140    -0.0720 C.ar  1 <1>  -0.1500 
  7 C        3.6510    -2.0660    -0.6700 C.ar  1 <1>  -0.1500 
  8 C        5.2040    -0.0980    -0.9080 C.3   1 <1>   0.4870 
  9 N        6.3830    -0.4560    -0.0810 N.4   1 <1>  -0.9060 
 10 C        7.6820     0.1030    -0.5230 C.3   1 <1>   0.4230 
 11 C        8.8040    -0.5920     0.2490 C.3   1 <1>  -0.1600 
 12 C        7.7300     1.6150    -0.2780 C.3   1 <1>  -0.1600 
 13 C       10.1720    -0.0010    -0.1010 C.3   1 <1>   0.3430 
 14 C        9.1090     2.1880    -0.6200 C.3   1 <1>   0.3430 
 15 N       10.1710     1.4730     0.1460 N.4   1 <1>  -0.9590 
 16 C       11.5070     2.0840    -0.1810 C.3   1 <1>   0.3430 
 17 C       12.6040     1.6590     0.7990 C.3   1 <1>  -0.0170 
 18 C       13.8690     2.4130     0.4450 C.ar  1 <1>  -0.1430 
 19 C       14.1280     3.6500     1.0160 C.ar  1 <1>  -0.1500 
 20 C       14.7710     1.8800    -0.4640 C.ar  1 <1>  -0.1500 
 21 C       15.2730     4.3490     0.6760 C.ar  1 <1>  -0.1500 
 22 C       15.9150     2.5800    -0.8040 C.ar  1 <1>  -0.1500 
 23 C       16.1660     3.8160    -0.2350 C.ar  1 <1>  -0.1500 
 24 H        3.5390     0.8410     1.0800 H     1 <1>   0.1500 
 25 H        1.0330    -2.5770     1.4130 H     1 <1>   0.1500 
 26 H        2.2970    -3.7040    -0.3910 H     1 <1>   0.1500 
 27 H        4.1790    -2.5790    -1.4580 H     1 <1>   0.1500 
 28 H        5.0450     0.9690    -0.9130 H     1 <1>   0.0800 
 29 H        5.3250    -0.4420    -1.9230 H     1 <1>   0.0800 
 30 H        6.4130    -1.4850    -0.0710 H     1 <1>   0.4500 
 31 H        6.1620    -0.1940     0.8870 H     1 <1>   0.4500 
 32 H        7.8150    -0.0910    -1.5780 H     1 <1>   0.0800 
 33 H        8.8200    -1.6390     0.0010 H     1 <1>   0.0800 
 34 H        8.6510    -0.5020     1.3110 H     1 <1>   0.0800 
 35 H        7.5080     1.8430     0.7500 H     1 <1>   0.0800 
 36 H        7.0060     2.1140    -0.8970 H     1 <1>   0.0800 
 37 H       10.4010    -0.1960    -1.1380 H     1 <1>   0.0800 
 38 H       10.9300    -0.4770     0.5010 H     1 <1>   0.0800 
 39 H        9.1310     3.2410    -0.3820 H     1 <1>   0.0800 
 40 H        9.2940     2.0850    -1.6790 H     1 <1>   0.0800 
 41 H       10.0190     1.6440     1.1520 H     1 <1>   0.4500 
 42 H       11.4310     3.1600    -0.1410 H     1 <1>   0.0800 
 43 H       11.8060     1.8180    -1.1820 H     1 <1>   0.0800 
 44 H       12.7970     0.6040     0.7340 H     1 <1>   0.0800 
 45 H       12.3220     1.8990     1.8090 H     1 <1>   0.0800 
 46 H       13.4510     4.0840     1.7320 H     1 <1>   0.1500 
 47 H       14.6010     0.9190    -0.9160 H     1 <1>   0.1500 
 48 H       15.4730     5.3090     1.1220 H     1 <1>   0.1500 
 49 H       16.6150     2.1640    -1.5090 H     1 <1>   0.1500 
 50 H       17.0570     4.3590    -0.4980 H     1 <1>   0.1500 
@<TRIPOS>BOND
  1   1   2  1   
  2   2   3  ar  
  3   2   4  ar  
  4   3   5  ar  
  5   3  24  1   
  6   4   6  ar  
  7   4  25  1   
  8   5   7  ar  
  9   5   8  1   
 10   6   7  ar  
 11   6  26  1   
 12   7  27  1   
 13   8   9  1   
 14   8  28  1   
 15   8  29  1   
 16   9  10  1   
 17   9  30  1   
 18   9  31  1   
 19  10  11  1   
 20  10  12  1   
 21  10  32  1   
 22  11  13  1   
 23  11  33  1   
 24  11  34  1   
 25  12  14  1   
 26  12  35  1   
 27  12  36  1   
 28  13  15  1   
 29  13  37  1   
 30  13  38  1   
 31  14  15  1   
 32  14  39  1   
 33  14  40  1   
 34  15  16  1   
 35  15  41  1   
 36  16  17  1   
 37  16  42  1   
 38  16  43  1   
 39  17  18  1   
 40  17  44  1   
 41  17  45  1   
 42  18  19  ar  
 43  18  20  ar  
 44  19  21  ar  
 45  19  46  1   
 46  20  22  ar  
 47  20  47  1   
 48  21  23  ar  
 49  21  48  1   
 50  22  23  ar  
 51  22  49  1   
 52  23  50  1   
@<TRIPOS>SUBSTRUCTURE
  1 ****  12 GROUP 4 **** **** 0

# MOE 2024.06 (io_trps.svl 2023.06)
