@<TRIPOS>MOLECULE
NONAME
47 48 1 0 0 
SMALL
USER_CHARGES


@<TRIPOS>ATOM
  1 O       -1.9630    -8.2720    -0.1220 O.3   1 <1>  -0.3630 
  2 C       -3.2170    -7.7670     0.0000 C.ar  1 <1>   0.0830 
  3 C       -0.8270    -7.4740     0.1000 C.3   1 <1>   0.1200 
  4 C       -3.4940    -6.4470     0.3480 C.ar  1 <1>  -0.1500 
  5 C       -4.2630    -8.6410    -0.2420 C.ar  1 <1>  -0.1500 
  6 C        0.4020    -8.3580    -0.1200 C.3   1 <1>  -0.1600 
  7 C       -4.8050    -6.0100     0.4530 C.ar  1 <1>  -0.1440 
  8 C       -5.5730    -8.2100    -0.1400 C.ar  1 <1>  -0.1500 
  9 C        1.7120    -7.5850     0.0940 C.3   1 <1>  -0.1600 
 10 C       -5.8420    -6.8970     0.2060 C.ar  1 <1>  -0.1500 
 11 C       -5.1090    -4.5700     0.8330 C.3   1 <1>  -0.0170 
 12 C        2.9140    -8.5070    -0.1290 C.3   1 <1>   0.3430 
 13 C       -5.2100    -3.6940    -0.4170 C.3   1 <1>  -0.2400 
 14 N        4.1870    -7.7980     0.1780 N.4   1 <1>  -0.9590 
 15 C        4.5270    -6.7690    -0.8520 C.3   1 <1>   0.3430 
 16 C        5.2990    -8.7800     0.3470 C.3   1 <1>   0.3430 
 17 C        5.7760    -5.9980    -0.4190 C.3   1 <1>  -0.1600 
 18 C        6.5640    -8.0540     0.8080 C.3   1 <1>  -0.1600 
 19 C        6.9630    -6.9360    -0.1630 C.3   1 <1>  -0.1600 
 20 H       -0.8660    -7.1060     1.1110 H     1 <1>   0.0800 
 21 H       -0.8480    -6.6560    -0.5990 H     1 <1>   0.0800 
 22 H       -2.7040    -5.7480     0.5390 H     1 <1>   0.1500 
 23 H       -4.0450    -9.6590    -0.5100 H     1 <1>   0.1500 
 24 H        0.3670    -8.7450    -1.1240 H     1 <1>   0.0800 
 25 H        0.3520    -9.1860     0.5680 H     1 <1>   0.0800 
 26 H       -6.3810    -8.8930    -0.3300 H     1 <1>   0.1500 
 27 H        1.7300    -7.2030     1.1000 H     1 <1>   0.0800 
 28 H        1.7400    -6.7610    -0.5960 H     1 <1>   0.0800 
 29 H       -6.8630    -6.5680     0.2820 H     1 <1>   0.1500 
 30 H       -4.3340    -4.1920     1.4780 H     1 <1>   0.0800 
 31 H       -6.0350    -4.5270     1.3800 H     1 <1>   0.0800 
 32 H        2.9220    -8.8620    -1.1470 H     1 <1>   0.0800 
 33 H        2.8140    -9.3620     0.5220 H     1 <1>   0.0800 
 34 H       -4.2840    -3.7160    -0.9630 H     1 <1>   0.0800 
 35 H       -5.4260    -2.6770    -0.1420 H     1 <1>   0.0800 
 36 H       -5.9950    -4.0540    -1.0590 H     1 <1>   0.0800 
 37 H        4.0780    -7.3110     1.0760 H     1 <1>   0.4500 
 38 H        3.7100    -6.0770    -0.9750 H     1 <1>   0.0800 
 39 H        4.7120    -7.2480    -1.8000 H     1 <1>   0.0800 
 40 H        5.4920    -9.2780    -0.5890 H     1 <1>   0.0800 
 41 H        5.0280    -9.5240     1.0790 H     1 <1>   0.0800 
 42 H        5.5570    -5.4320     0.4690 H     1 <1>   0.0800 
 43 H        6.0400    -5.2950    -1.1900 H     1 <1>   0.0800 
 44 H        7.3700    -8.7640     0.8820 H     1 <1>   0.0800 
 45 H        6.4050    -7.6470     1.7920 H     1 <1>   0.0800 
 46 H        7.7920    -6.3770     0.2410 H     1 <1>   0.0800 
 47 H        7.2860    -7.3690    -1.0960 H     1 <1>   0.0800 
@<TRIPOS>BOND
  1   1   2  1   
  2   1   3  1   
  3   2   4  ar  
  4   2   5  ar  
  5   3   6  1   
  6   3  20  1   
  7   3  21  1   
  8   4   7  ar  
  9   4  22  1   
 10   5   8  ar  
 11   5  23  1   
 12   6   9  1   
 13   6  24  1   
 14   6  25  1   
 15   7  10  ar  
 16   7  11  1   
 17   8  10  ar  
 18   8  26  1   
 19   9  12  1   
 20   9  27  1   
 21   9  28  1   
 22  10  29  1   
 23  11  13  1   
 24  11  30  1   
 25  11  31  1   
 26  12  14  1   
 27  12  32  1   
 28  12  33  1   
 29  13  34  1   
 30  13  35  1   
 31  13  36  1   
 32  14  15  1   
 33  14  16  1   
 34  14  37  1   
 35  15  17  1   
 36  15  38  1   
 37  15  39  1   
 38  16  18  1   
 39  16  40  1   
 40  16  41  1   
 41  17  19  1   
 42  17  42  1   
 43  17  43  1   
 44  18  19  1   
 45  18  44  1   
 46  18  45  1   
 47  19  46  1   
 48  19  47  1   
@<TRIPOS>SUBSTRUCTURE
  1 ****   3 GROUP 4 **** **** 0

# MOE 2024.06 (io_trps.svl 2023.06)
