@<TRIPOS>MOLECULE
NONAME
27 28 1 0 0 
SMALL
USER_CHARGES


@<TRIPOS>ATOM
  1 N        0.8490    -0.6830     1.4910 N.2   1 <1>  -0.3380 
  2 N        1.8490     0.1970     1.6580 N.2   1 <1>  -0.3380 
  3 C        0.8510    -1.0180     0.2450 C.2   1 <1>   0.2700 
  4 C        2.4150     0.3520     0.5140 C.2   1 <1>   0.0060 
  5 N        1.8200    -0.3960    -0.4240 N.pl3 1 <1>   0.0330 
  6 N       -0.0400    -1.9070    -0.3130 N.pl3 1 <1>  -0.8840 
  7 C        3.6070     1.2520     0.2520 C.3   1 <1>   0.0200 
  8 C        4.8750     0.4200     0.0210 C.3   1 <1>  -0.1600 
  9 C        6.1170     1.3050    -0.1420 C.3   1 <1>   0.0200 
 10 C        7.3350     0.4640    -0.4740 C.2   1 <1>   0.0060 
 11 N        7.9520    -0.3400     0.4010 N.pl3 1 <1>   0.0330 
 12 N        7.9040     0.4180    -1.6260 N.2   1 <1>  -0.3380 
 13 C        8.9380    -0.8780    -0.3140 C.2   1 <1>   0.2710 
 14 N        8.9290    -0.4430    -1.5290 N.2   1 <1>  -0.3380 
 15 N        9.8550    -1.7830     0.1710 N.pl3 1 <1>  -0.8840 
 16 H        2.0510    -0.5160    -1.4080 H     1 <1>   0.2700 
 17 H       -0.5500    -2.3980     0.4290 H     1 <1>   0.4000 
 18 H       -0.7280    -1.4610    -0.9240 H     1 <1>   0.4000 
 19 H        3.7450     1.8920     1.1070 H     1 <1>   0.0800 
 20 H        3.4060     1.8770    -0.6000 H     1 <1>   0.0800 
 21 H        4.7540    -0.1800    -0.8650 H     1 <1>   0.0800 
 22 H        5.0140    -0.2460     0.8550 H     1 <1>   0.0800 
 23 H        6.3010     1.8640     0.7590 H     1 <1>   0.0800 
 24 H        5.9590     2.0070    -0.9420 H     1 <1>   0.0800 
 25 H        7.7250    -0.5460     1.3720 H     1 <1>   0.2700 
 26 H       10.5310    -1.3680     0.8170 H     1 <1>   0.4000 
 27 H       10.3780    -2.1970    -0.6070 H     1 <1>   0.4000 
@<TRIPOS>BOND
  1   1   2  1   
  2   1   3  2   
  3   2   4  2   
  4   3   5  1   
  5   3   6  1   
  6   4   5  1   
  7   4   7  1   
  8   5  16  1   
  9   6  17  1   
 10   6  18  1   
 11   7   8  1   
 12   7  19  1   
 13   7  20  1   
 14   8   9  1   
 15   8  21  1   
 16   8  22  1   
 17   9  10  1   
 18   9  23  1   
 19   9  24  1   
 20  10  11  1   
 21  10  12  2   
 22  11  13  1   
 23  11  25  1   
 24  12  14  1   
 25  13  14  2   
 26  13  15  1   
 27  15  26  1   
 28  15  27  1   
@<TRIPOS>SUBSTRUCTURE
  1 ****   8 GROUP 4 **** **** 0

# MOE 2024.06 (io_trps.svl 2023.06)
