@<TRIPOS>MOLECULE
NONAME
39 40 1 0 0 
SMALL
USER_CHARGES


@<TRIPOS>ATOM
  1 CL       0.2470    -2.0610    -2.0680 Cl    1 <1>  -0.1770 
  2 C        1.7570    -2.1130    -1.1950 C.ar  1 <1>   0.1770 
  3 C        1.8470    -2.6730     0.0710 C.ar  1 <1>  -0.0090 
  4 C        2.8630    -1.5730    -1.8250 C.ar  1 <1>  -0.1500 
  5 S        0.4020    -3.3870     0.8890 S.o2  1 <1>   1.4470 
  6 C        3.0950    -2.6730     0.6840 C.ar  1 <1>  -0.1500 
  7 C        4.0900    -1.5880    -1.1910 C.ar  1 <1>  -0.1500 
  8 O       -0.6680    -2.4150     0.9110 O.2   1 <1>  -0.6500 
  9 O        0.8090    -3.9880     2.1410 O.2   1 <1>  -0.6500 
 10 N       -0.0390    -4.6620    -0.1370 N.am  1 <1>  -0.8490 
 11 C        4.2400    -2.1420     0.0830 C.ar  1 <1>   0.0860 
 12 C       -1.4570    -5.0090    -0.0010 C.3   1 <1>   0.1960 
 13 C        0.8160    -5.8410     0.0330 C.3   1 <1>   0.1960 
 14 C        5.5230    -2.1720     0.7620 C.2   1 <1>   0.6340 
 15 C       -1.8570    -6.0350    -1.0670 C.3   1 <1>  -0.1600 
 16 C        0.5010    -6.8830    -1.0450 C.3   1 <1>  -0.1600 
 17 O        5.6850    -2.6880     1.8480 O.2   1 <1>  -0.5700 
 18 O        6.5680    -1.6060     0.1540 O.3   1 <1>  -0.4300 
 19 C       -0.9760    -7.2890    -1.0070 C.3   1 <1>  -0.1600 
 20 C        7.8480    -1.5910     0.7440 C.3   1 <1>   0.1200 
 21 C        8.8000    -0.8740    -0.2080 C.3   1 <1>  -0.2400 
 22 H        2.7570    -1.1450    -2.8060 H     1 <1>   0.1500 
 23 H        3.1890    -3.1030     1.6700 H     1 <1>   0.1500 
 24 H        4.9440    -1.1650    -1.6930 H     1 <1>   0.1500 
 25 H       -2.0630    -4.1280    -0.1360 H     1 <1>   0.0800 
 26 H       -1.6450    -5.4000     0.9850 H     1 <1>   0.0800 
 27 H        0.6610    -6.2710     1.0100 H     1 <1>   0.0800 
 28 H        1.8510    -5.5550    -0.0480 H     1 <1>   0.0800 
 29 H       -1.7690    -5.5750    -2.0360 H     1 <1>   0.0800 
 30 H       -2.8880    -6.3090    -0.9280 H     1 <1>   0.0800 
 31 H        1.1190    -7.7500    -0.8950 H     1 <1>   0.0800 
 32 H        0.7410    -6.4680    -2.0090 H     1 <1>   0.0800 
 33 H       -1.2030    -7.9380    -1.8340 H     1 <1>   0.0800 
 34 H       -1.1780    -7.8240    -0.0940 H     1 <1>   0.0800 
 35 H        8.1600    -2.6090     0.9100 H     1 <1>   0.0800 
 36 H        7.7830    -1.0750     1.6880 H     1 <1>   0.0800 
 37 H        8.8480    -1.3940    -1.1470 H     1 <1>   0.0800 
 38 H        9.7860    -0.8480     0.2190 H     1 <1>   0.0800 
 39 H        8.4710     0.1370    -0.3700 H     1 <1>   0.0800 
@<TRIPOS>BOND
  1   1   2  1   
  2   2   3  ar  
  3   2   4  ar  
  4   3   5  1   
  5   3   6  ar  
  6   4   7  ar  
  7   4  22  1   
  8   5   8  2   
  9   5   9  2   
 10   5  10  am  
 11   6  11  ar  
 12   6  23  1   
 13   7  11  ar  
 14   7  24  1   
 15  10  12  1   
 16  10  13  1   
 17  11  14  1   
 18  12  15  1   
 19  12  25  1   
 20  12  26  1   
 21  13  16  1   
 22  13  27  1   
 23  13  28  1   
 24  14  17  2   
 25  14  18  1   
 26  15  19  1   
 27  15  29  1   
 28  15  30  1   
 29  16  19  1   
 30  16  31  1   
 31  16  32  1   
 32  18  20  1   
 33  19  33  1   
 34  19  34  1   
 35  20  21  1   
 36  20  35  1   
 37  20  36  1   
 38  21  37  1   
 39  21  38  1   
 40  21  39  1   
@<TRIPOS>SUBSTRUCTURE
  1 ****   3 GROUP 4 **** **** 0

# MOE 2024.06 (io_trps.svl 2023.06)
