@<TRIPOS>MOLECULE
NONAME
46 47 1 0 0 
SMALL
USER_CHARGES


@<TRIPOS>ATOM
  1 O       -2.6610     0.0460    -0.9770 O.3   1 <1>  -0.5600 
  2 C       -3.1280    -0.5640     0.1950 C.3   1 <1>   0.1200 
  3 C       -2.4600     1.4300    -0.8640 C.3   1 <1>   0.1200 
  4 C       -4.4710     0.0540     0.6510 C.3   1 <1>   0.3430 
  5 C       -3.7560     2.1520    -0.4250 C.3   1 <1>   0.3430 
  6 N       -4.8920     1.1860    -0.2460 N.4   1 <1>  -0.9590 
  7 C       -6.1520     1.8600     0.1670 C.3   1 <1>   0.3430 
  8 C       -7.3460     0.9210    -0.0130 C.3   1 <1>  -0.1600 
  9 C       -8.6560     1.6510     0.3140 C.3   1 <1>  -0.1600 
 10 C       -9.8650     0.7330     0.1350 C.3   1 <1>   0.1200 
 11 O      -11.0150     1.4690     0.4660 O.3   1 <1>  -0.3630 
 12 C      -12.2750     1.0390     0.1620 C.ar  1 <1>   0.0830 
 13 C      -12.6570    -0.2780    -0.1570 C.ar  1 <1>   0.0830 
 14 C      -13.2360     2.0380     0.1870 C.ar  1 <1>  -0.1500 
 15 O      -11.7320    -1.2840    -0.1560 O.3   1 <1>  -0.3630 
 16 C      -13.9930    -0.5350    -0.4610 C.ar  1 <1>  -0.1500 
 17 C      -14.5580     1.7660    -0.1110 C.ar  1 <1>  -0.1500 
 18 C      -12.0970    -2.6410    -0.2520 C.3   1 <1>   0.1200 
 19 C      -14.9360     0.4780    -0.4380 C.ar  1 <1>  -0.1500 
 20 C      -10.8350    -3.4810    -0.0820 C.3   1 <1>  -0.2400 
 21 H       -2.3790    -0.4580     0.9620 H     1 <1>   0.0800 
 22 H       -3.2530    -1.6140    -0.0080 H     1 <1>   0.0800 
 23 H       -2.1400     1.7930    -1.8250 H     1 <1>   0.0800 
 24 H       -1.6670     1.6070    -0.1580 H     1 <1>   0.0800 
 25 H       -4.3680     0.4040     1.6650 H     1 <1>   0.0800 
 26 H       -5.2240    -0.7170     0.6500 H     1 <1>   0.0800 
 27 H       -4.0130     2.8900    -1.1680 H     1 <1>   0.0800 
 28 H       -3.5680     2.6750     0.4980 H     1 <1>   0.0800 
 29 H       -5.0220     0.7580    -1.1760 H     1 <1>   0.4500 
 30 H       -6.3080     2.7360    -0.4440 H     1 <1>   0.0800 
 31 H       -6.0850     2.1770     1.1950 H     1 <1>   0.0800 
 32 H       -7.2550     0.0730     0.6420 H     1 <1>   0.0800 
 33 H       -7.3860     0.5760    -1.0320 H     1 <1>   0.0800 
 34 H       -8.7740     2.5010    -0.3370 H     1 <1>   0.0800 
 35 H       -8.6380     1.9970     1.3340 H     1 <1>   0.0800 
 36 H       -9.8070    -0.1130     0.7970 H     1 <1>   0.0800 
 37 H       -9.9550     0.4040    -0.8860 H     1 <1>   0.0800 
 38 H      -12.9390     3.0390     0.4400 H     1 <1>   0.1500 
 39 H      -14.3300    -1.5190    -0.7210 H     1 <1>   0.1500 
 40 H      -15.2890     2.5560    -0.0890 H     1 <1>   0.1500 
 41 H      -12.5370    -2.8090    -1.2200 H     1 <1>   0.0800 
 42 H      -12.8080    -2.8600     0.5270 H     1 <1>   0.0800 
 43 H      -15.9640     0.2640    -0.6730 H     1 <1>   0.1500 
 44 H      -10.1280    -3.2460    -0.8570 H     1 <1>   0.0800 
 45 H      -11.0830    -4.5240    -0.1480 H     1 <1>   0.0800 
 46 H      -10.3950    -3.2930     0.8810 H     1 <1>   0.0800 
@<TRIPOS>BOND
  1   1   2  1   
  2   1   3  1   
  3   2   4  1   
  4   2  21  1   
  5   2  22  1   
  6   3   5  1   
  7   3  23  1   
  8   3  24  1   
  9   4   6  1   
 10   4  25  1   
 11   4  26  1   
 12   5   6  1   
 13   5  27  1   
 14   5  28  1   
 15   6   7  1   
 16   6  29  1   
 17   7   8  1   
 18   7  30  1   
 19   7  31  1   
 20   8   9  1   
 21   8  32  1   
 22   8  33  1   
 23   9  10  1   
 24   9  34  1   
 25   9  35  1   
 26  10  11  1   
 27  10  36  1   
 28  10  37  1   
 29  11  12  1   
 30  12  13  ar  
 31  12  14  ar  
 32  13  15  1   
 33  13  16  ar  
 34  14  17  ar  
 35  14  38  1   
 36  15  18  1   
 37  16  19  ar  
 38  16  39  1   
 39  17  19  ar  
 40  17  40  1   
 41  18  20  1   
 42  18  41  1   
 43  18  42  1   
 44  19  43  1   
 45  20  44  1   
 46  20  45  1   
 47  20  46  1   
@<TRIPOS>SUBSTRUCTURE
  1 ****  10 GROUP 4 **** **** 0

# MOE 2024.06 (io_trps.svl 2023.06)
