@<TRIPOS>MOLECULE
NONAME
31 31 1 0 0 
SMALL
USER_CHARGES


@<TRIPOS>ATOM
  1 F        0.9900    -0.3300     1.8970 F     1 <1>  -0.3400 
  2 C        1.3480    -0.9540     0.7650 C.3   1 <1>   0.6800 
  3 F        2.4890    -1.5620     1.1120 F     1 <1>  -0.3400 
  4 C        1.6360     0.1220    -0.3020 C.3   1 <1>   0.6800 
  5 C        0.2680    -2.0110     0.3760 C.3   1 <1>   0.6800 
  6 F        0.4930     0.6780    -0.7150 F     1 <1>  -0.3400 
  7 F        2.1300    -0.4230    -1.4190 F     1 <1>  -0.3400 
  8 C        2.5800     1.2310     0.2240 C.3   1 <1>   0.6000 
  9 F       -0.9300    -1.4300     0.2950 F     1 <1>  -0.3400 
 10 F        0.1090    -2.8750     1.3780 F     1 <1>  -0.3400 
 11 C        0.4700    -2.8000    -0.9340 C.3   1 <1>   0.1200 
 12 F        2.6840     2.2430    -0.6370 F     1 <1>  -0.3400 
 13 F        3.8310     0.7960     0.3660 F     1 <1>  -0.3400 
 14 O        1.7920    -3.3130    -1.0620 O.3   1 <1>  -0.3630 
 15 C        2.1660    -4.5040    -0.5570 C.ar  1 <1>   0.3920 
 16 N        1.2610    -5.3030    -0.0440 N.ar  1 <1>  -0.6200 
 17 C        3.5020    -4.8290    -0.6040 C.ar  1 <1>  -0.1500 
 18 C        1.7450    -6.4300     0.4380 C.ar  1 <1>   0.7200 
 19 C        3.8740    -6.0430    -0.0840 C.ar  1 <1>   0.1660 
 20 N        2.9940    -6.8620     0.4400 N.ar  1 <1>  -0.6200 
 21 N        0.8500    -7.2630     0.9720 N.pl3 1 <1>  -0.9000 
 22 C        5.3180    -6.4950    -0.0880 C.3   1 <1>  -0.0970 
 23 H        2.2680     1.6370     1.1690 H     1 <1>   0.0800 
 24 H        0.3170    -2.1440    -1.7710 H     1 <1>   0.0800 
 25 H       -0.2420    -3.6030    -1.0070 H     1 <1>   0.0800 
 26 H        4.2100    -4.1470    -1.0330 H     1 <1>   0.1500 
 27 H        1.1570    -8.2280     1.0560 H     1 <1>   0.4000 
 28 H       -0.1150    -7.1050     0.7000 H     1 <1>   0.4000 
 29 H        5.9560    -5.7500    -0.5260 H     1 <1>   0.0800 
 30 H        5.4080    -7.4060    -0.6500 H     1 <1>   0.0800 
 31 H        5.6400    -6.6790     0.9220 H     1 <1>   0.0800 
@<TRIPOS>BOND
  1   1   2  1   
  2   2   3  1   
  3   2   4  1   
  4   2   5  1   
  5   4   6  1   
  6   4   7  1   
  7   4   8  1   
  8   5   9  1   
  9   5  10  1   
 10   5  11  1   
 11   8  12  1   
 12   8  13  1   
 13   8  23  1   
 14  11  14  1   
 15  11  24  1   
 16  11  25  1   
 17  14  15  1   
 18  15  16  ar  
 19  15  17  ar  
 20  16  18  ar  
 21  17  19  ar  
 22  17  26  1   
 23  18  20  ar  
 24  18  21  1   
 25  19  20  ar  
 26  19  22  1   
 27  21  27  1   
 28  21  28  1   
 29  22  29  1   
 30  22  30  1   
 31  22  31  1   
@<TRIPOS>SUBSTRUCTURE
  1 ****  14 GROUP 4 **** **** 0

# MOE 2024.06 (io_trps.svl 2023.06)
