@<TRIPOS>MOLECULE
NONAME
48 51 1 0 0 
SMALL
USER_CHARGES


@<TRIPOS>ATOM
  1 O       -1.1470    -1.3180    -2.8680 O.2   1 <1>  -0.5700 
  2 C       -1.9910    -1.5870    -2.0350 C.2   1 <1>   0.7060 
  3 O       -2.8980    -0.6560    -1.7600 O.3   1 <1>  -0.2330 
  4 C       -2.0600    -2.8310    -1.3270 C.2   1 <1>  -0.1240 
  5 C       -3.9180    -0.8490    -0.9000 C.ar  1 <1>   0.0820 
  6 C       -3.0380    -3.0630    -0.4100 C.2   1 <1>  -0.1670 
  7 C       -0.9620    -3.8430    -1.6630 C.3   1 <1>  -0.0220 
  8 C       -4.0720    -2.0620    -0.2030 C.ar  1 <1>   0.0280 
  9 C       -4.8020     0.2060    -0.7610 C.ar  1 <1>  -0.1500 
 10 C       -3.0410    -4.3650     0.4020 C.3   1 <1>  -0.0220 
 11 C       -1.2740    -5.2500    -1.1510 C.3   1 <1>  -0.1600 
 12 C       -5.2270    -2.1660     0.6110 C.ar  1 <1>   0.0830 
 13 C       -5.8990     0.0950     0.0630 C.ar  1 <1>  -0.1430 
 14 C       -1.7450    -5.1770     0.2980 C.3   1 <1>  -0.1600 
 15 O       -5.4830    -3.3360     1.2520 O.3   1 <1>  -0.3630 
 16 C       -6.1040    -1.0930     0.7390 C.ar  1 <1>  -0.1500 
 17 C       -6.8810     1.2420     0.2240 C.3   1 <1>  -0.0970 
 18 C       -6.6060    -3.5840     2.0800 C.3   1 <1>   0.2630 
 19 C       -7.8960    -3.6630     1.2670 C.ar  1 <1>  -0.1430 
 20 C       -9.0860    -3.2200     1.8250 C.ar  1 <1>  -0.1500 
 21 C       -7.9050    -4.1720    -0.0250 C.ar  1 <1>  -0.1500 
 22 C      -10.2630    -3.2810     1.1010 C.ar  1 <1>  -0.1500 
 23 C       -9.0810    -4.2340    -0.7510 C.ar  1 <1>  -0.1500 
 24 C      -10.2720    -3.7850    -0.1890 C.ar  1 <1>   0.0830 
 25 O      -11.4670    -3.8060    -0.8300 O.3   1 <1>  -0.3630 
 26 C      -11.5770    -4.2800    -2.1540 C.3   1 <1>   0.0400 
 27 H       -0.0380    -3.4990    -1.2310 H     1 <1>   0.0800 
 28 H       -0.8230    -3.8920    -2.7300 H     1 <1>   0.0800 
 29 H       -4.6220     1.1130    -1.3120 H     1 <1>   0.1500 
 30 H       -3.8630    -4.9740     0.0670 H     1 <1>   0.0800 
 31 H       -3.1870    -4.1390     1.4430 H     1 <1>   0.0800 
 32 H       -0.3950    -5.8670    -1.2260 H     1 <1>   0.0800 
 33 H       -2.0460    -5.6910    -1.7590 H     1 <1>   0.0800 
 34 H       -1.9090    -6.1680     0.6840 H     1 <1>   0.0800 
 35 H       -0.9830    -4.7080     0.8970 H     1 <1>   0.0800 
 36 H       -6.9760    -1.1570     1.3600 H     1 <1>   0.1500 
 37 H       -6.6350     2.0550    -0.4340 H     1 <1>   0.0800 
 38 H       -6.8610     1.6010     1.2370 H     1 <1>   0.0800 
 39 H       -7.8770     0.9060    -0.0060 H     1 <1>   0.0800 
 40 H       -6.6520    -2.8130     2.8280 H     1 <1>   0.0800 
 41 H       -6.4360    -4.5260     2.5700 H     1 <1>   0.0800 
 42 H       -9.1070    -2.8250     2.8260 H     1 <1>   0.1500 
 43 H       -6.9890    -4.5200    -0.4720 H     1 <1>   0.1500 
 44 H      -11.1870    -2.9380     1.5310 H     1 <1>   0.1500 
 45 H       -9.0480    -4.6310    -1.7480 H     1 <1>   0.1500 
 46 H      -12.6060    -4.1940    -2.4540 H     1 <1>   0.0800 
 47 H      -11.2730    -5.3110    -2.1820 H     1 <1>   0.0800 
 48 H      -10.9580    -3.6760    -2.7930 H     1 <1>   0.0800 
@<TRIPOS>BOND
  1   1   2  2   
  2   2   3  1   
  3   2   4  1   
  4   3   5  1   
  5   4   6  2   
  6   4   7  1   
  7   5   8  ar  
  8   5   9  ar  
  9   6   8  1   
 10   6  10  1   
 11   7  11  1   
 12   7  27  1   
 13   7  28  1   
 14   8  12  ar  
 15   9  13  ar  
 16   9  29  1   
 17  10  14  1   
 18  10  30  1   
 19  10  31  1   
 20  11  14  1   
 21  11  32  1   
 22  11  33  1   
 23  12  15  1   
 24  12  16  ar  
 25  13  16  ar  
 26  13  17  1   
 27  14  34  1   
 28  14  35  1   
 29  15  18  1   
 30  16  36  1   
 31  17  37  1   
 32  17  38  1   
 33  17  39  1   
 34  18  19  1   
 35  18  40  1   
 36  18  41  1   
 37  19  20  ar  
 38  19  21  ar  
 39  20  22  ar  
 40  20  42  1   
 41  21  23  ar  
 42  21  43  1   
 43  22  24  ar  
 44  22  44  1   
 45  23  24  ar  
 46  23  45  1   
 47  24  25  1   
 48  25  26  1   
 49  26  46  1   
 50  26  47  1   
 51  26  48  1   
@<TRIPOS>SUBSTRUCTURE
  1 ****  12 GROUP 4 **** **** 0

# MOE 2024.06 (io_trps.svl 2023.06)
