@<TRIPOS>MOLECULE
NONAME
46 48 1 0 0 
SMALL
USER_CHARGES


@<TRIPOS>ATOM
  1 O       -0.1860    -0.1350    -0.3160 O.2   1 <1>  -0.5700 
  2 C       -0.0770    -1.3420    -0.2130 C.2   1 <1>   0.5440 
  3 N       -1.2210    -2.0840    -0.1770 N.am  1 <1>  -0.7300 
  4 C        1.2270    -1.9730    -0.1180 C.ar  1 <1>   0.0860 
  5 C       -2.5780    -1.5210    -0.2250 C.3   1 <1>   0.2840 
  6 C        2.3330    -1.2690     0.3590 C.ar  1 <1>  -0.1500 
  7 C        1.4410    -3.3010    -0.4940 C.ar  1 <1>  -0.1500 
  8 C       -3.5580    -2.6590    -0.0090 C.ar  1 <1>  -0.1440 
  9 C        3.5790    -1.8570     0.4670 C.ar  1 <1>  -0.1500 
 10 C        2.6850    -3.8920    -0.3860 C.ar  1 <1>  -0.1500 
 11 C       -4.0700    -3.3560    -1.0930 C.ar  1 <1>  -0.1500 
 12 C       -3.9410    -3.0180     1.2740 C.ar  1 <1>  -0.1500 
 13 C        3.7780    -3.1840     0.1010 C.ar  1 <1>   0.1170 
 14 C       -4.9590    -4.4000    -0.8950 C.ar  1 <1>  -0.1500 
 15 C       -4.8290    -4.0610     1.4730 C.ar  1 <1>  -0.1500 
 16 N        5.0160    -3.8290     0.1820 N.am  1 <1>  -0.5470 
 17 C       -5.3380    -4.7520     0.3880 C.ar  1 <1>  -0.1500 
 18 C        6.1560    -3.5320     0.8810 C.2   1 <1>   0.5690 
 19 O        6.2590    -2.5890     1.6260 O.2   1 <1>  -0.5700 
 20 C        7.3550    -4.4620     0.7120 C.3   1 <1>  -0.0190 
 21 C        7.8680    -4.5860    -0.7360 C.3   1 <1>  -0.1600 
 22 C        7.1020    -5.9000     1.1840 C.3   1 <1>  -0.1600 
 23 C        8.1600    -6.0720    -0.9750 C.3   1 <1>  -0.1600 
 24 C        8.1030    -6.7370     0.3970 C.3   1 <1>  -0.1600 
 25 H       -1.1940    -3.0790     0.0440 H     1 <1>   0.3700 
 26 H       -2.7400    -1.0520    -1.1800 H     1 <1>   0.0800 
 27 H       -2.6870    -0.7740     0.5440 H     1 <1>   0.0800 
 28 H        2.2080    -0.2390     0.6480 H     1 <1>   0.1500 
 29 H        0.6220    -3.8790    -0.8840 H     1 <1>   0.1500 
 30 H        4.4010    -1.2710     0.8370 H     1 <1>   0.1500 
 31 H        2.8100    -4.9170    -0.6840 H     1 <1>   0.1500 
 32 H       -3.7790    -3.0900    -2.0940 H     1 <1>   0.1500 
 33 H       -3.5470    -2.4860     2.1240 H     1 <1>   0.1500 
 34 H       -5.3540    -4.9370    -1.7390 H     1 <1>   0.1500 
 35 H       -5.1240    -4.3340     2.4710 H     1 <1>   0.1500 
 36 H        5.0860    -4.6910    -0.3550 H     1 <1>   0.3700 
 37 H       -6.0300    -5.5620     0.5420 H     1 <1>   0.1500 
 38 H        8.1610    -4.0670     1.3070 H     1 <1>   0.0800 
 39 H        8.7680    -4.0050    -0.8470 H     1 <1>   0.0800 
 40 H        7.1490    -4.2300    -1.4530 H     1 <1>   0.0800 
 41 H        6.1040    -6.2140     0.9320 H     1 <1>   0.0800 
 42 H        7.2410    -5.9990     2.2470 H     1 <1>   0.0800 
 43 H        9.1160    -6.2210    -1.4480 H     1 <1>   0.0800 
 44 H        7.3940    -6.4900    -1.6060 H     1 <1>   0.0800 
 45 H        7.8110    -7.7710     0.3360 H     1 <1>   0.0800 
 46 H        9.0710    -6.6720     0.8670 H     1 <1>   0.0800 
@<TRIPOS>BOND
  1   1   2  2   
  2   2   3  am  
  3   2   4  1   
  4   3   5  1   
  5   3  25  1   
  6   4   6  ar  
  7   4   7  ar  
  8   5   8  1   
  9   5  26  1   
 10   5  27  1   
 11   6   9  ar  
 12   6  28  1   
 13   7  10  ar  
 14   7  29  1   
 15   8  11  ar  
 16   8  12  ar  
 17   9  13  ar  
 18   9  30  1   
 19  10  13  ar  
 20  10  31  1   
 21  11  14  ar  
 22  11  32  1   
 23  12  15  ar  
 24  12  33  1   
 25  13  16  1   
 26  14  17  ar  
 27  14  34  1   
 28  15  17  ar  
 29  15  35  1   
 30  16  18  am  
 31  16  36  1   
 32  17  37  1   
 33  18  19  2   
 34  18  20  1   
 35  20  21  1   
 36  20  22  1   
 37  20  38  1   
 38  21  23  1   
 39  21  39  1   
 40  21  40  1   
 41  22  24  1   
 42  22  41  1   
 43  22  42  1   
 44  23  24  1   
 45  23  43  1   
 46  23  44  1   
 47  24  45  1   
 48  24  46  1   
@<TRIPOS>SUBSTRUCTURE
  1 ****   7 GROUP 4 **** **** 0

# MOE 2024.06 (io_trps.svl 2023.06)
