@<TRIPOS>MOLECULE
NONAME
46 48 1 0 0 
SMALL
USER_CHARGES


@<TRIPOS>ATOM
  1 O       -0.7770     1.0990    -1.7320 O.2   1 <1>  -0.5700 
  2 C       -0.8440     2.0000    -0.9310 C.2   1 <1>   0.5690 
  3 N       -1.8180     2.1740     0.0050 N.am  1 <1>  -0.4200 
  4 C        0.1820     3.1480    -0.8760 C.3   1 <1>   0.2510 
  5 C       -1.6410     3.3470     0.6670 C.2   1 <1>   0.5690 
  6 C       -2.9460     1.2530     0.2940 C.3   1 <1>   0.2200 
  7 N        1.5760     2.7830    -0.4530 N.3   1 <1>  -0.8100 
  8 C       -0.4380     4.1010     0.1600 C.3   1 <1>  -0.0990 
  9 O       -2.3360     3.7750     1.5500 O.2   1 <1>  -0.5700 
 10 C       -2.4310    -0.1210     0.7500 C.3   1 <1>  -0.1600 
 11 C       -3.8840     1.1310    -0.9160 C.3   1 <1>  -0.1600 
 12 C        2.0690     1.5450    -1.1250 C.3   1 <1>   0.1100 
 13 C        2.5370     3.8950    -0.6830 C.3   1 <1>   0.1100 
 14 C       -3.5980    -1.0720     1.0520 C.3   1 <1>  -0.1600 
 15 C       -5.0490     0.1780    -0.6130 C.3   1 <1>  -0.1600 
 16 C        3.5640     1.2480    -0.8570 C.3   1 <1>   0.3430 
 17 C        3.9520     3.5730    -0.1390 C.3   1 <1>   0.3430 
 18 C       -4.5370    -1.1960    -0.1570 C.3   1 <1>  -0.1600 
 19 N        4.0880     2.1250     0.2390 N.4   1 <1>  -0.9590 
 20 C        5.4630     1.7590     0.6850 C.3   1 <1>   0.2630 
 21 H        0.2040     3.6140    -1.8470 H     1 <1>   0.0800 
 22 H       -3.5210     1.6660     1.1070 H     1 <1>   0.0800 
 23 H       -0.7660     5.0140    -0.3000 H     1 <1>   0.0800 
 24 H        0.2180     4.3110     0.9830 H     1 <1>   0.0800 
 25 H       -1.8310    -0.0050     1.6350 H     1 <1>   0.0800 
 26 H       -1.8240    -0.5610    -0.0220 H     1 <1>   0.0800 
 27 H       -3.3430     0.7500    -1.7640 H     1 <1>   0.0800 
 28 H       -4.2760     2.1010    -1.1670 H     1 <1>   0.0800 
 29 H        1.9090     1.6090    -2.1890 H     1 <1>   0.0800 
 30 H        1.5020     0.7020    -0.7690 H     1 <1>   0.0800 
 31 H        2.1870     4.7950    -0.2070 H     1 <1>   0.0800 
 32 H        2.6070     4.0970    -1.7380 H     1 <1>   0.0800 
 33 H       -4.1520    -0.7020     1.8980 H     1 <1>   0.0800 
 34 H       -3.2140    -2.0440     1.3090 H     1 <1>   0.0800 
 35 H       -5.6570     0.0600    -1.4940 H     1 <1>   0.0800 
 36 H       -5.6680     0.6020     0.1600 H     1 <1>   0.0800 
 37 H        4.1260     1.4170    -1.7610 H     1 <1>   0.0800 
 38 H        3.6730     0.2100    -0.5910 H     1 <1>   0.0800 
 39 H        4.1390     4.1870     0.7270 H     1 <1>   0.0800 
 40 H        4.6830     3.8320    -0.8860 H     1 <1>   0.0800 
 41 H       -5.3720    -1.8240     0.0990 H     1 <1>   0.0800 
 42 H       -4.0100    -1.6660    -0.9700 H     1 <1>   0.0800 
 43 H        3.4090     1.9970     1.0080 H     1 <1>   0.4500 
 44 H        6.1670     1.8900    -0.1210 H     1 <1>   0.0800 
 45 H        5.4900     0.7290     1.0020 H     1 <1>   0.0800 
 46 H        5.7660     2.3800     1.5130 H     1 <1>   0.0800 
@<TRIPOS>BOND
  1   1   2  2   
  2   2   3  am  
  3   2   4  1   
  4   3   5  am  
  5   3   6  1   
  6   4   7  1   
  7   4   8  1   
  8   4  21  1   
  9   5   8  1   
 10   5   9  2   
 11   6  10  1   
 12   6  11  1   
 13   6  22  1   
 14   7  12  1   
 15   7  13  1   
 16   8  23  1   
 17   8  24  1   
 18  10  14  1   
 19  10  25  1   
 20  10  26  1   
 21  11  15  1   
 22  11  27  1   
 23  11  28  1   
 24  12  16  1   
 25  12  29  1   
 26  12  30  1   
 27  13  17  1   
 28  13  31  1   
 29  13  32  1   
 30  14  18  1   
 31  14  33  1   
 32  14  34  1   
 33  15  18  1   
 34  15  35  1   
 35  15  36  1   
 36  16  19  1   
 37  16  37  1   
 38  16  38  1   
 39  17  19  1   
 40  17  39  1   
 41  17  40  1   
 42  18  41  1   
 43  18  42  1   
 44  19  20  1   
 45  19  43  1   
 46  20  44  1   
 47  20  45  1   
 48  20  46  1   
@<TRIPOS>SUBSTRUCTURE
  1 ****   2 GROUP 4 **** **** 0

# MOE 2024.06 (io_trps.svl 2023.06)
