@<TRIPOS>MOLECULE
NONAME
51 52 1 0 0 
SMALL
USER_CHARGES


@<TRIPOS>ATOM
  1 O        0.1300    -3.9260    -1.3170 O.2   1 <1>  -0.5700 
  2 C        0.2970    -3.0770    -0.4810 C.2   1 <1>   0.6590 
  3 O       -0.4670    -1.9980    -0.3980 O.3   1 <1>  -0.4300 
  4 C        1.4220    -3.1660     0.5480 C.3   1 <1>  -0.0190 
  5 C       -1.5340    -1.7840    -1.2930 C.3   1 <1>   0.1200 
  6 C        2.6420    -2.3470     0.0900 C.3   1 <1>  -0.1600 
  7 C        1.8420    -4.6230     0.8350 C.3   1 <1>  -0.1600 
  8 C       -2.1980    -0.4600    -0.9300 C.3   1 <1>  -0.2400 
  9 C        3.8090    -2.4600     1.0690 C.3   1 <1>   0.3430 
 10 C        3.0190    -4.7000     1.8050 C.3   1 <1>   0.3430 
 11 N        4.1470    -3.8970     1.2710 N.4   1 <1>  -0.9590 
 12 C        5.3980    -4.0780     2.0530 C.3   1 <1>   0.4860 
 13 C        6.5440    -3.4820     1.2590 C.ar  1 <1>  -0.1430 
 14 C        6.8110    -3.9270    -0.0320 C.ar  1 <1>   0.0820 
 15 C        7.3180    -2.4750     1.8100 C.ar  1 <1>  -0.1500 
 16 O        6.0600    -4.9440    -0.5220 O.3   1 <1>  -0.3620 
 17 C        7.8040    -3.3230    -0.8030 C.ar  1 <1>  -0.1430 
 18 C        8.3370    -1.9020     1.0720 C.ar  1 <1>  -0.1500 
 19 C        6.6890    -6.2090    -0.6050 C.3   1 <1>   0.0400 
 20 C        8.5820    -2.3180    -0.2340 C.ar  1 <1>   0.0820 
 21 C        8.0470    -3.7210    -2.2600 C.3   1 <1>  -0.0970 
 22 O        9.5670    -1.7730    -0.9960 O.3   1 <1>  -0.3630 
 23 C       10.4470    -0.7880    -0.5000 C.3   1 <1>   0.0400 
 24 H        1.0460    -2.7390     1.4620 H     1 <1>   0.0800 
 25 H       -2.2280    -2.6030    -1.2000 H     1 <1>   0.0800 
 26 H       -1.1400    -1.7570    -2.2950 H     1 <1>   0.0800 
 27 H        2.3640    -1.3110    -0.0020 H     1 <1>   0.0800 
 28 H        2.9640    -2.6790    -0.8820 H     1 <1>   0.0800 
 29 H        2.1140    -5.1170    -0.0830 H     1 <1>   0.0800 
 30 H        1.0070    -5.1600     1.2500 H     1 <1>   0.0800 
 31 H       -2.5790    -0.4980     0.0750 H     1 <1>   0.0800 
 32 H       -3.0180    -0.2720    -1.5980 H     1 <1>   0.0800 
 33 H       -1.4930     0.3470    -1.0190 H     1 <1>   0.0800 
 34 H        3.5410    -2.0100     2.0110 H     1 <1>   0.0800 
 35 H        4.6610    -1.9310     0.6690 H     1 <1>   0.0800 
 36 H        3.3190    -5.7300     1.9210 H     1 <1>   0.0800 
 37 H        2.7210    -4.3190     2.7690 H     1 <1>   0.0800 
 38 H        4.4020    -4.2690     0.3370 H     1 <1>   0.4500 
 39 H        5.5880    -5.1280     2.2060 H     1 <1>   0.0800 
 40 H        5.3140    -3.5960     3.0130 H     1 <1>   0.0800 
 41 H        7.1420    -2.1230     2.8130 H     1 <1>   0.1500 
 42 H        8.9270    -1.1300     1.5280 H     1 <1>   0.1500 
 43 H        7.5400    -6.1480    -1.2590 H     1 <1>   0.0800 
 44 H        5.9810    -6.9160    -0.9980 H     1 <1>   0.0800 
 45 H        7.0060    -6.5090     0.3790 H     1 <1>   0.0800 
 46 H        7.2000    -4.2320    -2.6790 H     1 <1>   0.0800 
 47 H        8.9110    -4.3570    -2.3250 H     1 <1>   0.0800 
 48 H        8.2220    -2.8470    -2.8610 H     1 <1>   0.0800 
 49 H       10.9760    -1.1870     0.3470 H     1 <1>   0.0800 
 50 H        9.8790     0.0840    -0.2280 H     1 <1>   0.0800 
 51 H       11.1430    -0.5400    -1.2810 H     1 <1>   0.0800 
@<TRIPOS>BOND
  1   1   2  2   
  2   2   3  1   
  3   2   4  1   
  4   3   5  1   
  5   4   6  1   
  6   4   7  1   
  7   4  24  1   
  8   5   8  1   
  9   5  25  1   
 10   5  26  1   
 11   6   9  1   
 12   6  27  1   
 13   6  28  1   
 14   7  10  1   
 15   7  29  1   
 16   7  30  1   
 17   8  31  1   
 18   8  32  1   
 19   8  33  1   
 20   9  11  1   
 21   9  34  1   
 22   9  35  1   
 23  10  11  1   
 24  10  36  1   
 25  10  37  1   
 26  11  12  1   
 27  11  38  1   
 28  12  13  1   
 29  12  39  1   
 30  12  40  1   
 31  13  14  ar  
 32  13  15  ar  
 33  14  16  1   
 34  14  17  ar  
 35  15  18  ar  
 36  15  41  1   
 37  16  19  1   
 38  17  20  ar  
 39  17  21  1   
 40  18  20  ar  
 41  18  42  1   
 42  19  43  1   
 43  19  44  1   
 44  19  45  1   
 45  20  22  1   
 46  21  46  1   
 47  21  47  1   
 48  21  48  1   
 49  22  23  1   
 50  23  49  1   
 51  23  50  1   
 52  23  51  1   
@<TRIPOS>SUBSTRUCTURE
  1 ****   9 GROUP 4 **** **** 0

# MOE 2024.06 (io_trps.svl 2023.06)
