@<TRIPOS>MOLECULE
NONAME
49 51 1 0 0 
SMALL
USER_CHARGES


@<TRIPOS>ATOM
  1 CL       3.5160    -2.5030    -2.3740 Cl    1 <1>  -0.1770 
  2 C        1.7800    -2.3330    -2.1790 C.ar  1 <1>   0.1770 
  3 C        1.1480    -2.7130    -0.9870 C.ar  1 <1>   0.1000 
  4 C        1.0700    -1.8130    -3.2440 C.ar  1 <1>  -0.1500 
  5 N        1.8040    -3.2440     0.1310 N.pl3 1 <1>  -0.8380 
  6 C       -0.2300    -2.5470    -0.9130 C.ar  1 <1>  -0.1500 
  7 C       -0.3020    -1.6590    -3.1430 C.ar  1 <1>  -0.1500 
  8 C        2.6850    -2.2980     0.8840 C.3   1 <1>   0.2090 
  9 C        2.3880    -4.6100    -0.0350 C.3   1 <1>   0.2090 
 10 C       -0.9490    -2.0270    -1.9750 C.ar  1 <1>  -0.1500 
 11 C        3.1130    -2.8990     2.2380 C.3   1 <1>   0.3430 
 12 C        2.8310    -5.1960     1.3230 C.3   1 <1>   0.3430 
 13 N        3.7390    -4.2590     2.0710 N.4   1 <1>  -0.9590 
 14 C        4.2910    -4.8260     3.3340 C.3   1 <1>   0.3430 
 15 C        5.7080    -4.2790     3.6240 C.3   1 <1>   0.1400 
 16 N        6.6750    -4.5710     2.5190 N.am  1 <1>  -0.7300 
 17 C        6.8280    -3.8280     1.3940 C.2   1 <1>   0.6900 
 18 O        5.9770    -3.0070     1.1150 O.2   1 <1>  -0.5700 
 19 N        7.9060    -4.0610     0.5980 N.am  1 <1>  -0.5470 
 20 C        8.2100    -3.5750    -0.6820 C.ar  1 <1>   0.1170 
 21 C        7.2370    -3.1570    -1.5860 C.ar  1 <1>  -0.1500 
 22 C        9.5410    -3.5280    -1.0800 C.ar  1 <1>  -0.1500 
 23 C        7.5840    -2.7010    -2.8450 C.ar  1 <1>  -0.1500 
 24 C        9.8930    -3.0730    -2.3380 C.ar  1 <1>  -0.1500 
 25 C        8.9140    -2.6580    -3.2230 C.ar  1 <1>  -0.1500 
 26 H        1.5870    -1.5310    -4.1440 H     1 <1>   0.1500 
 27 H       -0.7380    -2.8310    -0.0100 H     1 <1>   0.1500 
 28 H       -0.8640    -1.2540    -3.9680 H     1 <1>   0.1500 
 29 H        2.1540    -1.3760     1.0530 H     1 <1>   0.0800 
 30 H        3.5630    -2.0700     0.3040 H     1 <1>   0.0800 
 31 H        3.2360    -4.5690    -0.6950 H     1 <1>   0.0800 
 32 H        1.6530    -5.2580    -0.4810 H     1 <1>   0.0800 
 33 H       -2.0160    -1.9080    -1.8940 H     1 <1>   0.1500 
 34 H        2.2450    -2.9710     2.8710 H     1 <1>   0.0800 
 35 H        3.8180    -2.2290     2.7020 H     1 <1>   0.0800 
 36 H        3.3330    -6.1330     1.1500 H     1 <1>   0.0800 
 37 H        1.9500    -5.3910     1.9110 H     1 <1>   0.0800 
 38 H        4.5650    -4.0700     1.4640 H     1 <1>   0.4500 
 39 H        4.3580    -5.8980     3.2520 H     1 <1>   0.0800 
 40 H        3.6340    -4.5980     4.1570 H     1 <1>   0.0800 
 41 H        6.0760    -4.7210     4.5340 H     1 <1>   0.0800 
 42 H        5.6570    -3.2140     3.7800 H     1 <1>   0.0800 
 43 H        7.4110    -5.2430     2.7460 H     1 <1>   0.3700 
 44 H        8.6540    -4.5930     1.0310 H     1 <1>   0.3700 
 45 H        6.1980    -3.1860    -1.3180 H     1 <1>   0.1500 
 46 H       10.3140    -3.8440    -0.4040 H     1 <1>   0.1500 
 47 H        6.8180    -2.3780    -3.5290 H     1 <1>   0.1500 
 48 H       10.9280    -3.0390    -2.6320 H     1 <1>   0.1500 
 49 H        9.1840    -2.3020    -4.2020 H     1 <1>   0.1500 
@<TRIPOS>BOND
  1   1   2  1   
  2   2   3  ar  
  3   2   4  ar  
  4   3   5  1   
  5   3   6  ar  
  6   4   7  ar  
  7   4  26  1   
  8   5   8  1   
  9   5   9  1   
 10   6  10  ar  
 11   6  27  1   
 12   7  10  ar  
 13   7  28  1   
 14   8  11  1   
 15   8  29  1   
 16   8  30  1   
 17   9  12  1   
 18   9  31  1   
 19   9  32  1   
 20  10  33  1   
 21  11  13  1   
 22  11  34  1   
 23  11  35  1   
 24  12  13  1   
 25  12  36  1   
 26  12  37  1   
 27  13  14  1   
 28  13  38  1   
 29  14  15  1   
 30  14  39  1   
 31  14  40  1   
 32  15  16  1   
 33  15  41  1   
 34  15  42  1   
 35  16  17  am  
 36  16  43  1   
 37  17  18  2   
 38  17  19  am  
 39  19  20  1   
 40  19  44  1   
 41  20  21  ar  
 42  20  22  ar  
 43  21  23  ar  
 44  21  45  1   
 45  22  24  ar  
 46  22  46  1   
 47  23  25  ar  
 48  23  47  1   
 49  24  25  ar  
 50  24  48  1   
 51  25  49  1   
@<TRIPOS>SUBSTRUCTURE
  1 ****  18 GROUP 4 **** **** 0

# MOE 2024.06 (io_trps.svl 2023.06)
