@<TRIPOS>MOLECULE
NONAME
43 44 1 0 0 
SMALL
USER_CHARGES


@<TRIPOS>ATOM
  1 S       -0.3560    -0.8800     1.3640 S.3   1 <1>  -0.3320 
  2 C       -1.6100     0.2550     0.8030 C.ar  1 <1>   0.7220 
  3 C        1.2090     0.1120     1.3150 C.3   1 <1>   0.1310 
  4 N       -2.8100    -0.2090     0.7200 N.ar  1 <1>  -0.6200 
  5 N       -1.1690     1.4950     0.5160 N.ar  1 <1>  -0.6200 
  6 C        2.3860    -0.7550     1.7320 C.2   1 <1>   0.4480 
  7 C       -3.7490     0.6570     0.2900 C.ar  1 <1>   0.3100 
  8 C       -2.0600     2.3310     0.1020 C.ar  1 <1>   0.1660 
  9 O        3.0300    -0.4960     2.7050 O.2   1 <1>  -0.5700 
 10 C        2.7280    -1.9620     0.8900 C.3   1 <1>  -0.0380 
 11 C       -3.4200     1.9780    -0.0440 C.ar  1 <1>   0.0000 
 12 C       -5.0780     0.2340     0.1720 C.ar  1 <1>  -0.1500 
 13 C       -1.5880     3.7350    -0.2300 C.3   1 <1>  -0.0960 
 14 C        3.5070    -1.5220    -0.3170 C.2   1 <1>   0.6590 
 15 C       -4.4530     2.8300    -0.4900 C.ar  1 <1>  -0.1500 
 16 C       -6.0720     1.0740    -0.2620 C.ar  1 <1>  -0.1440 
 17 O        3.1190    -0.6350    -1.0320 O.2   1 <1>  -0.5700 
 18 O        4.6310    -2.1820    -0.5570 O.3   1 <1>  -0.4300 
 19 C       -5.7510     2.3990    -0.5990 C.ar  1 <1>  -0.1430 
 20 C       -7.5000     0.5570    -0.3700 C.3   1 <1>  -0.0970 
 21 C        5.4490    -1.8660    -1.6600 C.3   1 <1>   0.1200 
 22 C       -6.8260     3.3610    -1.0860 C.3   1 <1>  -0.0970 
 23 C        6.6500    -2.8060    -1.6430 C.3   1 <1>  -0.2400 
 24 H        1.0850     0.9320     1.9980 H     1 <1>   0.0800 
 25 H        1.3260     0.4870     0.3150 H     1 <1>   0.0800 
 26 H        1.8430    -2.4770     0.5750 H     1 <1>   0.0800 
 27 H        3.3270    -2.6370     1.4730 H     1 <1>   0.0800 
 28 H       -5.2890    -0.7860     0.4380 H     1 <1>   0.1500 
 29 H       -0.5310     3.8270    -0.0580 H     1 <1>   0.0800 
 30 H       -2.0970     4.4490     0.3910 H     1 <1>   0.0800 
 31 H       -1.7850     3.9530    -1.2630 H     1 <1>   0.0800 
 32 H       -4.2080     3.8430    -0.7480 H     1 <1>   0.1500 
 33 H       -7.5590    -0.4750    -0.0720 H     1 <1>   0.0800 
 34 H       -7.8460     0.6330    -1.3850 H     1 <1>   0.0800 
 35 H       -8.1500     1.1280     0.2680 H     1 <1>   0.0800 
 36 H        5.7600    -0.8380    -1.5710 H     1 <1>   0.0800 
 37 H        4.8710    -1.9920    -2.5610 H     1 <1>   0.0800 
 38 H       -6.4120     4.3290    -1.2990 H     1 <1>   0.0800 
 39 H       -7.5840     3.4790    -0.3320 H     1 <1>   0.0800 
 40 H       -7.2800     2.9840    -1.9840 H     1 <1>   0.0800 
 41 H        7.2090    -2.6750    -0.7340 H     1 <1>   0.0800 
 42 H        7.2940    -2.5860    -2.4750 H     1 <1>   0.0800 
 43 H        6.3240    -3.8270    -1.7220 H     1 <1>   0.0800 
@<TRIPOS>BOND
  1   1   2  1   
  2   1   3  1   
  3   2   4  ar  
  4   2   5  ar  
  5   3   6  1   
  6   3  24  1   
  7   3  25  1   
  8   4   7  ar  
  9   5   8  ar  
 10   6   9  2   
 11   6  10  1   
 12   7  11  ar  
 13   7  12  ar  
 14   8  11  ar  
 15   8  13  1   
 16  10  14  1   
 17  10  26  1   
 18  10  27  1   
 19  11  15  ar  
 20  12  16  ar  
 21  12  28  1   
 22  13  29  1   
 23  13  30  1   
 24  13  31  1   
 25  14  17  2   
 26  14  18  1   
 27  15  19  ar  
 28  15  32  1   
 29  16  19  ar  
 30  16  20  1   
 31  18  21  1   
 32  19  22  1   
 33  20  33  1   
 34  20  34  1   
 35  20  35  1   
 36  21  23  1   
 37  21  36  1   
 38  21  37  1   
 39  22  38  1   
 40  22  39  1   
 41  22  40  1   
 42  23  41  1   
 43  23  42  1   
 44  23  43  1   
@<TRIPOS>SUBSTRUCTURE
  1 ****   2 GROUP 4 **** **** 0

# MOE 2024.06 (io_trps.svl 2023.06)
