@<TRIPOS>MOLECULE
NONAME
37 38 1 0 0 
SMALL
USER_CHARGES


@<TRIPOS>ATOM
  1 CL       0.4520     0.2730     0.2040 Cl    1 <1>  -0.1770 
  2 C        1.9470    -0.6130     0.0250 C.ar  1 <1>   0.1770 
  3 C        3.1380    -0.0680     0.4700 C.ar  1 <1>   0.1600 
  4 C        1.9360    -1.8600    -0.5600 C.ar  1 <1>  -0.1500 
  5 N        4.3170    -0.6700     0.3750 N.ar  1 <1>  -0.6200 
  6 C        3.1550    -2.4930    -0.6640 C.ar  1 <1>  -0.1500 
  7 C        4.3140    -1.8710    -0.1900 C.ar  1 <1>   0.4270 
  8 N        5.5730    -2.4270    -0.2500 N.am  1 <1>  -0.5470 
  9 C        6.0650    -3.5870    -0.7770 C.2   1 <1>   0.5690 
 10 O        5.3760    -4.3990    -1.3430 O.2   1 <1>  -0.5700 
 11 C        7.5490    -3.8860    -0.6340 C.3   1 <1>   0.1310 
 12 S        8.5410    -2.3320    -0.3810 S.3   1 <1>  -0.2860 
 13 C       10.2110    -2.9610    -0.1590 C.2   1 <1>   0.2430 
 14 N       10.4830    -4.2160    -0.1680 N.2   1 <1>  -0.3380 
 15 N       11.2750    -2.1770     0.0360 N.pl3 1 <1>   0.0480 
 16 N       11.7970    -4.3020     0.0370 N.2   1 <1>  -0.3380 
 17 C       12.2520    -3.0990     0.1570 C.2   1 <1>   0.0060 
 18 C       11.2750    -0.6860     0.1120 C.3   1 <1>   0.1760 
 19 C       13.7230    -2.8190     0.4050 C.3   1 <1>  -0.0600 
 20 C       12.3440    -0.0570    -0.7910 C.3   1 <1>  -0.2400 
 21 C       11.4220    -0.2190     1.5640 C.3   1 <1>  -0.2400 
 22 H        3.1130     0.9070     0.9230 H     1 <1>   0.1500 
 23 H        1.0220    -2.3040    -0.9130 H     1 <1>   0.1500 
 24 H        3.2040    -3.4670    -1.1110 H     1 <1>   0.1500 
 25 H        6.2680    -1.8020     0.1550 H     1 <1>   0.3700 
 26 H        7.9250    -4.3600    -1.5220 H     1 <1>   0.0800 
 27 H        7.7240    -4.5200     0.2150 H     1 <1>   0.0800 
 28 H       10.3220    -0.3410    -0.2470 H     1 <1>   0.0800 
 29 H       13.8500    -2.1380     1.2250 H     1 <1>   0.0800 
 30 H       14.1760    -2.4120    -0.4800 H     1 <1>   0.0800 
 31 H       14.2290    -3.7370     0.6480 H     1 <1>   0.0800 
 32 H       13.3320    -0.2110    -0.4000 H     1 <1>   0.0800 
 33 H       12.1800     1.0040    -0.8540 H     1 <1>   0.0800 
 34 H       12.2800    -0.4640    -1.7850 H     1 <1>   0.0800 
 35 H       12.3760    -0.5020     1.9700 H     1 <1>   0.0800 
 36 H       10.6410    -0.6430     2.1700 H     1 <1>   0.0800 
 37 H       11.3400     0.8520     1.6140 H     1 <1>   0.0800 
@<TRIPOS>BOND
  1   1   2  1   
  2   2   3  ar  
  3   2   4  ar  
  4   3   5  ar  
  5   3  22  1   
  6   4   6  ar  
  7   4  23  1   
  8   5   7  ar  
  9   6   7  ar  
 10   6  24  1   
 11   7   8  1   
 12   8   9  am  
 13   8  25  1   
 14   9  10  2   
 15   9  11  1   
 16  11  12  1   
 17  11  26  1   
 18  11  27  1   
 19  12  13  1   
 20  13  14  2   
 21  13  15  1   
 22  14  16  1   
 23  15  17  1   
 24  15  18  1   
 25  16  17  2   
 26  17  19  1   
 27  18  20  1   
 28  18  21  1   
 29  18  28  1   
 30  19  29  1   
 31  19  30  1   
 32  19  31  1   
 33  20  32  1   
 34  20  33  1   
 35  20  34  1   
 36  21  35  1   
 37  21  36  1   
 38  21  37  1   
@<TRIPOS>SUBSTRUCTURE
  1 ****  12 GROUP 4 **** **** 0

# MOE 2024.06 (io_trps.svl 2023.06)
