@<TRIPOS>MOLECULE
NONAME
44 46 1 0 0 
SMALL
USER_CHARGES


@<TRIPOS>ATOM
  1 F        1.4950    -1.0130    -1.2890 F     1 <1>  -0.1900 
  2 C        2.1920    -0.2970    -0.4490 C.ar  1 <1>   0.1900 
  3 C        3.0390     0.6720    -0.9450 C.ar  1 <1>  -0.1500 
  4 C        2.0540    -0.5400     0.9030 C.ar  1 <1>  -0.1500 
  5 C        3.8000     1.4400    -0.0670 C.ar  1 <1>   0.0860 
  6 C        2.7950     0.2240     1.7870 C.ar  1 <1>  -0.1500 
  7 C        4.7060     2.4570    -0.5670 C.2   1 <1>   0.5440 
  8 C        3.6510     1.2010     1.3030 C.ar  1 <1>  -0.1500 
  9 O        4.2920     3.2780    -1.3620 O.2   1 <1>  -0.5700 
 10 N        6.0270     2.5130    -0.1740 N.am  1 <1>  -0.6600 
 11 C        6.9100     3.6670    -0.5400 C.3   1 <1>   0.1400 
 12 C        6.7860     1.3460     0.3790 C.3   1 <1>   0.1400 
 13 C        8.0350     3.2400    -1.4980 C.3   1 <1>   0.2090 
 14 C        7.9190     0.9030    -0.5660 C.3   1 <1>   0.2090 
 15 N        8.7770     2.0420    -1.0030 N.pl3 1 <1>  -0.8380 
 16 C        9.9990     2.2350    -0.3590 C.ar  1 <1>   0.1000 
 17 C       11.2000     1.9060    -0.9880 C.ar  1 <1>  -0.1430 
 18 C       10.0410     2.7570     0.9290 C.ar  1 <1>  -0.1500 
 19 C       12.4030     2.1020    -0.3280 C.ar  1 <1>  -0.1500 
 20 C       11.1980     1.3320    -2.3970 C.3   1 <1>  -0.0970 
 21 C       11.2440     2.9510     1.5810 C.ar  1 <1>  -0.1500 
 22 C       12.4350     2.6240     0.9550 C.ar  1 <1>  -0.1430 
 23 C       13.7600     2.8310     1.6640 C.3   1 <1>  -0.0970 
 24 H        3.1120     0.8360    -2.0060 H     1 <1>   0.1500 
 25 H        1.3810    -1.3050     1.2500 H     1 <1>   0.1500 
 26 H        2.7010     0.0620     2.8480 H     1 <1>   0.1500 
 27 H        4.2180     1.7990     1.9960 H     1 <1>   0.1500 
 28 H        7.3470     4.0710     0.3550 H     1 <1>   0.0800 
 29 H        6.3370     4.4530    -1.0000 H     1 <1>   0.0800 
 30 H        6.1350     0.5080     0.5430 H     1 <1>   0.0800 
 31 H        7.2110     1.6220     1.3270 H     1 <1>   0.0800 
 32 H        8.7220     4.0570    -1.6290 H     1 <1>   0.0800 
 33 H        7.6080     3.0120    -2.4590 H     1 <1>   0.0800 
 34 H        7.4900     0.4420    -1.4380 H     1 <1>   0.0800 
 35 H        8.5290     0.1670    -0.0720 H     1 <1>   0.0800 
 36 H        9.1250     3.0130     1.4210 H     1 <1>   0.1500 
 37 H       13.3260     1.8460    -0.8150 H     1 <1>   0.1500 
 38 H       10.7250     2.0270    -3.0680 H     1 <1>   0.0800 
 39 H       10.6450     0.4110    -2.4110 H     1 <1>   0.0800 
 40 H       12.1970     1.1420    -2.7440 H     1 <1>   0.0800 
 41 H       11.2500     3.3550     2.5770 H     1 <1>   0.1500 
 42 H       14.0550     1.9210     2.1540 H     1 <1>   0.0800 
 43 H       13.6780     3.6110     2.3990 H     1 <1>   0.0800 
 44 H       14.5220     3.1100     0.9580 H     1 <1>   0.0800 
@<TRIPOS>BOND
  1   1   2  1   
  2   2   3  ar  
  3   2   4  ar  
  4   3   5  ar  
  5   3  24  1   
  6   4   6  ar  
  7   4  25  1   
  8   5   7  1   
  9   5   8  ar  
 10   6   8  ar  
 11   6  26  1   
 12   7   9  2   
 13   7  10  am  
 14   8  27  1   
 15  10  11  1   
 16  10  12  1   
 17  11  13  1   
 18  11  28  1   
 19  11  29  1   
 20  12  14  1   
 21  12  30  1   
 22  12  31  1   
 23  13  15  1   
 24  13  32  1   
 25  13  33  1   
 26  14  15  1   
 27  14  34  1   
 28  14  35  1   
 29  15  16  1   
 30  16  17  ar  
 31  16  18  ar  
 32  17  19  ar  
 33  17  20  1   
 34  18  21  ar  
 35  18  36  1   
 36  19  22  ar  
 37  19  37  1   
 38  20  38  1   
 39  20  39  1   
 40  20  40  1   
 41  21  22  ar  
 42  21  41  1   
 43  22  23  1   
 44  23  42  1   
 45  23  43  1   
 46  23  44  1   
@<TRIPOS>SUBSTRUCTURE
  1 ****  12 GROUP 4 **** **** 0

# MOE 2024.06 (io_trps.svl 2023.06)
