@<TRIPOS>MOLECULE
NONAME
52 55 1 0 0 
SMALL
USER_CHARGES


@<TRIPOS>ATOM
  1 O        3.5910    -1.6370     2.9370 O.3   1 <1>  -0.3630 
  2 C        3.6500    -1.2840     1.6490 C.ar  1 <1>   0.0830 
  3 C        2.3120    -2.2360     3.1380 C.3   1 <1>   0.4000 
  4 C        2.4990    -1.6410     1.0110 C.ar  1 <1>   0.0830 
  5 C        4.6780    -0.6530     0.9800 C.ar  1 <1>  -0.1500 
  6 O        1.6610    -2.2320     1.8680 O.3   1 <1>  -0.3630 
  7 C        2.3130    -1.3880    -0.3330 C.ar  1 <1>  -0.1500 
  8 C        4.5200    -0.3900    -0.3780 C.ar  1 <1>  -0.1440 
  9 C        3.3390    -0.7560    -1.0250 C.ar  1 <1>  -0.1500 
 10 C        5.6450     0.2880    -1.1460 C.3   1 <1>   0.2540 
 11 N        6.8730    -0.5270    -1.0690 N.3   1 <1>  -0.8100 
 12 C        6.7100    -1.8630    -1.7010 C.3   1 <1>   0.1100 
 13 C        8.0500     0.1770    -1.6310 C.3   1 <1>   0.1100 
 14 C        7.9830    -2.7340    -1.5620 C.3   1 <1>   0.3430 
 15 C        9.3450    -0.6660    -1.5120 C.3   1 <1>   0.3430 
 16 N        9.0620    -1.9820    -0.8500 N.4   1 <1>  -0.9590 
 17 C       10.2670    -2.7770    -0.5100 C.3   1 <1>   0.4860 
 18 C       11.1690    -1.9290     0.3660 C.ar  1 <1>  -0.1430 
 19 C       10.8390    -1.6130     1.6820 C.ar  1 <1>  -0.1430 
 20 C       12.3510    -1.4470    -0.1800 C.ar  1 <1>  -0.1500 
 21 C       11.6920    -0.8030     2.4160 C.ar  1 <1>  -0.1500 
 22 C        9.5740    -2.1200     2.3650 C.3   1 <1>  -0.0970 
 23 C       13.1930    -0.6440     0.5660 C.ar  1 <1>  -0.1500 
 24 C       12.8640    -0.3130     1.8670 C.ar  1 <1>  -0.1430 
 25 C       13.7840     0.5690     2.6910 C.3   1 <1>  -0.0970 
 26 H        1.7440    -1.6470     3.8350 H     1 <1>   0.0800 
 27 H        2.4350    -3.2490     3.4780 H     1 <1>   0.0800 
 28 H        5.5750    -0.3800     1.5050 H     1 <1>   0.1500 
 29 H        1.3960    -1.6750    -0.8160 H     1 <1>   0.1500 
 30 H        3.2090    -0.5500    -2.0730 H     1 <1>   0.1500 
 31 H        5.8250     1.2530    -0.7040 H     1 <1>   0.0800 
 32 H        5.3620     0.4360    -2.1740 H     1 <1>   0.0800 
 33 H        6.4670    -1.7490    -2.7440 H     1 <1>   0.0800 
 34 H        5.8920    -2.3890    -1.2370 H     1 <1>   0.0800 
 35 H        8.1950     1.1050    -1.1020 H     1 <1>   0.0800 
 36 H        7.8770     0.4180    -2.6660 H     1 <1>   0.0800 
 37 H        8.3200    -3.0310    -2.5410 H     1 <1>   0.0800 
 38 H        7.7320    -3.6270    -1.0130 H     1 <1>   0.0800 
 39 H       10.0660    -0.1100    -0.9340 H     1 <1>   0.0800 
 40 H        9.7620    -0.8240    -2.4930 H     1 <1>   0.0800 
 41 H        8.6250    -1.6890     0.0370 H     1 <1>   0.4500 
 42 H       10.7890    -3.0630    -1.4080 H     1 <1>   0.0800 
 43 H        9.9870    -3.6710     0.0230 H     1 <1>   0.0800 
 44 H       12.6350    -1.6890    -1.1890 H     1 <1>   0.1500 
 45 H       11.4470    -0.5470     3.4330 H     1 <1>   0.1500 
 46 H        9.3680    -3.1410     2.0980 H     1 <1>   0.0800 
 47 H        8.7330    -1.5030     2.1030 H     1 <1>   0.0800 
 48 H        9.6870    -2.0870     3.4350 H     1 <1>   0.0800 
 49 H       14.1080    -0.2770     0.1320 H     1 <1>   0.1500 
 50 H       13.2150     1.1710     3.3770 H     1 <1>   0.0800 
 51 H       14.3500     1.2260     2.0550 H     1 <1>   0.0800 
 52 H       14.4680    -0.0420     3.2520 H     1 <1>   0.0800 
@<TRIPOS>BOND
  1   1   2  1   
  2   1   3  1   
  3   2   4  ar  
  4   2   5  ar  
  5   3   6  1   
  6   3  26  1   
  7   3  27  1   
  8   4   6  1   
  9   4   7  ar  
 10   5   8  ar  
 11   5  28  1   
 12   7   9  ar  
 13   7  29  1   
 14   8   9  ar  
 15   8  10  1   
 16   9  30  1   
 17  10  11  1   
 18  10  31  1   
 19  10  32  1   
 20  11  12  1   
 21  11  13  1   
 22  12  14  1   
 23  12  33  1   
 24  12  34  1   
 25  13  15  1   
 26  13  35  1   
 27  13  36  1   
 28  14  16  1   
 29  14  37  1   
 30  14  38  1   
 31  15  16  1   
 32  15  39  1   
 33  15  40  1   
 34  16  17  1   
 35  16  41  1   
 36  17  18  1   
 37  17  42  1   
 38  17  43  1   
 39  18  19  ar  
 40  18  20  ar  
 41  19  21  ar  
 42  19  22  1   
 43  20  23  ar  
 44  20  44  1   
 45  21  24  ar  
 46  21  45  1   
 47  22  46  1   
 48  22  47  1   
 49  22  48  1   
 50  23  24  ar  
 51  23  49  1   
 52  24  25  1   
 53  25  50  1   
 54  25  51  1   
 55  25  52  1   
@<TRIPOS>SUBSTRUCTURE
  1 ****  11 GROUP 4 **** **** 0

# MOE 2024.06 (io_trps.svl 2023.06)
