@<TRIPOS>MOLECULE
NONAME
38 39 1 0 0 
SMALL
USER_CHARGES


@<TRIPOS>ATOM
  1 S       -1.4920    -0.5480     0.5280 S.3   1 <1>  -0.0800 
  2 C       -1.9540     1.0590    -0.0120 C.2   1 <1>  -0.1400 
  3 C       -0.6570     0.1140     1.9190 C.2   1 <1>  -0.1100 
  4 C       -1.4830     2.0000     0.8300 C.2   1 <1>  -0.1810 
  5 C       -2.7750     1.1360    -1.2800 C.3   1 <1>   0.5230 
  6 C       -0.7450     1.4560     1.9300 C.2   1 <1>  -0.1500 
  7 C       -1.6570     3.5050     0.7170 C.3   1 <1>  -0.0590 
  8 N       -4.1990     1.3070    -0.9100 N.4   1 <1>  -0.9590 
  9 C       -4.7370     0.1920    -0.0810 C.3   1 <1>   0.4860 
 10 C       -5.0560     1.7010    -2.0660 C.3   1 <1>   0.3430 
 11 C       -6.1410     0.5370     0.3720 C.ar  1 <1>  -0.1440 
 12 C       -5.8010     3.0080    -1.7290 C.3   1 <1>   0.1200 
 13 C       -7.2400    -0.0790    -0.2110 C.ar  1 <1>  -0.1500 
 14 C       -6.3370     1.4820     1.3690 C.ar  1 <1>  -0.1500 
 15 O       -4.9790     3.8340    -0.9540 O.3   1 <1>  -0.6800 
 16 C       -8.5210     0.2590     0.1890 C.ar  1 <1>  -0.1500 
 17 C       -7.6190     1.8190     1.7670 C.ar  1 <1>  -0.1500 
 18 C       -8.7100     1.2100     1.1760 C.ar  1 <1>  -0.1500 
 19 H       -0.1790    -0.5790     2.5900 H     1 <1>   0.1500 
 20 H       -2.6330     0.2450    -1.8690 H     1 <1>   0.0800 
 21 H       -2.4470     1.9870    -1.8540 H     1 <1>   0.0800 
 22 H       -0.3120     2.0950     2.6810 H     1 <1>   0.1500 
 23 H       -2.2130     3.7710    -0.1630 H     1 <1>   0.0800 
 24 H       -0.6920     3.9800     0.6670 H     1 <1>   0.0800 
 25 H       -2.1780     3.8810     1.5800 H     1 <1>   0.0800 
 26 H       -4.2240     2.1540    -0.3140 H     1 <1>   0.4500 
 27 H       -4.1180     0.0450     0.7900 H     1 <1>   0.0800 
 28 H       -4.7470    -0.7240    -0.6480 H     1 <1>   0.0800 
 29 H       -5.7640     0.9250    -2.3070 H     1 <1>   0.0800 
 30 H       -4.4450     1.8760    -2.9350 H     1 <1>   0.0800 
 31 H       -6.6950     2.7980    -1.1650 H     1 <1>   0.0800 
 32 H       -6.0740     3.5310    -2.6290 H     1 <1>   0.0800 
 33 H       -7.1160    -0.8280    -0.9750 H     1 <1>   0.1500 
 34 H       -5.5000     1.9650     1.8450 H     1 <1>   0.1500 
 35 H       -5.4320     4.6850    -0.7620 H     1 <1>   0.4000 
 36 H       -9.3740    -0.2190    -0.2620 H     1 <1>   0.1500 
 37 H       -7.7700     2.5520     2.5420 H     1 <1>   0.1500 
 38 H       -9.7070     1.4710     1.4880 H     1 <1>   0.1500 
@<TRIPOS>BOND
  1   1   2  1   
  2   1   3  1   
  3   2   4  2   
  4   2   5  1   
  5   3   6  2   
  6   3  19  1   
  7   4   6  1   
  8   4   7  1   
  9   5   8  1   
 10   5  20  1   
 11   5  21  1   
 12   6  22  1   
 13   7  23  1   
 14   7  24  1   
 15   7  25  1   
 16   8   9  1   
 17   8  10  1   
 18   8  26  1   
 19   9  11  1   
 20   9  27  1   
 21   9  28  1   
 22  10  12  1   
 23  10  29  1   
 24  10  30  1   
 25  11  13  ar  
 26  11  14  ar  
 27  12  15  1   
 28  12  31  1   
 29  12  32  1   
 30  13  16  ar  
 31  13  33  1   
 32  14  17  ar  
 33  14  34  1   
 34  15  35  1   
 35  16  18  ar  
 36  16  36  1   
 37  17  18  ar  
 38  17  37  1   
 39  18  38  1   
@<TRIPOS>SUBSTRUCTURE
  1 ****   8 GROUP 4 **** **** 0

# MOE 2024.06 (io_trps.svl 2023.06)
