@<TRIPOS>MOLECULE
NONAME
46 48 1 0 0 
SMALL
USER_CHARGES


@<TRIPOS>ATOM
  1 O       -0.4510    -1.1640     3.2090 O.2   1 <1>  -0.5700 
  2 C        0.1470    -1.3420     2.1750 C.2   1 <1>   0.5690 
  3 N       -0.3970    -1.2290     0.9280 N.am  1 <1>  -0.5470 
  4 C        1.6290    -1.7230     2.2270 C.3   1 <1>   0.1710 
  5 C       -1.6720    -0.8930     0.4500 C.ar  1 <1>   0.1170 
  6 N        2.3650    -1.4320     0.9580 N.3   1 <1>  -0.8100 
  7 C       -1.8530    -0.7800    -0.9230 C.ar  1 <1>  -0.1500 
  8 C       -2.7650    -0.6670     1.2790 C.ar  1 <1>  -0.1500 
  9 C        2.6250     0.0150     0.8290 C.3   1 <1>   0.1100 
 10 C        3.6240    -2.1930     0.9060 C.3   1 <1>   0.1100 
 11 C       -3.0870    -0.4490    -1.4550 C.ar  1 <1>  -0.1500 
 12 C       -4.0000    -0.3350     0.7500 C.ar  1 <1>  -0.1500 
 13 C        3.2430     0.3060    -0.5380 C.3   1 <1>  -0.1600 
 14 C        4.2880    -1.9920    -0.4560 C.3   1 <1>  -0.1600 
 15 C       -4.1700    -0.2250    -0.6210 C.ar  1 <1>  -0.1430 
 16 C        4.5210    -0.5120    -0.7230 C.3   1 <1>   0.5600 
 17 C       -5.5270     0.1400    -1.2010 C.3   1 <1>  -0.0170 
 18 O        5.5200    -0.0460     0.1270 O.3   1 <1>  -0.5600 
 19 O        5.0240    -0.3510    -2.0050 O.3   1 <1>  -0.5600 
 20 C       -5.6600     1.6570    -1.3420 C.3   1 <1>  -0.2400 
 21 C        6.3130     0.8600    -0.5530 C.3   1 <1>   0.1200 
 22 C        5.9200     0.6990    -2.0080 C.3   1 <1>   0.1200 
 23 H        0.3250    -1.3750     0.2140 H     1 <1>   0.3700 
 24 H        1.6690    -2.7780     2.4290 H     1 <1>   0.0800 
 25 H        2.0940    -1.2110     3.0510 H     1 <1>   0.0800 
 26 H       -1.0240    -0.9510    -1.5830 H     1 <1>   0.1500 
 27 H       -2.6600    -0.7470     2.3440 H     1 <1>   0.1500 
 28 H        3.2960     0.3390     1.6090 H     1 <1>   0.0800 
 29 H        1.7060     0.5690     0.9230 H     1 <1>   0.0800 
 30 H        3.4230    -3.2410     1.0450 H     1 <1>   0.0800 
 31 H        4.2880    -1.8640     1.6900 H     1 <1>   0.0800 
 32 H       -3.2010    -0.3650    -2.5210 H     1 <1>   0.1500 
 33 H       -4.8290    -0.1620     1.4130 H     1 <1>   0.1500 
 34 H        3.4530     1.3540    -0.6260 H     1 <1>   0.0800 
 35 H        2.5370     0.0330    -1.3000 H     1 <1>   0.0800 
 36 H        3.6450    -2.3930    -1.2170 H     1 <1>   0.0800 
 37 H        5.2270    -2.5130    -0.4900 H     1 <1>   0.0800 
 38 H       -6.3070    -0.2340    -0.5610 H     1 <1>   0.0800 
 39 H       -5.6460    -0.3250    -2.1640 H     1 <1>   0.0800 
 40 H       -5.5580     2.1280    -0.3800 H     1 <1>   0.0800 
 41 H       -6.6210     1.9100    -1.7520 H     1 <1>   0.0800 
 42 H       -4.8930     2.0370    -1.9940 H     1 <1>   0.0800 
 43 H        7.3460     0.6090    -0.3870 H     1 <1>   0.0800 
 44 H        6.1070     1.8520    -0.1910 H     1 <1>   0.0800 
 45 H        5.4270     1.5780    -2.3840 H     1 <1>   0.0800 
 46 H        6.7590     0.4450    -2.6320 H     1 <1>   0.0800 
@<TRIPOS>BOND
  1   1   2  2   
  2   2   3  am  
  3   2   4  1   
  4   3   5  1   
  5   3  23  1   
  6   4   6  1   
  7   4  24  1   
  8   4  25  1   
  9   5   7  ar  
 10   5   8  ar  
 11   6   9  1   
 12   6  10  1   
 13   7  11  ar  
 14   7  26  1   
 15   8  12  ar  
 16   8  27  1   
 17   9  13  1   
 18   9  28  1   
 19   9  29  1   
 20  10  14  1   
 21  10  30  1   
 22  10  31  1   
 23  11  15  ar  
 24  11  32  1   
 25  12  15  ar  
 26  12  33  1   
 27  13  16  1   
 28  13  34  1   
 29  13  35  1   
 30  14  16  1   
 31  14  36  1   
 32  14  37  1   
 33  15  17  1   
 34  16  18  1   
 35  16  19  1   
 36  17  20  1   
 37  17  38  1   
 38  17  39  1   
 39  18  21  1   
 40  19  22  1   
 41  20  40  1   
 42  20  41  1   
 43  20  42  1   
 44  21  22  1   
 45  21  43  1   
 46  21  44  1   
 47  22  45  1   
 48  22  46  1   
@<TRIPOS>SUBSTRUCTURE
  1 ****   3 GROUP 4 **** **** 0

# MOE 2024.06 (io_trps.svl 2023.06)
