@<TRIPOS>MOLECULE
NONAME
42 44 1 0 0 
SMALL
USER_CHARGES


@<TRIPOS>ATOM
  1 S        0.2000     0.2240     0.5590 S.o2  1 <1>   1.4470 
  2 O        0.1260     0.0060     1.9870 O.2   1 <1>  -0.6500 
  3 O        0.4020    -0.9010    -0.3260 O.2   1 <1>  -0.6500 
  4 N       -1.2530     0.9640     0.0980 N.am  1 <1>  -0.8490 
  5 C        1.4410     1.4960     0.1860 C.ar  1 <1>  -0.0090 
  6 C       -1.6740     2.0140     1.0460 C.3   1 <1>   0.1960 
  7 C       -2.3310    -0.0300    -0.0550 C.3   1 <1>   0.1960 
  8 C        1.4630     2.1150    -1.0620 C.ar  1 <1>  -0.1500 
  9 C        2.3960     1.8740     1.1330 C.ar  1 <1>  -0.1500 
 10 C       -2.9460     2.7320     0.5690 C.3   1 <1>   0.1400 
 11 C       -3.6470     0.6070    -0.5400 C.3   1 <1>   0.1400 
 12 C        2.4110     3.0840    -1.3340 C.ar  1 <1>   0.1900 
 13 C        3.3500     2.8460     0.8610 C.ar  1 <1>  -0.1500 
 14 N       -4.0520     1.7570     0.3270 N.am  1 <1>  -0.6600 
 15 F        2.4060     3.6550    -2.5110 F     1 <1>  -0.1900 
 16 C        3.3470     3.4480    -0.3820 C.ar  1 <1>   0.1900 
 17 C       -5.3260     1.9770     0.8060 C.2   1 <1>   0.5690 
 18 F        4.2400     4.3660    -0.6440 F     1 <1>  -0.1900 
 19 O       -5.5560     2.9480     1.4940 O.2   1 <1>  -0.5700 
 20 C       -6.4830     0.9880     0.4980 C.3   1 <1>   0.2610 
 21 O       -6.6610     0.8210    -0.8840 O.3   1 <1>  -0.5600 
 22 C       -7.8730     1.4270     0.9650 C.3   1 <1>  -0.1600 
 23 C       -7.5010     1.8160    -1.3780 C.3   1 <1>   0.1200 
 24 C       -8.3990     2.2310    -0.2140 C.3   1 <1>  -0.1600 
 25 H       -0.8890     2.7430     1.1520 H     1 <1>   0.0800 
 26 H       -1.8620     1.5860     2.0170 H     1 <1>   0.0800 
 27 H       -2.5040    -0.5280     0.8850 H     1 <1>   0.0800 
 28 H       -2.0360    -0.7760    -0.7730 H     1 <1>   0.0800 
 29 H        0.7450     1.8430    -1.8170 H     1 <1>   0.1500 
 30 H        2.3920     1.3990     2.1010 H     1 <1>   0.1500 
 31 H       -2.7360     3.2590    -0.3450 H     1 <1>   0.0800 
 32 H       -3.2350     3.4580     1.3090 H     1 <1>   0.0800 
 33 H       -4.4060    -0.1530    -0.5550 H     1 <1>   0.0800 
 34 H       -3.5170     0.9590    -1.5480 H     1 <1>   0.0800 
 35 H        4.0820     3.1320     1.5970 H     1 <1>   0.1500 
 36 H       -6.2350     0.0330     0.9220 H     1 <1>   0.0800 
 37 H       -7.8530     1.9910     1.8800 H     1 <1>   0.0800 
 38 H       -8.4800     0.5510     1.1110 H     1 <1>   0.0800 
 39 H       -8.0620     1.4150    -2.2040 H     1 <1>   0.0800 
 40 H       -6.8890     2.6390    -1.7090 H     1 <1>   0.0800 
 41 H       -8.2930     3.2870    -0.0360 H     1 <1>   0.0800 
 42 H       -9.4320     2.0100    -0.4180 H     1 <1>   0.0800 
@<TRIPOS>BOND
  1   1   2  2   
  2   1   3  2   
  3   1   4  am  
  4   1   5  1   
  5   4   6  1   
  6   4   7  1   
  7   5   8  ar  
  8   5   9  ar  
  9   6  10  1   
 10   6  25  1   
 11   6  26  1   
 12   7  11  1   
 13   7  27  1   
 14   7  28  1   
 15   8  12  ar  
 16   8  29  1   
 17   9  13  ar  
 18   9  30  1   
 19  10  14  1   
 20  10  31  1   
 21  10  32  1   
 22  11  14  1   
 23  11  33  1   
 24  11  34  1   
 25  12  15  1   
 26  12  16  ar  
 27  13  16  ar  
 28  13  35  1   
 29  14  17  am  
 30  16  18  1   
 31  17  19  2   
 32  17  20  1   
 33  20  21  1   
 34  20  22  1   
 35  20  36  1   
 36  21  23  1   
 37  22  24  1   
 38  22  37  1   
 39  22  38  1   
 40  23  24  1   
 41  23  39  1   
 42  23  40  1   
 43  24  41  1   
 44  24  42  1   
@<TRIPOS>SUBSTRUCTURE
  1 ****   4 GROUP 4 **** **** 0

# MOE 2024.06 (io_trps.svl 2023.06)
