@<TRIPOS>MOLECULE
NONAME
47 49 1 0 0 
SMALL
USER_CHARGES


@<TRIPOS>ATOM
  1 F        0.4750     1.6380    -0.0510 F     1 <1>  -0.3400 
  2 C        1.5040     1.3590    -0.8440 C.3   1 <1>   1.1640 
  3 F        1.4070     0.0660    -1.1310 F     1 <1>  -0.3400 
  4 F        1.2870     2.0110    -1.9780 F     1 <1>  -0.3400 
  5 C        2.8600     1.7240    -0.2180 C.ar  1 <1>  -0.1440 
  6 C        4.0180     1.0620    -0.6100 C.ar  1 <1>  -0.1500 
  7 C        2.9620     2.7280     0.7400 C.ar  1 <1>  -0.1500 
  8 C        5.2570     1.3730    -0.0650 C.ar  1 <1>   0.1000 
  9 C        4.1900     3.0520     1.2910 C.ar  1 <1>  -0.1500 
 10 N        6.3850     0.6720    -0.4820 N.pl3 1 <1>  -0.8380 
 11 C        5.3280     2.3800     0.8910 C.ar  1 <1>  -0.1500 
 12 C        7.6550     1.3900    -0.8080 C.3   1 <1>   0.2090 
 13 C        6.5020    -0.7740    -0.1270 C.3   1 <1>   0.2090 
 14 C        8.7560     1.1010     0.2360 C.3   1 <1>   0.3430 
 15 C        7.6190    -1.0070     0.9130 C.3   1 <1>   0.3430 
 16 N        8.9290    -0.3760     0.5120 N.4   1 <1>  -0.9590 
 17 C        9.9960    -0.6290     1.5170 C.3   1 <1>   0.4860 
 18 C       11.3110    -0.1120     0.9660 C.ar  1 <1>  -0.1430 
 19 C       11.9880    -0.8180    -0.0190 C.ar  1 <1>  -0.1500 
 20 C       11.8450     1.0780     1.4410 C.ar  1 <1>  -0.1500 
 21 C       13.1780    -0.3340    -0.5360 C.ar  1 <1>  -0.1500 
 22 C       13.0320     1.5610     0.9240 C.ar  1 <1>  -0.1500 
 23 C       13.7050     0.8650    -0.0660 C.ar  1 <1>   0.0830 
 24 O       14.8590     1.4130    -0.5180 O.3   1 <1>  -0.3620 
 25 C       15.6720     0.7510    -1.4610 C.3   1 <1>   0.0400 
 26 H        3.9740     0.2920    -1.3600 H     1 <1>   0.1500 
 27 H        2.0860     3.2670     1.0650 H     1 <1>   0.1500 
 28 H        4.2530     3.8320     2.0310 H     1 <1>   0.1500 
 29 H        6.2710     2.6400     1.3300 H     1 <1>   0.1500 
 30 H        7.4720     2.4510    -0.8550 H     1 <1>   0.0800 
 31 H        7.9920     1.0810    -1.7820 H     1 <1>   0.0800 
 32 H        6.7070    -1.3400    -1.0190 H     1 <1>   0.0800 
 33 H        5.5670    -1.1250     0.2750 H     1 <1>   0.0800 
 34 H        8.4930     1.6080     1.1490 H     1 <1>   0.0800 
 35 H        9.6840     1.5200    -0.1160 H     1 <1>   0.0800 
 36 H        7.7480    -2.0670     1.0530 H     1 <1>   0.0800 
 37 H        7.2900    -0.5880     1.8490 H     1 <1>   0.0800 
 38 H        9.2400    -0.8010    -0.3690 H     1 <1>   0.4500 
 39 H       10.0830    -1.6850     1.7110 H     1 <1>   0.0800 
 40 H        9.7650    -0.1290     2.4440 H     1 <1>   0.0800 
 41 H       11.6070    -1.7520    -0.3950 H     1 <1>   0.1500 
 42 H       11.3520     1.6410     2.2160 H     1 <1>   0.1500 
 43 H       13.6830    -0.8980    -1.2980 H     1 <1>   0.1500 
 44 H       13.4540     2.4830     1.2850 H     1 <1>   0.1500 
 45 H       16.5400     1.3610    -1.6390 H     1 <1>   0.0800 
 46 H       15.1200     0.6280    -2.3760 H     1 <1>   0.0800 
 47 H       15.9720    -0.2010    -1.0590 H     1 <1>   0.0800 
@<TRIPOS>BOND
  1   1   2  1   
  2   2   3  1   
  3   2   4  1   
  4   2   5  1   
  5   5   6  ar  
  6   5   7  ar  
  7   6   8  ar  
  8   6  26  1   
  9   7   9  ar  
 10   7  27  1   
 11   8  10  1   
 12   8  11  ar  
 13   9  11  ar  
 14   9  28  1   
 15  10  12  1   
 16  10  13  1   
 17  11  29  1   
 18  12  14  1   
 19  12  30  1   
 20  12  31  1   
 21  13  15  1   
 22  13  32  1   
 23  13  33  1   
 24  14  16  1   
 25  14  34  1   
 26  14  35  1   
 27  15  16  1   
 28  15  36  1   
 29  15  37  1   
 30  16  17  1   
 31  16  38  1   
 32  17  18  1   
 33  17  39  1   
 34  17  40  1   
 35  18  19  ar  
 36  18  20  ar  
 37  19  21  ar  
 38  19  41  1   
 39  20  22  ar  
 40  20  42  1   
 41  21  23  ar  
 42  21  43  1   
 43  22  23  ar  
 44  22  44  1   
 45  23  24  1   
 46  24  25  1   
 47  25  45  1   
 48  25  46  1   
 49  25  47  1   
@<TRIPOS>SUBSTRUCTURE
  1 ****  12 GROUP 4 **** **** 0

# MOE 2024.06 (io_trps.svl 2023.06)
