@<TRIPOS>MOLECULE
NONAME
48 51 1 0 0 
SMALL
USER_CHARGES


@<TRIPOS>ATOM
  1 CL       0.7850     1.7810    -1.0540 Cl    1 <1>  -0.1770 
  2 C        2.3160     0.9950    -0.7590 C.ar  1 <1>   0.1770 
  3 C        3.4640     1.5070    -1.3320 C.ar  1 <1>  -0.1500 
  4 C        2.3580    -0.1300     0.0420 C.ar  1 <1>  -0.1500 
  5 C        4.6750     0.8800    -1.0950 C.ar  1 <1>  -0.1500 
  6 C        3.5740    -0.7510     0.2730 C.ar  1 <1>  -0.1500 
  7 C        4.7490    -0.2570    -0.2910 C.ar  1 <1>   0.1170 
  8 N        5.9920    -0.8910    -0.0530 N.am  1 <1>  -0.2370 
  9 C        6.9390    -1.1510    -1.0080 C.2   1 <1>   0.5690 
 10 C        6.4350    -1.3440     1.1610 C.2   1 <1>   0.5690 
 11 O        6.7940    -1.0160    -2.1990 O.2   1 <1>  -0.5700 
 12 C        8.2200    -1.7080    -0.3720 C.3   1 <1>   0.2510 
 13 O        5.8600    -1.2520     2.2150 O.2   1 <1>  -0.5700 
 14 C        7.7820    -2.0140     1.0630 C.3   1 <1>  -0.0990 
 15 N        9.3490    -0.7460    -0.3620 N.3   1 <1>  -0.9000 
 16 C       10.6590    -1.3210    -0.0850 C.3   1 <1>   0.1900 
 17 C       11.5850    -0.1890     0.3630 C.3   1 <1>  -0.1600 
 18 C       11.2140    -1.9780    -1.3510 C.3   1 <1>  -0.1600 
 19 C       13.0150    -0.6890     0.5870 C.3   1 <1>   0.1400 
 20 C       12.6390    -2.4880    -1.1260 C.3   1 <1>   0.1400 
 21 N       13.5110    -1.3830    -0.6330 N.am  1 <1>  -0.6600 
 22 C       14.6090    -0.9540    -1.3590 C.2   1 <1>   0.7150 
 23 O       14.6960    -1.2810    -2.5300 O.2   1 <1>  -0.5700 
 24 C       15.6530    -0.1570    -0.7600 C.2   1 <1>  -0.0450 
 25 S       16.4420     1.0800    -1.7450 S.3   1 <1>  -0.0800 
 26 C       16.2170    -0.1440     0.4770 C.2   1 <1>  -0.1500 
 27 C       17.4920     1.5650    -0.4330 C.2   1 <1>  -0.1100 
 28 C       17.2460     0.8250     0.6630 C.2   1 <1>  -0.1500 
 29 H        3.4070     2.3810    -1.9550 H     1 <1>   0.1500 
 30 H        1.4520    -0.5100     0.4790 H     1 <1>   0.1500 
 31 H        5.5700     1.2750    -1.5460 H     1 <1>   0.1500 
 32 H        3.6070    -1.6250     0.9000 H     1 <1>   0.1500 
 33 H        8.4950    -2.6070    -0.8950 H     1 <1>   0.0800 
 34 H        7.6530    -3.0710     1.2030 H     1 <1>   0.0800 
 35 H        8.4530    -1.6230     1.8060 H     1 <1>   0.0800 
 36 H        9.1600     0.0180     0.2970 H     1 <1>   0.3600 
 37 H       10.5900    -2.0500     0.7060 H     1 <1>   0.0800 
 38 H       11.2200     0.2400     1.2780 H     1 <1>   0.0800 
 39 H       11.6060     0.5810    -0.3890 H     1 <1>   0.0800 
 40 H       11.2270    -1.2650    -2.1580 H     1 <1>   0.0800 
 41 H       10.5990    -2.8070    -1.6460 H     1 <1>   0.0800 
 42 H       13.0410    -1.3750     1.4160 H     1 <1>   0.0800 
 43 H       13.6360     0.1560     0.8270 H     1 <1>   0.0800 
 44 H       13.0220    -2.8970    -2.0460 H     1 <1>   0.0800 
 45 H       12.6340    -3.2780    -0.3950 H     1 <1>   0.0800 
 46 H       15.9400    -0.8060     1.2780 H     1 <1>   0.1500 
 47 H       18.1900     2.3610    -0.6220 H     1 <1>   0.1500 
 48 H       17.7570     0.9220     1.6050 H     1 <1>   0.1500 
@<TRIPOS>BOND
  1   1   2  1   
  2   2   3  ar  
  3   2   4  ar  
  4   3   5  ar  
  5   3  29  1   
  6   4   6  ar  
  7   4  30  1   
  8   5   7  ar  
  9   5  31  1   
 10   6   7  ar  
 11   6  32  1   
 12   7   8  1   
 13   8   9  am  
 14   8  10  am  
 15   9  11  2   
 16   9  12  1   
 17  10  13  2   
 18  10  14  1   
 19  12  14  1   
 20  12  15  1   
 21  12  33  1   
 22  14  34  1   
 23  14  35  1   
 24  15  16  1   
 25  15  36  1   
 26  16  17  1   
 27  16  18  1   
 28  16  37  1   
 29  17  19  1   
 30  17  38  1   
 31  17  39  1   
 32  18  20  1   
 33  18  40  1   
 34  18  41  1   
 35  19  21  1   
 36  19  42  1   
 37  19  43  1   
 38  20  21  1   
 39  20  44  1   
 40  20  45  1   
 41  21  22  am  
 42  22  23  2   
 43  22  24  1   
 44  24  25  1   
 45  24  26  2   
 46  25  27  1   
 47  26  28  1   
 48  26  46  1   
 49  27  28  2   
 50  27  47  1   
 51  28  48  1   
@<TRIPOS>SUBSTRUCTURE
  1 ****  15 GROUP 4 **** **** 0

# MOE 2024.06 (io_trps.svl 2023.06)
