@<TRIPOS>MOLECULE
NONAME
40 40 1 0 0 
SMALL
USER_CHARGES


@<TRIPOS>ATOM
  1 CL      -0.8050     3.4160     3.8850 Cl    1 <1>  -0.1770 
  2 C       -0.1520     3.4750     2.2690 C.ar  1 <1>   0.1770 
  3 C       -0.7160     4.3300     1.3420 C.ar  1 <1>  -0.1500 
  4 C        0.9150     2.6620     1.9410 C.ar  1 <1>  -0.1500 
  5 C       -0.1950     4.3980     0.0600 C.ar  1 <1>  -0.1440 
  6 C        1.4540     2.7180     0.6660 C.ar  1 <1>  -0.1440 
  7 C        0.9200     3.6170    -0.2600 C.ar  1 <1>   0.0830 
  8 C       -0.8950     5.3010    -0.9480 C.3   1 <1>  -0.0960 
  9 C        2.6020     1.7790     0.3180 C.3   1 <1>  -0.0960 
 10 O        1.5120     3.7170    -1.4730 O.3   1 <1>  -0.3630 
 11 C        2.2120     4.9000    -1.8180 C.3   1 <1>   0.1200 
 12 C        3.6360     4.8680    -1.2350 C.3   1 <1>   0.3430 
 13 N        3.8820     5.8110    -0.0780 N.4   1 <1>  -0.9590 
 14 C        5.3090     5.7440     0.3520 C.3   1 <1>   0.3430 
 15 C        2.9590     5.5560     1.0670 C.3   1 <1>   0.3430 
 16 C        6.1980     6.4170    -0.6880 C.3   1 <1>  -0.2400 
 17 C        3.0260     6.6940     2.0800 C.3   1 <1>  -0.2400 
 18 H       -1.5650     4.9240     1.6310 H     1 <1>   0.1500 
 19 H        1.3050     1.9880     2.6840 H     1 <1>   0.1500 
 20 H       -1.9540     5.3140    -0.7600 H     1 <1>   0.0800 
 21 H       -0.7490     4.9410    -1.9510 H     1 <1>   0.0800 
 22 H       -0.5260     6.3080    -0.8740 H     1 <1>   0.0800 
 23 H        2.5270     0.8720     0.8920 H     1 <1>   0.0800 
 24 H        3.5460     2.2420     0.5340 H     1 <1>   0.0800 
 25 H        2.5700     1.5070    -0.7220 H     1 <1>   0.0800 
 26 H        2.2710     4.9090    -2.8920 H     1 <1>   0.0800 
 27 H        1.6630     5.7640    -1.4960 H     1 <1>   0.0800 
 28 H        4.3100     5.1290    -2.0330 H     1 <1>   0.0800 
 29 H        3.8620     3.8570    -0.9410 H     1 <1>   0.0800 
 30 H        3.7040     6.7720    -0.3970 H     1 <1>   0.4500 
 31 H        5.6090     4.7180     0.4940 H     1 <1>   0.0800 
 32 H        5.4360     6.2610     1.2890 H     1 <1>   0.0800 
 33 H        3.1920     4.6150     1.5410 H     1 <1>   0.0800 
 34 H        1.9460     5.5050     0.7070 H     1 <1>   0.0800 
 35 H        6.2080     5.8760    -1.6160 H     1 <1>   0.0800 
 36 H        7.2080     6.4410    -0.3180 H     1 <1>   0.0800 
 37 H        5.8880     7.4330    -0.8590 H     1 <1>   0.0800 
 38 H        3.9670     6.7150     2.5980 H     1 <1>   0.0800 
 39 H        2.2580     6.5420     2.8180 H     1 <1>   0.0800 
 40 H        2.8450     7.6420     1.6070 H     1 <1>   0.0800 
@<TRIPOS>BOND
  1   1   2  1   
  2   2   3  ar  
  3   2   4  ar  
  4   3   5  ar  
  5   3  18  1   
  6   4   6  ar  
  7   4  19  1   
  8   5   7  ar  
  9   5   8  1   
 10   6   7  ar  
 11   6   9  1   
 12   7  10  1   
 13   8  20  1   
 14   8  21  1   
 15   8  22  1   
 16   9  23  1   
 17   9  24  1   
 18   9  25  1   
 19  10  11  1   
 20  11  12  1   
 21  11  26  1   
 22  11  27  1   
 23  12  13  1   
 24  12  28  1   
 25  12  29  1   
 26  13  14  1   
 27  13  15  1   
 28  13  30  1   
 29  14  16  1   
 30  14  31  1   
 31  14  32  1   
 32  15  17  1   
 33  15  33  1   
 34  15  34  1   
 35  16  35  1   
 36  16  36  1   
 37  16  37  1   
 38  17  38  1   
 39  17  39  1   
 40  17  40  1   
@<TRIPOS>SUBSTRUCTURE
  1 ****   7 GROUP 4 **** **** 0

# MOE 2024.06 (io_trps.svl 2023.06)
