@<TRIPOS>MOLECULE
NONAME
42 44 1 0 0 
SMALL
USER_CHARGES


@<TRIPOS>ATOM
  1 O       -0.4860     1.1220    -1.4930 O.2   1 <1>  -0.5700 
  2 C       -1.2390     1.7680    -0.8170 C.2   1 <1>   0.6590 
  3 O       -2.5340     1.8560    -1.0400 O.3   1 <1>  -0.4300 
  4 C       -0.8410     2.5270     0.4150 C.3   1 <1>  -0.0990 
  5 C       -3.2190     2.5860    -0.0520 C.3   1 <1>   0.2800 
  6 C       -2.1030     3.3530     0.7030 C.3   1 <1>  -0.0190 
  7 C       -3.8980     1.5580     0.8810 C.3   1 <1>  -0.1600 
  8 C       -4.2870     3.4540    -0.7540 C.3   1 <1>  -0.1600 
  9 C       -1.9510     4.7980     0.2390 C.2   1 <1>   0.5690 
 10 C       -4.9770     0.7250     0.1710 C.3   1 <1>  -0.1600 
 11 C       -5.3730     2.6180    -1.4520 C.3   1 <1>  -0.1600 
 12 O       -1.3780     5.0210    -0.7980 O.2   1 <1>  -0.5700 
 13 N       -2.4890     5.7760     1.0330 N.am  1 <1>  -0.5470 
 14 C       -6.0290     1.6280    -0.4830 C.3   1 <1>  -0.1600 
 15 C       -2.5180     7.1720     0.8820 C.ar  1 <1>   0.1170 
 16 C       -1.6110     7.8750     0.0950 C.ar  1 <1>  -0.1500 
 17 C       -3.4910     7.8900     1.5670 C.ar  1 <1>  -0.1500 
 18 C       -1.6730     9.2550    -0.0130 C.ar  1 <1>  -0.1440 
 19 C       -3.5600     9.2670     1.4670 C.ar  1 <1>  -0.1500 
 20 C       -2.6520     9.9490     0.6780 C.ar  1 <1>  -0.1500 
 21 C       -0.6780    10.0070    -0.8790 C.3   1 <1>  -0.0970 
 22 H        0.0320     3.1270     0.2290 H     1 <1>   0.0800 
 23 H       -0.6440     1.8250     1.2030 H     1 <1>   0.0800 
 24 H       -2.2960     3.3620     1.7600 H     1 <1>   0.0800 
 25 H       -4.3640     2.0820     1.6960 H     1 <1>   0.0800 
 26 H       -3.1620     0.8960     1.3020 H     1 <1>   0.0800 
 27 H       -3.8230     4.0880    -1.4900 H     1 <1>   0.0800 
 28 H       -4.7610     4.0890    -0.0270 H     1 <1>   0.0800 
 29 H       -5.4550     0.0690     0.8790 H     1 <1>   0.0800 
 30 H       -4.5170     0.1100    -0.5850 H     1 <1>   0.0800 
 31 H       -4.9290     2.0740    -2.2690 H     1 <1>   0.0800 
 32 H       -6.1220     3.2720    -1.8640 H     1 <1>   0.0800 
 33 H       -2.9930     5.4480     1.8530 H     1 <1>   0.3700 
 34 H       -6.5640     2.1700     0.2780 H     1 <1>   0.0800 
 35 H       -6.7400     1.0220    -1.0180 H     1 <1>   0.0800 
 36 H       -0.8440     7.3440    -0.4370 H     1 <1>   0.1500 
 37 H       -4.2060     7.3750     2.1820 H     1 <1>   0.1500 
 38 H       -4.3190     9.8120     2.0020 H     1 <1>   0.1500 
 39 H       -2.7080    11.0210     0.6030 H     1 <1>   0.1500 
 40 H       -0.1730     9.3360    -1.5500 H     1 <1>   0.0800 
 41 H        0.0540    10.4890    -0.2570 H     1 <1>   0.0800 
 42 H       -1.1860    10.7530    -1.4630 H     1 <1>   0.0800 
@<TRIPOS>BOND
  1   1   2  2   
  2   2   3  1   
  3   2   4  1   
  4   3   5  1   
  5   4   6  1   
  6   4  22  1   
  7   4  23  1   
  8   5   6  1   
  9   5   7  1   
 10   5   8  1   
 11   6   9  1   
 12   6  24  1   
 13   7  10  1   
 14   7  25  1   
 15   7  26  1   
 16   8  11  1   
 17   8  27  1   
 18   8  28  1   
 19   9  12  2   
 20   9  13  am  
 21  10  14  1   
 22  10  29  1   
 23  10  30  1   
 24  11  14  1   
 25  11  31  1   
 26  11  32  1   
 27  13  15  1   
 28  13  33  1   
 29  14  34  1   
 30  14  35  1   
 31  15  16  ar  
 32  15  17  ar  
 33  16  18  ar  
 34  16  36  1   
 35  17  19  ar  
 36  17  37  1   
 37  18  20  ar  
 38  18  21  1   
 39  19  20  ar  
 40  19  38  1   
 41  20  39  1   
 42  21  40  1   
 43  21  41  1   
 44  21  42  1   
@<TRIPOS>SUBSTRUCTURE
  1 ****   9 GROUP 4 **** **** 0

# MOE 2024.06 (io_trps.svl 2023.06)
