@<TRIPOS>MOLECULE
NONAME
43 44 1 0 0 
SMALL
USER_CHARGES


@<TRIPOS>ATOM
  1 O        0.9820    -0.2320     0.0070 O.3   1 <1>  -0.3630 
  2 C       -0.2530    -0.7940     0.0060 C.ar  1 <1>   0.0830 
  3 C        2.1460    -1.0250    -0.0060 C.3   1 <1>   0.1200 
  4 C       -1.3320     0.0750     0.0190 C.ar  1 <1>  -0.1500 
  5 C       -0.4800    -2.1680    -0.0070 C.ar  1 <1>  -0.1500 
  6 C        3.3550    -0.0890    -0.0010 C.3   1 <1>  -0.1600 
  7 C       -2.6310    -0.4070     0.0200 C.ar  1 <1>  -0.1440 
  8 C       -1.7760    -2.6520    -0.0080 C.ar  1 <1>  -0.1500 
  9 C        4.6700    -0.8820    -0.0140 C.3   1 <1>  -0.1600 
 10 C       -2.8480    -1.7750     0.0050 C.ar  1 <1>  -0.1500 
 11 C       -3.8090     0.5500     0.0320 C.3   1 <1>  -0.0970 
 12 C        5.8790     0.0540    -0.0090 C.3   1 <1>   0.1200 
 13 O        7.0430    -0.7390    -0.0210 O.3   1 <1>  -0.3630 
 14 C        8.2780    -0.1730    -0.0190 C.ar  1 <1>   0.0830 
 15 C        9.3590    -1.0390    -0.0310 C.ar  1 <1>  -0.1500 
 16 C        8.5030     1.2020    -0.0060 C.ar  1 <1>  -0.1500 
 17 C       10.6510    -0.5460    -0.0300 C.ar  1 <1>  -0.1500 
 18 C        9.7970     1.6950    -0.0050 C.ar  1 <1>  -0.1500 
 19 C       10.8810     0.8200    -0.0170 C.ar  1 <1>   0.0830 
 20 O       12.1790     1.2210    -0.0170 O.3   1 <1>  -0.3620 
 21 C       12.5180     2.5900    -0.0050 C.3   1 <1>   0.0400 
 22 H        2.1350    -1.6300    -0.8960 H     1 <1>   0.0800 
 23 H        2.1420    -1.6480     0.8710 H     1 <1>   0.0800 
 24 H       -1.1410     1.1320     0.0270 H     1 <1>   0.1500 
 25 H        0.3310    -2.8700    -0.0180 H     1 <1>   0.1500 
 26 H        3.3150     0.5270     0.8810 H     1 <1>   0.0800 
 27 H        3.3080     0.5450    -0.8700 H     1 <1>   0.0800 
 28 H       -1.9540    -3.7130    -0.0190 H     1 <1>   0.1500 
 29 H        4.7100    -1.4980    -0.8960 H     1 <1>   0.0800 
 30 H        4.7160    -1.5160     0.8540 H     1 <1>   0.0800 
 31 H       -3.8510    -2.1620     0.0030 H     1 <1>   0.1500 
 32 H       -3.5020     1.5270     0.3590 H     1 <1>   0.0800 
 33 H       -4.5710     0.1920     0.7020 H     1 <1>   0.0800 
 34 H       -4.2230     0.6300    -0.9570 H     1 <1>   0.0800 
 35 H        5.8890     0.6590     0.8810 H     1 <1>   0.0800 
 36 H        5.8830     0.6770    -0.8870 H     1 <1>   0.0800 
 37 H        9.1810    -2.0990    -0.0420 H     1 <1>   0.1500 
 38 H        7.6890     1.9000     0.0030 H     1 <1>   0.1500 
 39 H       11.4900    -1.2180    -0.0400 H     1 <1>   0.1500 
 40 H        9.9420     2.7580     0.0050 H     1 <1>   0.1500 
 41 H       13.5910     2.6670    -0.0070 H     1 <1>   0.0800 
 42 H       12.1220     3.0390     0.8880 H     1 <1>   0.0800 
 43 H       12.1160     3.0570    -0.8860 H     1 <1>   0.0800 
@<TRIPOS>BOND
  1   1   2  1   
  2   1   3  1   
  3   2   4  ar  
  4   2   5  ar  
  5   3   6  1   
  6   3  22  1   
  7   3  23  1   
  8   4   7  ar  
  9   4  24  1   
 10   5   8  ar  
 11   5  25  1   
 12   6   9  1   
 13   6  26  1   
 14   6  27  1   
 15   7  10  ar  
 16   7  11  1   
 17   8  10  ar  
 18   8  28  1   
 19   9  12  1   
 20   9  29  1   
 21   9  30  1   
 22  10  31  1   
 23  11  32  1   
 24  11  33  1   
 25  11  34  1   
 26  12  13  1   
 27  12  35  1   
 28  12  36  1   
 29  13  14  1   
 30  14  15  ar  
 31  14  16  ar  
 32  15  17  ar  
 33  15  37  1   
 34  16  18  ar  
 35  16  38  1   
 36  17  19  ar  
 37  17  39  1   
 38  18  19  ar  
 39  18  40  1   
 40  19  20  1   
 41  20  21  1   
 42  21  41  1   
 43  21  42  1   
 44  21  43  1   
@<TRIPOS>SUBSTRUCTURE
  1 ****   9 GROUP 4 **** **** 0

# MOE 2024.06 (io_trps.svl 2023.06)
