@<TRIPOS>MOLECULE
NONAME
56 59 1 0 0 
SMALL
USER_CHARGES


@<TRIPOS>ATOM
  1 N        0.1840     0.3370     0.0760 N.3   1 <1>  -0.8100 
  2 C       -1.0880     1.0700    -0.2480 C.3   1 <1>   0.1900 
  3 C        0.2980    -0.9190    -0.7190 C.3   1 <1>   0.1100 
  4 C        1.4570     1.0970    -0.0060 C.3   1 <1>   0.2540 
  5 C       -1.1660     2.4880     0.4130 C.3   1 <1>  -0.0800 
  6 C       -2.3040     0.1490     0.1220 C.3   1 <1>   0.4230 
  7 C       -1.0160    -1.7200    -0.8230 C.3   1 <1>   0.3430 
  8 C        2.6360     0.2480     0.4650 C.ar  1 <1>  -0.1440 
  9 C       -2.5760     2.9520     0.8620 C.3   1 <1>  -0.1600 
 10 C       -0.5980     3.5670    -0.5440 C.3   1 <1>  -0.1600 
 11 N       -1.9790    -1.3040     0.2400 N.4   1 <1>  -0.9590 
 12 C       -3.4700     0.1670    -0.8680 C.3   1 <1>  -0.1600 
 13 C        3.7070    -0.0900    -0.3600 C.ar  1 <1>  -0.1440 
 14 C        2.6210    -0.2000     1.7790 C.ar  1 <1>  -0.1500 
 15 C       -2.5410     4.3390     1.5200 C.3   1 <1>  -0.1600 
 16 C       -0.5450     4.9520     0.1120 C.3   1 <1>  -0.1600 
 17 C       -3.2620    -2.0390     0.1850 C.3   1 <1>   0.3430 
 18 C       -4.1720    -1.1860    -0.6970 C.3   1 <1>  -0.1600 
 19 C        4.7330    -0.8760     0.1450 C.ar  1 <1>  -0.1500 
 20 C        3.8020     0.3800    -1.8050 C.3   1 <1>  -0.0970 
 21 C        3.6480    -0.9810     2.2740 C.ar  1 <1>  -0.1500 
 22 C       -1.9330     5.3880     0.5860 C.3   1 <1>  -0.1600 
 23 C        4.7060    -1.3220     1.4540 C.ar  1 <1>  -0.1500 
 24 H       -1.1150     1.2190    -1.3150 H     1 <1>   0.0800 
 25 H        1.0340    -1.5600    -0.2630 H     1 <1>   0.0800 
 26 H        0.6450    -0.6960    -1.7140 H     1 <1>   0.0800 
 27 H        1.4190     1.9590     0.6360 H     1 <1>   0.0800 
 28 H        1.6060     1.4410    -1.0130 H     1 <1>   0.0800 
 29 H       -0.5720     2.4650     1.3110 H     1 <1>   0.0800 
 30 H       -2.6790     0.4550     1.0820 H     1 <1>   0.0800 
 31 H       -0.7960    -2.7720    -0.7440 H     1 <1>   0.0800 
 32 H       -1.4530    -1.5470    -1.7920 H     1 <1>   0.0800 
 33 H       -2.9950     2.2810     1.5880 H     1 <1>   0.0800 
 34 H       -3.2360     3.0000     0.0130 H     1 <1>   0.0800 
 35 H       -1.2180     3.6270    -1.4220 H     1 <1>   0.0800 
 36 H        0.3910     3.3220    -0.8750 H     1 <1>   0.0800 
 37 H       -1.4830    -1.4170     1.1350 H     1 <1>   0.4500 
 38 H       -3.1030     0.2640    -1.8750 H     1 <1>   0.0800 
 39 H       -4.1410     0.9840    -0.6700 H     1 <1>   0.0800 
 40 H        1.8000     0.0620     2.4220 H     1 <1>   0.1500 
 41 H       -1.9590     4.2910     2.4260 H     1 <1>   0.0800 
 42 H       -3.5390     4.6380     1.7900 H     1 <1>   0.0800 
 43 H       -0.1650     5.6720    -0.5920 H     1 <1>   0.0800 
 44 H        0.1290     4.9270     0.9520 H     1 <1>   0.0800 
 45 H       -3.6840    -2.1050     1.1750 H     1 <1>   0.0800 
 46 H       -3.1360    -3.0330    -0.2130 H     1 <1>   0.0800 
 47 H       -4.3230    -1.6620    -1.6500 H     1 <1>   0.0800 
 48 H       -5.1300    -1.0710    -0.2210 H     1 <1>   0.0800 
 49 H        5.5680    -1.1470    -0.4770 H     1 <1>   0.1500 
 50 H        2.9610     0.0230    -2.3700 H     1 <1>   0.0800 
 51 H        4.6990     0.0120    -2.2720 H     1 <1>   0.0800 
 52 H        3.8260     1.4540    -1.8410 H     1 <1>   0.0800 
 53 H        3.6260    -1.3220     3.2950 H     1 <1>   0.1500 
 54 H       -1.8600     6.3310     1.1000 H     1 <1>   0.0800 
 55 H       -2.5760     5.5270    -0.2660 H     1 <1>   0.0800 
 56 H        5.5090    -1.9290     1.8330 H     1 <1>   0.1500 
@<TRIPOS>BOND
  1   1   2  1   
  2   1   3  1   
  3   1   4  1   
  4   2   5  1   
  5   2   6  1   
  6   2  24  1   
  7   3   7  1   
  8   3  25  1   
  9   3  26  1   
 10   4   8  1   
 11   4  27  1   
 12   4  28  1   
 13   5   9  1   
 14   5  10  1   
 15   5  29  1   
 16   6  11  1   
 17   6  12  1   
 18   6  30  1   
 19   7  11  1   
 20   7  31  1   
 21   7  32  1   
 22   8  13  ar  
 23   8  14  ar  
 24   9  15  1   
 25   9  33  1   
 26   9  34  1   
 27  10  16  1   
 28  10  35  1   
 29  10  36  1   
 30  11  17  1   
 31  11  37  1   
 32  12  18  1   
 33  12  38  1   
 34  12  39  1   
 35  13  19  ar  
 36  13  20  1   
 37  14  21  ar  
 38  14  40  1   
 39  15  22  1   
 40  15  41  1   
 41  15  42  1   
 42  16  22  1   
 43  16  43  1   
 44  16  44  1   
 45  17  18  1   
 46  17  45  1   
 47  17  46  1   
 48  18  47  1   
 49  18  48  1   
 50  19  23  ar  
 51  19  49  1   
 52  20  50  1   
 53  20  51  1   
 54  20  52  1   
 55  21  23  ar  
 56  21  53  1   
 57  22  54  1   
 58  22  55  1   
 59  23  56  1   
@<TRIPOS>SUBSTRUCTURE
  1 ****   1 GROUP 4 **** **** 0

# MOE 2024.06 (io_trps.svl 2023.06)
