@<TRIPOS>MOLECULE
NONAME
36 38 1 0 0 
SMALL
USER_CHARGES


@<TRIPOS>ATOM
  1 O        1.7430     0.1110     2.8300 O.2   1 <1>  -0.5700 
  2 C        2.1250    -0.3950     1.8050 C.2   1 <1>   0.5700 
  3 N        2.6920     0.3280     0.7910 N.am  1 <1>  -0.6600 
  4 C        2.8060     1.8160     0.8630 C.3   1 <1>   0.1400 
  5 C        3.3040    -0.3120    -0.4050 C.3   1 <1>   0.1400 
  6 C        4.2660     2.2600     0.6680 C.3   1 <1>   0.3430 
  7 C        4.7570     0.1720    -0.6030 C.3   1 <1>   0.3430 
  8 N        4.8720     1.6760    -0.5900 N.4   1 <1>  -0.9590 
  9 C        6.2870     2.0990    -0.8480 C.3   1 <1>   0.4230 
 10 C        7.3690     1.6470     0.2990 C.3   1 <1>  -0.0800 
 11 C        6.4260     3.7520    -1.0500 C.3   1 <1>  -0.1600 
 12 C        7.5640     2.9460     0.0310 C.3   1 <1>  -0.1600 
 13 C        8.6930     2.1370     1.1250 C.3   1 <1>  -0.1600 
 14 C        7.7310     4.2520    -0.1960 C.3   1 <1>  -0.0800 
 15 C        8.8490     3.7880     0.9060 C.3   1 <1>  -0.1600 
 16 H        2.0290    -1.4610     1.6900 H     1 <1>   0.0600 
 17 H        2.4560     2.1750     1.8170 H     1 <1>   0.0800 
 18 H        2.1830     2.2580     0.1050 H     1 <1>   0.0800 
 19 H        2.7180    -0.0720    -1.2750 H     1 <1>   0.0800 
 20 H        3.2980    -1.3830    -0.2900 H     1 <1>   0.0800 
 21 H        4.8280     1.9420     1.5300 H     1 <1>   0.0800 
 22 H        4.3010     3.3350     0.6350 H     1 <1>   0.0800 
 23 H        5.1310    -0.2150    -1.5370 H     1 <1>   0.0800 
 24 H        5.3610    -0.2410     0.1870 H     1 <1>   0.0800 
 25 H        4.3150     2.0310    -1.3760 H     1 <1>   0.4500 
 26 H        6.6080     1.6460    -1.7740 H     1 <1>   0.0800 
 27 H        6.7420     1.3230     1.1150 H     1 <1>   0.0800 
 28 H        5.5500     4.2820    -0.7150 H     1 <1>   0.0800 
 29 H        6.5590     3.9810    -2.0960 H     1 <1>   0.0800 
 30 H        8.2980     2.6930    -0.8560 H     1 <1>   0.0800 
 31 H        6.8460     3.2150     0.9260 H     1 <1>   0.0800 
 32 H        9.5740     1.6310     0.7550 H     1 <1>   0.0800 
 33 H        8.6090     1.9040     2.1750 H     1 <1>   0.0800 
 34 H        8.3710     4.6150    -0.9910 H     1 <1>   0.0800 
 35 H        9.8470     4.0320     0.5750 H     1 <1>   0.0800 
 36 H        8.6870     4.3050     1.8410 H     1 <1>   0.0800 
@<TRIPOS>BOND
  1   1   2  2   
  2   2   3  am  
  3   2  16  1   
  4   3   4  1   
  5   3   5  1   
  6   4   6  1   
  7   4  17  1   
  8   4  18  1   
  9   5   7  1   
 10   5  19  1   
 11   5  20  1   
 12   6   8  1   
 13   6  21  1   
 14   6  22  1   
 15   7   8  1   
 16   7  23  1   
 17   7  24  1   
 18   8   9  1   
 19   8  25  1   
 20   9  10  1   
 21   9  11  1   
 22   9  26  1   
 23  10  12  1   
 24  10  13  1   
 25  10  27  1   
 26  11  14  1   
 27  11  28  1   
 28  11  29  1   
 29  12  14  1   
 30  12  30  1   
 31  12  31  1   
 32  13  15  1   
 33  13  32  1   
 34  13  33  1   
 35  14  15  1   
 36  14  34  1   
 37  15  35  1   
 38  15  36  1   
@<TRIPOS>SUBSTRUCTURE
  1 ****   8 GROUP 4 **** **** 0

# MOE 2024.06 (io_trps.svl 2023.06)
