@<TRIPOS>MOLECULE
22361
44 45 1 0 0 
SMALL
USER_CHARGES


@<TRIPOS>ATOM
  1 BR      -0.4970     0.4860     0.4240 Br    1 <1>  -0.1110 
  2 C        1.2850     1.1770     0.6570 C.ar  1 <1>   0.1110 
  3 C        1.8390     1.9390    -0.3500 C.ar  1 <1>  -0.1500 
  4 C        1.9560     0.8940     1.8240 C.ar  1 <1>  -0.1500 
  5 C        3.1290     2.4570    -0.2210 C.ar  1 <1>  -0.1440 
  6 C        3.2330     1.3930     1.9750 C.ar  1 <1>  -0.1500 
  7 C        3.8250     2.1600     0.9670 C.ar  1 <1>   0.0830 
  8 C        3.7390     3.3310    -1.3580 C.3   1 <1>   0.1440 
  9 O        5.0930     2.6290     1.1190 O.3   1 <1>  -0.3630 
 10 C        5.0140     2.6870    -1.9260 C.3   1 <1>  -0.2400 
 11 C        2.7870     3.5160    -2.5580 C.3   1 <1>  -0.2400 
 12 C        4.0520     4.7460    -0.8420 C.3   1 <1>  -0.2400 
 13 C        5.8890     2.3650     2.2650 C.3   1 <1>   0.1810 
 14 C        7.3150     2.8600     2.0520 C.2   1 <1>   0.5690 
 15 O        7.7630     3.6610     2.8320 O.2   1 <1>  -0.5700 
 16 N        8.1030     2.4490     1.0170 N.am  1 <1>  -0.4940 
 17 C        7.9790     1.5000     0.0240 C.2   1 <1>   0.4420 
 18 S        6.8940     0.1510     0.1710 S.3   1 <1>  -0.0800 
 19 N        8.6380     1.4720    -1.0750 N.2   1 <1>  -0.3380 
 20 C        7.4380    -0.3620    -1.3880 C.2   1 <1>   0.1980 
 21 N        8.3180     0.4140    -1.8810 N.2   1 <1>  -0.3380 
 22 C        6.8240    -1.6140    -1.9900 C.3   1 <1>   0.3000 
 23 O        6.9160    -2.6810    -1.0900 O.3   1 <1>  -0.5600 
 24 C        6.4000    -3.8800    -1.5730 C.3   1 <1>   0.0400 
 25 H        1.2260     2.1030    -1.2140 H     1 <1>   0.1500 
 26 H        1.4890     0.3000     2.5900 H     1 <1>   0.1500 
 27 H        3.7430     1.1690     2.8910 H     1 <1>   0.1500 
 28 H        4.8260     1.6630    -2.1910 H     1 <1>   0.0800 
 29 H        5.8140     2.7130    -1.2140 H     1 <1>   0.0800 
 30 H        5.3540     3.2110    -2.8010 H     1 <1>   0.0800 
 31 H        1.8790     4.0040    -2.2510 H     1 <1>   0.0800 
 32 H        2.5480     2.5670    -3.0030 H     1 <1>   0.0800 
 33 H        3.2440     4.1270    -3.3160 H     1 <1>   0.0800 
 34 H        3.1680     5.1860    -0.4160 H     1 <1>   0.0800 
 35 H        4.3980     5.3760    -1.6420 H     1 <1>   0.0800 
 36 H        4.8160     4.7340    -0.0880 H     1 <1>   0.0800 
 37 H        5.8990     1.3090     2.4560 H     1 <1>   0.0800 
 38 H        5.4490     2.8810     3.0990 H     1 <1>   0.0800 
 39 H        8.9450     3.0130     0.9310 H     1 <1>   0.3700 
 40 H        7.3480    -1.8750    -2.8920 H     1 <1>   0.0800 
 41 H        5.7850    -1.4380    -2.2090 H     1 <1>   0.0800 
 42 H        6.5210    -4.6270    -0.8070 H     1 <1>   0.0800 
 43 H        6.9450    -4.1750    -2.4530 H     1 <1>   0.0800 
 44 H        5.3540    -3.7560    -1.7950 H     1 <1>   0.0800 
@<TRIPOS>BOND
  1   1   2  1   
  2   2   3  ar  
  3   2   4  ar  
  4   3   5  ar  
  5   3  25  1   
  6   4   6  ar  
  7   4  26  1   
  8   5   7  ar  
  9   5   8  1   
 10   6   7  ar  
 11   6  27  1   
 12   7   9  1   
 13   8  10  1   
 14   8  11  1   
 15   8  12  1   
 16   9  13  1   
 17  10  28  1   
 18  10  29  1   
 19  10  30  1   
 20  11  31  1   
 21  11  32  1   
 22  11  33  1   
 23  12  34  1   
 24  12  35  1   
 25  12  36  1   
 26  13  14  1   
 27  13  37  1   
 28  13  38  1   
 29  14  15  2   
 30  14  16  am  
 31  16  17  1   
 32  16  39  1   
 33  17  18  1   
 34  17  19  2   
 35  18  20  1   
 36  19  21  1   
 37  20  21  2   
 38  20  22  1   
 39  22  23  1   
 40  22  40  1   
 41  22  41  1   
 42  23  24  1   
 43  24  42  1   
 44  24  43  1   
 45  24  44  1   
@<TRIPOS>SUBSTRUCTURE
  1 ****   9 GROUP 4 **** **** 0

# MOE 2024.06 (io_trps.svl 2023.06)
