@<TRIPOS>MOLECULE
NONAME
33 33 1 0 0 
SMALL
USER_CHARGES


@<TRIPOS>ATOM
  1 BR       0.3880    -0.4780    -0.4090 Br    1 <1>  -0.1110 
  2 C       -1.4110    -1.1260    -0.1710 C.ar  1 <1>   0.1110 
  3 C       -1.6280    -2.4890    -0.1430 C.ar  1 <1>  -0.1500 
  4 C       -2.4340    -0.2120    -0.0370 C.ar  1 <1>  -0.1500 
  5 C       -2.9210    -2.9740     0.0260 C.ar  1 <1>  -0.1440 
  6 C       -3.7170    -0.6920     0.1350 C.ar  1 <1>  -0.1500 
  7 C       -3.9780    -2.0620     0.1690 C.ar  1 <1>   0.1170 
  8 C       -3.2150    -4.4800     0.0540 C.3   1 <1>  -0.0160 
  9 N       -5.2880    -2.5290     0.3720 N.am  1 <1>  -0.5470 
 10 C       -2.0290    -5.4000    -0.2610 C.3   1 <1>  -0.2400 
 11 C       -6.4860    -2.0020    -0.0060 C.2   1 <1>   0.6900 
 12 O       -6.5670    -1.0210    -0.7180 O.2   1 <1>  -0.5700 
 13 N       -7.6060    -2.6230     0.4380 N.am  1 <1>  -0.7300 
 14 C       -8.9830    -2.2070     0.0980 C.3   1 <1>   0.1400 
 15 C       -9.8570    -3.4510    -0.0580 C.3   1 <1>  -0.1600 
 16 C      -11.3000    -3.0760    -0.4120 C.3   1 <1>  -0.2400 
 17 H       -0.7790    -3.1360    -0.2550 H     1 <1>   0.1500 
 18 H       -2.2320     0.8440    -0.0660 H     1 <1>   0.1500 
 19 H       -4.5270     0.0070     0.2470 H     1 <1>   0.1500 
 20 H       -3.9890    -4.6880    -0.6660 H     1 <1>   0.0800 
 21 H       -3.5920    -4.7390     1.0280 H     1 <1>   0.0800 
 22 H       -5.3550    -3.4700     0.7350 H     1 <1>   0.3700 
 23 H       -1.6280    -5.1760    -1.2340 H     1 <1>   0.0800 
 24 H       -2.3520    -6.4260    -0.2560 H     1 <1>   0.0800 
 25 H       -1.2560    -5.2870     0.4780 H     1 <1>   0.0800 
 26 H       -7.5300    -3.2990     1.1930 H     1 <1>   0.3700 
 27 H       -8.9780    -1.6440    -0.8210 H     1 <1>   0.0800 
 28 H       -9.3660    -1.5760     0.8820 H     1 <1>   0.0800 
 29 H       -9.8560    -4.0110     0.8600 H     1 <1>   0.0800 
 30 H       -9.4540    -4.0700    -0.8420 H     1 <1>   0.0800 
 31 H      -11.7330    -2.4670     0.3630 H     1 <1>   0.0800 
 32 H      -11.8960    -3.9650    -0.5210 H     1 <1>   0.0800 
 33 H      -11.3300    -2.5290    -1.3390 H     1 <1>   0.0800 
@<TRIPOS>BOND
  1   1   2  1   
  2   2   3  ar  
  3   2   4  ar  
  4   3   5  ar  
  5   3  17  1   
  6   4   6  ar  
  7   4  18  1   
  8   5   7  ar  
  9   5   8  1   
 10   6   7  ar  
 11   6  19  1   
 12   7   9  1   
 13   8  10  1   
 14   8  20  1   
 15   8  21  1   
 16   9  11  am  
 17   9  22  1   
 18  10  23  1   
 19  10  24  1   
 20  10  25  1   
 21  11  12  2   
 22  11  13  am  
 23  13  14  1   
 24  13  26  1   
 25  14  15  1   
 26  14  27  1   
 27  14  28  1   
 28  15  16  1   
 29  15  29  1   
 30  15  30  1   
 31  16  31  1   
 32  16  32  1   
 33  16  33  1   
@<TRIPOS>SUBSTRUCTURE
  1 ****   9 GROUP 4 **** **** 0

# MOE 2024.06 (io_trps.svl 2023.06)
