@<TRIPOS>MOLECULE
23127
35 36 1 0 0 
SMALL
USER_CHARGES


@<TRIPOS>ATOM
  1 O        0.1350     1.0230    -1.3990 O.2   1 <1>  -0.5700 
  2 C       -0.0110     2.1570    -1.0190 C.2   1 <1>   0.6590 
  3 O        0.8390     3.0970    -1.4290 O.3   1 <1>  -0.2330 
  4 C       -1.2050     2.5700    -0.1390 C.3   1 <1>  -0.0190 
  5 C        1.2250     4.1750    -0.6980 C.ar  1 <1>   0.0820 
  6 C       -1.9280     1.3570     0.4860 C.3   1 <1>  -0.1600 
  7 C       -2.2060     3.4320    -0.9340 C.3   1 <1>  -0.1600 
  8 C        1.6730     4.0640     0.6220 C.ar  1 <1>   0.0820 
  9 C        1.1690     5.4200    -1.3030 C.ar  1 <1>  -0.1500 
 10 C       -3.1150     1.7910     1.3560 C.3   1 <1>  -0.1600 
 11 C       -3.3960     3.8650    -0.0670 C.3   1 <1>  -0.1600 
 12 O        1.7720     2.8710     1.2540 O.3   1 <1>  -0.3630 
 13 C        2.0160     5.2050     1.3290 C.ar  1 <1>  -0.1500 
 14 C        1.5260     6.5550    -0.5940 C.ar  1 <1>  -0.1500 
 15 C       -4.1000     2.6530     0.5570 C.3   1 <1>  -0.1600 
 16 C        2.8190     2.0210     0.8360 C.3   1 <1>   0.0400 
 17 C        1.9450     6.4470     0.7220 C.ar  1 <1>  -0.1500 
 18 H       -0.8340     3.1610     0.6770 H     1 <1>   0.0800 
 19 H       -1.2320     0.7950     1.0850 H     1 <1>   0.0800 
 20 H       -2.2820     0.7080    -0.2980 H     1 <1>   0.0800 
 21 H       -2.5680     2.8670    -1.7770 H     1 <1>   0.0800 
 22 H       -1.7120     4.3090    -1.3140 H     1 <1>   0.0800 
 23 H        0.8420     5.5010    -2.3250 H     1 <1>   0.1500 
 24 H       -2.7530     2.3520     2.2010 H     1 <1>   0.0800 
 25 H       -3.6230     0.9190     1.7330 H     1 <1>   0.0800 
 26 H       -4.0980     4.4180    -0.6670 H     1 <1>   0.0800 
 27 H       -3.0480     4.5170     0.7170 H     1 <1>   0.0800 
 28 H        2.3420     5.1140     2.3500 H     1 <1>   0.1500 
 29 H        1.4780     7.5220    -1.0650 H     1 <1>   0.1500 
 30 H       -4.8920     2.9890     1.2040 H     1 <1>   0.0800 
 31 H       -4.5420     2.0570    -0.2230 H     1 <1>   0.0800 
 32 H        2.8020     1.1400     1.4520 H     1 <1>   0.0800 
 33 H        3.7550     2.5380     0.9560 H     1 <1>   0.0800 
 34 H        2.6720     1.7480    -0.1940 H     1 <1>   0.0800 
 35 H        2.2170     7.3310     1.2740 H     1 <1>   0.1500 
@<TRIPOS>BOND
  1   1   2  2   
  2   2   3  1   
  3   2   4  1   
  4   3   5  1   
  5   4   6  1   
  6   4   7  1   
  7   4  18  1   
  8   5   8  ar  
  9   5   9  ar  
 10   6  10  1   
 11   6  19  1   
 12   6  20  1   
 13   7  11  1   
 14   7  21  1   
 15   7  22  1   
 16   8  12  1   
 17   8  13  ar  
 18   9  14  ar  
 19   9  23  1   
 20  10  15  1   
 21  10  24  1   
 22  10  25  1   
 23  11  15  1   
 24  11  26  1   
 25  11  27  1   
 26  12  16  1   
 27  13  17  ar  
 28  13  28  1   
 29  14  17  ar  
 30  14  29  1   
 31  15  30  1   
 32  15  31  1   
 33  16  32  1   
 34  16  33  1   
 35  16  34  1   
 36  17  35  1   
@<TRIPOS>SUBSTRUCTURE
  1 ****   4 GROUP 4 **** **** 0

# MOE 2024.06 (io_trps.svl 2023.06)
