@<TRIPOS>MOLECULE
NONAME
44 46 1 0 0 
SMALL
USER_CHARGES


@<TRIPOS>ATOM
  1 CL       0.1540    -0.5180    -0.3480 Cl    1 <1>  -0.1770 
  2 C        1.6900    -1.2820    -0.0140 C.ar  1 <1>   0.1770 
  3 C        1.7920    -2.1730     1.0380 C.ar  1 <1>  -0.1500 
  4 C        2.7830    -0.9850    -0.8080 C.ar  1 <1>  -0.1500 
  5 C        3.0110    -2.7740     1.2960 C.ar  1 <1>  -0.1500 
  6 C        3.9980    -1.5920    -0.5420 C.ar  1 <1>  -0.1500 
  7 C        4.1260    -2.4940     0.5120 C.ar  1 <1>   0.1000 
  8 N        5.3380    -3.1220     0.7920 N.pl3 1 <1>  -0.8380 
  9 C        5.4420    -4.6040     0.6430 C.3   1 <1>   0.2090 
 10 C        6.6160    -2.3490     0.8450 C.3   1 <1>   0.2090 
 11 C        6.4380    -4.9860    -0.4730 C.3   1 <1>   0.3430 
 12 C        7.5910    -2.7910    -0.2680 C.3   1 <1>   0.3430 
 13 N        7.7690    -4.2920    -0.3270 N.4   1 <1>  -0.9590 
 14 C        8.7250    -4.6940    -1.3940 C.3   1 <1>   0.4860 
 15 C       10.0820    -4.0940    -1.0790 C.ar  1 <1>  -0.1430 
 16 C       10.8720    -4.6350    -0.0720 C.ar  1 <1>  -0.1500 
 17 C       10.5380    -2.9950    -1.7950 C.ar  1 <1>  -0.1500 
 18 C       12.1020    -4.0740     0.2300 C.ar  1 <1>  -0.1500 
 19 C       11.7660    -2.4320    -1.4950 C.ar  1 <1>  -0.1500 
 20 C       12.5390    -2.9710    -0.4850 C.ar  1 <1>   0.1020 
 21 S       14.1190    -2.1740    -0.1550 S.3   1 <1>  -0.3320 
 22 C       14.9620    -3.1660     1.1560 C.3   1 <1>  -0.0100 
 23 H        0.9290    -2.3850     1.6430 H     1 <1>   0.1500 
 24 H        2.6740    -0.2870    -1.6190 H     1 <1>   0.1500 
 25 H        3.1050    -3.4600     2.1180 H     1 <1>   0.1500 
 26 H        4.8430    -1.3650    -1.1610 H     1 <1>   0.1500 
 27 H        4.4740    -5.0130     0.4070 H     1 <1>   0.0800 
 28 H        5.7580    -5.0310     1.5790 H     1 <1>   0.0800 
 29 H        7.0760    -2.5000     1.8070 H     1 <1>   0.0800 
 30 H        6.4120    -1.2960     0.7500 H     1 <1>   0.0800 
 31 H        5.9950    -4.7190    -1.4180 H     1 <1>   0.0800 
 32 H        6.5760    -6.0550    -0.4640 H     1 <1>   0.0800 
 33 H        8.5430    -2.3140    -0.1020 H     1 <1>   0.0800 
 34 H        7.2060    -2.4380    -1.2090 H     1 <1>   0.0800 
 35 H        8.1850    -4.5710     0.5690 H     1 <1>   0.4500 
 36 H        8.3820    -4.3460    -2.3550 H     1 <1>   0.0800 
 37 H        8.8120    -5.7680    -1.4320 H     1 <1>   0.0800 
 38 H       10.5490    -5.4970     0.4870 H     1 <1>   0.1500 
 39 H        9.9540    -2.5650    -2.5920 H     1 <1>   0.1500 
 40 H       12.7030    -4.4990     1.0100 H     1 <1>   0.1500 
 41 H       12.1320    -1.5790    -2.0410 H     1 <1>   0.1500 
 42 H       15.9200    -2.7130     1.3370 H     1 <1>   0.0800 
 43 H       15.0790    -4.1700     0.7900 H     1 <1>   0.0800 
 44 H       14.3540    -3.1350     2.0410 H     1 <1>   0.0800 
@<TRIPOS>BOND
  1   1   2  1   
  2   2   3  ar  
  3   2   4  ar  
  4   3   5  ar  
  5   3  23  1   
  6   4   6  ar  
  7   4  24  1   
  8   5   7  ar  
  9   5  25  1   
 10   6   7  ar  
 11   6  26  1   
 12   7   8  1   
 13   8   9  1   
 14   8  10  1   
 15   9  11  1   
 16   9  27  1   
 17   9  28  1   
 18  10  12  1   
 19  10  29  1   
 20  10  30  1   
 21  11  13  1   
 22  11  31  1   
 23  11  32  1   
 24  12  13  1   
 25  12  33  1   
 26  12  34  1   
 27  13  14  1   
 28  13  35  1   
 29  14  15  1   
 30  14  36  1   
 31  14  37  1   
 32  15  16  ar  
 33  15  17  ar  
 34  16  18  ar  
 35  16  38  1   
 36  17  19  ar  
 37  17  39  1   
 38  18  20  ar  
 39  18  40  1   
 40  19  20  ar  
 41  19  41  1   
 42  20  21  1   
 43  21  22  1   
 44  22  42  1   
 45  22  43  1   
 46  22  44  1   
@<TRIPOS>SUBSTRUCTURE
  1 ****  12 GROUP 4 **** **** 0

# MOE 2024.06 (io_trps.svl 2023.06)
