@<TRIPOS>MOLECULE
NONAME
47 49 1 0 0 
SMALL
USER_CHARGES


@<TRIPOS>ATOM
  1 S       -0.4070     0.2690     0.9400 S.o2  1 <1>   1.4470 
  2 O       -0.7520     0.3400     2.3430 O.2   1 <1>  -0.6500 
  3 O       -0.3260    -1.0230     0.2950 O.2   1 <1>  -0.6500 
  4 N       -1.5980     1.1450     0.1110 N.am  1 <1>  -0.8490 
  5 C        1.1080     1.2110     0.6070 C.ar  1 <1>  -0.0090 
  6 C       -1.8670     2.4540     0.7390 C.3   1 <1>   0.1960 
  7 C       -2.8460     0.3700     0.0100 C.3   1 <1>   0.1960 
  8 C        1.8430     1.7870     1.6380 C.ar  1 <1>  -0.1500 
  9 C        1.5630     1.3890    -0.6950 C.ar  1 <1>  -0.1500 
 10 C       -2.9040     3.2640    -0.0570 C.3   1 <1>   0.1400 
 11 C       -3.9250     1.1160    -0.7960 C.3   1 <1>   0.1400 
 12 C        2.9900     2.5180     1.3790 C.ar  1 <1>  -0.1500 
 13 C        2.7090     2.1180    -0.9620 C.ar  1 <1>  -0.1500 
 14 N       -4.1660     2.4830    -0.2360 N.am  1 <1>  -0.6600 
 15 C        3.4240     2.6840     0.0770 C.ar  1 <1>  -0.1500 
 16 C       -5.3830     2.9960     0.1360 C.2   1 <1>   0.5690 
 17 O       -5.4750     4.0930     0.6370 O.2   1 <1>  -0.5700 
 18 C       -6.6510     2.1820    -0.0740 C.3   1 <1>  -0.0990 
 19 C       -7.9450     2.9340     0.2730 C.3   1 <1>  -0.0170 
 20 C       -9.1480     2.0400     0.0210 C.ar  1 <1>  -0.1430 
 21 C       -9.6550     1.2450     1.0370 C.ar  1 <1>  -0.1500 
 22 C       -9.7450     2.0080    -1.2300 C.ar  1 <1>  -0.1500 
 23 C      -10.7450     0.4240     0.8050 C.ar  1 <1>  -0.1500 
 24 C      -10.8350     1.1870    -1.4640 C.ar  1 <1>  -0.1500 
 25 C      -11.3350     0.3940    -0.4460 C.ar  1 <1>  -0.1500 
 26 H       -0.9560     3.0240     0.7930 H     1 <1>   0.0800 
 27 H       -2.2330     2.3170     1.7440 H     1 <1>   0.0800 
 28 H       -3.2240     0.1540     0.9970 H     1 <1>   0.0800 
 29 H       -2.6490    -0.5690    -0.4790 H     1 <1>   0.0800 
 30 H        1.5160     1.6610     2.6570 H     1 <1>   0.1500 
 31 H        1.0100     0.9500    -1.5080 H     1 <1>   0.1500 
 32 H       -2.4990     3.5070    -1.0230 H     1 <1>   0.0800 
 33 H       -3.0980     4.1880     0.4600 H     1 <1>   0.0800 
 34 H       -4.8240     0.5280    -0.7930 H     1 <1>   0.0800 
 35 H       -3.5950     1.2090    -1.8160 H     1 <1>   0.0800 
 36 H        3.5460     2.9540     2.1920 H     1 <1>   0.1500 
 37 H        3.0450     2.2430    -1.9780 H     1 <1>   0.1500 
 38 H        4.3160     3.2510    -0.1270 H     1 <1>   0.1500 
 39 H       -6.5930     1.3000     0.5360 H     1 <1>   0.0800 
 40 H       -6.6980     1.8830    -1.1040 H     1 <1>   0.0800 
 41 H       -8.0200     3.8250    -0.3260 H     1 <1>   0.0800 
 42 H       -7.9250     3.2370     1.3050 H     1 <1>   0.0800 
 43 H       -9.2030     1.2620     2.0130 H     1 <1>   0.1500 
 44 H       -9.3630     2.6210    -2.0270 H     1 <1>   0.1500 
 45 H      -11.1350    -0.1900     1.5980 H     1 <1>   0.1500 
 46 H      -11.2940     1.1660    -2.4370 H     1 <1>   0.1500 
 47 H      -12.1830    -0.2430    -0.6270 H     1 <1>   0.1500 
@<TRIPOS>BOND
  1   1   2  2   
  2   1   3  2   
  3   1   4  am  
  4   1   5  1   
  5   4   6  1   
  6   4   7  1   
  7   5   8  ar  
  8   5   9  ar  
  9   6  10  1   
 10   6  26  1   
 11   6  27  1   
 12   7  11  1   
 13   7  28  1   
 14   7  29  1   
 15   8  12  ar  
 16   8  30  1   
 17   9  13  ar  
 18   9  31  1   
 19  10  14  1   
 20  10  32  1   
 21  10  33  1   
 22  11  14  1   
 23  11  34  1   
 24  11  35  1   
 25  12  15  ar  
 26  12  36  1   
 27  13  15  ar  
 28  13  37  1   
 29  14  16  am  
 30  15  38  1   
 31  16  17  2   
 32  16  18  1   
 33  18  19  1   
 34  18  39  1   
 35  18  40  1   
 36  19  20  1   
 37  19  41  1   
 38  19  42  1   
 39  20  21  ar  
 40  20  22  ar  
 41  21  23  ar  
 42  21  43  1   
 43  22  24  ar  
 44  22  44  1   
 45  23  25  ar  
 46  23  45  1   
 47  24  25  ar  
 48  24  46  1   
 49  25  47  1   
@<TRIPOS>SUBSTRUCTURE
  1 ****  14 GROUP 4 **** **** 0

# MOE 2024.06 (io_trps.svl 2023.06)
