@<TRIPOS>MOLECULE
NONAME
37 40 1 0 0 
SMALL
USER_CHARGES


@<TRIPOS>ATOM
  1 O        0.7430     1.8530    -1.4410 O.2   1 <1>  -0.5700 
  2 C        0.8590     1.4840    -0.2970 C.2   1 <1>   0.5690 
  3 N       -0.0770     1.6180     0.6660 N.am  1 <1>  -0.5060 
  4 C        2.1760     0.8440     0.1060 C.3   1 <1>  -0.0990 
  5 C       -1.3730     2.0900     0.6570 C.2   1 <1>   0.8140 
  6 C        2.2110    -0.7000     0.0200 C.3   1 <1>   0.0000 
  7 N       -2.0120     2.6550    -0.2990 N.2   1 <1>  -0.6190 
  8 N       -2.0640     1.9700     1.7350 N.2   1 <1>  -0.6190 
  9 C        1.9120    -1.1850    -1.4190 C.3   1 <1>  -0.1600 
 10 C        1.1880    -1.3570     0.9790 C.3   1 <1>  -0.1600 
 11 C        3.6270    -1.1870     0.4130 C.3   1 <1>  -0.1600 
 12 N       -3.1800     2.9120     0.1930 N.2   1 <1>  -0.2500 
 13 N       -3.2110     2.4950     1.4270 N.2   1 <1>  -0.2500 
 14 C        2.0010    -2.7210    -1.5080 C.3   1 <1>  -0.0800 
 15 C        1.2760    -2.8930     0.9030 C.3   1 <1>  -0.0800 
 16 C        3.7250    -2.7220     0.3320 C.3   1 <1>  -0.0800 
 17 C        0.9780    -3.3430    -0.5400 C.3   1 <1>  -0.1600 
 18 C        3.4170    -3.1720    -1.1070 C.3   1 <1>  -0.1600 
 19 C        2.6950    -3.3440     1.2920 C.3   1 <1>  -0.1600 
 20 H        0.1020     1.2510     1.5870 H     1 <1>   0.3700 
 21 H        2.4160     1.1540     1.1060 H     1 <1>   0.0800 
 22 H        2.9370     1.2460    -0.5370 H     1 <1>   0.0800 
 23 H        0.9250    -0.8740    -1.7170 H     1 <1>   0.0800 
 24 H        2.6090    -0.7420    -2.1080 H     1 <1>   0.0800 
 25 H        0.1870    -1.0640     0.7150 H     1 <1>   0.0800 
 26 H        1.3700    -1.0380     1.9900 H     1 <1>   0.0800 
 27 H        3.8600    -0.8690     1.4140 H     1 <1>   0.0800 
 28 H        4.3580    -0.7520    -0.2460 H     1 <1>   0.0800 
 29 H        1.7880    -3.0370    -2.5150 H     1 <1>   0.0800 
 30 H        0.5570    -3.3310     1.5740 H     1 <1>   0.0800 
 31 H        4.7170    -3.0380     0.6080 H     1 <1>   0.0800 
 32 H        1.0200    -4.4160    -0.6040 H     1 <1>   0.0800 
 33 H       -0.0170    -3.0370    -0.8170 H     1 <1>   0.0800 
 34 H        4.1390    -2.7490    -1.7850 H     1 <1>   0.0800 
 35 H        3.4920    -4.2430    -1.1780 H     1 <1>   0.0800 
 36 H        2.7600    -4.4170     1.2500 H     1 <1>   0.0800 
 37 H        2.9090    -3.0430     2.3030 H     1 <1>   0.0800 
@<TRIPOS>BOND
  1   1   2  2   
  2   2   3  am  
  3   2   4  1   
  4   3   5  1   
  5   3  20  1   
  6   4   6  1   
  7   4  21  1   
  8   4  22  1   
  9   5   7  1   
 10   5   8  2   
 11   6   9  1   
 12   6  10  1   
 13   6  11  1   
 14   7  12  1   
 15   8  13  1   
 16   9  14  1   
 17   9  23  1   
 18   9  24  1   
 19  10  15  1   
 20  10  25  1   
 21  10  26  1   
 22  11  16  1   
 23  11  27  1   
 24  11  28  1   
 25  12  13  2   
 26  14  17  1   
 27  14  18  1   
 28  14  29  1   
 29  15  17  1   
 30  15  19  1   
 31  15  30  1   
 32  16  18  1   
 33  16  19  1   
 34  16  31  1   
 35  17  32  1   
 36  17  33  1   
 37  18  34  1   
 38  18  35  1   
 39  19  36  1   
 40  19  37  1   
@<TRIPOS>SUBSTRUCTURE
  1 ****  10 GROUP 4 **** **** 0

# MOE 2024.06 (io_trps.svl 2023.06)
