@<TRIPOS>MOLECULE
NONAME
46 49 1 0 0 
SMALL
USER_CHARGES


@<TRIPOS>ATOM
  1 CL      -0.1970    -0.8860    -0.6810 Cl    1 <1>  -0.1770 
  2 C        1.0700     0.2390    -0.2420 C.ar  1 <1>   0.1770 
  3 C        0.7580     1.5680     0.0480 C.ar  1 <1>   0.0830 
  4 C        2.3690    -0.2160    -0.1880 C.ar  1 <1>  -0.1500 
  5 O       -0.5080     2.0250     0.0040 O.3   1 <1>  -0.3630 
  6 C        1.7680     2.4380     0.4120 C.ar  1 <1>  -0.1500 
  7 C        3.4010     0.6540     0.1660 C.ar  1 <1>   0.0280 
  8 C       -1.0180     2.3670    -1.2790 C.3   1 <1>   0.1810 
  9 C        3.0790     1.9900     0.4680 C.ar  1 <1>   0.0830 
 10 C        4.7780     0.2850     0.2490 C.2   1 <1>  -0.1670 
 11 C       -2.4260     2.9400    -1.1820 C.2   1 <1>   0.5690 
 12 O        4.0460     2.8750     0.8210 O.3   1 <1>  -0.2330 
 13 C        5.6930     1.1940     0.6020 C.2   1 <1>  -0.1240 
 14 C        5.3860    -1.0710    -0.0140 C.3   1 <1>  -0.0220 
 15 O       -2.9880     3.2700    -2.1980 O.2   1 <1>  -0.5700 
 16 N       -3.0200     3.0580     0.0340 N.am  1 <1>  -0.7300 
 17 C        5.3410     2.5470     0.9040 C.2   1 <1>   0.7060 
 18 C        7.0880     0.6200     0.6430 C.3   1 <1>  -0.0220 
 19 C        6.9020    -0.8170     0.1150 C.3   1 <1>  -0.1600 
 20 C       -4.3990     3.5620     0.2730 C.3   1 <1>   0.1400 
 21 O        6.1380     3.4050     1.2260 O.2   1 <1>  -0.5700 
 22 C       -5.4540     2.4980    -0.0640 C.3   1 <1>   0.2000 
 23 O       -6.7000     2.9300     0.3720 O.3   1 <1>  -0.5600 
 24 C       -5.2670     1.1570     0.6350 C.3   1 <1>  -0.1600 
 25 C       -7.5650     1.8460     0.4780 C.3   1 <1>   0.1200 
 26 C       -6.6870     0.6240     0.7450 C.3   1 <1>  -0.1600 
 27 H        2.5820    -1.2440    -0.4180 H     1 <1>   0.1500 
 28 H        1.5400     3.4600     0.6520 H     1 <1>   0.1500 
 29 H       -1.0350     1.4850    -1.8910 H     1 <1>   0.0800 
 30 H       -0.3660     3.0990    -1.7210 H     1 <1>   0.0800 
 31 H        5.1370    -1.4260    -0.9990 H     1 <1>   0.0800 
 32 H        5.0510    -1.7780     0.7250 H     1 <1>   0.0800 
 33 H       -2.5040     2.7210     0.8520 H     1 <1>   0.3700 
 34 H        7.4550     0.6190     1.6540 H     1 <1>   0.0800 
 35 H        7.7550     1.1860     0.0160 H     1 <1>   0.0800 
 36 H        7.3620    -0.9030    -0.8540 H     1 <1>   0.0800 
 37 H        7.3570    -1.5320     0.7780 H     1 <1>   0.0800 
 38 H       -4.5700     4.4270    -0.3440 H     1 <1>   0.0800 
 39 H       -4.4950     3.8480     1.3050 H     1 <1>   0.0800 
 40 H       -5.5130     2.3640    -1.1320 H     1 <1>   0.0800 
 41 H       -4.8530     1.3120     1.6160 H     1 <1>   0.0800 
 42 H       -4.6200     0.5060     0.0740 H     1 <1>   0.0800 
 43 H       -8.0970     1.7490    -0.4530 H     1 <1>   0.0800 
 44 H       -8.2560     2.0360     1.2810 H     1 <1>   0.0800 
 45 H       -6.8800     0.2130     1.7200 H     1 <1>   0.0800 
 46 H       -6.8790    -0.1290     0.0010 H     1 <1>   0.0800 
@<TRIPOS>BOND
  1   1   2  1   
  2   2   3  ar  
  3   2   4  ar  
  4   3   5  1   
  5   3   6  ar  
  6   4   7  ar  
  7   4  27  1   
  8   5   8  1   
  9   6   9  ar  
 10   6  28  1   
 11   7   9  ar  
 12   7  10  1   
 13   8  11  1   
 14   8  29  1   
 15   8  30  1   
 16   9  12  1   
 17  10  13  2   
 18  10  14  1   
 19  11  15  2   
 20  11  16  am  
 21  12  17  1   
 22  13  17  1   
 23  13  18  1   
 24  14  19  1   
 25  14  31  1   
 26  14  32  1   
 27  16  20  1   
 28  16  33  1   
 29  17  21  2   
 30  18  19  1   
 31  18  34  1   
 32  18  35  1   
 33  19  36  1   
 34  19  37  1   
 35  20  22  1   
 36  20  38  1   
 37  20  39  1   
 38  22  23  1   
 39  22  24  1   
 40  22  40  1   
 41  23  25  1   
 42  24  26  1   
 43  24  41  1   
 44  24  42  1   
 45  25  26  1   
 46  25  43  1   
 47  25  44  1   
 48  26  45  1   
 49  26  46  1   
@<TRIPOS>SUBSTRUCTURE
  1 ****   3 GROUP 4 **** **** 0

# MOE 2024.06 (io_trps.svl 2023.06)
