@<TRIPOS>MOLECULE
NONAME
43 44 1 0 0 
SMALL
USER_CHARGES


@<TRIPOS>ATOM
  1 O       -0.2100     2.1090     3.1280 O.2   1 <1>  -0.5700 
  2 C       -1.2070     2.1720     2.4450 C.2   1 <1>   0.6900 
  3 N       -1.3460     1.3710     1.3610 N.am  1 <1>  -0.5390 
  4 N       -2.1860     3.0420     2.7380 N.am  1 <1>  -0.7300 
  5 C       -2.3730     1.4690     0.4440 C.2   1 <1>  -0.0290 
  6 C       -3.2970     3.3430     1.8140 C.3   1 <1>   0.5020 
  7 C       -3.3510     2.4060     0.5980 C.2   1 <1>  -0.1240 
  8 C       -2.2590     0.4590    -0.6870 C.3   1 <1>  -0.1020 
  9 C       -3.2110     4.8270     1.4410 C.ar  1 <1>  -0.1440 
 10 C       -4.4690     2.6670    -0.2590 C.2   1 <1>   0.7060 
 11 C       -2.2020     5.3270     0.6190 C.ar  1 <1>   0.0820 
 12 C       -4.1700     5.6990     1.9400 C.ar  1 <1>  -0.1500 
 13 O       -4.5290     2.3380    -1.4290 O.2   1 <1>  -0.5700 
 14 O       -5.5250     3.3050     0.2610 O.3   1 <1>  -0.4300 
 15 O       -1.2750     4.4540     0.1530 O.3   1 <1>  -0.3630 
 16 C       -2.1710     6.6830     0.3040 C.ar  1 <1>  -0.1500 
 17 C       -4.1330     7.0460     1.6280 C.ar  1 <1>  -0.1500 
 18 C       -6.6400     3.6570    -0.5270 C.3   1 <1>   0.1200 
 19 C       -0.0960     4.8700    -0.4890 C.3   1 <1>   0.2580 
 20 C       -3.1330     7.5380     0.8090 C.ar  1 <1>  -0.1500 
 21 C       -7.6100     4.4390     0.3530 C.3   1 <1>  -0.2400 
 22 C        0.7780     3.6460    -0.6820 C.2   1 <1>  -0.2880 
 23 C        1.2280     3.1870    -1.8540 C.2   1 <1>  -0.3000 
 24 H       -0.5610     0.7390     1.2160 H     1 <1>   0.3700 
 25 H       -1.9410     3.7840     3.3870 H     1 <1>   0.3700 
 26 H       -4.2030     3.1860     2.3730 H     1 <1>   0.0800 
 27 H       -1.4990     0.7790    -1.3780 H     1 <1>   0.0800 
 28 H       -3.1800     0.3400    -1.2230 H     1 <1>   0.0800 
 29 H       -1.9890    -0.5050    -0.2970 H     1 <1>   0.0800 
 30 H       -4.9590     5.3360     2.5760 H     1 <1>   0.1500 
 31 H       -1.4110     7.0920    -0.3330 H     1 <1>   0.1500 
 32 H       -4.8820     7.7120     2.0200 H     1 <1>   0.1500 
 33 H       -7.0930     2.7540    -0.9010 H     1 <1>   0.0800 
 34 H       -6.2980     4.2600    -1.3520 H     1 <1>   0.0800 
 35 H        0.4000     5.5890     0.1400 H     1 <1>   0.0800 
 36 H       -0.3590     5.3120    -1.4330 H     1 <1>   0.0800 
 37 H       -3.1070     8.5860     0.5640 H     1 <1>   0.1500 
 38 H       -7.9300     3.8330     1.1820 H     1 <1>   0.0800 
 39 H       -8.4750     4.7170    -0.2220 H     1 <1>   0.0800 
 40 H       -7.1400     5.3340     0.7170 H     1 <1>   0.0800 
 41 H        1.0010     3.1660     0.2570 H     1 <1>   0.1500 
 42 H        1.8450     2.3110    -1.9560 H     1 <1>   0.1500 
 43 H        1.0160     3.6410    -2.8070 H     1 <1>   0.1500 
@<TRIPOS>BOND
  1   1   2  2   
  2   2   3  am  
  3   2   4  am  
  4   3   5  1   
  5   3  24  1   
  6   4   6  1   
  7   4  25  1   
  8   5   7  2   
  9   5   8  1   
 10   6   7  1   
 11   6   9  1   
 12   6  26  1   
 13   7  10  1   
 14   8  27  1   
 15   8  28  1   
 16   8  29  1   
 17   9  11  ar  
 18   9  12  ar  
 19  10  13  2   
 20  10  14  1   
 21  11  15  1   
 22  11  16  ar  
 23  12  17  ar  
 24  12  30  1   
 25  14  18  1   
 26  15  19  1   
 27  16  20  ar  
 28  16  31  1   
 29  17  20  ar  
 30  17  32  1   
 31  18  21  1   
 32  18  33  1   
 33  18  34  1   
 34  19  22  1   
 35  19  35  1   
 36  19  36  1   
 37  20  37  1   
 38  21  38  1   
 39  21  39  1   
 40  21  40  1   
 41  22  23  2   
 42  22  41  1   
 43  23  42  1   
 44  23  43  1   
@<TRIPOS>SUBSTRUCTURE
  1 ****   6 GROUP 4 **** **** 0

# MOE 2024.06 (io_trps.svl 2023.06)
