@<TRIPOS>MOLECULE
NONAME
50 52 1 0 0 
SMALL
USER_CHARGES


@<TRIPOS>ATOM
  1 O        0.4770    -2.0340     1.4490 O.2   1 <1>  -0.5700 
  2 C        0.6830    -2.0320     0.2600 C.2   1 <1>   0.5690 
  3 N       -0.3130    -1.9580    -0.6760 N.am  1 <1>  -0.5470 
  4 C        2.1220    -2.1180    -0.2520 C.3   1 <1>  -0.0190 
  5 C       -1.7060    -1.8510    -0.5290 C.ar  1 <1>   0.1170 
  6 C        3.0290    -2.9650     0.6650 C.3   1 <1>  -0.1600 
  7 C        2.7260    -0.7120    -0.4320 C.3   1 <1>  -0.1600 
  8 C       -2.5220    -2.2660    -1.5750 C.ar  1 <1>  -0.1500 
  9 C       -2.3100    -1.3300     0.6120 C.ar  1 <1>  -0.1500 
 10 C        4.4700    -3.0090     0.1510 C.3   1 <1>   0.1400 
 11 C        4.1720    -0.7740    -0.9310 C.3   1 <1>   0.1400 
 12 C       -3.8990    -2.1720    -1.4810 C.ar  1 <1>  -0.1500 
 13 C       -3.6870    -1.2350     0.7120 C.ar  1 <1>  -0.1500 
 14 N        4.9820    -1.6200    -0.0110 N.am  1 <1>  -0.6600 
 15 C       -4.4920    -1.6600    -0.3400 C.ar  1 <1>   0.0820 
 16 C        6.0820    -1.1050     0.6290 C.2   1 <1>   0.5690 
 17 O       -5.8490    -1.6090    -0.3290 O.3   1 <1>  -0.3630 
 18 O        6.4720     0.0210     0.4350 O.2   1 <1>  -0.5700 
 19 C        6.8620    -1.9410     1.6160 C.3   1 <1>  -0.1790 
 20 C       -6.5470    -1.2070     0.8290 C.3   1 <1>   0.2630 
 21 C       -8.0410    -1.3110     0.5660 C.ar  1 <1>  -0.1440 
 22 C       -8.6690    -0.3860    -0.2540 C.ar  1 <1>  -0.1500 
 23 C       -8.7900    -2.3260     1.1440 C.ar  1 <1>  -0.1500 
 24 C      -10.0300    -0.4680    -0.4880 C.ar  1 <1>  -0.1500 
 25 C      -10.1520    -2.4090     0.9100 C.ar  1 <1>  -0.1500 
 26 C      -10.7730    -1.4800     0.0950 C.ar  1 <1>  -0.1500 
 27 H       -0.0020    -2.0220    -1.6430 H     1 <1>   0.3700 
 28 H        2.1010    -2.5980    -1.2140 H     1 <1>   0.0800 
 29 H        2.6420    -3.9660     0.7320 H     1 <1>   0.0800 
 30 H        3.0320    -2.5510     1.6600 H     1 <1>   0.0800 
 31 H        2.7080    -0.1880     0.5090 H     1 <1>   0.0800 
 32 H        2.1360    -0.1450    -1.1300 H     1 <1>   0.0800 
 33 H       -2.0850    -2.6710    -2.4680 H     1 <1>   0.1500 
 34 H       -1.7040    -0.9910     1.4320 H     1 <1>   0.1500 
 35 H        4.5030    -3.5050    -0.8030 H     1 <1>   0.0800 
 36 H        5.0750    -3.5740     0.8370 H     1 <1>   0.0800 
 37 H        4.5740     0.2240    -0.9860 H     1 <1>   0.0800 
 38 H        4.2080    -1.1990    -1.9190 H     1 <1>   0.0800 
 39 H       -4.5260    -2.4980    -2.2920 H     1 <1>   0.1500 
 40 H       -4.1040    -0.8270     1.6130 H     1 <1>   0.1500 
 41 H        6.2190    -2.2560     2.4160 H     1 <1>   0.0800 
 42 H        7.6630    -1.3560     2.0310 H     1 <1>   0.0800 
 43 H        7.2810    -2.7950     1.1210 H     1 <1>   0.0800 
 44 H       -6.2780    -0.1900     1.0520 H     1 <1>   0.0800 
 45 H       -6.2570    -1.8520     1.6400 H     1 <1>   0.0800 
 46 H       -8.0960     0.3990    -0.7160 H     1 <1>   0.1500 
 47 H       -8.3160    -3.0570     1.7750 H     1 <1>   0.1500 
 48 H      -10.5110     0.2530    -1.1260 H     1 <1>   0.1500 
 49 H      -10.7270    -3.1990     1.3610 H     1 <1>   0.1500 
 50 H      -11.8310    -1.5440    -0.0870 H     1 <1>   0.1500 
@<TRIPOS>BOND
  1   1   2  2   
  2   2   3  am  
  3   2   4  1   
  4   3   5  1   
  5   3  27  1   
  6   4   6  1   
  7   4   7  1   
  8   4  28  1   
  9   5   8  ar  
 10   5   9  ar  
 11   6  10  1   
 12   6  29  1   
 13   6  30  1   
 14   7  11  1   
 15   7  31  1   
 16   7  32  1   
 17   8  12  ar  
 18   8  33  1   
 19   9  13  ar  
 20   9  34  1   
 21  10  14  1   
 22  10  35  1   
 23  10  36  1   
 24  11  14  1   
 25  11  37  1   
 26  11  38  1   
 27  12  15  ar  
 28  12  39  1   
 29  13  15  ar  
 30  13  40  1   
 31  14  16  am  
 32  15  17  1   
 33  16  18  2   
 34  16  19  1   
 35  17  20  1   
 36  19  41  1   
 37  19  42  1   
 38  19  43  1   
 39  20  21  1   
 40  20  44  1   
 41  20  45  1   
 42  21  22  ar  
 43  21  23  ar  
 44  22  24  ar  
 45  22  46  1   
 46  23  25  ar  
 47  23  47  1   
 48  24  26  ar  
 49  24  48  1   
 50  25  26  ar  
 51  25  49  1   
 52  26  50  1   
@<TRIPOS>SUBSTRUCTURE
  1 ****   5 GROUP 4 **** **** 0

# MOE 2024.06 (io_trps.svl 2023.06)
