@<TRIPOS>MOLECULE
NONAME
46 47 1 0 0 
SMALL
USER_CHARGES


@<TRIPOS>ATOM
  1 S       -0.3600     0.2920    -0.8880 S.o2  1 <1>   1.4470 
  2 O        0.8940    -0.3860    -0.6320 O.2   1 <1>  -0.6500 
  3 O       -0.6490     0.7760    -2.2190 O.2   1 <1>  -0.6500 
  4 N       -0.4220     1.6360     0.1400 N.am  1 <1>  -0.8490 
  5 C       -1.7510    -0.7190    -0.3120 C.ar  1 <1>  -0.0090 
  6 C        0.4290     2.7250    -0.3050 C.3   1 <1>   0.1960 
  7 C       -0.0270     1.3710     1.5130 C.3   1 <1>   0.1960 
  8 C       -3.0010    -0.1530    -0.1160 C.ar  1 <1>  -0.1500 
  9 C       -1.6110    -2.0770    -0.0600 C.ar  1 <1>  -0.1500 
 10 C        0.5430     3.6420     0.9080 C.3   1 <1>  -0.1600 
 11 C        0.2040     2.7550     2.1070 C.3   1 <1>  -0.1600 
 12 C       -4.1060    -0.8830     0.3190 C.ar  1 <1>   0.0860 
 13 C       -2.6840    -2.8320     0.3750 C.ar  1 <1>  -0.1500 
 14 C       -3.9260    -2.2490     0.5650 C.ar  1 <1>  -0.1430 
 15 C       -5.3750    -0.1970     0.4840 C.2   1 <1>   0.5440 
 16 C       -5.0820    -3.1210     1.0410 C.3   1 <1>  -0.0960 
 17 O       -6.0110    -0.2770     1.5160 O.2   1 <1>  -0.5700 
 18 N       -5.8570     0.5730    -0.5350 N.am  1 <1>  -0.7300 
 19 C       -7.0570     1.4380    -0.4830 C.3   1 <1>   0.1400 
 20 C       -6.6690     2.9050    -0.7330 C.3   1 <1>  -0.0800 
 21 C       -7.9110     3.7990    -0.6250 C.3   1 <1>  -0.2400 
 22 C       -6.0050     3.1120    -2.1040 C.3   1 <1>  -0.2400 
 23 H       -0.0020     3.2280    -1.1550 H     1 <1>   0.0800 
 24 H        1.4030     2.3450    -0.5700 H     1 <1>   0.0800 
 25 H        0.8960     0.8130     1.5390 H     1 <1>   0.0800 
 26 H       -0.7920     0.8290     2.0430 H     1 <1>   0.0800 
 27 H       -3.1180     0.9020    -0.3010 H     1 <1>   0.1500 
 28 H       -0.6520    -2.5470    -0.2050 H     1 <1>   0.1500 
 29 H       -0.1680     4.4450     0.8240 H     1 <1>   0.0800 
 30 H        1.5330     4.0550     0.9780 H     1 <1>   0.0800 
 31 H        0.9950     2.7340     2.8350 H     1 <1>   0.0800 
 32 H       -0.7000     3.0980     2.5790 H     1 <1>   0.0800 
 33 H       -2.5430    -3.8820     0.5650 H     1 <1>   0.1500 
 34 H       -5.9410    -2.9780     0.4100 H     1 <1>   0.0800 
 35 H       -5.3490    -2.8540     2.0480 H     1 <1>   0.0800 
 36 H       -4.8190    -4.1630     1.0230 H     1 <1>   0.0800 
 37 H       -5.3390     0.6100    -1.4140 H     1 <1>   0.3700 
 38 H       -7.5270     1.3490     0.4830 H     1 <1>   0.0800 
 39 H       -7.7610     1.1090    -1.2280 H     1 <1>   0.0800 
 40 H       -5.9790     3.2030     0.0390 H     1 <1>   0.0800 
 41 H       -8.6340     3.5390    -1.3790 H     1 <1>   0.0800 
 42 H       -7.6400     4.8330    -0.7500 H     1 <1>   0.0800 
 43 H       -8.3680     3.6870     0.3430 H     1 <1>   0.0800 
 44 H       -6.6510     2.7720    -2.8940 H     1 <1>   0.0800 
 45 H       -5.0730     2.5780    -2.1630 H     1 <1>   0.0800 
 46 H       -5.7940     4.1560    -2.2600 H     1 <1>   0.0800 
@<TRIPOS>BOND
  1   1   2  2   
  2   1   3  2   
  3   1   4  am  
  4   1   5  1   
  5   4   6  1   
  6   4   7  1   
  7   5   8  ar  
  8   5   9  ar  
  9   6  10  1   
 10   6  23  1   
 11   6  24  1   
 12   7  11  1   
 13   7  25  1   
 14   7  26  1   
 15   8  12  ar  
 16   8  27  1   
 17   9  13  ar  
 18   9  28  1   
 19  10  11  1   
 20  10  29  1   
 21  10  30  1   
 22  11  31  1   
 23  11  32  1   
 24  12  14  ar  
 25  12  15  1   
 26  13  14  ar  
 27  13  33  1   
 28  14  16  1   
 29  15  17  2   
 30  15  18  am  
 31  16  34  1   
 32  16  35  1   
 33  16  36  1   
 34  18  19  1   
 35  18  37  1   
 36  19  20  1   
 37  19  38  1   
 38  19  39  1   
 39  20  21  1   
 40  20  22  1   
 41  20  40  1   
 42  21  41  1   
 43  21  42  1   
 44  21  43  1   
 45  22  44  1   
 46  22  45  1   
 47  22  46  1   
@<TRIPOS>SUBSTRUCTURE
  1 ****   8 GROUP 4 **** **** 0

# MOE 2024.06 (io_trps.svl 2023.06)
