@<TRIPOS>MOLECULE
NONAME
48 51 1 0 0 
SMALL
USER_CHARGES


@<TRIPOS>ATOM
  1 S       -0.9900     0.5230     0.6620 S.3   1 <1>  -0.2420 
  2 C       -0.1430     2.0160     0.2580 C.2   1 <1>   0.6510 
  3 C       -2.2790     1.4130     1.4950 C.2   1 <1>  -0.0490 
  4 N        0.9710     2.0400    -0.4030 N.2   1 <1>  -0.6210 
  5 N       -0.8410     3.0830     0.7570 N.am  1 <1>  -0.2290 
  6 C       -2.0270     2.7280     1.4390 C.2   1 <1>  -0.0410 
  7 C        1.5010     3.2840    -0.6340 C.2   1 <1>   0.0330 
  8 C       -0.3180     4.3360     0.5550 C.2   1 <1>   0.6160 
  9 C        0.8960     4.4120    -0.1760 C.2   1 <1>  -0.1360 
 10 C        2.8030     3.3120    -1.4340 C.3   1 <1>   0.4810 
 11 O       -0.8730     5.3290     0.9930 O.2   1 <1>  -0.5700 
 12 N        3.6490     2.1700    -0.9960 N.4   1 <1>  -0.9590 
 13 C        4.2730     2.3940     0.3580 C.3   1 <1>   0.3430 
 14 C        4.6690     1.7570    -2.0250 C.3   1 <1>   0.3430 
 15 C        5.1080     1.1870     0.8390 C.3   1 <1>   0.2090 
 16 C        5.4820     0.5220    -1.5860 C.3   1 <1>   0.2090 
 17 N        6.0440     0.7020    -0.2170 N.pl3 1 <1>  -0.8380 
 18 C        7.4020     1.0060    -0.1150 C.ar  1 <1>   0.1000 
 19 C        8.3690     0.0000    -0.0030 C.ar  1 <1>  -0.1430 
 20 C        7.8060     2.3360    -0.1480 C.ar  1 <1>  -0.1500 
 21 C        9.7180     0.3420     0.0520 C.ar  1 <1>  -0.1430 
 22 C        7.9430    -1.4680     0.0540 C.3   1 <1>  -0.0970 
 23 C        9.1420     2.6720    -0.0780 C.ar  1 <1>  -0.1500 
 24 C       10.0940     1.6770     0.0190 C.ar  1 <1>  -0.1500 
 25 C       10.8180    -0.7070     0.1500 C.3   1 <1>  -0.0970 
 26 H       -3.0780     0.8360     1.9290 H     1 <1>   0.1500 
 27 H       -2.6310     3.5190     1.8570 H     1 <1>   0.1500 
 28 H        1.2820     5.4020    -0.3360 H     1 <1>   0.1500 
 29 H        3.3200     4.2480    -1.2990 H     1 <1>   0.0800 
 30 H        2.5600     3.1990    -2.4780 H     1 <1>   0.0800 
 31 H        2.9670     1.3990    -0.8760 H     1 <1>   0.4500 
 32 H        3.5050     2.5960     1.0860 H     1 <1>   0.0800 
 33 H        4.9220     3.2520     0.3160 H     1 <1>   0.0800 
 34 H        5.3600     2.5660    -2.1930 H     1 <1>   0.0800 
 35 H        4.1810     1.5370    -2.9600 H     1 <1>   0.0800 
 36 H        4.4510     0.3820     1.1190 H     1 <1>   0.0800 
 37 H        5.6700     1.4650     1.7150 H     1 <1>   0.0800 
 38 H        6.2860     0.3560    -2.2830 H     1 <1>   0.0800 
 39 H        4.8550    -0.3520    -1.5970 H     1 <1>   0.0800 
 40 H        7.0780     3.1150    -0.2320 H     1 <1>   0.1500 
 41 H        6.9420    -1.5730     0.4300 H     1 <1>   0.0800 
 42 H        8.5810    -2.0310     0.7090 H     1 <1>   0.0800 
 43 H        7.9870    -1.8960    -0.9300 H     1 <1>   0.0800 
 44 H        9.4470     3.7040    -0.1020 H     1 <1>   0.1500 
 45 H       11.1340     1.9490     0.0680 H     1 <1>   0.1500 
 46 H       10.6760    -1.4670    -0.5980 H     1 <1>   0.0800 
 47 H       10.8050    -1.1620     1.1230 H     1 <1>   0.0800 
 48 H       11.7870    -0.2670    -0.0060 H     1 <1>   0.0800 
@<TRIPOS>BOND
  1   1   2  1   
  2   1   3  1   
  3   2   4  2   
  4   2   5  1   
  5   3   6  2   
  6   3  26  1   
  7   4   7  1   
  8   5   6  1   
  9   5   8  am  
 10   6  27  1   
 11   7   9  2   
 12   7  10  1   
 13   8   9  1   
 14   8  11  2   
 15   9  28  1   
 16  10  12  1   
 17  10  29  1   
 18  10  30  1   
 19  12  13  1   
 20  12  14  1   
 21  12  31  1   
 22  13  15  1   
 23  13  32  1   
 24  13  33  1   
 25  14  16  1   
 26  14  34  1   
 27  14  35  1   
 28  15  17  1   
 29  15  36  1   
 30  15  37  1   
 31  16  17  1   
 32  16  38  1   
 33  16  39  1   
 34  17  18  1   
 35  18  19  ar  
 36  18  20  ar  
 37  19  21  ar  
 38  19  22  1   
 39  20  23  ar  
 40  20  40  1   
 41  21  24  ar  
 42  21  25  1   
 43  22  41  1   
 44  22  42  1   
 45  22  43  1   
 46  23  24  ar  
 47  23  44  1   
 48  24  45  1   
 49  25  46  1   
 50  25  47  1   
 51  25  48  1   
@<TRIPOS>SUBSTRUCTURE
  1 ****  13 GROUP 4 **** **** 0

# MOE 2024.06 (io_trps.svl 2023.06)
