@<TRIPOS>MOLECULE
NONAME
53 55 1 0 0 
SMALL
USER_CHARGES


@<TRIPOS>ATOM
  1 O       -1.5600     1.1020     0.0880 O.2   1 <1>  -0.5700 
  2 C       -1.2770     1.2840    -1.0800 C.2   1 <1>   0.6900 
  3 N       -2.2470     1.0960    -2.0180 N.am  1 <1>  -0.6600 
  4 N       -0.0580     1.7080    -1.5050 N.am  1 <1>  -0.5470 
  5 C       -3.0950    -0.1250    -1.8820 C.3   1 <1>   0.1400 
  6 C       -3.0270     2.3030    -2.4040 C.3   1 <1>   0.1400 
  7 C        1.0990     2.0920    -0.8100 C.ar  1 <1>   0.1170 
  8 C       -4.2420     0.1180    -0.8780 C.3   1 <1>   0.3430 
  9 C       -4.1640     2.5470    -1.3880 C.3   1 <1>   0.3430 
 10 C        1.1010     2.4460     0.5360 C.ar  1 <1>  -0.1500 
 11 C        2.3040     2.1370    -1.5010 C.ar  1 <1>  -0.1500 
 12 N       -5.0590     1.3400    -1.2240 N.4   1 <1>  -0.9590 
 13 C        2.2700     2.8280     1.1680 C.ar  1 <1>  -0.1500 
 14 C        3.4750     2.5190    -0.8710 C.ar  1 <1>  -0.1500 
 15 C       -6.0990     1.5520    -0.1690 C.3   1 <1>   0.3430 
 16 C        3.4670     2.8660     0.4700 C.ar  1 <1>  -0.1440 
 17 C       -7.1270     2.6130    -0.5690 C.3   1 <1>  -0.0170 
 18 C        4.7510     3.2840     1.1660 C.3   1 <1>  -0.0170 
 19 C       -8.2050     2.6650     0.4960 C.ar  1 <1>  -0.1440 
 20 C        4.9590     4.7960     1.0500 C.3   1 <1>  -0.2400 
 21 C       -9.3740     1.9330     0.3480 C.ar  1 <1>  -0.1500 
 22 C       -8.0250     3.4370     1.6340 C.ar  1 <1>  -0.1500 
 23 C      -10.3490     1.9690     1.3290 C.ar  1 <1>  -0.1500 
 24 C       -9.0000     3.4720     2.6150 C.ar  1 <1>  -0.1500 
 25 C      -10.1620     2.7380     2.4640 C.ar  1 <1>  -0.1500 
 26 H        0.0520     1.6390    -2.5130 H     1 <1>   0.3700 
 27 H       -2.4870    -0.9420    -1.5290 H     1 <1>   0.0800 
 28 H       -3.4910    -0.4010    -2.8430 H     1 <1>   0.0800 
 29 H       -3.4300     2.1760    -3.3930 H     1 <1>   0.0800 
 30 H       -2.3770     3.1630    -2.4200 H     1 <1>   0.0800 
 31 H       -3.8060     0.2410     0.1010 H     1 <1>   0.0800 
 32 H       -4.8750    -0.7530    -0.8480 H     1 <1>   0.0800 
 33 H       -4.7440     3.3960    -1.7090 H     1 <1>   0.0800 
 34 H       -3.7160     2.7920    -0.4370 H     1 <1>   0.0800 
 35 H        0.1910     2.4300     1.1030 H     1 <1>   0.1500 
 36 H        2.3350     1.8700    -2.5410 H     1 <1>   0.1500 
 37 H       -5.5290     1.1580    -2.1200 H     1 <1>   0.4500 
 38 H        2.2460     3.0970     2.2090 H     1 <1>   0.1500 
 39 H        4.3950     2.5460    -1.4270 H     1 <1>   0.1500 
 40 H       -5.6300     1.8430     0.7580 H     1 <1>   0.0800 
 41 H       -6.6250     0.6280     0.0090 H     1 <1>   0.0800 
 42 H       -7.5740     2.3630    -1.5150 H     1 <1>   0.0800 
 43 H       -6.6690     3.5820    -0.6460 H     1 <1>   0.0800 
 44 H        5.5870     2.7690     0.7250 H     1 <1>   0.0800 
 45 H        4.7080     3.0050     2.2050 H     1 <1>   0.0800 
 46 H        5.0200     5.0820     0.0150 H     1 <1>   0.0800 
 47 H        5.8690     5.0850     1.5440 H     1 <1>   0.0800 
 48 H        4.1360     5.3180     1.5030 H     1 <1>   0.0800 
 49 H       -9.5440     1.3310    -0.5280 H     1 <1>   0.1500 
 50 H       -7.1310     4.0210     1.7720 H     1 <1>   0.1500 
 51 H      -11.2570     1.4020     1.2110 H     1 <1>   0.1500 
 52 H       -8.8580     4.0730     3.4970 H     1 <1>   0.1500 
 53 H      -10.9210     2.7660     3.2270 H     1 <1>   0.1500 
@<TRIPOS>BOND
  1   1   2  2   
  2   2   3  am  
  3   2   4  am  
  4   3   5  1   
  5   3   6  1   
  6   4   7  1   
  7   4  26  1   
  8   5   8  1   
  9   5  27  1   
 10   5  28  1   
 11   6   9  1   
 12   6  29  1   
 13   6  30  1   
 14   7  10  ar  
 15   7  11  ar  
 16   8  12  1   
 17   8  31  1   
 18   8  32  1   
 19   9  12  1   
 20   9  33  1   
 21   9  34  1   
 22  10  13  ar  
 23  10  35  1   
 24  11  14  ar  
 25  11  36  1   
 26  12  15  1   
 27  12  37  1   
 28  13  16  ar  
 29  13  38  1   
 30  14  16  ar  
 31  14  39  1   
 32  15  17  1   
 33  15  40  1   
 34  15  41  1   
 35  16  18  1   
 36  17  19  1   
 37  17  42  1   
 38  17  43  1   
 39  18  20  1   
 40  18  44  1   
 41  18  45  1   
 42  19  21  ar  
 43  19  22  ar  
 44  20  46  1   
 45  20  47  1   
 46  20  48  1   
 47  21  23  ar  
 48  21  49  1   
 49  22  24  ar  
 50  22  50  1   
 51  23  25  ar  
 52  23  51  1   
 53  24  25  ar  
 54  24  52  1   
 55  25  53  1   
@<TRIPOS>SUBSTRUCTURE
  1 ****   1 GROUP 4 **** **** 0

# MOE 2024.06 (io_trps.svl 2023.06)
