@<TRIPOS>MOLECULE
NONAME
39 40 1 0 0 
SMALL
USER_CHARGES


@<TRIPOS>ATOM
  1 CL       0.8100     0.6980     2.4950 Cl    1 <1>  -0.1770 
  2 C        1.8030     1.1040     1.1070 C.ar  1 <1>   0.1770 
  3 C        1.2930     1.6060    -0.1020 C.ar  1 <1>   0.0820 
  4 C        3.1580     0.9010     1.2770 C.ar  1 <1>  -0.1500 
  5 O       -0.0040     1.8550    -0.4230 O.3   1 <1>  -0.3630 
  6 C        2.1970     1.8930    -1.1080 C.ar  1 <1>  -0.1500 
  7 C        4.0790     1.1810     0.2620 C.ar  1 <1>   0.0280 
  8 C       -1.1090     1.5800     0.4060 C.3   1 <1>   0.0400 
  9 C        3.5570     1.6890    -0.9350 C.ar  1 <1>   0.0830 
 10 C        5.5050     0.9920     0.3650 C.2   1 <1>  -0.1670 
 11 O        4.3740     1.9980    -1.9590 O.3   1 <1>  -0.2330 
 12 C        6.2920     1.3410    -0.6920 C.2   1 <1>  -0.1240 
 13 C        6.0280     0.4000     1.6760 C.3   1 <1>  -0.1020 
 14 C        5.6970     1.8550    -1.9020 C.2   1 <1>   0.7060 
 15 C        7.8240     1.2350    -0.7080 C.3   1 <1>  -0.0220 
 16 O        6.3290     2.1610    -2.8930 O.2   1 <1>  -0.5700 
 17 C        8.2870    -0.0480    -1.4150 C.3   1 <1>  -0.0990 
 18 C        9.8030    -0.1860    -1.3780 C.2   1 <1>   0.6590 
 19 O       10.4660     0.2380    -2.2820 O.2   1 <1>  -0.5700 
 20 O       10.3970    -0.7510    -0.3300 O.3   1 <1>  -0.4300 
 21 C        9.7700    -1.5280     0.6610 C.3   1 <1>   0.1200 
 22 C       10.8480    -2.0130     1.6240 C.3   1 <1>  -0.2400 
 23 H        3.4860     0.5200     2.2250 H     1 <1>   0.1500 
 24 H        1.8360     2.2820    -2.0430 H     1 <1>   0.1500 
 25 H       -2.0010     1.8370    -0.1350 H     1 <1>   0.0800 
 26 H       -1.0400     2.1820     1.2940 H     1 <1>   0.0800 
 27 H       -1.1190     0.5300     0.6420 H     1 <1>   0.0800 
 28 H        5.8470     1.0870     2.4840 H     1 <1>   0.0800 
 29 H        7.0740     0.1800     1.6580 H     1 <1>   0.0800 
 30 H        5.5200    -0.5240     1.8870 H     1 <1>   0.0800 
 31 H        8.2330     1.2790     0.2830 H     1 <1>   0.0800 
 32 H        8.2390     2.0840    -1.2270 H     1 <1>   0.0800 
 33 H        7.9890    -0.0030    -2.4470 H     1 <1>   0.0800 
 34 H        7.8130    -0.9090    -0.9850 H     1 <1>   0.0800 
 35 H        9.2840    -2.3640     0.1860 H     1 <1>   0.0800 
 36 H        9.0510    -0.9190     1.1770 H     1 <1>   0.0800 
 37 H       11.5730    -2.6090     1.0980 H     1 <1>   0.0800 
 38 H       10.4050    -2.6160     2.3960 H     1 <1>   0.0800 
 39 H       11.3410    -1.1740     2.0820 H     1 <1>   0.0800 
@<TRIPOS>BOND
  1   1   2  1   
  2   2   3  ar  
  3   2   4  ar  
  4   3   5  1   
  5   3   6  ar  
  6   4   7  ar  
  7   4  23  1   
  8   5   8  1   
  9   6   9  ar  
 10   6  24  1   
 11   7   9  ar  
 12   7  10  1   
 13   8  25  1   
 14   8  26  1   
 15   8  27  1   
 16   9  11  1   
 17  10  12  2   
 18  10  13  1   
 19  11  14  1   
 20  12  14  1   
 21  12  15  1   
 22  13  28  1   
 23  13  29  1   
 24  13  30  1   
 25  14  16  2   
 26  15  17  1   
 27  15  31  1   
 28  15  32  1   
 29  17  18  1   
 30  17  33  1   
 31  17  34  1   
 32  18  19  2   
 33  18  20  1   
 34  20  21  1   
 35  21  22  1   
 36  21  35  1   
 37  21  36  1   
 38  22  37  1   
 39  22  38  1   
 40  22  39  1   
@<TRIPOS>SUBSTRUCTURE
  1 ****  10 GROUP 4 **** **** 0

# MOE 2024.06 (io_trps.svl 2023.06)
