@<TRIPOS>MOLECULE
NONAME
51 53 1 0 0 
SMALL
USER_CHARGES


@<TRIPOS>ATOM
  1 S       -0.1200    -0.9910    -1.7120 S.o2  1 <1>   1.4470 
  2 O       -0.9730     0.1700    -1.8420 O.2   1 <1>  -0.6500 
  3 O       -0.1480    -1.9890    -2.7530 O.2   1 <1>  -0.6500 
  4 N       -0.7050    -1.8430    -0.3870 N.am  1 <1>  -0.9140 
  5 C        1.5580    -0.5080    -1.2140 C.ar  1 <1>  -0.0090 
  6 C       -2.1440    -1.9420    -0.3710 C.3   1 <1>   0.2760 
  7 C        2.5950    -1.4640    -1.0120 C.ar  1 <1>   0.0000 
  8 C        1.8220     0.8230    -0.9930 C.ar  1 <1>  -0.1500 
  9 C       -2.6980    -0.8630     0.5580 C.3   1 <1>  -0.1600 
 10 C       -2.5290    -3.3090     0.1820 C.3   1 <1>  -0.1600 
 11 C        3.8570    -1.0110    -0.5540 C.ar  1 <1>   0.0000 
 12 C        2.4620    -2.8570    -1.2380 C.ar  1 <1>  -0.1500 
 13 C        3.0730     1.2680    -0.5620 C.ar  1 <1>  -0.1500 
 14 C       -4.2210    -0.9360     0.6850 C.3   1 <1>   0.5030 
 15 C       -4.0500    -3.4710     0.3110 C.3   1 <1>   0.5030 
 16 C        4.0670     0.3640    -0.3440 C.ar  1 <1>  -0.1500 
 17 C        4.8890    -1.9400    -0.3130 C.ar  1 <1>  -0.1500 
 18 C        3.4810    -3.7370    -1.0020 C.ar  1 <1>  -0.1500 
 19 N       -4.6620    -2.3100     0.9780 N.4   1 <1>  -0.9060 
 20 C       -4.6740    -0.0980     1.8790 C.3   1 <1>  -0.2400 
 21 C       -4.9310    -0.4080    -0.5640 C.3   1 <1>  -0.2400 
 22 C       -4.7220    -3.7090    -1.0450 C.3   1 <1>  -0.2400 
 23 C       -4.3600    -4.6680     1.2080 C.3   1 <1>  -0.2400 
 24 C        4.7100    -3.2760    -0.5280 C.ar  1 <1>  -0.1500 
 25 H       -0.3330    -2.7750    -0.5570 H     1 <1>   0.4200 
 26 H       -2.5340    -1.8320    -1.3720 H     1 <1>   0.0800 
 27 H        1.0540     1.5650    -1.1440 H     1 <1>   0.1500 
 28 H       -2.4300     0.1130     0.1950 H     1 <1>   0.0800 
 29 H       -2.2460    -0.9730     1.5280 H     1 <1>   0.0800 
 30 H       -2.0710    -3.4390     1.1470 H     1 <1>   0.0800 
 31 H       -2.1490    -4.0800    -0.4660 H     1 <1>   0.0800 
 32 H        1.5450    -3.2620    -1.6170 H     1 <1>   0.1500 
 33 H        3.2340     2.3210    -0.4050 H     1 <1>   0.1500 
 34 H        5.0350     0.6920    -0.0060 H     1 <1>   0.1500 
 35 H        5.8350    -1.5750     0.0460 H     1 <1>   0.1500 
 36 H        3.3560    -4.7910    -1.1800 H     1 <1>   0.1500 
 37 H       -5.6730    -2.3540     0.8320 H     1 <1>   0.4500 
 38 H       -4.5140    -2.4450     1.9800 H     1 <1>   0.4500 
 39 H       -4.2230    -0.4390     2.7940 H     1 <1>   0.0800 
 40 H       -5.7450    -0.1150     1.9850 H     1 <1>   0.0800 
 41 H       -4.3780     0.9280     1.7380 H     1 <1>   0.0800 
 42 H       -4.5650    -0.8530    -1.4670 H     1 <1>   0.0800 
 43 H       -4.7510     0.6500    -0.6580 H     1 <1>   0.0800 
 44 H       -5.9950    -0.5510    -0.5010 H     1 <1>   0.0800 
 45 H       -4.4450    -2.9770    -1.7770 H     1 <1>   0.0800 
 46 H       -5.7930    -3.7290    -0.9520 H     1 <1>   0.0800 
 47 H       -4.4130    -4.6620    -1.4390 H     1 <1>   0.0800 
 48 H       -3.9340    -4.5460     2.1880 H     1 <1>   0.0800 
 49 H       -3.9410    -5.5640     0.7830 H     1 <1>   0.0800 
 50 H       -5.4220    -4.8210     1.3020 H     1 <1>   0.0800 
 51 H        5.5020    -3.9810    -0.3440 H     1 <1>   0.1500 
@<TRIPOS>BOND
  1   1   2  2   
  2   1   3  2   
  3   1   4  am  
  4   1   5  1   
  5   4   6  1   
  6   4  25  1   
  7   5   7  ar  
  8   5   8  ar  
  9   6   9  1   
 10   6  10  1   
 11   6  26  1   
 12   7  11  ar  
 13   7  12  ar  
 14   8  13  ar  
 15   8  27  1   
 16   9  14  1   
 17   9  28  1   
 18   9  29  1   
 19  10  15  1   
 20  10  30  1   
 21  10  31  1   
 22  11  16  ar  
 23  11  17  ar  
 24  12  18  ar  
 25  12  32  1   
 26  13  16  ar  
 27  13  33  1   
 28  14  19  1   
 29  14  20  1   
 30  14  21  1   
 31  15  19  1   
 32  15  22  1   
 33  15  23  1   
 34  16  34  1   
 35  17  24  ar  
 36  17  35  1   
 37  18  24  ar  
 38  18  36  1   
 39  19  37  1   
 40  19  38  1   
 41  20  39  1   
 42  20  40  1   
 43  20  41  1   
 44  21  42  1   
 45  21  43  1   
 46  21  44  1   
 47  22  45  1   
 48  22  46  1   
 49  22  47  1   
 50  23  48  1   
 51  23  49  1   
 52  23  50  1   
 53  24  51  1   
@<TRIPOS>SUBSTRUCTURE
  1 ****   4 GROUP 4 **** **** 0

# MOE 2024.06 (io_trps.svl 2023.06)
