@<TRIPOS>MOLECULE
NONAME
41 42 1 0 0 
SMALL
USER_CHARGES


@<TRIPOS>ATOM
  1 O       -7.5060    -1.2000     0.1500 O.3   1 <1>  -0.5600 
  2 C       -7.2420    -0.4420    -0.9950 C.3   1 <1>   0.1200 
  3 C       -6.7870    -0.8130     1.2860 C.3   1 <1>   0.1200 
  4 C       -7.5980     1.0370    -0.7500 C.3   1 <1>   0.3430 
  5 C       -7.1160     0.6460     1.6550 C.3   1 <1>   0.3430 
  6 N       -6.9220     1.5660     0.4840 N.4   1 <1>  -0.9590 
  7 C       -7.2750     2.9880     0.7820 C.3   1 <1>   0.3430 
  8 C       -6.4940     3.9430    -0.1470 C.3   1 <1>   0.2000 
  9 O       -5.2260     3.4070    -0.3840 O.3   1 <1>  -0.6800 
 10 C       -6.3400     5.3490     0.4450 C.3   1 <1>   0.1200 
 11 O       -5.4750     6.0910    -0.3890 O.3   1 <1>  -0.3630 
 12 C       -5.1790     7.3880    -0.1120 C.ar  1 <1>   0.0830 
 13 C       -4.3740     8.0520    -1.0260 C.ar  1 <1>  -0.1500 
 14 C       -5.6350     8.0640     1.0170 C.ar  1 <1>  -0.1500 
 15 C       -4.0230     9.3750    -0.8250 C.ar  1 <1>  -0.1500 
 16 C       -5.2830     9.3870     1.2160 C.ar  1 <1>  -0.1500 
 17 C       -4.4790    10.0510     0.3030 C.ar  1 <1>   0.0830 
 18 O       -4.1850    11.3480     0.5800 O.3   1 <1>  -0.3620 
 19 C       -3.3720    12.1100    -0.2840 C.3   1 <1>   0.0400 
 20 H       -7.8400    -0.8400    -1.7960 H     1 <1>   0.0800 
 21 H       -6.2030    -0.5540    -1.2550 H     1 <1>   0.0800 
 22 H       -5.7360    -0.9380     1.0910 H     1 <1>   0.0800 
 23 H       -7.0660    -1.4720     2.0900 H     1 <1>   0.0800 
 24 H       -8.6670     1.1140    -0.6430 H     1 <1>   0.0800 
 25 H       -7.3040     1.6190    -1.6080 H     1 <1>   0.0800 
 26 H       -6.4890     0.9550     2.4750 H     1 <1>   0.0800 
 27 H       -8.1410     0.6880     1.9850 H     1 <1>   0.0800 
 28 H       -5.9090     1.6150     0.2610 H     1 <1>   0.4500 
 29 H       -6.9980     3.2150     1.7990 H     1 <1>   0.0800 
 30 H       -8.3360     3.1510     0.6850 H     1 <1>   0.0800 
 31 H       -6.9990     4.0190    -1.0940 H     1 <1>   0.0800 
 32 H       -4.6550     4.1190    -0.7600 H     1 <1>   0.4000 
 33 H       -5.9050     5.3040     1.4290 H     1 <1>   0.0800 
 34 H       -7.2890     5.8540     0.4840 H     1 <1>   0.0800 
 35 H       -4.0240     7.5290    -1.8970 H     1 <1>   0.1500 
 36 H       -6.2570     7.5910     1.7510 H     1 <1>   0.1500 
 37 H       -3.3990     9.8590    -1.5520 H     1 <1>   0.1500 
 38 H       -5.6290     9.9190     2.0840 H     1 <1>   0.1500 
 39 H       -3.2750    13.0960     0.1330 H     1 <1>   0.0800 
 40 H       -3.8450    12.1670    -1.2490 H     1 <1>   0.0800 
 41 H       -2.4050    11.6450    -0.3530 H     1 <1>   0.0800 
@<TRIPOS>BOND
  1   1   2  1   
  2   1   3  1   
  3   2   4  1   
  4   2  20  1   
  5   2  21  1   
  6   3   5  1   
  7   3  22  1   
  8   3  23  1   
  9   4   6  1   
 10   4  24  1   
 11   4  25  1   
 12   5   6  1   
 13   5  26  1   
 14   5  27  1   
 15   6   7  1   
 16   6  28  1   
 17   7   8  1   
 18   7  29  1   
 19   7  30  1   
 20   8   9  1   
 21   8  10  1   
 22   8  31  1   
 23   9  32  1   
 24  10  11  1   
 25  10  33  1   
 26  10  34  1   
 27  11  12  1   
 28  12  13  ar  
 29  12  14  ar  
 30  13  15  ar  
 31  13  35  1   
 32  14  16  ar  
 33  14  36  1   
 34  15  17  ar  
 35  15  37  1   
 36  16  17  ar  
 37  16  38  1   
 38  17  18  1   
 39  18  19  1   
 40  19  39  1   
 41  19  40  1   
 42  19  41  1   
@<TRIPOS>SUBSTRUCTURE
  1 ****  10 GROUP 4 **** **** 0

# MOE 2024.06 (io_trps.svl 2023.06)
