@<TRIPOS>MOLECULE
NONAME
51 53 1 0 0 
SMALL
USER_CHARGES


@<TRIPOS>ATOM
  1 O        0.1490     0.8410     1.4240 O.2   1 <1>  -0.5700 
  2 C        0.0660     2.0530     1.3580 C.2   1 <1>   0.5440 
  3 N        1.2160     2.8070     1.4620 N.am  1 <1>  -0.6600 
  4 C       -1.2350     2.6640     1.1660 C.ar  1 <1>   0.0860 
  5 C        1.3450     4.2110     0.9520 C.3   1 <1>   0.1400 
  6 C        2.5300     2.1970     1.8500 C.3   1 <1>   0.1400 
  7 C       -2.0750     2.2450     0.1360 C.ar  1 <1>  -0.1500 
  8 C       -1.7000     3.6750     2.0080 C.ar  1 <1>  -0.1500 
  9 C        2.4020     4.3150    -0.1630 C.3   1 <1>   0.2090 
 10 C        3.5580     2.3090     0.7120 C.3   1 <1>   0.2090 
 11 C       -3.3190     2.8150    -0.0610 C.ar  1 <1>   0.0820 
 12 C       -2.9350     4.2660     1.8110 C.ar  1 <1>  -0.1500 
 13 N        3.7070     3.7260     0.2660 N.pl3 1 <1>  -0.8380 
 14 O       -4.0860     2.3110    -1.0600 O.3   1 <1>  -0.3630 
 15 C       -3.7480     3.8600     0.7660 C.ar  1 <1>   0.0830 
 16 C        4.8340     4.0320    -0.4720 C.ar  1 <1>   0.4100 
 17 C       -5.2200     1.5620    -0.6740 C.3   1 <1>   0.1200 
 18 O       -4.9230     4.5140     0.6110 O.3   1 <1>  -0.3630 
 19 N        4.6680     4.2950    -1.7640 N.ar  1 <1>  -0.6200 
 20 C        6.0790     4.0470     0.1540 C.ar  1 <1>  -0.1500 
 21 C       -4.7880     0.1430    -0.3060 C.3   1 <1>  -0.2400 
 22 C       -5.2230     5.0640    -0.6520 C.3   1 <1>   0.1200 
 23 C        5.7690     4.5710    -2.4430 C.ar  1 <1>   0.1600 
 24 C        7.2150     4.3360    -0.5650 C.ar  1 <1>  -0.1500 
 25 C       -6.3090     6.1190    -0.4620 C.3   1 <1>  -0.2400 
 26 C        7.0430     4.6050    -1.9070 C.ar  1 <1>  -0.1500 
 27 H        1.6330     4.8540     1.7640 H     1 <1>   0.0800 
 28 H        0.4070     4.5650     0.5640 H     1 <1>   0.0800 
 29 H        2.4060     1.1610     2.1120 H     1 <1>   0.0800 
 30 H        2.9100     2.7090     2.7150 H     1 <1>   0.0800 
 31 H       -1.7520     1.4510    -0.5130 H     1 <1>   0.1500 
 32 H       -1.0800     3.9970     2.8270 H     1 <1>   0.1500 
 33 H        2.5470     5.3490    -0.4240 H     1 <1>   0.0800 
 34 H        2.0490     3.7990    -1.0390 H     1 <1>   0.0800 
 35 H        3.2340     1.7060    -0.1190 H     1 <1>   0.0800 
 36 H        4.5060     1.9290     1.0490 H     1 <1>   0.0800 
 37 H       -3.2770     5.0500     2.4630 H     1 <1>   0.1500 
 38 H       -5.8930     1.5420    -1.5130 H     1 <1>   0.0800 
 39 H       -5.7050     2.0510     0.1540 H     1 <1>   0.0800 
 40 H        6.1300     3.8360     1.2040 H     1 <1>   0.1500 
 41 H       -4.2770    -0.3150    -1.1340 H     1 <1>   0.0800 
 42 H       -5.6540    -0.4480    -0.0680 H     1 <1>   0.0800 
 43 H       -4.1430     0.1570     0.5540 H     1 <1>   0.0800 
 44 H       -5.5700     4.2800    -1.3000 H     1 <1>   0.0800 
 45 H       -4.3280     5.5030    -1.0580 H     1 <1>   0.0800 
 46 H        5.6460     4.7840    -3.4910 H     1 <1>   0.1500 
 47 H        8.1880     4.3550    -0.1050 H     1 <1>   0.1500 
 48 H       -7.1920     5.6690    -0.0460 H     1 <1>   0.0800 
 49 H       -6.5600     6.5580    -1.4100 H     1 <1>   0.0800 
 50 H       -5.9580     6.8950     0.1940 H     1 <1>   0.0800 
 51 H        7.8880     4.8390    -2.5300 H     1 <1>   0.1500 
@<TRIPOS>BOND
  1   1   2  2   
  2   2   3  am  
  3   2   4  1   
  4   3   5  1   
  5   3   6  1   
  6   4   7  ar  
  7   4   8  ar  
  8   5   9  1   
  9   5  27  1   
 10   5  28  1   
 11   6  10  1   
 12   6  29  1   
 13   6  30  1   
 14   7  11  ar  
 15   7  31  1   
 16   8  12  ar  
 17   8  32  1   
 18   9  13  1   
 19   9  33  1   
 20   9  34  1   
 21  10  13  1   
 22  10  35  1   
 23  10  36  1   
 24  11  14  1   
 25  11  15  ar  
 26  12  15  ar  
 27  12  37  1   
 28  13  16  1   
 29  14  17  1   
 30  15  18  1   
 31  16  19  ar  
 32  16  20  ar  
 33  17  21  1   
 34  17  38  1   
 35  17  39  1   
 36  18  22  1   
 37  19  23  ar  
 38  20  24  ar  
 39  20  40  1   
 40  21  41  1   
 41  21  42  1   
 42  21  43  1   
 43  22  25  1   
 44  22  44  1   
 45  22  45  1   
 46  23  26  ar  
 47  23  46  1   
 48  24  26  ar  
 49  24  47  1   
 50  25  48  1   
 51  25  49  1   
 52  25  50  1   
 53  26  51  1   
@<TRIPOS>SUBSTRUCTURE
  1 ****   5 GROUP 4 **** **** 0

# MOE 2024.06 (io_trps.svl 2023.06)
