@<TRIPOS>MOLECULE
NONAME
44 46 1 0 0 
SMALL
USER_CHARGES


@<TRIPOS>ATOM
  1 O        0.3040     0.5470     1.6460 O.2   1 <1>  -0.5700 
  2 C        0.3910     0.9780     0.5130 C.2   1 <1>   0.6900 
  3 N        1.5870     1.1230    -0.0850 N.am  1 <1>  -0.7300 
  4 N       -0.7040     1.3300    -0.1930 N.am  1 <1>  -0.7300 
  5 C        2.8790     0.9310     0.5870 C.3   1 <1>   0.3640 
  6 C       -2.0900     1.2280     0.2880 C.3   1 <1>   0.2200 
  7 C        3.8110     2.0780     0.1890 C.ar  1 <1>  -0.1430 
  8 C        3.4090    -0.4530     0.1940 C.3   1 <1>  -0.1600 
  9 C       -2.8180     0.1510    -0.5220 C.3   1 <1>  -0.1600 
 10 C       -2.7680     2.5940     0.1350 C.3   1 <1>  -0.1600 
 11 C        5.1070     1.8480    -0.2700 C.ar  1 <1>  -0.1430 
 12 C        3.3600     3.3870     0.3100 C.ar  1 <1>  -0.1500 
 13 C        4.9130    -0.5720     0.4590 C.3   1 <1>  -0.1600 
 14 C       -4.3030     0.0750    -0.1370 C.3   1 <1>  -0.1600 
 15 C       -4.2530     2.5220     0.5220 C.3   1 <1>  -0.1600 
 16 C        5.9130     2.9210    -0.6180 C.ar  1 <1>  -0.1500 
 17 C        5.6730     0.4400    -0.4030 C.3   1 <1>  -0.0170 
 18 C        4.1700     4.4520    -0.0370 C.ar  1 <1>  -0.1500 
 19 C       -4.9860     1.4420    -0.2850 C.3   1 <1>  -0.1600 
 20 C        5.4490     4.2180    -0.5050 C.ar  1 <1>  -0.1500 
 21 H        1.6550     1.6390    -0.9550 H     1 <1>   0.3700 
 22 H       -0.5950     1.5830    -1.1690 H     1 <1>   0.3700 
 23 H        2.7450     0.9640     1.6560 H     1 <1>   0.0800 
 24 H       -2.0950     0.9490     1.3290 H     1 <1>   0.0800 
 25 H        3.2280    -0.6270    -0.8520 H     1 <1>   0.0800 
 26 H        2.8780    -1.2000     0.7590 H     1 <1>   0.0800 
 27 H       -2.3540    -0.8020    -0.3390 H     1 <1>   0.0800 
 28 H       -2.7400     0.3740    -1.5720 H     1 <1>   0.0800 
 29 H       -2.6880     2.9240    -0.8850 H     1 <1>   0.0800 
 30 H       -2.2700     3.3080     0.7670 H     1 <1>   0.0800 
 31 H        2.3680     3.5820     0.6830 H     1 <1>   0.1500 
 32 H        5.2500    -1.5680     0.2300 H     1 <1>   0.0800 
 33 H        5.1120    -0.3790     1.5000 H     1 <1>   0.0800 
 34 H       -4.3880    -0.2560     0.8850 H     1 <1>   0.0800 
 35 H       -4.8010    -0.6480    -0.7590 H     1 <1>   0.0800 
 36 H       -4.7170     3.4780     0.3520 H     1 <1>   0.0800 
 37 H       -4.3360     2.2990     1.5720 H     1 <1>   0.0800 
 38 H        6.9120     2.7500    -0.9790 H     1 <1>   0.1500 
 39 H        6.7100     0.4360    -0.1170 H     1 <1>   0.0800 
 40 H        5.6140     0.1450    -1.4370 H     1 <1>   0.0800 
 41 H        3.8070     5.4600     0.0590 H     1 <1>   0.1500 
 42 H       -6.0070     1.3720     0.0490 H     1 <1>   0.0800 
 43 H       -5.0000     1.7220    -1.3250 H     1 <1>   0.0800 
 44 H        6.0830     5.0440    -0.7780 H     1 <1>   0.1500 
@<TRIPOS>BOND
  1   1   2  2   
  2   2   3  am  
  3   2   4  am  
  4   3   5  1   
  5   3  21  1   
  6   4   6  1   
  7   4  22  1   
  8   5   7  1   
  9   5   8  1   
 10   5  23  1   
 11   6   9  1   
 12   6  10  1   
 13   6  24  1   
 14   7  11  ar  
 15   7  12  ar  
 16   8  13  1   
 17   8  25  1   
 18   8  26  1   
 19   9  14  1   
 20   9  27  1   
 21   9  28  1   
 22  10  15  1   
 23  10  29  1   
 24  10  30  1   
 25  11  16  ar  
 26  11  17  1   
 27  12  18  ar  
 28  12  31  1   
 29  13  17  1   
 30  13  32  1   
 31  13  33  1   
 32  14  19  1   
 33  14  34  1   
 34  14  35  1   
 35  15  19  1   
 36  15  36  1   
 37  15  37  1   
 38  16  20  ar  
 39  16  38  1   
 40  17  39  1   
 41  17  40  1   
 42  18  20  ar  
 43  18  41  1   
 44  19  42  1   
 45  19  43  1   
 46  20  44  1   
@<TRIPOS>SUBSTRUCTURE
  1 ****   3 GROUP 4 **** **** 0

# MOE 2024.06 (io_trps.svl 2023.06)
