@<TRIPOS>MOLECULE
NONAME
37 38 1 0 0 
SMALL
USER_CHARGES


@<TRIPOS>ATOM
  1 F        0.2230    -0.5450     0.5700 F     1 <1>  -0.3400 
  2 C       -0.4400     0.5570     0.2290 C.3   1 <1>   1.0200 
  3 F       -0.5400     1.2800     1.3420 F     1 <1>  -0.3400 
  4 F        0.3900     1.2370    -0.5600 F     1 <1>  -0.3400 
  5 C       -1.8430     0.2880    -0.4610 C.3   1 <1>   0.5800 
  6 O       -1.7820    -0.5690    -1.5690 O.3   1 <1>  -0.6800 
  7 N       -2.8800    -0.2710     0.4500 N.am  1 <1>  -0.2980 
  8 C       -2.4970     1.5960    -0.9450 C.3   1 <1>  -0.0990 
  9 N       -3.9620     0.5880     0.5520 N.2   1 <1>  -0.5120 
 10 C       -2.7590    -1.5060     1.0680 C.2   1 <1>   0.7800 
 11 C       -3.8000     1.5920    -0.1880 C.2   1 <1>   0.3280 
 12 O       -3.4180    -1.8470     2.0310 O.2   1 <1>  -0.5700 
 13 O       -1.8680    -2.3630     0.5530 O.3   1 <1>  -0.4300 
 14 C       -4.7700     2.7600    -0.3800 C.3   1 <1>  -0.0190 
 15 C       -1.6660    -3.6410     1.1250 C.3   1 <1>   0.0400 
 16 C       -4.2450     4.0380     0.3040 C.3   1 <1>  -0.1600 
 17 C       -6.1860     2.4270     0.1320 C.3   1 <1>  -0.1600 
 18 C       -5.2110     5.2180     0.1200 C.3   1 <1>  -0.1600 
 19 C       -7.1520     3.6040    -0.0600 C.3   1 <1>  -0.1600 
 20 C       -6.6180     4.8700     0.6210 C.3   1 <1>  -0.1600 
 21 H       -1.6620    -1.4850    -1.2390 H     1 <1>   0.4000 
 22 H       -2.6680     1.5950    -2.0060 H     1 <1>   0.0800 
 23 H       -1.9190     2.4590    -0.6740 H     1 <1>   0.0800 
 24 H       -4.8450     2.9470    -1.4370 H     1 <1>   0.0800 
 25 H       -0.9090    -4.1550     0.5610 H     1 <1>   0.0800 
 26 H       -2.5920    -4.1900     1.0900 H     1 <1>   0.0800 
 27 H       -1.3480    -3.5190     2.1470 H     1 <1>   0.0800 
 28 H       -3.2870     4.3100    -0.1000 H     1 <1>   0.0800 
 29 H       -4.1180     3.8470     1.3570 H     1 <1>   0.0800 
 30 H       -6.1390     2.1780     1.1790 H     1 <1>   0.0800 
 31 H       -6.5640     1.5640    -0.3900 H     1 <1>   0.0800 
 32 H       -5.2600     5.4810    -0.9220 H     1 <1>   0.0800 
 33 H       -4.8410     6.0730     0.6590 H     1 <1>   0.0800 
 34 H       -8.1130     3.3500     0.3530 H     1 <1>   0.0800 
 35 H       -7.2850     3.7910    -1.1120 H     1 <1>   0.0800 
 36 H       -7.2850     5.6920     0.4270 H     1 <1>   0.0800 
 37 H       -6.5890     4.7140     1.6860 H     1 <1>   0.0800 
@<TRIPOS>BOND
  1   1   2  1   
  2   2   3  1   
  3   2   4  1   
  4   2   5  1   
  5   5   6  1   
  6   5   7  1   
  7   5   8  1   
  8   6  21  1   
  9   7   9  1   
 10   7  10  am  
 11   8  11  1   
 12   8  22  1   
 13   8  23  1   
 14   9  11  2   
 15  10  12  2   
 16  10  13  1   
 17  11  14  1   
 18  13  15  1   
 19  14  16  1   
 20  14  17  1   
 21  14  24  1   
 22  15  25  1   
 23  15  26  1   
 24  15  27  1   
 25  16  18  1   
 26  16  28  1   
 27  16  29  1   
 28  17  19  1   
 29  17  30  1   
 30  17  31  1   
 31  18  20  1   
 32  18  32  1   
 33  18  33  1   
 34  19  20  1   
 35  19  34  1   
 36  19  35  1   
 37  20  36  1   
 38  20  37  1   
@<TRIPOS>SUBSTRUCTURE
  1 ****   9 GROUP 4 **** **** 0

# MOE 2024.06 (io_trps.svl 2023.06)
