@<TRIPOS>MOLECULE
NONAME
51 53 1 0 0 
SMALL
USER_CHARGES


@<TRIPOS>ATOM
  1 O        0.4070     0.5820    -0.2170 O.2   1 <1>  -0.5700 
  2 C        0.7000     1.7180     0.0620 C.2   1 <1>   0.5690 
  3 N       -0.1210     2.8100     0.0660 N.am  1 <1>  -0.4770 
  4 C        2.0990     2.0820     0.4700 C.3   1 <1>  -0.0990 
  5 C       -1.5010     2.8750    -0.2160 C.ar  1 <1>   0.1170 
  6 C        0.6340     4.0170     0.4620 C.3   1 <1>   0.1400 
  7 C        1.9310     3.4790     1.0850 C.3   1 <1>  -0.0190 
  8 C       -2.0540     3.9990    -0.8260 C.ar  1 <1>  -0.1500 
  9 C       -2.3540     1.8260     0.1160 C.ar  1 <1>  -0.1500 
 10 C        3.1300     4.3940     0.8890 C.2   1 <1>   0.5690 
 11 C       -3.4100     4.0750    -1.0890 C.ar  1 <1>  -0.1500 
 12 C       -3.7110     1.8970    -0.1460 C.ar  1 <1>  -0.1500 
 13 O        2.9610     5.5180     0.4870 O.2   1 <1>  -0.5700 
 14 N        4.3690     3.9180     1.1820 N.am  1 <1>  -0.7300 
 15 C       -4.2420     3.0240    -0.7480 C.ar  1 <1>  -0.1500 
 16 C        5.6200     4.7040     1.0560 C.3   1 <1>   0.1400 
 17 C        6.2620     4.4490    -0.3070 C.3   1 <1>  -0.0170 
 18 C        7.5770     5.2040    -0.4160 C.ar  1 <1>  -0.1430 
 19 C        8.7830     4.5640    -0.1730 C.ar  1 <1>  -0.1500 
 20 C        7.5760     6.5450    -0.7570 C.ar  1 <1>  -0.1500 
 21 C        9.9940     5.2480    -0.2670 C.ar  1 <1>   0.0830 
 22 C        8.7680     7.2400    -0.8430 C.ar  1 <1>  -0.1500 
 23 O       11.1810     4.6060    -0.0640 O.3   1 <1>  -0.3630 
 24 C        9.9780     6.6150    -0.5920 C.ar  1 <1>   0.0830 
 25 C       11.2880     3.2020    -0.1590 C.3   1 <1>   0.0400 
 26 O       11.0730     7.4210    -0.6980 O.3   1 <1>  -0.3630 
 27 C       12.2100     7.2160     0.1100 C.3   1 <1>   0.0400 
 28 H        2.7130     2.1090    -0.4130 H     1 <1>   0.0800 
 29 H        2.4890     1.3710     1.1740 H     1 <1>   0.0800 
 30 H        0.0760     4.6090     1.1670 H     1 <1>   0.0800 
 31 H        0.8410     4.6000    -0.4190 H     1 <1>   0.0800 
 32 H        1.7620     3.3760     2.1420 H     1 <1>   0.0800 
 33 H       -1.4240     4.8210    -1.1080 H     1 <1>   0.1500 
 34 H       -1.9550     0.9450     0.5840 H     1 <1>   0.1500 
 35 H       -3.8190     4.9520    -1.5610 H     1 <1>   0.1500 
 36 H       -4.3520     1.0740     0.1180 H     1 <1>   0.1500 
 37 H        4.4820     2.9600     1.5170 H     1 <1>   0.3700 
 38 H       -5.2970     3.0800    -0.9520 H     1 <1>   0.1500 
 39 H        6.3000     4.4260     1.8430 H     1 <1>   0.0800 
 40 H        5.4020     5.7550     1.1580 H     1 <1>   0.0800 
 41 H        5.5950     4.7820    -1.0830 H     1 <1>   0.0800 
 42 H        6.4350     3.3960    -0.4380 H     1 <1>   0.0800 
 43 H        8.7640     3.5250     0.0930 H     1 <1>   0.1500 
 44 H        6.6490     7.0570    -0.9540 H     1 <1>   0.1500 
 45 H        8.7660     8.2820    -1.1050 H     1 <1>   0.1500 
 46 H       12.3310     2.9460    -0.1440 H     1 <1>   0.0800 
 47 H       10.8460     2.8800    -1.0860 H     1 <1>   0.0800 
 48 H       10.7920     2.7550     0.6840 H     1 <1>   0.0800 
 49 H       12.7720     8.1320     0.1360 H     1 <1>   0.0800 
 50 H       12.8080     6.4350    -0.3240 H     1 <1>   0.0800 
 51 H       11.8930     6.9480     1.1030 H     1 <1>   0.0800 
@<TRIPOS>BOND
  1   1   2  2   
  2   2   3  am  
  3   2   4  1   
  4   3   5  1   
  5   3   6  1   
  6   4   7  1   
  7   4  28  1   
  8   4  29  1   
  9   5   8  ar  
 10   5   9  ar  
 11   6   7  1   
 12   6  30  1   
 13   6  31  1   
 14   7  10  1   
 15   7  32  1   
 16   8  11  ar  
 17   8  33  1   
 18   9  12  ar  
 19   9  34  1   
 20  10  13  2   
 21  10  14  am  
 22  11  15  ar  
 23  11  35  1   
 24  12  15  ar  
 25  12  36  1   
 26  14  16  1   
 27  14  37  1   
 28  15  38  1   
 29  16  17  1   
 30  16  39  1   
 31  16  40  1   
 32  17  18  1   
 33  17  41  1   
 34  17  42  1   
 35  18  19  ar  
 36  18  20  ar  
 37  19  21  ar  
 38  19  43  1   
 39  20  22  ar  
 40  20  44  1   
 41  21  23  1   
 42  21  24  ar  
 43  22  24  ar  
 44  22  45  1   
 45  23  25  1   
 46  24  26  1   
 47  25  46  1   
 48  25  47  1   
 49  25  48  1   
 50  26  27  1   
 51  27  49  1   
 52  27  50  1   
 53  27  51  1   
@<TRIPOS>SUBSTRUCTURE
  1 ****  14 GROUP 4 **** **** 0

# MOE 2024.06 (io_trps.svl 2023.06)
