@<TRIPOS>MOLECULE
NONAME
44 45 1 0 0 
SMALL
USER_CHARGES


@<TRIPOS>ATOM
  1 S        0.5420    -0.1940    -0.2450 S.o2  1 <1>   1.3330 
  2 O        1.7930    -0.7250    -0.7350 O.2   1 <1>  -0.6500 
  3 O       -0.1950    -0.9500     0.7420 O.2   1 <1>  -0.6500 
  4 N        0.7970     1.3740     0.3490 N.am  1 <1>  -0.8490 
  5 C       -0.4990     0.0990    -1.6610 C.3   1 <1>  -0.1350 
  6 C       -0.0750     1.7570     1.4650 C.3   1 <1>   0.3340 
  7 C        2.2060     1.7190     0.5870 C.3   1 <1>   0.1960 
  8 C       -1.4930     2.0120     0.9820 C.2   1 <1>  -0.1240 
  9 C        2.8760     2.2530    -0.6960 C.3   1 <1>  -0.0800 
 10 C       -1.7540     3.2760     0.3610 C.2   1 <1>   0.6160 
 11 C       -2.4900     1.1010     1.1290 C.2   1 <1>  -0.1780 
 12 C        4.3530     2.5650    -0.4260 C.3   1 <1>  -0.2400 
 13 C        2.1750     3.5120    -1.2290 C.3   1 <1>  -0.2400 
 14 O       -0.9370     4.1740     0.2620 O.2   1 <1>  -0.5700 
 15 N       -3.0060     3.5020    -0.1230 N.am  1 <1>  -0.5470 
 16 C       -3.8070     1.3650     0.6360 C.ar  1 <1>   0.0280 
 17 C       -4.0490     2.5910    -0.0050 C.ar  1 <1>   0.1170 
 18 C       -4.8570     0.4540     0.7550 C.ar  1 <1>  -0.1500 
 19 C       -5.3180     2.8730    -0.5040 C.ar  1 <1>  -0.1500 
 20 C       -6.1080     0.7480     0.2560 C.ar  1 <1>  -0.1500 
 21 C       -6.3460     1.9620    -0.3780 C.ar  1 <1>  -0.1440 
 22 C       -7.7330     2.2620    -0.9190 C.3   1 <1>  -0.0970 
 23 H       -0.7110    -0.8280    -2.1560 H     1 <1>   0.0800 
 24 H       -0.0010     0.7530    -2.3490 H     1 <1>   0.0800 
 25 H       -1.4240     0.5500    -1.3650 H     1 <1>   0.0800 
 26 H        0.2820     2.6650     1.9200 H     1 <1>   0.0800 
 27 H       -0.0630     0.9930     2.2240 H     1 <1>   0.0800 
 28 H        2.7390     0.8590     0.9590 H     1 <1>   0.0800 
 29 H        2.2800     2.4920     1.3320 H     1 <1>   0.0800 
 30 H        2.8380     1.4910    -1.4540 H     1 <1>   0.0800 
 31 H       -2.3270     0.1490     1.6070 H     1 <1>   0.1500 
 32 H        4.4510     3.3320     0.3220 H     1 <1>   0.0800 
 33 H        4.8330     2.9010    -1.3280 H     1 <1>   0.0800 
 34 H        4.8640     1.6810    -0.0850 H     1 <1>   0.0800 
 35 H        2.1690     4.2890    -0.4850 H     1 <1>   0.0800 
 36 H        1.1540     3.2930    -1.4910 H     1 <1>   0.0800 
 37 H        2.6740     3.8780    -2.1080 H     1 <1>   0.0800 
 38 H       -3.1490     4.4150    -0.5500 H     1 <1>   0.3700 
 39 H       -4.6820    -0.4880     1.2430 H     1 <1>   0.1500 
 40 H       -5.4870     3.8160    -0.9910 H     1 <1>   0.1500 
 41 H       -6.9060     0.0330     0.3580 H     1 <1>   0.1500 
 42 H       -7.7650     3.2310    -1.3830 H     1 <1>   0.0800 
 43 H       -8.4500     2.2420    -0.1180 H     1 <1>   0.0800 
 44 H       -8.0090     1.5230    -1.6500 H     1 <1>   0.0800 
@<TRIPOS>BOND
  1   1   2  2   
  2   1   3  2   
  3   1   4  am  
  4   1   5  1   
  5   4   6  1   
  6   4   7  1   
  7   5  23  1   
  8   5  24  1   
  9   5  25  1   
 10   6   8  1   
 11   6  26  1   
 12   6  27  1   
 13   7   9  1   
 14   7  28  1   
 15   7  29  1   
 16   8  10  1   
 17   8  11  2   
 18   9  12  1   
 19   9  13  1   
 20   9  30  1   
 21  10  14  2   
 22  10  15  am  
 23  11  16  1   
 24  11  31  1   
 25  12  32  1   
 26  12  33  1   
 27  12  34  1   
 28  13  35  1   
 29  13  36  1   
 30  13  37  1   
 31  15  17  1   
 32  15  38  1   
 33  16  17  ar  
 34  16  18  ar  
 35  17  19  ar  
 36  18  20  ar  
 37  18  39  1   
 38  19  21  ar  
 39  19  40  1   
 40  20  21  ar  
 41  20  41  1   
 42  21  22  1   
 43  22  42  1   
 44  22  43  1   
 45  22  44  1   
@<TRIPOS>SUBSTRUCTURE
  1 ****   8 GROUP 4 **** **** 0

# MOE 2024.06 (io_trps.svl 2023.06)
