@<TRIPOS>MOLECULE
NONAME
47 50 1 0 0 
SMALL
USER_CHARGES


@<TRIPOS>ATOM
  1 O        0.1860     0.4930    -1.6800 O.2   1 <1>  -0.5700 
  2 C       -0.9060     0.4620    -1.1650 C.2   1 <1>   0.5690 
  3 N       -1.5360     1.6160    -0.7400 N.am  1 <1>  -0.2980 
  4 C       -1.6040    -0.8820    -1.0130 C.3   1 <1>  -0.0990 
  5 N       -2.9010     1.7950    -0.5420 N.2   1 <1>  -0.5120 
  6 C       -0.8020     2.9210    -0.7550 C.3   1 <1>   0.3640 
  7 C       -1.5940    -1.3860     0.4380 C.3   1 <1>  -0.2400 
  8 C       -3.1180     3.0100    -0.3310 C.2   1 <1>   0.3280 
  9 C        0.3910     2.9470     0.1970 C.ar  1 <1>  -0.1440 
 10 C       -1.8620     3.8930    -0.2230 C.3   1 <1>   0.4840 
 11 C       -4.4400     3.8160    -0.5040 C.3   1 <1>  -0.0190 
 12 C        0.3220     2.3590     1.4540 C.ar  1 <1>  -0.1500 
 13 C        1.5610     3.5880    -0.1860 C.ar  1 <1>  -0.1500 
 14 N       -2.3000     5.1840    -0.8870 N.4   1 <1>  -0.9590 
 15 C       -4.2690     4.3520    -1.9970 C.3   1 <1>  -0.1600 
 16 C       -4.3220     5.1270     0.3980 C.3   1 <1>  -0.1600 
 17 C        1.4020     2.4270     2.3160 C.ar  1 <1>  -0.1500 
 18 C        2.6420     3.6540     0.6750 C.ar  1 <1>  -0.1500 
 19 C       -2.8770     5.0840    -2.2520 C.3   1 <1>   0.3430 
 20 C       -3.0460     6.0200     0.0760 C.3   1 <1>   0.3430 
 21 C        2.5650     3.0750     1.9380 C.ar  1 <1>   0.0820 
 22 O        3.5730     3.0980     2.8440 O.3   1 <1>  -0.3620 
 23 C        4.8380     3.6290     2.5190 C.3   1 <1>   0.0400 
 24 H       -1.1030    -1.5990    -1.6390 H     1 <1>   0.0800 
 25 H       -2.6160    -0.7960    -1.3620 H     1 <1>   0.0800 
 26 H       -0.5160     3.1580    -1.7640 H     1 <1>   0.0800 
 27 H       -0.5810    -1.4780     0.7910 H     1 <1>   0.0800 
 28 H       -2.0680    -2.3490     0.4980 H     1 <1>   0.0800 
 29 H       -2.1230    -0.7010     1.0770 H     1 <1>   0.0800 
 30 H       -1.6520     4.0800     0.8170 H     1 <1>   0.0800 
 31 H       -5.3300     3.2290    -0.3460 H     1 <1>   0.0800 
 32 H       -0.5610     1.8340     1.7780 H     1 <1>   0.1500 
 33 H        1.6490     4.0380    -1.1600 H     1 <1>   0.1500 
 34 H       -3.1360     4.7410    -0.7900 H     1 <1>   0.4500 
 35 H       -5.0730     5.0290    -2.2360 H     1 <1>   0.0800 
 36 H       -4.3550     3.5280    -2.6880 H     1 <1>   0.0800 
 37 H       -4.2970     4.8440     1.4380 H     1 <1>   0.0800 
 38 H       -5.2050     5.7320     0.2740 H     1 <1>   0.0800 
 39 H        1.3550     1.9710     3.2890 H     1 <1>   0.1500 
 40 H        3.5330     4.1560     0.3490 H     1 <1>   0.1500 
 41 H       -2.2380     4.4950    -2.8940 H     1 <1>   0.0800 
 42 H       -3.0180     6.0620    -2.6870 H     1 <1>   0.0800 
 43 H       -3.3290     6.9590    -0.3760 H     1 <1>   0.0800 
 44 H       -2.4600     6.2140     0.9630 H     1 <1>   0.0800 
 45 H        5.4830     3.4990     3.3700 H     1 <1>   0.0800 
 46 H        4.7320     4.6770     2.2990 H     1 <1>   0.0800 
 47 H        5.2350     3.0940     1.6750 H     1 <1>   0.0800 
@<TRIPOS>BOND
  1   1   2  2   
  2   2   3  am  
  3   2   4  1   
  4   3   5  1   
  5   3   6  1   
  6   4   7  1   
  7   4  24  1   
  8   4  25  1   
  9   5   8  2   
 10   6   9  1   
 11   6  10  1   
 12   6  26  1   
 13   7  27  1   
 14   7  28  1   
 15   7  29  1   
 16   8  10  1   
 17   8  11  1   
 18   9  12  ar  
 19   9  13  ar  
 20  10  14  1   
 21  10  30  1   
 22  11  15  1   
 23  11  16  1   
 24  11  31  1   
 25  12  17  ar  
 26  12  32  1   
 27  13  18  ar  
 28  13  33  1   
 29  14  19  1   
 30  14  20  1   
 31  14  34  1   
 32  15  19  1   
 33  15  35  1   
 34  15  36  1   
 35  16  20  1   
 36  16  37  1   
 37  16  38  1   
 38  17  21  ar  
 39  17  39  1   
 40  18  21  ar  
 41  18  40  1   
 42  19  41  1   
 43  19  42  1   
 44  20  43  1   
 45  20  44  1   
 46  21  22  1   
 47  22  23  1   
 48  23  45  1   
 49  23  46  1   
 50  23  47  1   
@<TRIPOS>SUBSTRUCTURE
  1 ****   6 GROUP 4 **** **** 0

# MOE 2024.06 (io_trps.svl 2023.06)
