@<TRIPOS>MOLECULE
NONAME
33 33 1 0 0 
SMALL
USER_CHARGES


@<TRIPOS>ATOM
  1 CL      -1.6800     1.5460     2.9260 Cl    1 <1>  -0.1770 
  2 C       -2.2040     1.6700     1.2610 C.ar  1 <1>   0.1770 
  3 C       -1.4540     2.3920     0.3400 C.ar  1 <1>   0.0830 
  4 C       -3.3750     1.0360     0.8980 C.ar  1 <1>  -0.1500 
  5 O       -0.3110     2.9940     0.7620 O.3   1 <1>  -0.3630 
  6 C       -1.9140     2.4630    -0.9720 C.ar  1 <1>  -0.1500 
  7 C       -3.8450     1.1050    -0.4080 C.ar  1 <1>  -0.0090 
  8 C        0.5180     3.7200    -0.1180 C.3   1 <1>   0.0400 
  9 C       -3.0920     1.8260    -1.3300 C.ar  1 <1>  -0.1500 
 10 S       -5.3940     0.2860    -0.8780 S.o2  1 <1>   1.4470 
 11 O       -5.7610     0.6520    -2.2290 O.2   1 <1>  -0.6500 
 12 O       -5.3000    -1.1130    -0.5230 O.2   1 <1>  -0.6500 
 13 N       -6.5370     1.0030     0.1520 N.am  1 <1>  -0.8490 
 14 C       -7.7900     0.2410     0.1590 C.3   1 <1>   0.1960 
 15 C       -6.7460     2.4270    -0.1420 C.3   1 <1>   0.1960 
 16 C       -8.6700     0.6380     1.3430 C.3   1 <1>  -0.2400 
 17 C       -6.4130     3.2400     1.1050 C.3   1 <1>  -0.2400 
 18 H       -3.9310     0.4850     1.6380 H     1 <1>   0.1500 
 19 H       -1.3730     3.0050    -1.7240 H     1 <1>   0.1500 
 20 H        1.3580     4.0860     0.4440 H     1 <1>   0.0800 
 21 H       -0.0390     4.5460    -0.5220 H     1 <1>   0.0800 
 22 H        0.8600     3.0630    -0.8980 H     1 <1>   0.0800 
 23 H       -3.4350     1.8890    -2.3510 H     1 <1>   0.1500 
 24 H       -7.5720    -0.8100     0.2580 H     1 <1>   0.0800 
 25 H       -8.3150     0.3810    -0.7730 H     1 <1>   0.0800 
 26 H       -7.7630     2.6150    -0.4440 H     1 <1>   0.0800 
 27 H       -6.1100     2.7580    -0.9470 H     1 <1>   0.0800 
 28 H       -8.1160     0.5440     2.2600 H     1 <1>   0.0800 
 29 H       -9.5190    -0.0200     1.3910 H     1 <1>   0.0800 
 30 H       -9.0350     1.6430     1.2410 H     1 <1>   0.0800 
 31 H       -7.0390     2.9470     1.9280 H     1 <1>   0.0800 
 32 H       -6.5750     4.2840     0.9090 H     1 <1>   0.0800 
 33 H       -5.3830     3.1030     1.3780 H     1 <1>   0.0800 
@<TRIPOS>BOND
  1   1   2  1   
  2   2   3  ar  
  3   2   4  ar  
  4   3   5  1   
  5   3   6  ar  
  6   4   7  ar  
  7   4  18  1   
  8   5   8  1   
  9   6   9  ar  
 10   6  19  1   
 11   7   9  ar  
 12   7  10  1   
 13   8  20  1   
 14   8  21  1   
 15   8  22  1   
 16   9  23  1   
 17  10  11  2   
 18  10  12  2   
 19  10  13  am  
 20  13  14  1   
 21  13  15  1   
 22  14  16  1   
 23  14  24  1   
 24  14  25  1   
 25  15  17  1   
 26  15  26  1   
 27  15  27  1   
 28  16  28  1   
 29  16  29  1   
 30  16  30  1   
 31  17  31  1   
 32  17  32  1   
 33  17  33  1   
@<TRIPOS>SUBSTRUCTURE
  1 ****   7 GROUP 4 **** **** 0

# MOE 2024.06 (io_trps.svl 2023.06)
