@<TRIPOS>MOLECULE
NONAME
47 48 1 0 0 
SMALL
USER_CHARGES


@<TRIPOS>ATOM
  1 F       -1.1800     0.1000     0.6100 F     1 <1>  -0.1900 
  2 C       -1.9400     1.0510     0.1410 C.ar  1 <1>   0.1900 
  3 C       -3.1390     0.7060    -0.4520 C.ar  1 <1>  -0.1500 
  4 C       -1.5210     2.3620     0.2570 C.ar  1 <1>  -0.1500 
  5 C       -3.9590     1.7130    -0.9430 C.ar  1 <1>  -0.1440 
  6 C       -2.3370     3.3620    -0.2430 C.ar  1 <1>  -0.1500 
  7 C       -3.5470     3.0380    -0.8400 C.ar  1 <1>  -0.1500 
  8 C       -5.2920     1.3690    -1.5800 C.3   1 <1>   0.4870 
  9 N       -6.2370     0.9690    -0.5030 N.4   1 <1>  -0.9590 
 10 C       -7.4750     0.3590    -1.0850 C.3   1 <1>   0.3430 
 11 C       -6.5520     2.1150     0.4020 C.3   1 <1>   0.3430 
 12 C       -8.4290    -0.1360     0.0100 C.3   1 <1>  -0.0190 
 13 C       -7.4630     1.6430     1.5360 C.3   1 <1>  -0.1600 
 14 C       -9.6930    -0.6560    -0.6660 C.2   1 <1>   0.5690 
 15 C       -8.7510     0.9990     1.0020 C.3   1 <1>  -0.1600 
 16 O       -9.9920    -0.1340    -1.7150 O.2   1 <1>  -0.5700 
 17 N      -10.4450    -1.6650    -0.1160 N.am  1 <1>  -0.6600 
 18 C      -10.1670    -2.3440     1.1790 C.3   1 <1>   0.1400 
 19 C      -11.6790    -2.1350    -0.8070 C.3   1 <1>   0.1400 
 20 C       -9.3440    -3.6060     0.9290 C.3   1 <1>  -0.2400 
 21 C      -12.8830    -1.3500    -0.2910 C.3   1 <1>  -0.2400 
 22 H       -3.4010    -0.3350    -0.5190 H     1 <1>   0.1500 
 23 H       -0.5790     2.5890     0.7250 H     1 <1>   0.1500 
 24 H       -2.0260     4.3910    -0.1690 H     1 <1>   0.1500 
 25 H       -4.1590     3.8380    -1.2250 H     1 <1>   0.1500 
 26 H       -5.1530     0.5560    -2.2740 H     1 <1>   0.0800 
 27 H       -5.6780     2.2180    -2.1210 H     1 <1>   0.0800 
 28 H       -5.7530     0.2630     0.0650 H     1 <1>   0.4500 
 29 H       -7.2190    -0.4690    -1.7270 H     1 <1>   0.0800 
 30 H       -7.9900     1.0930    -1.6850 H     1 <1>   0.0800 
 31 H       -7.0480     2.8940    -0.1550 H     1 <1>   0.0800 
 32 H       -5.6430     2.5210     0.8180 H     1 <1>   0.0800 
 33 H       -7.9460    -0.9450     0.5220 H     1 <1>   0.0800 
 34 H       -7.7200     2.4890     2.1510 H     1 <1>   0.0800 
 35 H       -6.9290     0.9460     2.1590 H     1 <1>   0.0800 
 36 H       -9.3370     0.6200     1.8220 H     1 <1>   0.0800 
 37 H       -9.3440     1.7480     0.5030 H     1 <1>   0.0800 
 38 H      -11.0960    -2.6080     1.6560 H     1 <1>   0.0800 
 39 H       -9.6410    -1.6870     1.8480 H     1 <1>   0.0800 
 40 H      -11.8210    -3.1880    -0.6320 H     1 <1>   0.0800 
 41 H      -11.5840    -1.9900    -1.8700 H     1 <1>   0.0800 
 42 H       -9.8900    -4.2930     0.3080 H     1 <1>   0.0800 
 43 H       -9.1360    -4.0920     1.8650 H     1 <1>   0.0800 
 44 H       -8.4100    -3.3670     0.4540 H     1 <1>   0.0800 
 45 H      -13.0190    -1.5040     0.7630 H     1 <1>   0.0800 
 46 H      -13.7710    -1.6790    -0.8010 H     1 <1>   0.0800 
 47 H      -12.7500    -0.3010    -0.4880 H     1 <1>   0.0800 
@<TRIPOS>BOND
  1   1   2  1   
  2   2   3  ar  
  3   2   4  ar  
  4   3   5  ar  
  5   3  22  1   
  6   4   6  ar  
  7   4  23  1   
  8   5   7  ar  
  9   5   8  1   
 10   6   7  ar  
 11   6  24  1   
 12   7  25  1   
 13   8   9  1   
 14   8  26  1   
 15   8  27  1   
 16   9  10  1   
 17   9  11  1   
 18   9  28  1   
 19  10  12  1   
 20  10  29  1   
 21  10  30  1   
 22  11  13  1   
 23  11  31  1   
 24  11  32  1   
 25  12  14  1   
 26  12  15  1   
 27  12  33  1   
 28  13  15  1   
 29  13  34  1   
 30  13  35  1   
 31  14  16  2   
 32  14  17  am  
 33  15  36  1   
 34  15  37  1   
 35  17  18  1   
 36  17  19  1   
 37  18  20  1   
 38  18  38  1   
 39  18  39  1   
 40  19  21  1   
 41  19  40  1   
 42  19  41  1   
 43  20  42  1   
 44  20  43  1   
 45  20  44  1   
 46  21  45  1   
 47  21  46  1   
 48  21  47  1   
@<TRIPOS>SUBSTRUCTURE
  1 ****   9 GROUP 4 **** **** 0

# MOE 2024.06 (io_trps.svl 2023.06)
