@<TRIPOS>MOLECULE
NONAME
46 48 1 0 0 
SMALL
USER_CHARGES


@<TRIPOS>ATOM
  1 O        0.2610    -0.1320    -0.7200 O.2   1 <1>  -0.5700 
  2 C        0.7320     0.8040    -0.1020 C.2   1 <1>   0.6900 
  3 N        2.0310     0.7510     0.3400 N.am  1 <1>  -0.6600 
  4 N       -0.0040     1.9300     0.1360 N.am  1 <1>  -0.5470 
  5 C        2.6720     1.6990     1.3060 C.3   1 <1>   0.1400 
  6 C        2.9440    -0.3670    -0.0620 C.3   1 <1>   0.1400 
  7 C       -1.3570     2.2240    -0.0850 C.ar  1 <1>   0.1170 
  8 C        4.0040     2.2390     0.7530 C.3   1 <1>   0.2090 
  9 C        4.2800     0.1720    -0.6030 C.3   1 <1>   0.2090 
 10 C       -1.7430     3.5530    -0.2050 C.ar  1 <1>  -0.1500 
 11 C       -2.3400     1.2460    -0.1670 C.ar  1 <1>  -0.1500 
 12 N        4.9140     1.1260     0.3580 N.pl3 1 <1>  -0.8380 
 13 C       -3.0670     3.9110    -0.4050 C.ar  1 <1>  -0.1440 
 14 C       -3.6630     1.5900    -0.3690 C.ar  1 <1>  -0.1500 
 15 C        6.2280     1.4880     0.0840 C.ar  1 <1>   0.1000 
 16 C       -4.0390     2.9190    -0.4890 C.ar  1 <1>  -0.1440 
 17 C       -3.4280     5.3840    -0.5320 C.3   1 <1>  -0.0970 
 18 C        6.5630     2.2140    -1.0530 C.ar  1 <1>  -0.1500 
 19 C        7.2370     1.1220     0.9640 C.ar  1 <1>  -0.1500 
 20 C       -5.5060     3.2550    -0.7100 C.3   1 <1>  -0.0970 
 21 C        7.8770     2.5680    -1.3040 C.ar  1 <1>  -0.1500 
 22 C        8.5530     1.4730     0.7180 C.ar  1 <1>  -0.1500 
 23 C        8.8740     2.1970    -0.4180 C.ar  1 <1>  -0.1500 
 24 H        0.5600     2.7130     0.4350 H     1 <1>   0.3700 
 25 H        2.8720     1.1730     2.2230 H     1 <1>   0.0800 
 26 H        2.0230     2.5210     1.5370 H     1 <1>   0.0800 
 27 H        2.4860    -0.9820    -0.8170 H     1 <1>   0.0800 
 28 H        3.1380    -0.9880     0.7950 H     1 <1>   0.0800 
 29 H        4.4870     2.8390     1.5050 H     1 <1>   0.0800 
 30 H        3.8100     2.8650    -0.1010 H     1 <1>   0.0800 
 31 H        4.1040     0.6670    -1.5420 H     1 <1>   0.0800 
 32 H        4.9510    -0.6510    -0.7800 H     1 <1>   0.0800 
 33 H       -0.9930     4.3180    -0.1430 H     1 <1>   0.1500 
 34 H       -2.0750     0.2090    -0.0730 H     1 <1>   0.1500 
 35 H       -4.4000     0.8090    -0.4310 H     1 <1>   0.1500 
 36 H       -2.5560     6.0060    -0.4430 H     1 <1>   0.0800 
 37 H       -4.1210     5.6620     0.2410 H     1 <1>   0.0800 
 38 H       -3.8770     5.5710    -1.4910 H     1 <1>   0.0800 
 39 H        5.7900     2.5020    -1.7400 H     1 <1>   0.1500 
 40 H        6.9770     0.5600     1.8410 H     1 <1>   0.1500 
 41 H       -5.8680     3.8710     0.0930 H     1 <1>   0.0800 
 42 H       -6.1040     2.3620    -0.7470 H     1 <1>   0.0800 
 43 H       -5.6270     3.7800    -1.6400 H     1 <1>   0.0800 
 44 H        8.1250     3.1300    -2.1870 H     1 <1>   0.1500 
 45 H        9.3250     1.1820     1.4090 H     1 <1>   0.1500 
 46 H        9.8970     2.4710    -0.6110 H     1 <1>   0.1500 
@<TRIPOS>BOND
  1   1   2  2   
  2   2   3  am  
  3   2   4  am  
  4   3   5  1   
  5   3   6  1   
  6   4   7  1   
  7   4  24  1   
  8   5   8  1   
  9   5  25  1   
 10   5  26  1   
 11   6   9  1   
 12   6  27  1   
 13   6  28  1   
 14   7  10  ar  
 15   7  11  ar  
 16   8  12  1   
 17   8  29  1   
 18   8  30  1   
 19   9  12  1   
 20   9  31  1   
 21   9  32  1   
 22  10  13  ar  
 23  10  33  1   
 24  11  14  ar  
 25  11  34  1   
 26  12  15  1   
 27  13  16  ar  
 28  13  17  1   
 29  14  16  ar  
 30  14  35  1   
 31  15  18  ar  
 32  15  19  ar  
 33  16  20  1   
 34  17  36  1   
 35  17  37  1   
 36  17  38  1   
 37  18  21  ar  
 38  18  39  1   
 39  19  22  ar  
 40  19  40  1   
 41  20  41  1   
 42  20  42  1   
 43  20  43  1   
 44  21  23  ar  
 45  21  44  1   
 46  22  23  ar  
 47  22  45  1   
 48  23  46  1   
@<TRIPOS>SUBSTRUCTURE
  1 ****   3 GROUP 4 **** **** 0

# MOE 2024.06 (io_trps.svl 2023.06)
