@<TRIPOS>MOLECULE
NONAME
50 52 1 0 0 
SMALL
USER_CHARGES


@<TRIPOS>ATOM
  1 S       -0.1320     0.2880     0.9250 S.o2  1 <1>   1.3330 
  2 O       -0.0400     1.6020     1.5190 O.2   1 <1>  -0.6500 
  3 O        0.0960    -0.8870     1.7360 O.2   1 <1>  -0.6500 
  4 N       -1.6580     0.1290     0.2060 N.am  1 <1>  -0.8490 
  5 C        0.9630     0.2530    -0.4780 C.3   1 <1>  -0.1350 
  6 C       -2.7000     0.7920     0.9940 C.3   1 <1>   0.1960 
  7 C       -2.0000    -1.2720    -0.0680 C.3   1 <1>   0.1960 
  8 C       -4.0370     0.7660     0.2470 C.3   1 <1>  -0.1600 
  9 C       -3.3030    -1.3550    -0.8650 C.3   1 <1>  -0.1600 
 10 C       -4.4550    -0.6680    -0.1130 C.3   1 <1>  -0.0190 
 11 C       -5.7620    -0.6770    -0.9010 C.2   1 <1>   0.5690 
 12 O       -5.7520    -0.5070    -2.0950 O.2   1 <1>  -0.5700 
 13 N       -6.9170    -0.8580    -0.2220 N.am  1 <1>  -0.7300 
 14 C       -8.2500    -0.9330    -0.8390 C.3   1 <1>   0.5070 
 15 C       -9.0890     0.2940    -0.4460 C.ar  1 <1>  -0.1440 
 16 C       -8.8460    -2.2670    -0.3860 C.ar  1 <1>  -0.1440 
 17 C      -10.4600     0.1960    -0.2320 C.ar  1 <1>  -0.1500 
 18 C       -8.4930     1.5460    -0.3260 C.ar  1 <1>  -0.1500 
 19 C       -9.2180    -2.4790     0.9360 C.ar  1 <1>  -0.1500 
 20 C       -9.0080    -3.2960    -1.3030 C.ar  1 <1>  -0.1500 
 21 C      -11.2070     1.3080     0.1180 C.ar  1 <1>  -0.1500 
 22 C       -9.2380     2.6590     0.0230 C.ar  1 <1>  -0.1500 
 23 C       -9.7470    -3.6950     1.3320 C.ar  1 <1>  -0.1500 
 24 C       -9.5370    -4.5130    -0.9090 C.ar  1 <1>  -0.1500 
 25 C      -10.5960     2.5410     0.2490 C.ar  1 <1>  -0.1500 
 26 C       -9.9060    -4.7130     0.4090 C.ar  1 <1>  -0.1500 
 27 H        0.7200     1.0510    -1.1510 H     1 <1>   0.0800 
 28 H        0.8750    -0.6790    -0.9990 H     1 <1>   0.0800 
 29 H        1.9770     0.3720    -0.1530 H     1 <1>   0.0800 
 30 H       -2.4300     1.8220     1.1640 H     1 <1>   0.0800 
 31 H       -2.7950     0.3080     1.9530 H     1 <1>   0.0800 
 32 H       -2.1050    -1.8130     0.8600 H     1 <1>   0.0800 
 33 H       -1.2120    -1.7360    -0.6370 H     1 <1>   0.0800 
 34 H       -3.9420     1.3520    -0.6510 H     1 <1>   0.0800 
 35 H       -4.7940     1.2240     0.8590 H     1 <1>   0.0800 
 36 H       -3.5510    -2.3870    -1.0420 H     1 <1>   0.0800 
 37 H       -3.1540    -0.8850    -1.8220 H     1 <1>   0.0800 
 38 H       -4.6170    -1.2110     0.8020 H     1 <1>   0.0800 
 39 H       -6.9270    -1.0250     0.7800 H     1 <1>   0.3700 
 40 H       -8.1510    -0.9350    -1.9120 H     1 <1>   0.0800 
 41 H      -10.9680    -0.7480    -0.3390 H     1 <1>   0.1500 
 42 H       -7.4400     1.6690    -0.5120 H     1 <1>   0.1500 
 43 H       -9.1050    -1.6930     1.6630 H     1 <1>   0.1500 
 44 H       -8.7190    -3.1570    -2.3320 H     1 <1>   0.1500 
 45 H      -12.2660     1.2120     0.2850 H     1 <1>   0.1500 
 46 H       -8.7590     3.6180     0.1150 H     1 <1>   0.1500 
 47 H      -10.0360    -3.8500     2.3570 H     1 <1>   0.1500 
 48 H       -9.6590    -5.3050    -1.6270 H     1 <1>   0.1500 
 49 H      -11.1770     3.4050     0.5220 H     1 <1>   0.1500 
 50 H      -10.3180    -5.6590     0.7160 H     1 <1>   0.1500 
@<TRIPOS>BOND
  1   1   2  2   
  2   1   3  2   
  3   1   4  am  
  4   1   5  1   
  5   4   6  1   
  6   4   7  1   
  7   5  27  1   
  8   5  28  1   
  9   5  29  1   
 10   6   8  1   
 11   6  30  1   
 12   6  31  1   
 13   7   9  1   
 14   7  32  1   
 15   7  33  1   
 16   8  10  1   
 17   8  34  1   
 18   8  35  1   
 19   9  10  1   
 20   9  36  1   
 21   9  37  1   
 22  10  11  1   
 23  10  38  1   
 24  11  12  2   
 25  11  13  am  
 26  13  14  1   
 27  13  39  1   
 28  14  15  1   
 29  14  16  1   
 30  14  40  1   
 31  15  17  ar  
 32  15  18  ar  
 33  16  19  ar  
 34  16  20  ar  
 35  17  21  ar  
 36  17  41  1   
 37  18  22  ar  
 38  18  42  1   
 39  19  23  ar  
 40  19  43  1   
 41  20  24  ar  
 42  20  44  1   
 43  21  25  ar  
 44  21  45  1   
 45  22  25  ar  
 46  22  46  1   
 47  23  26  ar  
 48  23  47  1   
 49  24  26  ar  
 50  24  48  1   
 51  25  49  1   
 52  26  50  1   
@<TRIPOS>SUBSTRUCTURE
  1 ****  13 GROUP 4 **** **** 0

# MOE 2024.06 (io_trps.svl 2023.06)
