@<TRIPOS>MOLECULE
NONAME
31 33 1 0 0 
SMALL
USER_CHARGES


@<TRIPOS>ATOM
  1 O       -0.3870     0.3310    -0.4960 O.3   1 <1>  -0.5600 
  2 C       -0.2610     1.7240    -0.3990 C.3   1 <1>   0.1200 
  3 C       -1.3510    -0.2060     0.3710 C.3   1 <1>   0.1200 
  4 C       -1.5950     2.4280    -0.7090 C.3   1 <1>   0.2090 
  5 C       -2.7410     0.4040     0.1110 C.3   1 <1>   0.2090 
  6 N       -2.6850     1.8970     0.1560 N.pl3 1 <1>  -0.8380 
  7 C       -3.8730     2.5980     0.2190 C.ar  1 <1>   0.4100 
  8 N       -4.9600     2.0130    -0.2030 N.ar  1 <1>  -0.6200 
  9 C       -3.8650     3.9080     0.7310 C.ar  1 <1>  -0.1500 
 10 C       -6.1300     2.7070    -0.1580 C.ar  1 <1>   0.3100 
 11 C       -5.0120     4.6330     0.7890 C.ar  1 <1>  -0.1500 
 12 C       -7.3430     2.1150    -0.6080 C.ar  1 <1>   0.0820 
 13 C       -6.1980     4.0340     0.3310 C.ar  1 <1>   0.0000 
 14 O       -7.3550     0.8500    -1.0840 O.3   1 <1>  -0.5330 
 15 C       -8.5330     2.8010    -0.5770 C.ar  1 <1>  -0.1500 
 16 C       -7.4310     4.7110     0.3500 C.ar  1 <1>  -0.1500 
 17 C       -8.5770     4.1090    -0.0940 C.ar  1 <1>  -0.1500 
 18 H        0.4930     2.0330    -1.1000 H     1 <1>   0.0800 
 19 H        0.0680     1.9700     0.5950 H     1 <1>   0.0800 
 20 H       -1.0470    -0.0130     1.3850 H     1 <1>   0.0800 
 21 H       -1.3800    -1.2690     0.2140 H     1 <1>   0.0800 
 22 H       -1.8510     2.2630    -1.7420 H     1 <1>   0.0800 
 23 H       -1.4840     3.4860    -0.5570 H     1 <1>   0.0800 
 24 H       -3.4350     0.0490     0.8530 H     1 <1>   0.0800 
 25 H       -3.0970     0.0880    -0.8540 H     1 <1>   0.0800 
 26 H       -2.9320     4.3050     1.0800 H     1 <1>   0.1500 
 27 H       -5.0340     5.6350     1.1760 H     1 <1>   0.1500 
 28 H       -8.2300     0.5450    -1.3720 H     1 <1>   0.4500 
 29 H       -9.4440     2.3470    -0.9200 H     1 <1>   0.1500 
 30 H       -7.4600     5.7190     0.7250 H     1 <1>   0.1500 
 31 H       -9.5180     4.6340    -0.0760 H     1 <1>   0.1500 
@<TRIPOS>BOND
  1   1   2  1   
  2   1   3  1   
  3   2   4  1   
  4   2  18  1   
  5   2  19  1   
  6   3   5  1   
  7   3  20  1   
  8   3  21  1   
  9   4   6  1   
 10   4  22  1   
 11   4  23  1   
 12   5   6  1   
 13   5  24  1   
 14   5  25  1   
 15   6   7  1   
 16   7   8  ar  
 17   7   9  ar  
 18   8  10  ar  
 19   9  11  ar  
 20   9  26  1   
 21  10  12  ar  
 22  10  13  ar  
 23  11  13  ar  
 24  11  27  1   
 25  12  14  1   
 26  12  15  ar  
 27  13  16  ar  
 28  14  28  1   
 29  15  17  ar  
 30  15  29  1   
 31  16  17  ar  
 32  16  30  1   
 33  17  31  1   
@<TRIPOS>SUBSTRUCTURE
  1 ****   8 GROUP 4 **** **** 0

# MOE 2024.06 (io_trps.svl 2023.06)
