@<TRIPOS>MOLECULE
NONAME
43 46 1 0 0 
SMALL
USER_CHARGES


@<TRIPOS>ATOM
  1 O        0.8060    -0.7600     1.8420 O.2   1 <1>  -0.5700 
  2 C        1.5860    -1.2100     1.0200 C.2   1 <1>   0.5440 
  3 N        2.3890    -0.3370     0.3060 N.am  1 <1>  -0.4200 
  4 C        1.6780    -2.6310     0.7930 C.ar  1 <1>   0.0860 
  5 C        3.3420    -0.8040    -0.5820 C.2   1 <1>   0.5440 
  6 C        2.2570     1.1340     0.5380 C.3   1 <1>   0.0600 
  7 C        2.6250    -3.1260    -0.1370 C.ar  1 <1>   0.0000 
  8 C        0.8670    -3.5350     1.4580 C.ar  1 <1>  -0.1500 
  9 O        4.0650    -0.0070    -1.1520 O.2   1 <1>  -0.5700 
 10 C        3.4770    -2.2240    -0.8250 C.ar  1 <1>   0.0860 
 11 C        2.7310    -4.5180    -0.3720 C.ar  1 <1>   0.0000 
 12 C        0.9550    -4.8960     1.2180 C.ar  1 <1>  -0.1500 
 13 C        4.4170    -2.7260    -1.7050 C.ar  1 <1>  -0.1500 
 14 C        1.8550    -5.4070     0.3100 C.ar  1 <1>   0.1000 
 15 C        3.7200    -4.9660    -1.2670 C.ar  1 <1>  -0.1500 
 16 C        4.5440    -4.0940    -1.9240 C.ar  1 <1>  -0.1500 
 17 N        1.8730    -6.7690     0.0810 N.pl3 1 <1>  -0.8380 
 18 C        2.3480    -7.6990     1.1340 C.3   1 <1>   0.2090 
 19 C        1.3420    -7.3230    -1.1910 C.3   1 <1>   0.2090 
 20 C        1.2440    -8.6510     1.6100 C.3   1 <1>  -0.1600 
 21 C       -0.0930    -7.8140    -0.9820 C.3   1 <1>  -0.1600 
 22 C        0.8560    -9.7040     0.5590 C.3   1 <1>  -0.1600 
 23 C       -0.2230    -9.2470    -0.4360 C.3   1 <1>  -0.1600 
 24 H        1.2390     1.3880     0.7800 H     1 <1>   0.0800 
 25 H        2.5380     1.6850    -0.3430 H     1 <1>   0.0800 
 26 H        2.8950     1.4250     1.3540 H     1 <1>   0.0800 
 27 H        0.1460    -3.1780     2.1740 H     1 <1>   0.1500 
 28 H        0.3020    -5.5700     1.7420 H     1 <1>   0.1500 
 29 H        5.0720    -2.0540    -2.2340 H     1 <1>   0.1500 
 30 H        3.8270    -6.0230    -1.4290 H     1 <1>   0.1500 
 31 H        5.2930    -4.4540    -2.6090 H     1 <1>   0.1500 
 32 H        2.6970    -7.1220     1.9740 H     1 <1>   0.0800 
 33 H        3.1840    -8.2620     0.7570 H     1 <1>   0.0800 
 34 H        1.9750    -8.1150    -1.5510 H     1 <1>   0.0800 
 35 H        1.3350    -6.5390    -1.9290 H     1 <1>   0.0800 
 36 H        0.3830    -8.0920     1.9310 H     1 <1>   0.0800 
 37 H        1.6250    -9.1700     2.4710 H     1 <1>   0.0800 
 38 H       -0.6050    -7.7730    -1.9270 H     1 <1>   0.0800 
 39 H       -0.5960    -7.1260    -0.3250 H     1 <1>   0.0800 
 40 H        0.4840   -10.5770     1.0670 H     1 <1>   0.0800 
 41 H        1.7360   -10.0110     0.0200 H     1 <1>   0.0800 
 42 H       -0.2160    -9.9340    -1.2650 H     1 <1>   0.0800 
 43 H       -1.1880    -9.3350     0.0340 H     1 <1>   0.0800 
@<TRIPOS>BOND
  1   1   2  2   
  2   2   3  am  
  3   2   4  1   
  4   3   5  am  
  5   3   6  1   
  6   4   7  ar  
  7   4   8  ar  
  8   5   9  2   
  9   5  10  1   
 10   6  24  1   
 11   6  25  1   
 12   6  26  1   
 13   7  10  ar  
 14   7  11  ar  
 15   8  12  ar  
 16   8  27  1   
 17  10  13  ar  
 18  11  14  ar  
 19  11  15  ar  
 20  12  14  ar  
 21  12  28  1   
 22  13  16  ar  
 23  13  29  1   
 24  14  17  1   
 25  15  16  ar  
 26  15  30  1   
 27  16  31  1   
 28  17  18  1   
 29  17  19  1   
 30  18  20  1   
 31  18  32  1   
 32  18  33  1   
 33  19  21  1   
 34  19  34  1   
 35  19  35  1   
 36  20  22  1   
 37  20  36  1   
 38  20  37  1   
 39  21  23  1   
 40  21  38  1   
 41  21  39  1   
 42  22  23  1   
 43  22  40  1   
 44  22  41  1   
 45  23  42  1   
 46  23  43  1   
@<TRIPOS>SUBSTRUCTURE
  1 ****  11 GROUP 4 **** **** 0

# MOE 2024.06 (io_trps.svl 2023.06)
