@<TRIPOS>MOLECULE
NONAME
46 48 1 0 0 
SMALL
USER_CHARGES


@<TRIPOS>ATOM
  1 F       -2.7680    -1.4510    -1.3570 F     1 <1>  -0.1900 
  2 C       -3.6210    -0.4850    -1.1660 C.ar  1 <1>   0.1900 
  3 C       -4.6350    -0.6580    -0.2450 C.ar  1 <1>  -0.1500 
  4 C       -3.4870     0.6810    -1.8920 C.ar  1 <1>  -0.1500 
  5 C       -5.5380     0.3720    -0.0470 C.ar  1 <1>  -0.1500 
  6 C       -4.3980     1.7010    -1.6810 C.ar  1 <1>  -0.1500 
  7 C       -5.4410     1.5790    -0.7560 C.ar  1 <1>   0.0860 
  8 C       -6.3820     2.6700    -0.5580 C.2   1 <1>   0.5440 
  9 O       -6.5040     3.5450    -1.3930 O.2   1 <1>  -0.5700 
 10 N       -7.1530     2.7070     0.5770 N.am  1 <1>  -0.5470 
 11 C       -8.2560     3.4940     0.9250 C.ar  1 <1>   0.1170 
 12 C       -9.3220     2.8940     1.6090 C.ar  1 <1>   0.0860 
 13 C       -8.3080     4.8530     0.6300 C.ar  1 <1>  -0.1500 
 14 C       -9.3010     1.4690     1.8650 C.2   1 <1>   0.5440 
 15 C      -10.3930     3.6920     2.0110 C.ar  1 <1>  -0.1500 
 16 C       -9.3850     5.6230     1.0220 C.ar  1 <1>  -0.1500 
 17 O       -8.3780     0.9920     2.5070 O.2   1 <1>  -0.5700 
 18 N      -10.2530     0.6220     1.3390 N.am  1 <1>  -0.6600 
 19 C      -10.4300     5.0420     1.7200 C.ar  1 <1>  -0.1500 
 20 C      -10.2490    -0.8350     1.6340 C.3   1 <1>   0.1400 
 21 C      -11.1650     1.0130     0.2310 C.3   1 <1>   0.1400 
 22 C       -9.3840    -1.6100     0.6300 C.3   1 <1>  -0.1600 
 23 C      -10.4200     1.0950    -1.1080 C.3   1 <1>  -0.1600 
 24 C       -9.7270    -1.3930    -0.8570 C.3   1 <1>  -0.1600 
 25 C       -9.3540     0.0120    -1.3600 C.3   1 <1>  -0.1600 
 26 H       -4.7120    -1.5810     0.3020 H     1 <1>   0.1500 
 27 H       -2.6880     0.7840    -2.6050 H     1 <1>   0.1500 
 28 H       -6.3290     0.2210     0.6670 H     1 <1>   0.1500 
 29 H       -4.3050     2.6160    -2.2440 H     1 <1>   0.1500 
 30 H       -7.0300     1.9110     1.2130 H     1 <1>   0.3700 
 31 H       -7.4940     5.3080     0.0950 H     1 <1>   0.1500 
 32 H      -11.2040     3.2400     2.5560 H     1 <1>   0.1500 
 33 H       -9.4100     6.6730     0.7860 H     1 <1>   0.1500 
 34 H      -11.2660     5.6440     2.0340 H     1 <1>   0.1500 
 35 H      -11.2580    -1.2090     1.6110 H     1 <1>   0.0800 
 36 H       -9.8680    -0.9970     2.6290 H     1 <1>   0.0800 
 37 H      -11.6310     1.9580     0.4450 H     1 <1>   0.0800 
 38 H      -11.9530     0.2850     0.1490 H     1 <1>   0.0800 
 39 H       -9.4880    -2.6570     0.8520 H     1 <1>   0.0800 
 40 H       -8.3520    -1.3590     0.8030 H     1 <1>   0.0800 
 41 H       -9.9510     2.0610    -1.1890 H     1 <1>   0.0800 
 42 H      -11.1550     1.0450    -1.8910 H     1 <1>   0.0800 
 43 H      -10.7670    -1.5970    -1.0420 H     1 <1>   0.0800 
 44 H       -9.1570    -2.1070    -1.4270 H     1 <1>   0.0800 
 45 H       -8.4290     0.3160    -0.9010 H     1 <1>   0.0800 
 46 H       -9.1720    -0.0330    -2.4200 H     1 <1>   0.0800 
@<TRIPOS>BOND
  1   1   2  1   
  2   2   3  ar  
  3   2   4  ar  
  4   3   5  ar  
  5   3  26  1   
  6   4   6  ar  
  7   4  27  1   
  8   5   7  ar  
  9   5  28  1   
 10   6   7  ar  
 11   6  29  1   
 12   7   8  1   
 13   8   9  2   
 14   8  10  am  
 15  10  11  1   
 16  10  30  1   
 17  11  12  ar  
 18  11  13  ar  
 19  12  14  1   
 20  12  15  ar  
 21  13  16  ar  
 22  13  31  1   
 23  14  17  2   
 24  14  18  am  
 25  15  19  ar  
 26  15  32  1   
 27  16  19  ar  
 28  16  33  1   
 29  18  20  1   
 30  18  21  1   
 31  19  34  1   
 32  20  22  1   
 33  20  35  1   
 34  20  36  1   
 35  21  23  1   
 36  21  37  1   
 37  21  38  1   
 38  22  24  1   
 39  22  39  1   
 40  22  40  1   
 41  23  25  1   
 42  23  41  1   
 43  23  42  1   
 44  24  25  1   
 45  24  43  1   
 46  24  44  1   
 47  25  45  1   
 48  25  46  1   
@<TRIPOS>SUBSTRUCTURE
  1 ****  10 GROUP 4 **** **** 0

# MOE 2024.06 (io_trps.svl 2023.06)
