@<TRIPOS>MOLECULE
NONAME
48 50 1 0 0 
SMALL
USER_CHARGES


@<TRIPOS>ATOM
  1 O       -1.7710     0.3860     1.6790 O.3   1 <1>  -0.3630 
  2 C       -2.3060     0.6110     0.4450 C.ar  1 <1>   0.0830 
  3 C       -0.3990     0.5460     1.9630 C.3   1 <1>   0.0400 
  4 C       -1.6750     1.2050    -0.6620 C.ar  1 <1>   0.0830 
  5 C       -3.6200     0.1950     0.3180 C.ar  1 <1>  -0.1500 
  6 O       -0.4020     1.6520    -0.6400 O.3   1 <1>  -0.5330 
  7 C       -2.3720     1.3590    -1.8500 C.ar  1 <1>  -0.1500 
  8 C       -4.3220     0.3620    -0.8660 C.ar  1 <1>  -0.1440 
  9 C       -3.6880     0.9420    -1.9540 C.ar  1 <1>  -0.1500 
 10 C       -5.7710    -0.0750    -0.9560 C.3   1 <1>   0.4860 
 11 N       -6.5810     0.7940    -0.0610 N.4   1 <1>  -0.9590 
 12 C       -8.0110     0.3290     0.0410 C.3   1 <1>   0.3430 
 13 C       -6.5080     2.2470    -0.4700 C.3   1 <1>   0.3430 
 14 C       -8.8540     1.2060     0.9900 C.3   1 <1>   0.2090 
 15 C       -7.3260     3.1700     0.4580 C.3   1 <1>   0.2090 
 16 N       -8.7100     2.6560     0.6730 N.pl3 1 <1>  -0.8380 
 17 C       -9.7520     3.2700    -0.0210 C.ar  1 <1>   0.1000 
 18 C      -10.6900     4.0570     0.6490 C.ar  1 <1>  -0.1430 
 19 C       -9.8730     3.1020    -1.3970 C.ar  1 <1>  -0.1500 
 20 C      -11.7210     4.6530    -0.0600 C.ar  1 <1>  -0.1500 
 21 C      -10.5950     4.2710     2.1530 C.3   1 <1>  -0.0970 
 22 C      -10.9030     3.6990    -2.0980 C.ar  1 <1>  -0.1500 
 23 C      -11.8300     4.4770    -1.4280 C.ar  1 <1>  -0.1500 
 24 H       -0.2200     0.1990     2.9650 H     1 <1>   0.0800 
 25 H       -0.1470     1.5890     1.8890 H     1 <1>   0.0800 
 26 H        0.1740    -0.0380     1.2650 H     1 <1>   0.0800 
 27 H       -4.0750    -0.2690     1.1750 H     1 <1>   0.1500 
 28 H       -0.1010     2.0130    -1.4920 H     1 <1>   0.4500 
 29 H       -1.8920     1.8060    -2.7030 H     1 <1>   0.1500 
 30 H       -4.2030     1.0750    -2.8920 H     1 <1>   0.1500 
 31 H       -5.8500    -1.1050    -0.6470 H     1 <1>   0.0800 
 32 H       -6.1190     0.0060    -1.9730 H     1 <1>   0.0800 
 33 H       -6.1570     0.7380     0.8730 H     1 <1>   0.4500 
 34 H       -8.0440    -0.6900     0.3890 H     1 <1>   0.0800 
 35 H       -8.4710     0.3600    -0.9330 H     1 <1>   0.0800 
 36 H       -6.8890     2.3600    -1.4710 H     1 <1>   0.0800 
 37 H       -5.4830     2.5790    -0.4700 H     1 <1>   0.0800 
 38 H       -8.5500     1.0390     2.0090 H     1 <1>   0.0800 
 39 H       -9.8910     0.9250     0.9110 H     1 <1>   0.0800 
 40 H       -7.3730     4.1570     0.0290 H     1 <1>   0.0800 
 41 H       -6.8320     3.2560     1.4110 H     1 <1>   0.0800 
 42 H       -9.1620     2.5010    -1.9260 H     1 <1>   0.1500 
 43 H      -12.4480     5.2600     0.4490 H     1 <1>   0.1500 
 44 H      -10.6910     3.3300     2.6610 H     1 <1>   0.0800 
 45 H      -11.3680     4.9310     2.5020 H     1 <1>   0.0800 
 46 H       -9.6410     4.7020     2.3990 H     1 <1>   0.0800 
 47 H      -10.9900     3.5650    -3.1620 H     1 <1>   0.1500 
 48 H      -12.6350     4.9450    -1.9680 H     1 <1>   0.1500 
@<TRIPOS>BOND
  1   1   2  1   
  2   1   3  1   
  3   2   4  ar  
  4   2   5  ar  
  5   3  24  1   
  6   3  25  1   
  7   3  26  1   
  8   4   6  1   
  9   4   7  ar  
 10   5   8  ar  
 11   5  27  1   
 12   6  28  1   
 13   7   9  ar  
 14   7  29  1   
 15   8   9  ar  
 16   8  10  1   
 17   9  30  1   
 18  10  11  1   
 19  10  31  1   
 20  10  32  1   
 21  11  12  1   
 22  11  13  1   
 23  11  33  1   
 24  12  14  1   
 25  12  34  1   
 26  12  35  1   
 27  13  15  1   
 28  13  36  1   
 29  13  37  1   
 30  14  16  1   
 31  14  38  1   
 32  14  39  1   
 33  15  16  1   
 34  15  40  1   
 35  15  41  1   
 36  16  17  1   
 37  17  18  ar  
 38  17  19  ar  
 39  18  20  ar  
 40  18  21  1   
 41  19  22  ar  
 42  19  42  1   
 43  20  23  ar  
 44  20  43  1   
 45  21  44  1   
 46  21  45  1   
 47  21  46  1   
 48  22  23  ar  
 49  22  47  1   
 50  23  48  1   
@<TRIPOS>SUBSTRUCTURE
  1 ****  13 GROUP 4 **** **** 0

# MOE 2024.06 (io_trps.svl 2023.06)
