@<TRIPOS>MOLECULE
NONAME
40 41 1 0 0 
SMALL
USER_CHARGES


@<TRIPOS>ATOM
  1 F       -0.8250    -0.1570    -0.0560 F     1 <1>  -0.1900 
  2 C       -2.0440    -0.6290    -0.0480 C.ar  1 <1>   0.1900 
  3 C       -2.2280    -1.9980    -0.0290 C.ar  1 <1>  -0.1500 
  4 C       -3.1030     0.2600    -0.0600 C.ar  1 <1>  -0.1500 
  5 C       -3.5230    -2.4890    -0.0210 C.ar  1 <1>  -0.1500 
  6 C       -4.3940    -0.2410    -0.0520 C.ar  1 <1>  -0.1500 
  7 C       -4.6070    -1.6210    -0.0320 C.ar  1 <1>   0.0830 
  8 O       -5.8370    -2.1920    -0.0240 O.3   1 <1>  -0.3630 
  9 C       -7.0090    -1.4090    -0.0340 C.3   1 <1>   0.1200 
 10 C       -8.2110    -2.3530    -0.0200 C.3   1 <1>  -0.1600 
 11 C       -9.5300    -1.5680    -0.0300 C.3   1 <1>  -0.1600 
 12 C      -10.7360    -2.5060    -0.0160 C.3   1 <1>   0.1200 
 13 O      -11.8990    -1.7140    -0.0270 O.3   1 <1>  -0.3630 
 14 C      -13.1470    -2.2660    -0.0170 C.ar  1 <1>   0.0830 
 15 C      -14.2470    -1.4010    -0.0290 C.ar  1 <1>   0.0830 
 16 C      -13.3570    -3.6430     0.0030 C.ar  1 <1>  -0.1500 
 17 O      -14.0070    -0.0570    -0.0490 O.3   1 <1>  -0.3630 
 18 C      -15.5350    -1.9300    -0.0200 C.ar  1 <1>  -0.1500 
 19 C      -14.6430    -4.1550     0.0110 C.ar  1 <1>  -0.1500 
 20 C      -15.0550     0.8840    -0.0620 C.3   1 <1>   0.0400 
 21 C      -15.7290    -3.3000     0.0000 C.ar  1 <1>  -0.1500 
 22 H       -1.3800    -2.6580    -0.0200 H     1 <1>   0.1500 
 23 H       -2.9140     1.3190    -0.0750 H     1 <1>   0.1500 
 24 H       -3.7030    -3.5500    -0.0060 H     1 <1>   0.1500 
 25 H       -5.2140     0.4520    -0.0610 H     1 <1>   0.1500 
 26 H       -7.0080    -0.8070    -0.9270 H     1 <1>   0.0800 
 27 H       -7.0070    -0.7820     0.8410 H     1 <1>   0.0800 
 28 H       -8.1640    -2.9650     0.8650 H     1 <1>   0.0800 
 29 H       -8.1650    -2.9900    -0.8860 H     1 <1>   0.0800 
 30 H       -9.5780    -0.9550    -0.9140 H     1 <1>   0.0800 
 31 H       -9.5770    -0.9290     0.8350 H     1 <1>   0.0800 
 32 H      -10.7420    -3.1060     0.8780 H     1 <1>   0.0800 
 33 H      -10.7430    -3.1320    -0.8910 H     1 <1>   0.0800 
 34 H      -12.5360    -4.3340     0.0120 H     1 <1>   0.1500 
 35 H      -16.3990    -1.2950    -0.0290 H     1 <1>   0.1500 
 36 H      -14.7980    -5.2200     0.0270 H     1 <1>   0.1500 
 37 H      -14.6190     1.8660    -0.0770 H     1 <1>   0.0800 
 38 H      -15.6470     0.7600     0.8280 H     1 <1>   0.0800 
 39 H      -15.6480     0.7340    -0.9470 H     1 <1>   0.0800 
 40 H      -16.7280    -3.7020     0.0070 H     1 <1>   0.1500 
@<TRIPOS>BOND
  1   1   2  1   
  2   2   3  ar  
  3   2   4  ar  
  4   3   5  ar  
  5   3  22  1   
  6   4   6  ar  
  7   4  23  1   
  8   5   7  ar  
  9   5  24  1   
 10   6   7  ar  
 11   6  25  1   
 12   7   8  1   
 13   8   9  1   
 14   9  10  1   
 15   9  26  1   
 16   9  27  1   
 17  10  11  1   
 18  10  28  1   
 19  10  29  1   
 20  11  12  1   
 21  11  30  1   
 22  11  31  1   
 23  12  13  1   
 24  12  32  1   
 25  12  33  1   
 26  13  14  1   
 27  14  15  ar  
 28  14  16  ar  
 29  15  17  1   
 30  15  18  ar  
 31  16  19  ar  
 32  16  34  1   
 33  17  20  1   
 34  18  21  ar  
 35  18  35  1   
 36  19  21  ar  
 37  19  36  1   
 38  20  37  1   
 39  20  38  1   
 40  20  39  1   
 41  21  40  1   
@<TRIPOS>SUBSTRUCTURE
  1 ****  11 GROUP 4 **** **** 0

# MOE 2024.06 (io_trps.svl 2023.06)
