@<TRIPOS>MOLECULE
NONAME
45 47 1 0 0 
SMALL
USER_CHARGES


@<TRIPOS>ATOM
  1 S       -1.4420    -0.8780    -1.0520 S.3   1 <1>  -0.0800 
  2 C       -1.6480     0.5160    -0.0020 C.2   1 <1>  -0.1400 
  3 C       -1.1110     0.1540    -2.4310 C.2   1 <1>  -0.1100 
  4 C       -1.4640     1.6570    -0.6930 C.2   1 <1>  -0.1500 
  5 C       -1.9850     0.2540     1.4610 C.3   1 <1>   0.0810 
  6 C       -1.1600     1.4510    -2.0770 C.2   1 <1>  -0.1500 
  7 C       -3.1550    -0.7040     1.6810 C.2   1 <1>   0.5690 
  8 O       -3.0120    -1.5540     2.5270 O.2   1 <1>  -0.5700 
  9 N       -4.3390    -0.6200     0.9790 N.am  1 <1>  -0.6600 
 10 C       -5.2960    -1.7730     0.9910 C.3   1 <1>   0.1400 
 11 C       -4.7200     0.5080     0.0730 C.3   1 <1>   0.1400 
 12 C       -6.7460    -1.3030     1.1900 C.3   1 <1>   0.3430 
 13 C       -6.1960     0.9180     0.2560 C.3   1 <1>   0.3430 
 14 N       -7.1390    -0.2560     0.1820 N.4   1 <1>  -0.9590 
 15 C       -8.5680     0.1400     0.3860 C.3   1 <1>   0.3430 
 16 C       -9.1090     0.9800    -0.7720 C.3   1 <1>  -0.0170 
 17 C      -10.5810     1.2410    -0.5260 C.ar  1 <1>  -0.1430 
 18 C      -11.5410     0.3840    -1.0460 C.ar  1 <1>  -0.1500 
 19 C      -10.9810     2.3320     0.2320 C.ar  1 <1>  -0.1500 
 20 C      -12.8840     0.6130    -0.8050 C.ar  1 <1>  -0.1500 
 21 C      -12.3250     2.5600     0.4720 C.ar  1 <1>  -0.1500 
 22 C      -13.2770     1.6990    -0.0450 C.ar  1 <1>  -0.1500 
 23 H       -0.9060    -0.3270    -3.3720 H     1 <1>   0.1500 
 24 H       -1.5190     2.6540    -0.2910 H     1 <1>   0.1500 
 25 H       -2.2000     1.1810     1.9570 H     1 <1>   0.0800 
 26 H       -1.1150    -0.1680     1.9310 H     1 <1>   0.0800 
 27 H       -0.9870     2.2840    -2.7360 H     1 <1>   0.1500 
 28 H       -5.0500    -2.4650     1.7790 H     1 <1>   0.0800 
 29 H       -5.2110    -2.3080     0.0610 H     1 <1>   0.0800 
 30 H       -4.5450     0.2150    -0.9490 H     1 <1>   0.0800 
 31 H       -4.1100     1.3700     0.2740 H     1 <1>   0.0800 
 32 H       -6.8400    -0.9050     2.1870 H     1 <1>   0.0800 
 33 H       -7.4020    -2.1550     1.1110 H     1 <1>   0.0800 
 34 H       -6.4480     1.6420    -0.5000 H     1 <1>   0.0800 
 35 H       -6.2960     1.3970     1.2160 H     1 <1>   0.0800 
 36 H       -7.0460    -0.6810    -0.7510 H     1 <1>   0.4500 
 37 H       -8.6710     0.6940     1.3060 H     1 <1>   0.0800 
 38 H       -9.1780    -0.7460     0.4690 H     1 <1>   0.0800 
 39 H       -8.9920     0.4540    -1.7030 H     1 <1>   0.0800 
 40 H       -8.5950     1.9220    -0.8390 H     1 <1>   0.0800 
 41 H      -11.2600    -0.4650    -1.6450 H     1 <1>   0.1500 
 42 H      -10.2590     3.0180     0.6400 H     1 <1>   0.1500 
 43 H      -13.6280    -0.0520    -1.2100 H     1 <1>   0.1500 
 44 H      -12.6340     3.4070     1.0600 H     1 <1>   0.1500 
 45 H      -14.3220     1.8770     0.1420 H     1 <1>   0.1500 
@<TRIPOS>BOND
  1   1   2  1   
  2   1   3  1   
  3   2   4  2   
  4   2   5  1   
  5   3   6  2   
  6   3  23  1   
  7   4   6  1   
  8   4  24  1   
  9   5   7  1   
 10   5  25  1   
 11   5  26  1   
 12   6  27  1   
 13   7   8  2   
 14   7   9  am  
 15   9  10  1   
 16   9  11  1   
 17  10  12  1   
 18  10  28  1   
 19  10  29  1   
 20  11  13  1   
 21  11  30  1   
 22  11  31  1   
 23  12  14  1   
 24  12  32  1   
 25  12  33  1   
 26  13  14  1   
 27  13  34  1   
 28  13  35  1   
 29  14  15  1   
 30  14  36  1   
 31  15  16  1   
 32  15  37  1   
 33  15  38  1   
 34  16  17  1   
 35  16  39  1   
 36  16  40  1   
 37  17  18  ar  
 38  17  19  ar  
 39  18  20  ar  
 40  18  41  1   
 41  19  21  ar  
 42  19  42  1   
 43  20  22  ar  
 44  20  43  1   
 45  21  22  ar  
 46  21  44  1   
 47  22  45  1   
@<TRIPOS>SUBSTRUCTURE
  1 ****  13 GROUP 4 **** **** 0

# MOE 2024.06 (io_trps.svl 2023.06)
