@<TRIPOS>MOLECULE
NONAME
44 46 1 0 0 
SMALL
USER_CHARGES


@<TRIPOS>ATOM
  1 O       -0.4670     0.4390    -0.4030 O.3   1 <1>  -0.2800 
  2 C       -1.6170     0.6810     0.1920 C.2   1 <1>  -0.0400 
  3 C        0.4640     1.1330     0.2170 C.2   1 <1>  -0.0400 
  4 C       -1.4400     1.5450     1.2200 C.2   1 <1>  -0.1500 
  5 C       -2.8390    -0.0230    -0.3680 C.3   1 <1>   0.5230 
  6 C       -0.0720     1.8400     1.2330 C.2   1 <1>  -0.1500 
  7 C        1.8940     1.0340    -0.2710 C.3   1 <1>  -0.0600 
  8 N       -4.0910     0.6750     0.0440 N.4   1 <1>  -0.9590 
  9 C       -5.2900    -0.1540    -0.2550 C.3   1 <1>   0.3430 
 10 C       -4.1760     2.0270    -0.5850 C.3   1 <1>   0.3430 
 11 C       -6.5400     0.5410     0.2810 C.3   1 <1>  -0.1600 
 12 C       -5.4050     2.7650    -0.0550 C.3   1 <1>  -0.1600 
 13 C       -6.6950     1.9630    -0.2920 C.3   1 <1>  -0.0800 
 14 C       -7.9150     2.6940     0.3020 C.3   1 <1>  -0.0170 
 15 C       -9.2020     1.9260     0.0450 C.ar  1 <1>  -0.1430 
 16 C       -9.7700     1.9200    -1.2200 C.ar  1 <1>  -0.1500 
 17 C       -9.8170     1.2190     1.0680 C.ar  1 <1>  -0.1500 
 18 C      -10.9320     1.2080    -1.4630 C.ar  1 <1>  -0.1500 
 19 C      -10.9780     0.5060     0.8270 C.ar  1 <1>  -0.1500 
 20 C      -11.5360     0.4990    -0.4400 C.ar  1 <1>  -0.1500 
 21 H       -2.1470     1.9540     1.9190 H     1 <1>   0.1500 
 22 H       -2.8420    -1.0410    -0.0150 H     1 <1>   0.0800 
 23 H       -2.7700    -0.0390    -1.4430 H     1 <1>   0.0800 
 24 H        0.4230     2.5000     1.9250 H     1 <1>   0.1500 
 25 H        1.9540     1.3590    -1.2930 H     1 <1>   0.0800 
 26 H        2.2300     0.0150    -0.2080 H     1 <1>   0.0800 
 27 H        2.5360     1.6510     0.3300 H     1 <1>   0.0800 
 28 H       -4.0380     0.8040     1.0610 H     1 <1>   0.4500 
 29 H       -5.1970    -1.1250     0.2050 H     1 <1>   0.0800 
 30 H       -5.3870    -0.2900    -1.3210 H     1 <1>   0.0800 
 31 H       -4.2510     1.9270    -1.6560 H     1 <1>   0.0800 
 32 H       -3.2890     2.6000    -0.3620 H     1 <1>   0.0800 
 33 H       -6.5010     0.5730     1.3560 H     1 <1>   0.0800 
 34 H       -7.3950    -0.0540     0.0090 H     1 <1>   0.0800 
 35 H       -5.4780     3.7160    -0.5540 H     1 <1>   0.0800 
 36 H       -5.2750     2.9630     0.9950 H     1 <1>   0.0800 
 37 H       -6.8490     1.8800    -1.3560 H     1 <1>   0.0800 
 38 H       -8.0040     3.6710    -0.1410 H     1 <1>   0.0800 
 39 H       -7.7830     2.8340     1.3600 H     1 <1>   0.0800 
 40 H       -9.3150     2.4710    -2.0240 H     1 <1>   0.1500 
 41 H       -9.3990     1.2180     2.0590 H     1 <1>   0.1500 
 42 H      -11.3690     1.2070    -2.4460 H     1 <1>   0.1500 
 43 H      -11.4520    -0.0410     1.6240 H     1 <1>   0.1500 
 44 H      -12.4390    -0.0550    -0.6280 H     1 <1>   0.1500 
@<TRIPOS>BOND
  1   1   2  1   
  2   1   3  1   
  3   2   4  2   
  4   2   5  1   
  5   3   6  2   
  6   3   7  1   
  7   4   6  1   
  8   4  21  1   
  9   5   8  1   
 10   5  22  1   
 11   5  23  1   
 12   6  24  1   
 13   7  25  1   
 14   7  26  1   
 15   7  27  1   
 16   8   9  1   
 17   8  10  1   
 18   8  28  1   
 19   9  11  1   
 20   9  29  1   
 21   9  30  1   
 22  10  12  1   
 23  10  31  1   
 24  10  32  1   
 25  11  13  1   
 26  11  33  1   
 27  11  34  1   
 28  12  13  1   
 29  12  35  1   
 30  12  36  1   
 31  13  14  1   
 32  13  37  1   
 33  14  15  1   
 34  14  38  1   
 35  14  39  1   
 36  15  16  ar  
 37  15  17  ar  
 38  16  18  ar  
 39  16  40  1   
 40  17  19  ar  
 41  17  41  1   
 42  18  20  ar  
 43  18  42  1   
 44  19  20  ar  
 45  19  43  1   
 46  20  44  1   
@<TRIPOS>SUBSTRUCTURE
  1 ****   8 GROUP 4 **** **** 0

# MOE 2024.06 (io_trps.svl 2023.06)
