@<TRIPOS>MOLECULE
NONAME
51 53 1 0 0 
SMALL
USER_CHARGES


@<TRIPOS>ATOM
  1 F        0.7220     2.0930    -0.3830 F     1 <1>  -0.3400 
  2 C        1.7360     1.5570    -1.0550 C.3   1 <1>   1.1640 
  3 F        1.5360     0.2440    -1.0370 F     1 <1>  -0.3400 
  4 F        1.5910     1.9400    -2.3160 F     1 <1>  -0.3400 
  5 C        3.1080     1.9520    -0.4860 C.ar  1 <1>  -0.1440 
  6 C        4.2140     1.1310    -0.6800 C.ar  1 <1>  -0.1500 
  7 C        3.2790     3.1380     0.2210 C.ar  1 <1>  -0.1500 
  8 C        5.4670     1.4640    -0.1820 C.ar  1 <1>   0.1000 
  9 C        4.5220     3.4850     0.7220 C.ar  1 <1>  -0.1500 
 10 N        6.5400     0.6010    -0.3940 N.pl3 1 <1>  -0.8380 
 11 C        5.6070     2.6540     0.5220 C.ar  1 <1>  -0.1500 
 12 C        7.8760     1.1250    -0.8150 C.3   1 <1>   0.2090 
 13 C        6.5350    -0.7330     0.2780 C.3   1 <1>   0.2090 
 14 C        8.9150     1.0160     0.3210 C.3   1 <1>   0.3430 
 15 C        7.5900    -0.8020     1.4030 C.3   1 <1>   0.3430 
 16 N        8.9510    -0.3570     0.9420 N.4   1 <1>  -0.9590 
 17 C        9.9890    -0.4810     1.9960 C.3   1 <1>   0.4860 
 18 C       11.3440    -0.2490     1.3560 C.ar  1 <1>  -0.1430 
 19 C       11.7780    -1.0720     0.3190 C.ar  1 <1>   0.0830 
 20 C       12.1440     0.7910     1.8030 C.ar  1 <1>  -0.1500 
 21 O       10.9350    -2.0890    -0.0360 O.3   1 <1>  -0.3630 
 22 C       13.0110    -0.8150    -0.3040 C.ar  1 <1>   0.0830 
 23 C       13.3700     1.0260     1.2110 C.ar  1 <1>  -0.1500 
 24 C       11.4550    -3.3570    -0.3920 C.3   1 <1>   0.0400 
 25 O       13.3960    -1.5760    -1.3690 O.3   1 <1>  -0.3630 
 26 C       13.8000     0.2320     0.1630 C.ar  1 <1>  -0.1500 
 27 C       14.6220    -1.3720    -2.0390 C.3   1 <1>   0.0400 
 28 H        4.1180     0.2150    -1.2360 H     1 <1>   0.1500 
 29 H        2.4460     3.8030     0.3870 H     1 <1>   0.1500 
 30 H        4.6400     4.4060     1.2670 H     1 <1>   0.1500 
 31 H        6.5630     2.9350     0.9190 H     1 <1>   0.1500 
 32 H        7.7840     2.1520    -1.1240 H     1 <1>   0.0800 
 33 H        8.2180     0.5640    -1.6680 H     1 <1>   0.0800 
 34 H        6.7340    -1.4970    -0.4540 H     1 <1>   0.0800 
 35 H        5.5610    -0.9260     0.6950 H     1 <1>   0.0800 
 36 H        8.6670     1.7440     1.0750 H     1 <1>   0.0800 
 37 H        9.8870     1.2660    -0.0720 H     1 <1>   0.0800 
 38 H        7.6390    -1.8120     1.7740 H     1 <1>   0.0800 
 39 H        7.2580    -0.1680     2.2080 H     1 <1>   0.0800 
 40 H        9.2790    -1.0070     0.2050 H     1 <1>   0.4500 
 41 H        9.9680    -1.4710     2.4200 H     1 <1>   0.0800 
 42 H        9.8170     0.2370     2.7800 H     1 <1>   0.0800 
 43 H       11.8290     1.4270     2.6140 H     1 <1>   0.1500 
 44 H       13.9950     1.8300     1.5630 H     1 <1>   0.1500 
 45 H       11.7050    -3.3510    -1.4380 H     1 <1>   0.0800 
 46 H       10.7010    -4.1000    -0.2070 H     1 <1>   0.0800 
 47 H       12.3280    -3.5640     0.2020 H     1 <1>   0.0800 
 48 H       14.7550     0.4540    -0.2740 H     1 <1>   0.1500 
 49 H       14.6940    -2.0950    -2.8310 H     1 <1>   0.0800 
 50 H       15.4300    -1.5120    -1.3440 H     1 <1>   0.0800 
 51 H       14.6350    -0.3790    -2.4530 H     1 <1>   0.0800 
@<TRIPOS>BOND
  1   1   2  1   
  2   2   3  1   
  3   2   4  1   
  4   2   5  1   
  5   5   6  ar  
  6   5   7  ar  
  7   6   8  ar  
  8   6  28  1   
  9   7   9  ar  
 10   7  29  1   
 11   8  10  1   
 12   8  11  ar  
 13   9  11  ar  
 14   9  30  1   
 15  10  12  1   
 16  10  13  1   
 17  11  31  1   
 18  12  14  1   
 19  12  32  1   
 20  12  33  1   
 21  13  15  1   
 22  13  34  1   
 23  13  35  1   
 24  14  16  1   
 25  14  36  1   
 26  14  37  1   
 27  15  16  1   
 28  15  38  1   
 29  15  39  1   
 30  16  17  1   
 31  16  40  1   
 32  17  18  1   
 33  17  41  1   
 34  17  42  1   
 35  18  19  ar  
 36  18  20  ar  
 37  19  21  1   
 38  19  22  ar  
 39  20  23  ar  
 40  20  43  1   
 41  21  24  1   
 42  22  25  1   
 43  22  26  ar  
 44  23  26  ar  
 45  23  44  1   
 46  24  45  1   
 47  24  46  1   
 48  24  47  1   
 49  25  27  1   
 50  26  48  1   
 51  27  49  1   
 52  27  50  1   
 53  27  51  1   
@<TRIPOS>SUBSTRUCTURE
  1 ****  12 GROUP 4 **** **** 0

# MOE 2024.06 (io_trps.svl 2023.06)
