@<TRIPOS>MOLECULE
NONAME
50 51 1 0 0 
SMALL
USER_CHARGES


@<TRIPOS>ATOM
  1 S        0.7060    -1.1070    -0.7720 S.o2  1 <1>   1.4470 
  2 O        1.8080    -1.5630     0.0450 O.2   1 <1>  -0.6500 
  3 O        0.0060    -2.0780    -1.5800 O.2   1 <1>  -0.6500 
  4 N        1.3840    -0.1480    -1.9680 N.am  1 <1>  -0.9140 
  5 C       -0.4060     0.0040     0.1770 C.ar  1 <1>  -0.0090 
  6 C        2.6090    -0.7310    -2.5600 C.3   1 <1>   0.2570 
  7 C        0.0520     1.2340     0.6750 C.ar  1 <1>  -0.1430 
  8 C       -1.7370    -0.3430     0.4550 C.ar  1 <1>  -0.1430 
  9 C        3.9350    -0.1720    -2.0170 C.2   1 <1>   0.5690 
 10 C       -0.7970     2.0850     1.3650 C.ar  1 <1>  -0.1500 
 11 C        1.4920     1.7140     0.5070 C.3   1 <1>  -0.0960 
 12 C       -2.5690     0.5220     1.1480 C.ar  1 <1>  -0.1500 
 13 C       -2.3540    -1.6740     0.0330 C.3   1 <1>  -0.0960 
 14 O        4.6650     0.3850    -2.8020 O.2   1 <1>  -0.5700 
 15 N        4.2350    -0.3330    -0.6910 N.am  1 <1>  -0.5470 
 16 C       -2.1110     1.7410     1.6010 C.ar  1 <1>  -0.1430 
 17 C        5.3090     0.1000     0.1150 C.ar  1 <1>   0.1170 
 18 C       -3.0320     2.6810     2.3560 C.3   1 <1>  -0.0970 
 19 C        5.1840    -0.0050     1.5050 C.ar  1 <1>   0.0830 
 20 C        6.4890     0.6190    -0.4080 C.ar  1 <1>  -0.1500 
 21 O        4.0180    -0.5240     1.9900 O.3   1 <1>  -0.3620 
 22 C        6.2210     0.4100     2.3340 C.ar  1 <1>  -0.1500 
 23 C        7.5210     1.0360     0.4170 C.ar  1 <1>  -0.1430 
 24 C        3.7990    -0.7040     3.3700 C.3   1 <1>   0.0400 
 25 C        7.3830     0.9280     1.7890 C.ar  1 <1>  -0.1500 
 26 C        8.7950     1.6020    -0.1830 C.3   1 <1>  -0.0970 
 27 H        0.6700    -0.1720    -2.6930 H     1 <1>   0.4200 
 28 H        2.5980    -0.5220    -3.6160 H     1 <1>   0.0800 
 29 H        2.6120    -1.8020    -2.4530 H     1 <1>   0.0800 
 30 H       -0.4340     3.0300     1.7290 H     1 <1>   0.1500 
 31 H        1.6670     2.0390    -0.5030 H     1 <1>   0.0800 
 32 H        2.1850     0.9350     0.7550 H     1 <1>   0.0800 
 33 H        1.7040     2.5420     1.1590 H     1 <1>   0.0800 
 34 H       -3.5910     0.2480     1.3450 H     1 <1>   0.1500 
 35 H       -2.4920    -1.6990    -1.0330 H     1 <1>   0.0800 
 36 H       -3.3150    -1.8230     0.4930 H     1 <1>   0.0800 
 37 H       -1.7260    -2.4940     0.3300 H     1 <1>   0.0800 
 38 H        3.5020    -0.8020    -0.1350 H     1 <1>   0.3700 
 39 H       -2.7430     3.7040     2.1940 H     1 <1>   0.0800 
 40 H       -2.9840     2.4690     3.4090 H     1 <1>   0.0800 
 41 H       -4.0480     2.5600     2.0240 H     1 <1>   0.0800 
 42 H        6.6110     0.7000    -1.4700 H     1 <1>   0.1500 
 43 H        6.1470     0.3400     3.4010 H     1 <1>   0.1500 
 44 H        2.8220    -1.1350     3.4970 H     1 <1>   0.0800 
 45 H        3.8420     0.2530     3.8590 H     1 <1>   0.0800 
 46 H        4.5470    -1.3720     3.7580 H     1 <1>   0.0800 
 47 H        8.1800     1.2470     2.4380 H     1 <1>   0.1500 
 48 H        8.5940     2.0540    -1.1380 H     1 <1>   0.0800 
 49 H        9.5140     0.8140    -0.3170 H     1 <1>   0.0800 
 50 H        9.2140     2.3510     0.4640 H     1 <1>   0.0800 
@<TRIPOS>BOND
  1   1   2  2   
  2   1   3  2   
  3   1   4  am  
  4   1   5  1   
  5   4   6  1   
  6   4  27  1   
  7   5   7  ar  
  8   5   8  ar  
  9   6   9  1   
 10   6  28  1   
 11   6  29  1   
 12   7  10  ar  
 13   7  11  1   
 14   8  12  ar  
 15   8  13  1   
 16   9  14  2   
 17   9  15  am  
 18  10  16  ar  
 19  10  30  1   
 20  11  31  1   
 21  11  32  1   
 22  11  33  1   
 23  12  16  ar  
 24  12  34  1   
 25  13  35  1   
 26  13  36  1   
 27  13  37  1   
 28  15  17  1   
 29  15  38  1   
 30  16  18  1   
 31  17  19  ar  
 32  17  20  ar  
 33  18  39  1   
 34  18  40  1   
 35  18  41  1   
 36  19  21  1   
 37  19  22  ar  
 38  20  23  ar  
 39  20  42  1   
 40  21  24  1   
 41  22  25  ar  
 42  22  43  1   
 43  23  25  ar  
 44  23  26  1   
 45  24  44  1   
 46  24  45  1   
 47  24  46  1   
 48  25  47  1   
 49  26  48  1   
 50  26  49  1   
 51  26  50  1   
@<TRIPOS>SUBSTRUCTURE
  1 ****  11 GROUP 4 **** **** 0

# MOE 2024.06 (io_trps.svl 2023.06)
