@<TRIPOS>MOLECULE
NONAME
25 26 1 0 0 
SMALL
USER_CHARGES


@<TRIPOS>ATOM
  1 BR      -0.0990     0.0510     1.1150 Br    1 <1>  -0.1110 
  2 C       -0.0510    -1.7240     0.3480 C.ar  1 <1>   0.1110 
  3 C       -1.2020    -2.3000    -0.1550 C.ar  1 <1>   0.0830 
  4 C        1.1670    -2.4080     0.3140 C.ar  1 <1>   0.2270 
  5 O       -2.3870    -1.6500    -0.1280 O.3   1 <1>  -0.5320 
  6 C       -1.1520    -3.5870    -0.7060 C.ar  1 <1>  -0.1500 
  7 N        2.4120    -2.0520     0.7430 N.2   1 <1>  -0.5650 
  8 C        1.1960    -3.6780    -0.2370 C.ar  1 <1>  -0.1520 
  9 C        0.0400    -4.2790    -0.7500 C.ar  1 <1>  -0.1500 
 10 C        3.1540    -3.0630     0.4630 C.2   1 <1>   0.0070 
 11 N        2.4900    -4.0920    -0.1360 N.pl3 1 <1>   0.0480 
 12 C        4.6360    -3.0980     0.7770 C.3   1 <1>  -0.0600 
 13 C        3.0270    -5.3920    -0.5960 C.3   1 <1>   0.0960 
 14 C        2.8310    -6.4660     0.4780 C.3   1 <1>  -0.2400 
 15 H       -3.1130    -2.1690    -0.5130 H     1 <1>   0.4500 
 16 H       -2.0470    -4.0350    -1.0970 H     1 <1>   0.1500 
 17 H        0.0880    -5.2680    -1.1700 H     1 <1>   0.1500 
 18 H        4.9200    -2.1940     1.2870 H     1 <1>   0.0800 
 19 H        5.2060    -3.1720    -0.1310 H     1 <1>   0.0800 
 20 H        4.8610    -3.9340     1.4130 H     1 <1>   0.0800 
 21 H        4.0710    -5.2810    -0.8220 H     1 <1>   0.0800 
 22 H        2.5160    -5.6740    -1.4990 H     1 <1>   0.0800 
 23 H        3.3480    -6.1910     1.3810 H     1 <1>   0.0800 
 24 H        3.2230    -7.4050     0.1310 H     1 <1>   0.0800 
 25 H        1.7850    -6.5920     0.6950 H     1 <1>   0.0800 
@<TRIPOS>BOND
  1   1   2  1   
  2   2   3  ar  
  3   2   4  ar  
  4   3   5  1   
  5   3   6  ar  
  6   4   7  1   
  7   4   8  ar  
  8   5  15  1   
  9   6   9  ar  
 10   6  16  1   
 11   7  10  2   
 12   8   9  ar  
 13   8  11  1   
 14   9  17  1   
 15  10  11  1   
 16  10  12  1   
 17  11  13  1   
 18  12  18  1   
 19  12  19  1   
 20  12  20  1   
 21  13  14  1   
 22  13  21  1   
 23  13  22  1   
 24  14  23  1   
 25  14  24  1   
 26  14  25  1   
@<TRIPOS>SUBSTRUCTURE
  1 ****   8 GROUP 4 **** **** 0

# MOE 2024.06 (io_trps.svl 2023.06)
