@<TRIPOS>MOLECULE
NONAME
32 34 1 0 0 
SMALL
USER_CHARGES


@<TRIPOS>ATOM
  1 BR       0.1230     0.8450    -0.8430 Br    1 <1>  -0.1110 
  2 C       -1.6790     1.2230    -0.2780 C.ar  1 <1>   0.1110 
  3 C       -2.7260     0.7640    -1.0470 C.ar  1 <1>  -0.1500 
  4 C       -1.8560     1.9530     0.8990 C.ar  1 <1>  -0.1500 
  5 C       -4.0220     1.0530    -0.6120 C.ar  1 <1>   0.0000 
  6 C       -3.1400     2.2360     1.3230 C.ar  1 <1>  -0.1500 
  7 C       -4.2050     1.7760     0.5540 C.ar  1 <1>   0.1400 
  8 C       -5.3210     0.7890    -1.0730 C.2   1 <1>  -0.1500 
  9 O       -5.5040     1.9420     0.7930 O.3   1 <1>  -0.2800 
 10 C       -6.1930     1.3430    -0.1900 C.2   1 <1>   0.0550 
 11 C       -7.6420     1.3650    -0.1860 C.2   1 <1>   0.7150 
 12 O       -8.2300     2.4070     0.0510 O.2   1 <1>  -0.5700 
 13 N       -8.3850     0.2330    -0.4690 N.am  1 <1>  -0.6600 
 14 C       -9.8510     0.3050    -0.7330 C.3   1 <1>   0.1400 
 15 C       -7.8580    -1.1540    -0.3260 C.3   1 <1>   0.1400 
 16 C      -10.6150    -0.4070     0.3880 C.3   1 <1>  -0.1600 
 17 C       -8.6120    -1.8830     0.7910 C.3   1 <1>  -0.1600 
 18 C      -10.1310    -1.8520     0.5700 C.3   1 <1>  -0.1600 
 19 H       -2.5590     0.2060    -1.9490 H     1 <1>   0.1500 
 20 H       -0.9980     2.2850     1.4560 H     1 <1>   0.1500 
 21 H       -3.3360     2.7950     2.2200 H     1 <1>   0.1500 
 22 H       -5.5490     0.2470    -1.9730 H     1 <1>   0.1500 
 23 H      -10.0600    -0.1700    -1.6750 H     1 <1>   0.0800 
 24 H      -10.1790     1.3290    -0.8010 H     1 <1>   0.0800 
 25 H       -6.8090    -1.1490    -0.0880 H     1 <1>   0.0800 
 26 H       -7.9900    -1.6770    -1.2580 H     1 <1>   0.0800 
 27 H      -11.6660    -0.4020     0.1590 H     1 <1>   0.0800 
 28 H      -10.4770     0.1440     1.3020 H     1 <1>   0.0800 
 29 H       -8.3750    -1.4150     1.7310 H     1 <1>   0.0800 
 30 H       -8.2760    -2.9030     0.8410 H     1 <1>   0.0800 
 31 H      -10.3780    -2.4250    -0.3070 H     1 <1>   0.0800 
 32 H      -10.6310    -2.2990     1.4130 H     1 <1>   0.0800 
@<TRIPOS>BOND
  1   1   2  1   
  2   2   3  ar  
  3   2   4  ar  
  4   3   5  ar  
  5   3  19  1   
  6   4   6  ar  
  7   4  20  1   
  8   5   7  ar  
  9   5   8  1   
 10   6   7  ar  
 11   6  21  1   
 12   7   9  1   
 13   8  10  2   
 14   8  22  1   
 15   9  10  1   
 16  10  11  1   
 17  11  12  2   
 18  11  13  am  
 19  13  14  1   
 20  13  15  1   
 21  14  16  1   
 22  14  23  1   
 23  14  24  1   
 24  15  17  1   
 25  15  25  1   
 26  15  26  1   
 27  16  18  1   
 28  16  27  1   
 29  16  28  1   
 30  17  18  1   
 31  17  29  1   
 32  17  30  1   
 33  18  31  1   
 34  18  32  1   
@<TRIPOS>SUBSTRUCTURE
  1 ****  10 GROUP 4 **** **** 0

# MOE 2024.06 (io_trps.svl 2023.06)
