@<TRIPOS>MOLECULE
NONAME
39 40 1 0 0 
SMALL
USER_CHARGES


@<TRIPOS>ATOM
  1 CL       0.1700    -0.6290     0.6900 Cl    1 <1>  -0.1770 
  2 C        1.8310    -0.1940     0.3740 C.ar  1 <1>   0.1770 
  3 C        2.4600     0.7230     1.1970 C.ar  1 <1>  -0.1500 
  4 C        2.4930    -0.7720    -0.6930 C.ar  1 <1>  -0.1500 
  5 C        3.7780     1.0710     0.9490 C.ar  1 <1>  -0.1500 
  6 C        3.8100    -0.4230    -0.9390 C.ar  1 <1>  -0.1500 
  7 C        4.4580     0.4960    -0.1250 C.ar  1 <1>   0.0830 
  8 O        5.7470     0.7810    -0.4390 O.3   1 <1>  -0.3630 
  9 C        6.4870     1.7420     0.2850 C.3   1 <1>   0.1200 
 10 C        7.8880     1.8400    -0.3310 C.3   1 <1>   0.2000 
 11 O        8.4410     0.5600    -0.4090 O.3   1 <1>  -0.6800 
 12 C        8.8360     2.7450     0.4850 C.3   1 <1>   0.3430 
 13 N       10.2630     2.3970     0.2040 N.4   1 <1>  -0.9590 
 14 C       11.1680     2.7120     1.3440 C.3   1 <1>   0.3430 
 15 C       10.7480     2.9500    -1.0930 C.3   1 <1>   0.3430 
 16 C       12.5620     2.1440     1.0660 C.3   1 <1>  -0.1600 
 17 C       12.1350     2.3850    -1.4050 C.3   1 <1>  -0.1600 
 18 C       13.1290     2.6490    -0.2670 C.3   1 <1>  -0.1600 
 19 H        1.9190     1.1550     2.0200 H     1 <1>   0.1500 
 20 H        1.9810    -1.4820    -1.3180 H     1 <1>   0.1500 
 21 H        4.2460     1.7820     1.6010 H     1 <1>   0.1500 
 22 H        4.3380    -0.8630    -1.7660 H     1 <1>   0.1500 
 23 H        6.5430     1.4260     1.3120 H     1 <1>   0.0800 
 24 H        5.9730     2.6860     0.2170 H     1 <1>   0.0800 
 25 H        7.8010     2.2200    -1.3350 H     1 <1>   0.0800 
 26 H        7.7440    -0.0620    -0.7250 H     1 <1>   0.4000 
 27 H        8.6330     2.5800     1.5300 H     1 <1>   0.0800 
 28 H        8.6450     3.7830     0.2700 H     1 <1>   0.0800 
 29 H       10.2360     1.3660     0.0850 H     1 <1>   0.4500 
 30 H       10.7820     2.2800     2.2530 H     1 <1>   0.0800 
 31 H       11.2350     3.7800     1.4730 H     1 <1>   0.0800 
 32 H       10.8030     4.0250    -1.0350 H     1 <1>   0.0800 
 33 H       10.0690     2.6820    -1.8860 H     1 <1>   0.0800 
 34 H       12.5120     1.0690     1.0590 H     1 <1>   0.0800 
 35 H       13.2230     2.4290     1.8660 H     1 <1>   0.0800 
 36 H       12.5020     2.8340    -2.3110 H     1 <1>   0.0800 
 37 H       12.0540     1.3260    -1.5830 H     1 <1>   0.0800 
 38 H       14.0640     2.1560    -0.4760 H     1 <1>   0.0800 
 39 H       13.3250     3.7060    -0.1980 H     1 <1>   0.0800 
@<TRIPOS>BOND
  1   1   2  1   
  2   2   3  ar  
  3   2   4  ar  
  4   3   5  ar  
  5   3  19  1   
  6   4   6  ar  
  7   4  20  1   
  8   5   7  ar  
  9   5  21  1   
 10   6   7  ar  
 11   6  22  1   
 12   7   8  1   
 13   8   9  1   
 14   9  10  1   
 15   9  23  1   
 16   9  24  1   
 17  10  11  1   
 18  10  12  1   
 19  10  25  1   
 20  11  26  1   
 21  12  13  1   
 22  12  27  1   
 23  12  28  1   
 24  13  14  1   
 25  13  15  1   
 26  13  29  1   
 27  14  16  1   
 28  14  30  1   
 29  14  31  1   
 30  15  17  1   
 31  15  32  1   
 32  15  33  1   
 33  16  18  1   
 34  16  34  1   
 35  16  35  1   
 36  17  18  1   
 37  17  36  1   
 38  17  37  1   
 39  18  38  1   
 40  18  39  1   
@<TRIPOS>SUBSTRUCTURE
  1 ****   9 GROUP 4 **** **** 0

# MOE 2024.06 (io_trps.svl 2023.06)
