@<TRIPOS>MOLECULE
NONAME
36 37 1 0 0 
SMALL
USER_CHARGES


@<TRIPOS>ATOM
  1 O        0.1290    -0.9050     1.3700 O.2   1 <1>  -0.5700 
  2 C        0.4590    -1.8710     0.7230 C.2   1 <1>   0.5690 
  3 N       -0.3730    -2.7080     0.0280 N.am  1 <1>  -0.2370 
  4 C        1.9170    -2.3230     0.6170 C.3   1 <1>   0.2510 
  5 C       -1.7720    -2.5470    -0.0940 C.ar  1 <1>   0.1170 
  6 C        0.3620    -3.7230    -0.5270 C.2   1 <1>   0.5690 
  7 N        2.7890    -1.3310    -0.0410 N.3   1 <1>  -0.9000 
  8 C        1.8350    -3.5930    -0.2320 C.3   1 <1>  -0.0990 
  9 C       -2.3210    -1.3080    -0.4120 C.ar  1 <1>  -0.1500 
 10 C       -2.6370    -3.6200     0.1010 C.ar  1 <1>  -0.1500 
 11 O       -0.0650    -4.6520    -1.1620 O.2   1 <1>  -0.5700 
 12 C        4.2120    -1.5690     0.2010 C.3   1 <1>   0.1100 
 13 C       -3.6900    -1.1450    -0.5300 C.ar  1 <1>  -0.1500 
 14 C       -4.0060    -3.4620    -0.0170 C.ar  1 <1>  -0.1500 
 15 C        5.0480    -0.4480    -0.4340 C.3   1 <1>  -0.0800 
 16 C       -4.5350    -2.2230    -0.3320 C.ar  1 <1>  -0.1500 
 17 C        6.5420    -0.7550    -0.2730 C.3   1 <1>  -0.2400 
 18 C        4.7380     0.9270     0.1800 C.3   1 <1>  -0.2400 
 19 H        2.2760    -2.5410     1.6080 H     1 <1>   0.0800 
 20 H        2.5600    -0.4070     0.3580 H     1 <1>   0.3600 
 21 H        2.1700    -4.4520     0.3190 H     1 <1>   0.0800 
 22 H        2.3790    -3.5060    -1.1550 H     1 <1>   0.0800 
 23 H       -1.6740    -0.4620    -0.5650 H     1 <1>   0.1500 
 24 H       -2.2380    -4.5900     0.3420 H     1 <1>   0.1500 
 25 H        4.4960    -2.5130    -0.2320 H     1 <1>   0.0800 
 26 H        4.4050    -1.6040     1.2610 H     1 <1>   0.0800 
 27 H       -4.0970    -0.1790    -0.7750 H     1 <1>   0.1500 
 28 H       -4.6600    -4.3030     0.1360 H     1 <1>   0.1500 
 29 H        4.8250    -0.4170    -1.4870 H     1 <1>   0.0800 
 30 H       -5.6000    -2.0970    -0.4240 H     1 <1>   0.1500 
 31 H        6.8140    -0.7940     0.7670 H     1 <1>   0.0800 
 32 H        7.1320     0.0060    -0.7530 H     1 <1>   0.0800 
 33 H        6.7810    -1.7000    -0.7280 H     1 <1>   0.0800 
 34 H        4.9050     0.9160     1.2430 H     1 <1>   0.0800 
 35 H        3.7170     1.2060    -0.0070 H     1 <1>   0.0800 
 36 H        5.3690     1.6800    -0.2580 H     1 <1>   0.0800 
@<TRIPOS>BOND
  1   1   2  2   
  2   2   3  am  
  3   2   4  1   
  4   3   5  1   
  5   3   6  am  
  6   4   7  1   
  7   4   8  1   
  8   4  19  1   
  9   5   9  ar  
 10   5  10  ar  
 11   6   8  1   
 12   6  11  2   
 13   7  12  1   
 14   7  20  1   
 15   8  21  1   
 16   8  22  1   
 17   9  13  ar  
 18   9  23  1   
 19  10  14  ar  
 20  10  24  1   
 21  12  15  1   
 22  12  25  1   
 23  12  26  1   
 24  13  16  ar  
 25  13  27  1   
 26  14  16  ar  
 27  14  28  1   
 28  15  17  1   
 29  15  18  1   
 30  15  29  1   
 31  16  30  1   
 32  17  31  1   
 33  17  32  1   
 34  17  33  1   
 35  18  34  1   
 36  18  35  1   
 37  18  36  1   
@<TRIPOS>SUBSTRUCTURE
  1 ****   2 GROUP 4 **** **** 0

# MOE 2024.06 (io_trps.svl 2023.06)
