@<TRIPOS>MOLECULE
NONAME
32 32 1 0 0 
SMALL
USER_CHARGES


@<TRIPOS>ATOM
  1 CL       0.3020     0.2320    -0.1890 Cl    1 <1>  -0.1770 
  2 C        1.1030    -1.3080     0.0470 C.ar  1 <1>   0.1770 
  3 C        0.3940    -2.4140     0.5080 C.ar  1 <1>   0.0830 
  4 C        2.4540    -1.3940    -0.2250 C.ar  1 <1>  -0.1500 
  5 O       -0.9300    -2.3620     0.7850 O.3   1 <1>  -0.3630 
  6 C        1.0670    -3.6070     0.7140 C.ar  1 <1>  -0.1500 
  7 C        3.1320    -2.5950    -0.0350 C.ar  1 <1>   0.1170 
  8 C       -1.7980    -2.4080    -0.3250 C.3   1 <1>   0.0400 
  9 C        2.4210    -3.6930     0.4420 C.ar  1 <1>  -0.1500 
 10 N        4.5060    -2.7390    -0.2860 N.am  1 <1>  -0.5470 
 11 C        5.3360    -2.0420    -1.1190 C.2   1 <1>   0.5690 
 12 O        4.9640    -1.1520    -1.8420 O.2   1 <1>  -0.5700 
 13 C        6.8020    -2.4350    -1.1450 C.3   1 <1>  -0.0990 
 14 C        7.5390    -2.1590     0.1810 C.3   1 <1>  -0.0800 
 15 C        7.5330    -0.6640     0.5240 C.3   1 <1>  -0.2400 
 16 C        8.9850    -2.6620     0.0930 C.3   1 <1>  -0.2400 
 17 H        2.9700    -0.5210    -0.5780 H     1 <1>   0.1500 
 18 H        0.5240    -4.4590     1.0840 H     1 <1>   0.1500 
 19 H       -2.8100    -2.3920     0.0390 H     1 <1>   0.0800 
 20 H       -1.6170    -3.3170    -0.8710 H     1 <1>   0.0800 
 21 H       -1.6210    -1.5530    -0.9520 H     1 <1>   0.0800 
 22 H        2.9290    -4.6270     0.6010 H     1 <1>   0.1500 
 23 H        4.9540    -3.5020     0.2160 H     1 <1>   0.3700 
 24 H        7.2830    -1.8940    -1.9400 H     1 <1>   0.0800 
 25 H        6.8630    -3.4800    -1.3860 H     1 <1>   0.0800 
 26 H        7.0480    -2.6930     0.9770 H     1 <1>   0.0800 
 27 H        8.0020    -0.0920    -0.2580 H     1 <1>   0.0800 
 28 H        8.0660    -0.4880     1.4420 H     1 <1>   0.0800 
 29 H        6.5260    -0.3040     0.6500 H     1 <1>   0.0800 
 30 H        9.5200    -2.1460    -0.6850 H     1 <1>   0.0800 
 31 H        9.0070    -3.7170    -0.1160 H     1 <1>   0.0800 
 32 H        9.4960    -2.4940     1.0250 H     1 <1>   0.0800 
@<TRIPOS>BOND
  1   1   2  1   
  2   2   3  ar  
  3   2   4  ar  
  4   3   5  1   
  5   3   6  ar  
  6   4   7  ar  
  7   4  17  1   
  8   5   8  1   
  9   6   9  ar  
 10   6  18  1   
 11   7   9  ar  
 12   7  10  1   
 13   8  19  1   
 14   8  20  1   
 15   8  21  1   
 16   9  22  1   
 17  10  11  am  
 18  10  23  1   
 19  11  12  2   
 20  11  13  1   
 21  13  14  1   
 22  13  24  1   
 23  13  25  1   
 24  14  15  1   
 25  14  16  1   
 26  14  26  1   
 27  15  27  1   
 28  15  28  1   
 29  15  29  1   
 30  16  30  1   
 31  16  31  1   
 32  16  32  1   
@<TRIPOS>SUBSTRUCTURE
  1 ****   7 GROUP 4 **** **** 0

# MOE 2024.06 (io_trps.svl 2023.06)
