@<TRIPOS>MOLECULE
NONAME
32 32 1 0 0 
SMALL
USER_CHARGES


@<TRIPOS>ATOM
  1 S        0.4010     0.0300     0.5620 S.3   1 <1>  -0.4600 
  2 C        1.6690     0.9680    -0.3540 C.3   1 <1>   0.4570 
  3 C       -1.1480     0.5890    -0.1930 C.3   1 <1>   0.0700 
  4 N        2.9640     0.4560     0.0810 N.2   1 <1>  -0.2460 
  5 C        1.4970     2.4650    -0.0860 C.2   1 <1>   0.4480 
  6 C       -2.2870    -0.1700     0.4820 C.3   1 <1>  -0.2400 
  7 N        3.7350     0.0580    -0.8030 N.2   1 <1>  -0.1790 
  8 O        1.0220     3.1960    -0.9060 O.2   1 <1>  -0.5700 
  9 C        1.9210     3.0090     1.2670 C.3   1 <1>  -0.1790 
 10 C        4.9930    -0.4550    -0.4810 C.ar  1 <1>   0.1790 
 11 C        5.4060    -0.7230     0.8230 C.ar  1 <1>  -0.1500 
 12 C        5.8840    -0.7140    -1.5150 C.ar  1 <1>  -0.1500 
 13 C        6.6680    -1.2290     1.0790 C.ar  1 <1>  -0.1500 
 14 C        7.1460    -1.2200    -1.2620 C.ar  1 <1>  -0.1500 
 15 C        7.5460    -1.4820     0.0380 C.ar  1 <1>  -0.1430 
 16 C        8.9310    -2.0350     0.3200 C.3   1 <1>  -0.0970 
 17 H        1.5150     0.7650    -1.3980 H     1 <1>   0.0800 
 18 H       -1.0960     0.3730    -1.2460 H     1 <1>   0.0800 
 19 H       -1.2310     1.6510    -0.0340 H     1 <1>   0.0800 
 20 H       -2.1650    -1.2280     0.3350 H     1 <1>   0.0800 
 21 H       -3.2290     0.1320     0.0600 H     1 <1>   0.0800 
 22 H       -2.2970     0.0390     1.5370 H     1 <1>   0.0800 
 23 H        2.9870     2.9340     1.3750 H     1 <1>   0.0800 
 24 H        1.4450     2.4540     2.0530 H     1 <1>   0.0800 
 25 H        1.6360     4.0420     1.3480 H     1 <1>   0.0800 
 26 H        4.7380    -0.5400     1.6450 H     1 <1>   0.1500 
 27 H        5.5810    -0.5150    -2.5270 H     1 <1>   0.1500 
 28 H        6.9640    -1.4270     2.0950 H     1 <1>   0.1500 
 29 H        7.8170    -1.4100    -2.0820 H     1 <1>   0.1500 
 30 H        8.9170    -2.6550     1.1980 H     1 <1>   0.0800 
 31 H        9.6220    -1.2260     0.4760 H     1 <1>   0.0800 
 32 H        9.2740    -2.6310    -0.5080 H     1 <1>   0.0800 
@<TRIPOS>BOND
  1   1   2  1   
  2   1   3  1   
  3   2   4  1   
  4   2   5  1   
  5   2  17  1   
  6   3   6  1   
  7   3  18  1   
  8   3  19  1   
  9   4   7  2   
 10   5   8  2   
 11   5   9  1   
 12   6  20  1   
 13   6  21  1   
 14   6  22  1   
 15   7  10  1   
 16   9  23  1   
 17   9  24  1   
 18   9  25  1   
 19  10  11  ar  
 20  10  12  ar  
 21  11  13  ar  
 22  11  26  1   
 23  12  14  ar  
 24  12  27  1   
 25  13  15  ar  
 26  13  28  1   
 27  14  15  ar  
 28  14  29  1   
 29  15  16  1   
 30  16  30  1   
 31  16  31  1   
 32  16  32  1   
@<TRIPOS>SUBSTRUCTURE
  1 ****   4 GROUP 4 **** **** 0

# MOE 2024.06 (io_trps.svl 2023.06)
