@<TRIPOS>MOLECULE
NONAME
41 42 1 0 0 
SMALL
USER_CHARGES


@<TRIPOS>ATOM
  1 O        0.6590     0.3140     0.8280 O.3   1 <1>  -0.3630 
  2 C        0.3550    -1.0030     0.7160 C.ar  1 <1>   0.0830 
  3 C        1.7310     0.8720     0.1040 C.3   1 <1>   0.1200 
  4 C        0.4250    -1.6960    -0.4880 C.ar  1 <1>  -0.1500 
  5 C       -0.0300    -1.6680     1.8670 C.ar  1 <1>  -0.1500 
  6 C        3.0430     0.2840     0.6370 C.3   1 <1>  -0.1600 
  7 C        0.1360    -3.0490    -0.5230 C.ar  1 <1>  -0.1500 
  8 C       -0.3190    -3.0210     1.8270 C.ar  1 <1>  -0.1500 
  9 C        4.2460     0.8930    -0.0770 C.3   1 <1>   0.3430 
 10 C       -0.2320    -3.7200     0.6330 C.ar  1 <1>  -0.1440 
 11 N        5.5080     0.3580     0.5030 N.4   1 <1>  -0.9590 
 12 C       -0.5500    -5.2060     0.5900 C.3   1 <1>  -0.0170 
 13 C        6.7170     1.0510    -0.0060 C.3   1 <1>   0.3430 
 14 C        5.7360    -1.0880     0.2490 C.3   1 <1>   0.3430 
 15 C       -2.0360    -5.4280     0.3010 C.3   1 <1>  -0.2400 
 16 C        7.8620     0.1040     0.3250 C.3   1 <1>  -0.1600 
 17 C        7.2300    -1.2830     0.4740 C.3   1 <1>  -0.1600 
 18 H        1.6970     1.9360     0.2680 H     1 <1>   0.0800 
 19 H        1.5890     0.6820    -0.9440 H     1 <1>   0.0800 
 20 H        0.6850    -1.1970    -1.4010 H     1 <1>   0.1500 
 21 H       -0.1020    -1.1250     2.7910 H     1 <1>   0.1500 
 22 H        3.0310    -0.7800     0.4840 H     1 <1>   0.0800 
 23 H        3.1040     0.4940     1.6910 H     1 <1>   0.0800 
 24 H        0.1880    -3.5810    -1.4570 H     1 <1>   0.1500 
 25 H       -0.6160    -3.5270     2.7280 H     1 <1>   0.1500 
 26 H        4.2200     1.9650     0.0410 H     1 <1>   0.0800 
 27 H        4.1990     0.6670    -1.1310 H     1 <1>   0.0800 
 28 H        5.4880     0.4890     1.5230 H     1 <1>   0.4500 
 29 H       -0.2940    -5.6590     1.5320 H     1 <1>   0.0800 
 30 H        0.0410    -5.6830    -0.1730 H     1 <1>   0.0800 
 31 H        6.8510     2.0170     0.4560 H     1 <1>   0.0800 
 32 H        6.6470     1.1700    -1.0750 H     1 <1>   0.0800 
 33 H        5.4920    -1.3230    -0.7740 H     1 <1>   0.0800 
 34 H        5.1490    -1.7080     0.9090 H     1 <1>   0.0800 
 35 H       -2.6350    -4.9690     1.0670 H     1 <1>   0.0800 
 36 H       -2.2550    -6.4800     0.2730 H     1 <1>   0.0800 
 37 H       -2.2990    -4.9930    -0.6470 H     1 <1>   0.0800 
 38 H        8.3290     0.4050     1.2470 H     1 <1>   0.0800 
 39 H        8.6040     0.1250    -0.4550 H     1 <1>   0.0800 
 40 H        7.6270    -1.9830    -0.2420 H     1 <1>   0.0800 
 41 H        7.4030    -1.6720     1.4630 H     1 <1>   0.0800 
@<TRIPOS>BOND
  1   1   2  1   
  2   1   3  1   
  3   2   4  ar  
  4   2   5  ar  
  5   3   6  1   
  6   3  18  1   
  7   3  19  1   
  8   4   7  ar  
  9   4  20  1   
 10   5   8  ar  
 11   5  21  1   
 12   6   9  1   
 13   6  22  1   
 14   6  23  1   
 15   7  10  ar  
 16   7  24  1   
 17   8  10  ar  
 18   8  25  1   
 19   9  11  1   
 20   9  26  1   
 21   9  27  1   
 22  10  12  1   
 23  11  13  1   
 24  11  14  1   
 25  11  28  1   
 26  12  15  1   
 27  12  29  1   
 28  12  30  1   
 29  13  16  1   
 30  13  31  1   
 31  13  32  1   
 32  14  17  1   
 33  14  33  1   
 34  14  34  1   
 35  15  35  1   
 36  15  36  1   
 37  15  37  1   
 38  16  17  1   
 39  16  38  1   
 40  16  39  1   
 41  17  40  1   
 42  17  41  1   
@<TRIPOS>SUBSTRUCTURE
  1 ****   6 GROUP 4 **** **** 0

# MOE 2024.06 (io_trps.svl 2023.06)
