@<TRIPOS>MOLECULE
NONAME
38 39 1 0 0 
SMALL
USER_CHARGES


@<TRIPOS>ATOM
  1 S       -0.4750     0.5610    -0.0300 S.3   1 <1>  -0.0800 
  2 C        1.1590     0.2460     0.4450 C.2   1 <1>   0.4420 
  3 C       -0.7800    -1.1490     0.0570 C.2   1 <1>   0.3250 
  4 N        1.3740    -1.0040     0.6270 N.2   1 <1>  -0.3380 
  5 N        2.0850     1.2480     0.5970 N.am  1 <1>  -0.4940 
  6 N        0.2830    -1.7860     0.4090 N.2   1 <1>  -0.3380 
  7 C       -2.0940    -1.6720    -0.2460 C.ar  1 <1>   0.0530 
  8 C        2.0040     2.5930     0.4450 C.2   1 <1>   0.7800 
  9 C       -3.1680    -0.8660    -0.6320 C.ar  1 <1>  -0.1500 
 10 C       -2.3350    -3.0450    -0.1590 C.ar  1 <1>  -0.1500 
 11 O        1.0030     3.1920     0.1180 O.2   1 <1>  -0.5700 
 12 O        3.1340     3.2520     0.6840 O.3   1 <1>  -0.4300 
 13 C       -4.4160    -1.3920    -0.9140 C.ar  1 <1>   0.0830 
 14 C       -3.5760    -3.5860    -0.4400 C.ar  1 <1>  -0.1500 
 15 C        3.2000     4.6600     0.5650 C.3   1 <1>   0.0400 
 16 O       -5.3760    -0.5030    -1.2770 O.3   1 <1>  -0.3630 
 17 C       -4.6210    -2.7640    -0.8180 C.ar  1 <1>  -0.1500 
 18 C       -6.7240    -0.8670    -1.4930 C.3   1 <1>   0.1200 
 19 C       -7.4370    -1.0260    -0.1450 C.3   1 <1>  -0.1600 
 20 C       -8.9120    -1.3990    -0.3400 C.3   1 <1>  -0.1600 
 21 C       -9.6210    -1.5570     1.0080 C.3   1 <1>  -0.2400 
 22 H        3.0060     0.9310     0.8760 H     1 <1>   0.3700 
 23 H       -3.0530     0.1980    -0.7200 H     1 <1>   0.1500 
 24 H       -1.5330    -3.7020     0.1340 H     1 <1>   0.1500 
 25 H       -3.7280    -4.6490    -0.3630 H     1 <1>   0.1500 
 26 H        4.2000     4.9760     0.8030 H     1 <1>   0.0800 
 27 H        2.4990     5.1010     1.2520 H     1 <1>   0.0800 
 28 H        2.9540     4.9370    -0.4450 H     1 <1>   0.0800 
 29 H       -5.5750    -3.2080    -1.0300 H     1 <1>   0.1500 
 30 H       -6.7610    -1.7610    -2.0880 H     1 <1>   0.0800 
 31 H       -7.1790    -0.0680    -2.0520 H     1 <1>   0.0800 
 32 H       -7.3710    -0.0970     0.3940 H     1 <1>   0.0800 
 33 H       -6.9520    -1.7910     0.4360 H     1 <1>   0.0800 
 34 H       -8.9840    -2.3230    -0.8870 H     1 <1>   0.0800 
 35 H       -9.4070    -0.6320    -0.9110 H     1 <1>   0.0800 
 36 H       -9.1570    -2.3340     1.5890 H     1 <1>   0.0800 
 37 H      -10.6530    -1.8170     0.8520 H     1 <1>   0.0800 
 38 H       -9.5810    -0.6370     1.5650 H     1 <1>   0.0800 
@<TRIPOS>BOND
  1   1   2  1   
  2   1   3  1   
  3   2   4  2   
  4   2   5  1   
  5   3   6  2   
  6   3   7  1   
  7   4   6  1   
  8   5   8  am  
  9   5  22  1   
 10   7   9  ar  
 11   7  10  ar  
 12   8  11  2   
 13   8  12  1   
 14   9  13  ar  
 15   9  23  1   
 16  10  14  ar  
 17  10  24  1   
 18  12  15  1   
 19  13  16  1   
 20  13  17  ar  
 21  14  17  ar  
 22  14  25  1   
 23  15  26  1   
 24  15  27  1   
 25  15  28  1   
 26  16  18  1   
 27  17  29  1   
 28  18  19  1   
 29  18  30  1   
 30  18  31  1   
 31  19  20  1   
 32  19  32  1   
 33  19  33  1   
 34  20  21  1   
 35  20  34  1   
 36  20  35  1   
 37  21  36  1   
 38  21  37  1   
 39  21  38  1   
@<TRIPOS>SUBSTRUCTURE
  1 ****   9 GROUP 4 **** **** 0

# MOE 2024.06 (io_trps.svl 2023.06)
