@<TRIPOS>MOLECULE
NONAME
60 63 1 0 0 
SMALL
USER_CHARGES


@<TRIPOS>ATOM
  1 S       -0.1660    -0.6420    -1.3630 S.o2  1 <1>   1.4470 
  2 O       -0.0770     0.6460    -2.0190 O.2   1 <1>  -0.6500 
  3 O       -0.7420    -1.7530    -2.0900 O.2   1 <1>  -0.6500 
  4 N       -1.1370    -0.3980     0.0060 N.am  1 <1>  -0.8490 
  5 C        1.4430    -1.0890    -0.6720 C.ar  1 <1>  -0.0090 
  6 C       -0.6900     0.7550     0.8230 C.3   1 <1>   0.1960 
  7 C       -2.5590    -0.2900    -0.3790 C.3   1 <1>   0.1960 
  8 C        1.5840    -2.1440     0.2340 C.ar  1 <1>   0.1000 
  9 C        2.5670    -0.3570    -1.0190 C.ar  1 <1>  -0.1500 
 10 C       -1.5500     2.0140     0.6030 C.3   1 <1>   0.1200 
 11 C       -3.3930     0.4760     0.6660 C.3   1 <1>   0.1200 
 12 N        0.5060    -2.8810     0.6890 N.pl3 1 <1>  -0.8690 
 13 C        2.8490    -2.4410     0.7310 C.ar  1 <1>  -0.1500 
 14 C        3.8320    -0.6100    -0.4910 C.ar  1 <1>   0.0860 
 15 O       -2.9040     1.7750     0.8970 O.3   1 <1>  -0.5600 
 16 C        0.1530    -4.1350    -0.0050 C.3   1 <1>   0.2890 
 17 C        3.9510    -1.6950     0.3740 C.ar  1 <1>  -0.1500 
 18 C        4.9600     0.2410    -0.8000 C.2   1 <1>   0.5440 
 19 C       -1.3660    -4.3180     0.0840 C.3   1 <1>  -0.1600 
 20 C        0.8870    -5.3100     0.6490 C.3   1 <1>  -0.1600 
 21 O        6.0490    -0.2200    -1.0720 O.2   1 <1>  -0.5700 
 22 N        4.8530     1.6040    -0.7950 N.am  1 <1>  -0.5470 
 23 C       -1.8070    -5.6560    -0.5260 C.3   1 <1>  -0.1600 
 24 C        0.4480    -6.6550     0.0490 C.3   1 <1>  -0.1600 
 25 C        3.8210     2.3990    -0.2870 C.ar  1 <1>   0.1170 
 26 C       -1.0740    -6.8320     0.1330 C.3   1 <1>  -0.1600 
 27 C        3.2570     3.3960    -1.0730 C.ar  1 <1>  -0.1500 
 28 C        3.3320     2.2030     1.0000 C.ar  1 <1>  -0.1500 
 29 C        2.2190     4.1710    -0.5890 C.ar  1 <1>  -0.1500 
 30 C        2.2970     2.9800     1.4890 C.ar  1 <1>  -0.1500 
 31 C        1.7370     3.9650     0.6930 C.ar  1 <1>  -0.1500 
 32 H        0.3400     0.9940     0.6210 H     1 <1>   0.0800 
 33 H       -0.7530     0.4860     1.8630 H     1 <1>   0.0800 
 34 H       -2.9640    -1.2780    -0.5150 H     1 <1>   0.0800 
 35 H       -2.6520     0.2300    -1.3190 H     1 <1>   0.0800 
 36 H        2.4610     0.4560    -1.7170 H     1 <1>   0.1500 
 37 H       -1.4790     2.3370    -0.4220 H     1 <1>   0.0800 
 38 H       -1.2140     2.8140     1.2370 H     1 <1>   0.0800 
 39 H       -3.3800    -0.0550     1.6020 H     1 <1>   0.0800 
 40 H       -4.4130     0.5660     0.3380 H     1 <1>   0.0800 
 41 H       -0.3540    -2.3210     0.8010 H     1 <1>   0.4000 
 42 H        2.9520    -3.2610     1.4190 H     1 <1>   0.1500 
 43 H        0.4400    -4.0670    -1.0430 H     1 <1>   0.0800 
 44 H        4.9210    -1.9380     0.7730 H     1 <1>   0.1500 
 45 H       -1.8550    -3.5180    -0.4410 H     1 <1>   0.0800 
 46 H       -1.6670    -4.2880     1.1170 H     1 <1>   0.0800 
 47 H        0.6830    -5.3090     1.7050 H     1 <1>   0.0800 
 48 H        1.9450    -5.1950     0.5040 H     1 <1>   0.0800 
 49 H        5.6830     2.0770    -1.1560 H     1 <1>   0.3700 
 50 H       -1.5980    -5.6510    -1.5830 H     1 <1>   0.0800 
 51 H       -2.8690    -5.7770    -0.4010 H     1 <1>   0.0800 
 52 H        0.9330    -7.4600     0.5740 H     1 <1>   0.0800 
 53 H        0.7550    -6.7020    -0.9820 H     1 <1>   0.0800 
 54 H       -1.3580    -7.7510    -0.3510 H     1 <1>   0.0800 
 55 H       -1.3680    -6.8990     1.1670 H     1 <1>   0.0800 
 56 H        3.6270     3.5590    -2.0690 H     1 <1>   0.1500 
 57 H        3.7680     1.4420     1.6230 H     1 <1>   0.1500 
 58 H        1.7850     4.9370    -1.2090 H     1 <1>   0.1500 
 59 H        1.9310     2.8230     2.4890 H     1 <1>   0.1500 
 60 H        0.9330     4.5740     1.0700 H     1 <1>   0.1500 
@<TRIPOS>BOND
  1   1   2  2   
  2   1   3  2   
  3   1   4  am  
  4   1   5  1   
  5   4   6  1   
  6   4   7  1   
  7   5   8  ar  
  8   5   9  ar  
  9   6  10  1   
 10   6  32  1   
 11   6  33  1   
 12   7  11  1   
 13   7  34  1   
 14   7  35  1   
 15   8  12  1   
 16   8  13  ar  
 17   9  14  ar  
 18   9  36  1   
 19  10  15  1   
 20  10  37  1   
 21  10  38  1   
 22  11  15  1   
 23  11  39  1   
 24  11  40  1   
 25  12  16  1   
 26  12  41  1   
 27  13  17  ar  
 28  13  42  1   
 29  14  17  ar  
 30  14  18  1   
 31  16  19  1   
 32  16  20  1   
 33  16  43  1   
 34  17  44  1   
 35  18  21  2   
 36  18  22  am  
 37  19  23  1   
 38  19  45  1   
 39  19  46  1   
 40  20  24  1   
 41  20  47  1   
 42  20  48  1   
 43  22  25  1   
 44  22  49  1   
 45  23  26  1   
 46  23  50  1   
 47  23  51  1   
 48  24  26  1   
 49  24  52  1   
 50  24  53  1   
 51  25  27  ar  
 52  25  28  ar  
 53  26  54  1   
 54  26  55  1   
 55  27  29  ar  
 56  27  56  1   
 57  28  30  ar  
 58  28  57  1   
 59  29  31  ar  
 60  29  58  1   
 61  30  31  ar  
 62  30  59  1   
 63  31  60  1   
@<TRIPOS>SUBSTRUCTURE
  1 ****   5 GROUP 4 **** **** 0

# MOE 2024.06 (io_trps.svl 2023.06)
