@<TRIPOS>MOLECULE
NONAME
48 49 1 0 0 
SMALL
USER_CHARGES


@<TRIPOS>ATOM
  1 O       -0.8740     1.1150     2.0590 O.2   1 <1>  -0.5700 
  2 C       -1.4030     2.0970     1.5740 C.2   1 <1>   0.5440 
  3 N       -2.7800     2.1830     1.6120 N.am  1 <1>  -0.6600 
  4 C       -0.6000     3.1040     0.9240 C.ar  1 <1>   0.0860 
  5 C       -3.5480     2.8920     0.5490 C.3   1 <1>   0.1400 
  6 C       -3.5790     1.1250     2.2940 C.3   1 <1>   0.1400 
  7 C       -0.3170     3.0300    -0.4400 C.ar  1 <1>   0.0830 
  8 C       -0.0950     4.1920     1.6290 C.ar  1 <1>  -0.1500 
  9 C       -4.0130     1.8690    -0.5080 C.3   1 <1>   0.3430 
 10 C       -4.0210     0.0820     1.2520 C.3   1 <1>   0.3430 
 11 O       -0.7910     1.9990    -1.1720 O.3   1 <1>  -0.3630 
 12 C        0.4300     4.0080    -1.0740 C.ar  1 <1>  -0.1500 
 13 C        0.6480     5.1820     1.0150 C.ar  1 <1>   0.0830 
 14 N       -4.7730     0.7150     0.1020 N.4   1 <1>  -0.9590 
 15 C        0.0910     0.9050    -1.3140 C.3   1 <1>   0.0400 
 16 C        0.9310     5.0930    -0.3600 C.ar  1 <1>   0.0830 
 17 O        1.0530     6.1870     1.8450 O.3   1 <1>  -0.3620 
 18 C       -5.1400    -0.2800    -0.9280 C.3   1 <1>   0.4810 
 19 O        1.6940     6.0440    -0.9650 O.3   1 <1>  -0.3630 
 20 C        1.1930     7.5110     1.3780 C.3   1 <1>   0.0400 
 21 C       -6.2600    -1.1170    -0.3570 C.2   1 <1>  -0.2880 
 22 C        2.1410     5.9290    -2.2980 C.3   1 <1>   0.0400 
 23 C       -7.5500    -1.0110    -0.6960 C.2   1 <1>  -0.3000 
 24 H       -2.9460     3.6480     0.0780 H     1 <1>   0.0800 
 25 H       -4.3990     3.3840     0.9880 H     1 <1>   0.0800 
 26 H       -4.4370     1.5660     2.7690 H     1 <1>   0.0800 
 27 H       -2.9950     0.6450     3.0610 H     1 <1>   0.0800 
 28 H       -0.2890     4.2680     2.6850 H     1 <1>   0.1500 
 29 H       -3.1390     1.4950    -1.0170 H     1 <1>   0.0800 
 30 H       -4.6280     2.3710    -1.2370 H     1 <1>   0.0800 
 31 H       -4.6370    -0.6570     1.7350 H     1 <1>   0.0800 
 32 H       -3.1370    -0.4120     0.8820 H     1 <1>   0.0800 
 33 H        0.6070     3.8980    -2.1260 H     1 <1>   0.1500 
 34 H       -5.6620     1.0720     0.4740 H     1 <1>   0.4500 
 35 H       -0.3850     0.1570    -1.9210 H     1 <1>   0.0800 
 36 H        0.3120     0.5040    -0.3390 H     1 <1>   0.0800 
 37 H        0.9960     1.2420    -1.7890 H     1 <1>   0.0800 
 38 H       -4.2950    -0.8940    -1.1970 H     1 <1>   0.0800 
 39 H       -5.4960     0.2250    -1.8120 H     1 <1>   0.0800 
 40 H        1.1590     8.1700     2.2260 H     1 <1>   0.0800 
 41 H        0.3860     7.7340     0.7020 H     1 <1>   0.0800 
 42 H        2.1430     7.6060     0.8840 H     1 <1>   0.0800 
 43 H       -5.9220    -1.8400     0.3660 H     1 <1>   0.1500 
 44 H        2.7750     6.7710    -2.5110 H     1 <1>   0.0800 
 45 H        1.2910     5.9390    -2.9560 H     1 <1>   0.0800 
 46 H        2.7010     5.0160    -2.4010 H     1 <1>   0.0800 
 47 H       -8.3310    -1.6270    -0.2770 H     1 <1>   0.1500 
 48 H       -7.9490    -0.3160    -1.4170 H     1 <1>   0.1500 
@<TRIPOS>BOND
  1   1   2  2   
  2   2   3  am  
  3   2   4  1   
  4   3   5  1   
  5   3   6  1   
  6   4   7  ar  
  7   4   8  ar  
  8   5   9  1   
  9   5  24  1   
 10   5  25  1   
 11   6  10  1   
 12   6  26  1   
 13   6  27  1   
 14   7  11  1   
 15   7  12  ar  
 16   8  13  ar  
 17   8  28  1   
 18   9  14  1   
 19   9  29  1   
 20   9  30  1   
 21  10  14  1   
 22  10  31  1   
 23  10  32  1   
 24  11  15  1   
 25  12  16  ar  
 26  12  33  1   
 27  13  16  ar  
 28  13  17  1   
 29  14  18  1   
 30  14  34  1   
 31  15  35  1   
 32  15  36  1   
 33  15  37  1   
 34  16  19  1   
 35  17  20  1   
 36  18  21  1   
 37  18  38  1   
 38  18  39  1   
 39  19  22  1   
 40  20  40  1   
 41  20  41  1   
 42  20  42  1   
 43  21  23  2   
 44  21  43  1   
 45  22  44  1   
 46  22  45  1   
 47  22  46  1   
 48  23  47  1   
 49  23  48  1   
@<TRIPOS>SUBSTRUCTURE
  1 ****   4 GROUP 4 **** **** 0

# MOE 2024.06 (io_trps.svl 2023.06)
