@<TRIPOS>MOLECULE
NONAME
47 49 1 0 0 
SMALL
USER_CHARGES


@<TRIPOS>ATOM
  1 O       -1.3730     6.0910    -0.3350 O.2   1 <1>  -0.5700 
  2 C       -1.1470     4.9270    -0.1170 C.2   1 <1>   0.5690 
  3 N        0.1070     4.4010     0.0140 N.am  1 <1>  -0.5470 
  4 C       -2.3290     3.9940     0.0290 C.3   1 <1>  -0.0990 
  5 C        1.3640     5.0250    -0.0620 C.ar  1 <1>   0.1170 
  6 C       -3.6090     4.8200     0.1780 C.3   1 <1>   0.3430 
  7 C        2.4330     4.4320     0.6090 C.ar  1 <1>  -0.1500 
  8 C        1.5860     6.2000    -0.7920 C.ar  1 <1>  -0.1500 
  9 N       -4.8140     3.9600     0.3690 N.4   1 <1>  -0.9590 
 10 C        3.6730     5.0300     0.5350 C.ar  1 <1>   0.0830 
 11 C        2.8420     6.7880    -0.8550 C.ar  1 <1>  -0.1500 
 12 C       -5.2060     3.2140    -0.8620 C.3   1 <1>   0.3430 
 13 C       -5.9620     4.7870     0.8760 C.3   1 <1>   0.3430 
 14 O        4.8180     4.6310     1.1000 O.3   1 <1>  -0.3630 
 15 C        3.8750     6.1760    -0.1750 C.ar  1 <1>   0.0830 
 16 C       -6.2310     2.1230    -0.5000 C.3   1 <1>  -0.0800 
 17 C       -7.3220     4.0570     0.7810 C.3   1 <1>  -0.0800 
 18 C        5.8100     5.5870     0.7300 C.3   1 <1>   0.4000 
 19 O        5.1570     6.5540    -0.0910 O.3   1 <1>  -0.3630 
 20 C       -7.1500     2.5300     0.6750 C.3   1 <1>  -0.1600 
 21 C       -5.5320     0.7920    -0.1860 C.3   1 <1>  -0.2400 
 22 C       -8.1720     4.6030    -0.3800 C.3   1 <1>  -0.2400 
 23 H        0.1610     3.4120     0.2490 H     1 <1>   0.3700 
 24 H       -2.1840     3.3830     0.9000 H     1 <1>   0.0800 
 25 H       -2.3730     3.3770    -0.8480 H     1 <1>   0.0800 
 26 H       -3.7350     5.4450    -0.6920 H     1 <1>   0.0800 
 27 H       -3.4920     5.4730     1.0290 H     1 <1>   0.0800 
 28 H        2.3140     3.5320     1.1800 H     1 <1>   0.1500 
 29 H        0.7760     6.6650    -1.3230 H     1 <1>   0.1500 
 30 H       -4.6220     3.2520     1.0890 H     1 <1>   0.4500 
 31 H        3.0160     7.6910    -1.4110 H     1 <1>   0.1500 
 32 H       -4.3480     2.7560    -1.3260 H     1 <1>   0.0800 
 33 H       -5.6420     3.8990    -1.5700 H     1 <1>   0.0800 
 34 H       -6.0260     5.7060     0.3160 H     1 <1>   0.0800 
 35 H       -5.7780     5.0470     1.9060 H     1 <1>   0.0800 
 36 H       -6.8440     1.9670    -1.3720 H     1 <1>   0.0800 
 37 H       -7.8660     4.2710     1.6860 H     1 <1>   0.0800 
 38 H        6.5870     5.1010     0.1660 H     1 <1>   0.0800 
 39 H        6.1970     6.0650     1.6120 H     1 <1>   0.0800 
 40 H       -6.7290     2.1800     1.6030 H     1 <1>   0.0800 
 41 H       -8.1090     2.0510     0.5700 H     1 <1>   0.0800 
 42 H       -4.8820     0.8790     0.6670 H     1 <1>   0.0800 
 43 H       -4.9500     0.4630    -1.0290 H     1 <1>   0.0800 
 44 H       -6.2650     0.0310     0.0240 H     1 <1>   0.0800 
 45 H       -7.7030     4.4530    -1.3350 H     1 <1>   0.0800 
 46 H       -8.3470     5.6580    -0.2510 H     1 <1>   0.0800 
 47 H       -9.1310     4.1140    -0.3970 H     1 <1>   0.0800 
@<TRIPOS>BOND
  1   1   2  2   
  2   2   3  am  
  3   2   4  1   
  4   3   5  1   
  5   3  23  1   
  6   4   6  1   
  7   4  24  1   
  8   4  25  1   
  9   5   7  ar  
 10   5   8  ar  
 11   6   9  1   
 12   6  26  1   
 13   6  27  1   
 14   7  10  ar  
 15   7  28  1   
 16   8  11  ar  
 17   8  29  1   
 18   9  12  1   
 19   9  13  1   
 20   9  30  1   
 21  10  14  1   
 22  10  15  ar  
 23  11  15  ar  
 24  11  31  1   
 25  12  16  1   
 26  12  32  1   
 27  12  33  1   
 28  13  17  1   
 29  13  34  1   
 30  13  35  1   
 31  14  18  1   
 32  15  19  1   
 33  16  20  1   
 34  16  21  1   
 35  16  36  1   
 36  17  20  1   
 37  17  22  1   
 38  17  37  1   
 39  18  19  1   
 40  18  38  1   
 41  18  39  1   
 42  20  40  1   
 43  20  41  1   
 44  21  42  1   
 45  21  43  1   
 46  21  44  1   
 47  22  45  1   
 48  22  46  1   
 49  22  47  1   
@<TRIPOS>SUBSTRUCTURE
  1 ****   2 GROUP 4 **** **** 0

# MOE 2024.06 (io_trps.svl 2023.06)
