@<TRIPOS>MOLECULE
NONAME
33 34 1 0 0 
SMALL
USER_CHARGES


@<TRIPOS>ATOM
  1 O        0.4100     0.0650     0.3170 O.3   1 <1>  -0.5600 
  2 C        0.1610    -1.2990     0.5310 C.3   1 <1>   0.1200 
  3 C        0.9690     0.3570    -0.9350 C.3   1 <1>   0.1200 
  4 C        1.4490    -2.1400     0.3650 C.3   1 <1>   0.3430 
  5 C        2.3160    -0.3800    -1.1310 C.3   1 <1>   0.3430 
  6 N        2.6300    -1.2730     0.0390 N.4   1 <1>  -0.9590 
  7 C        3.8970    -2.0480    -0.0990 C.3   1 <1>   0.3430 
  8 C        5.1350    -1.1370    -0.1430 C.3   1 <1>  -0.0800 
  9 C        6.3960    -2.0110    -0.3010 C.3   1 <1>  -0.0220 
 10 C        5.2620    -0.2290     1.1020 C.3   1 <1>  -0.1600 
 11 C        7.6590    -1.1900    -0.1210 C.2   1 <1>  -0.2880 
 12 C        6.4560     0.7320     0.9790 C.3   1 <1>  -0.0220 
 13 C        7.6820     0.0230     0.4340 C.2   1 <1>  -0.2880 
 14 H       -0.5990    -1.6230    -0.1590 H     1 <1>   0.0800 
 15 H       -0.2260    -1.4070     1.5300 H     1 <1>   0.0800 
 16 H        1.1180     1.4210    -0.9900 H     1 <1>   0.0800 
 17 H        0.2660     0.0760    -1.7010 H     1 <1>   0.0800 
 18 H        1.2940    -2.8620    -0.4200 H     1 <1>   0.0800 
 19 H        1.6300    -2.6850     1.2760 H     1 <1>   0.0800 
 20 H        3.0950     0.3540    -1.2540 H     1 <1>   0.0800 
 21 H        2.2690    -0.9590    -2.0380 H     1 <1>   0.0800 
 22 H        2.7160    -0.6340     0.8430 H     1 <1>   0.4500 
 23 H        3.8610    -2.6450    -0.9960 H     1 <1>   0.0800 
 24 H        3.9980    -2.7170     0.7400 H     1 <1>   0.0800 
 25 H        5.0810    -0.5120    -1.0170 H     1 <1>   0.0800 
 26 H        6.4050    -2.4550    -1.2810 H     1 <1>   0.0800 
 27 H        6.4060    -2.8040     0.4280 H     1 <1>   0.0800 
 28 H        5.4080    -0.8430     1.9740 H     1 <1>   0.0800 
 29 H        4.3760     0.3610     1.2550 H     1 <1>   0.0800 
 30 H        8.5470    -1.6830    -0.4830 H     1 <1>   0.1500 
 31 H        6.6800     1.1440     1.9480 H     1 <1>   0.0800 
 32 H        6.2100     1.5480     0.3210 H     1 <1>   0.0800 
 33 H        8.5870     0.5990     0.5400 H     1 <1>   0.1500 
@<TRIPOS>BOND
  1   1   2  1   
  2   1   3  1   
  3   2   4  1   
  4   2  14  1   
  5   2  15  1   
  6   3   5  1   
  7   3  16  1   
  8   3  17  1   
  9   4   6  1   
 10   4  18  1   
 11   4  19  1   
 12   5   6  1   
 13   5  20  1   
 14   5  21  1   
 15   6   7  1   
 16   6  22  1   
 17   7   8  1   
 18   7  23  1   
 19   7  24  1   
 20   8   9  1   
 21   8  10  1   
 22   8  25  1   
 23   9  11  1   
 24   9  26  1   
 25   9  27  1   
 26  10  12  1   
 27  10  28  1   
 28  10  29  1   
 29  11  13  2   
 30  11  30  1   
 31  12  13  1   
 32  12  31  1   
 33  12  32  1   
 34  13  33  1   
@<TRIPOS>SUBSTRUCTURE
  1 ****   7 GROUP 4 **** **** 0

# MOE 2024.06 (io_trps.svl 2023.06)
