@<TRIPOS>MOLECULE
NONAME
36 38 1 0 0 
SMALL
USER_CHARGES


@<TRIPOS>ATOM
  1 F       -0.2080     2.0610     2.7750 F     1 <1>  -0.1900 
  2 C       -0.9620     2.5590     1.8310 C.ar  1 <1>   0.1900 
  3 C       -0.5920     3.7430     1.2310 C.ar  1 <1>  -0.1500 
  4 C       -2.1060     1.8750     1.4720 C.ar  1 <1>  -0.1500 
  5 C       -1.3950     4.2810     0.2340 C.ar  1 <1>   0.1170 
  6 C       -2.9000     2.4010     0.4670 C.ar  1 <1>  -0.1500 
  7 N       -0.9770     5.4880    -0.3370 N.am  1 <1>  -0.5470 
  8 C       -2.5500     3.5910    -0.1590 C.ar  1 <1>  -0.1430 
  9 C       -1.5900     6.7060    -0.3380 C.2   1 <1>   0.5690 
 10 C       -3.4470     4.1030    -1.2780 C.3   1 <1>  -0.0960 
 11 O       -2.7510     6.8280    -0.0190 O.2   1 <1>  -0.5700 
 12 C       -0.8480     7.9590    -0.8280 C.3   1 <1>  -0.0190 
 13 C        0.6750     8.1910    -0.6230 C.3   1 <1>  -0.1860 
 14 C       -1.4020     9.2540    -0.2000 C.3   1 <1>   0.2000 
 15 C        1.5640     7.0960    -0.0760 C.2   1 <1>   0.9060 
 16 C        0.6790     9.5080     0.1570 C.3   1 <1>   0.2000 
 17 O       -0.3800    10.1490    -0.4600 O.3   1 <1>  -0.5600 
 18 C       -1.3630     9.2430     1.3330 C.3   1 <1>  -0.1600 
 19 O        1.6270     6.0470    -0.7250 O.co2 1 <1>  -0.9000 
 20 O        2.2190     7.2540     0.9530 O.co2 1 <1>  -0.9000 
 21 C        0.1340     9.3930     1.5880 C.3   1 <1>  -0.1600 
 22 H        0.3100     4.2500     1.5280 H     1 <1>   0.1500 
 23 H       -2.3640     0.9560     1.9660 H     1 <1>   0.1500 
 24 H       -3.7920     1.8780     0.1720 H     1 <1>   0.1500 
 25 H        0.0380     5.5190    -0.5600 H     1 <1>   0.3700 
 26 H       -3.9810     3.2950    -1.7410 H     1 <1>   0.0800 
 27 H       -4.1580     4.8050    -0.8810 H     1 <1>   0.0800 
 28 H       -2.8630     4.5950    -2.0350 H     1 <1>   0.0800 
 29 H       -1.0440     8.0110    -1.8820 H     1 <1>   0.0800 
 30 H        1.0990     8.4140    -1.5840 H     1 <1>   0.0800 
 31 H       -2.3350     9.5890    -0.6200 H     1 <1>   0.0800 
 32 H        1.5920    10.0720     0.0690 H     1 <1>   0.0800 
 33 H       -1.7640     8.3450     1.7670 H     1 <1>   0.0800 
 34 H       -1.9030    10.0900     1.7150 H     1 <1>   0.0800 
 35 H        0.3450    10.2950     2.1310 H     1 <1>   0.0800 
 36 H        0.5400     8.5570     2.1270 H     1 <1>   0.0800 
@<TRIPOS>BOND
  1   1   2  1   
  2   2   3  ar  
  3   2   4  ar  
  4   3   5  ar  
  5   3  22  1   
  6   4   6  ar  
  7   4  23  1   
  8   5   7  1   
  9   5   8  ar  
 10   6   8  ar  
 11   6  24  1   
 12   7   9  am  
 13   7  25  1   
 14   8  10  1   
 15   9  11  2   
 16   9  12  1   
 17  10  26  1   
 18  10  27  1   
 19  10  28  1   
 20  12  13  1   
 21  12  14  1   
 22  12  29  1   
 23  13  15  1   
 24  13  16  1   
 25  13  30  1   
 26  14  17  1   
 27  14  18  1   
 28  14  31  1   
 29  15  19  ar  
 30  15  20  ar  
 31  16  17  1   
 32  16  21  1   
 33  16  32  1   
 34  18  21  1   
 35  18  33  1   
 36  18  34  1   
 37  21  35  1   
 38  21  36  1   
@<TRIPOS>SUBSTRUCTURE
  1 ****   7 GROUP 4 **** **** 0

# MOE 2024.06 (io_trps.svl 2023.06)
