@<TRIPOS>MOLECULE
NONAME
40 41 1 0 0 
SMALL
USER_CHARGES


@<TRIPOS>ATOM
  1 CL       0.5340     0.1290     0.0620 Cl    1 <1>  -0.1770 
  2 C        0.6990     1.8420     0.4150 C.ar  1 <1>   0.1770 
  3 C       -0.3500     2.5340     0.9950 C.ar  1 <1>   0.1770 
  4 C        1.8970     2.4810     0.0980 C.ar  1 <1>   0.1170 
  5 CL      -1.8460     1.7210     1.3920 Cl    1 <1>  -0.1770 
  6 C       -0.2350     3.8840     1.2710 C.ar  1 <1>  -0.1500 
  7 N        2.9390     1.7420    -0.4940 N.am  1 <1>  -0.5470 
  8 C        1.9940     3.8440     0.3740 C.ar  1 <1>  -0.1500 
  9 C        0.9440     4.5380     0.9560 C.ar  1 <1>  -0.1500 
 10 C        4.2830     1.9500    -0.5190 C.2   1 <1>   0.6900 
 11 O        4.8130     2.8660     0.0780 O.2   1 <1>  -0.5700 
 12 N        5.0500     1.0780    -1.2210 N.am  1 <1>  -0.7300 
 13 C        6.5210     1.2080    -1.4170 C.3   1 <1>   0.1400 
 14 C        7.2770     1.2180    -0.0680 C.3   1 <1>   0.3430 
 15 N        8.2730     2.3360     0.0520 N.4   1 <1>  -0.9590 
 16 C        9.1470     2.1200     1.2400 C.3   1 <1>   0.3430 
 17 C        7.5810     3.6610     0.1420 C.3   1 <1>   0.3430 
 18 C       10.2260     3.2040     1.2920 C.3   1 <1>  -0.1600 
 19 C        8.6170     4.7870     0.1700 C.3   1 <1>  -0.1600 
 20 C        9.6140     4.6100     1.3220 C.3   1 <1>  -0.1600 
 21 H       -1.0570     4.4110     1.7230 H     1 <1>   0.1500 
 22 H        2.6510     0.8220    -0.8250 H     1 <1>   0.3700 
 23 H        2.8950     4.3780     0.1320 H     1 <1>   0.1500 
 24 H        1.0450     5.5910     1.1620 H     1 <1>   0.1500 
 25 H        4.5730     0.4470    -1.8690 H     1 <1>   0.3700 
 26 H        6.7120     2.1110    -1.9690 H     1 <1>   0.0800 
 27 H        6.8660     0.3750    -2.0050 H     1 <1>   0.0800 
 28 H        7.7840     0.2740     0.0430 H     1 <1>   0.0800 
 29 H        6.5580     1.3030     0.7310 H     1 <1>   0.0800 
 30 H        8.8770     2.3570    -0.7780 H     1 <1>   0.4500 
 31 H        9.6160     1.1500     1.1850 H     1 <1>   0.0800 
 32 H        8.5540     2.1610     2.1400 H     1 <1>   0.0800 
 33 H        6.9790     3.6980     1.0360 H     1 <1>   0.0800 
 34 H        6.9230     3.8000    -0.7010 H     1 <1>   0.0800 
 35 H       10.8770     3.1030     0.4410 H     1 <1>   0.0800 
 36 H       10.8260     3.0600     2.1740 H     1 <1>   0.0800 
 37 H        8.1060     5.7280     0.2830 H     1 <1>   0.0800 
 38 H        9.1390     4.8160    -0.7700 H     1 <1>   0.0800 
 39 H       10.3930     5.3520     1.2500 H     1 <1>   0.0800 
 40 H        9.1060     4.7600     2.2600 H     1 <1>   0.0800 
@<TRIPOS>BOND
  1   1   2  1   
  2   2   3  ar  
  3   2   4  ar  
  4   3   5  1   
  5   3   6  ar  
  6   4   7  1   
  7   4   8  ar  
  8   6   9  ar  
  9   6  21  1   
 10   7  10  am  
 11   7  22  1   
 12   8   9  ar  
 13   8  23  1   
 14   9  24  1   
 15  10  11  2   
 16  10  12  am  
 17  12  13  1   
 18  12  25  1   
 19  13  14  1   
 20  13  26  1   
 21  13  27  1   
 22  14  15  1   
 23  14  28  1   
 24  14  29  1   
 25  15  16  1   
 26  15  17  1   
 27  15  30  1   
 28  16  18  1   
 29  16  31  1   
 30  16  32  1   
 31  17  19  1   
 32  17  33  1   
 33  17  34  1   
 34  18  20  1   
 35  18  35  1   
 36  18  36  1   
 37  19  20  1   
 38  19  37  1   
 39  19  38  1   
 40  20  39  1   
 41  20  40  1   
@<TRIPOS>SUBSTRUCTURE
  1 ****  11 GROUP 4 **** **** 0

# MOE 2024.06 (io_trps.svl 2023.06)
