@<TRIPOS>MOLECULE
NONAME
45 47 1 0 0 
SMALL
USER_CHARGES


@<TRIPOS>ATOM
  1 O       -0.2790     1.0370    -1.7560 O.2   1 <1>  -0.5700 
  2 C        0.3710     1.7930    -1.0760 C.2   1 <1>   0.5690 
  3 N       -0.0700     2.5740    -0.0540 N.am  1 <1>  -0.6600 
  4 C        1.8470     1.9590    -1.3010 C.3   1 <1>  -0.0990 
  5 C       -1.4920     2.8060     0.3310 C.3   1 <1>   0.3000 
  6 C        1.0530     3.3680     0.5060 C.3   1 <1>   0.1400 
  7 C        2.3120     2.6650    -0.0250 C.3   1 <1>   0.1000 
  8 C       -1.5990     3.7800     1.5130 C.3   1 <1>  -0.2400 
  9 C       -2.2390     3.4050    -0.8630 C.3   1 <1>  -0.2400 
 10 C       -2.1220     1.4750     0.7490 C.3   1 <1>  -0.2400 
 11 C        3.5040     3.5910    -0.2560 C.2   1 <1>   0.0060 
 12 N        3.3960     4.8690    -0.3820 N.2   1 <1>  -0.5650 
 13 N        4.7890     3.1350    -0.3470 N.pl3 1 <1>   0.0480 
 14 C        4.6710     5.3060    -0.5620 C.ar  1 <1>   0.2270 
 15 C        5.5540     4.2440    -0.5390 C.ar  1 <1>  -0.1520 
 16 C        5.2970     1.7470    -0.2920 C.3   1 <1>   0.2340 
 17 C        5.1420     6.6040    -0.7510 C.ar  1 <1>  -0.1500 
 18 C        6.9280     4.4480    -0.6930 C.ar  1 <1>  -0.1500 
 19 C        5.7530     1.4000     1.1170 C.2   1 <1>  -0.2880 
 20 C        6.4950     6.8120    -0.9090 C.ar  1 <1>  -0.1500 
 21 C        7.3870     5.7330    -0.8780 C.ar  1 <1>  -0.1500 
 22 C        6.9760     0.9750     1.4480 C.2   1 <1>  -0.3000 
 23 H        1.9930     2.5840    -2.1630 H     1 <1>   0.0800 
 24 H        2.3220     1.0080    -1.4420 H     1 <1>   0.0800 
 25 H        1.0490     3.3640     1.5820 H     1 <1>   0.0800 
 26 H        0.9810     4.3780     0.1420 H     1 <1>   0.0800 
 27 H        2.5800     1.9230     0.7050 H     1 <1>   0.0800 
 28 H       -1.0980     3.3860     2.3780 H     1 <1>   0.0800 
 29 H       -2.6320     3.9280     1.7720 H     1 <1>   0.0800 
 30 H       -1.1870     4.7400     1.2590 H     1 <1>   0.0800 
 31 H       -1.7670     4.3180    -1.1780 H     1 <1>   0.0800 
 32 H       -3.2570     3.6200    -0.5970 H     1 <1>   0.0800 
 33 H       -2.2530     2.7170    -1.6890 H     1 <1>   0.0800 
 34 H       -1.5590     1.0310     1.5490 H     1 <1>   0.0800 
 35 H       -2.1550     0.7880    -0.0770 H     1 <1>   0.0800 
 36 H       -3.1310     1.6290     1.0850 H     1 <1>   0.0800 
 37 H        6.1170     1.6540    -0.9820 H     1 <1>   0.0800 
 38 H        4.5240     1.0710    -0.6020 H     1 <1>   0.0800 
 39 H        4.4350     7.4110    -0.7680 H     1 <1>   0.1500 
 40 H        7.6090     3.6160    -0.6620 H     1 <1>   0.1500 
 41 H        4.9750     1.5370     1.8490 H     1 <1>   0.1500 
 42 H        6.8770     7.8080    -1.0550 H     1 <1>   0.1500 
 43 H        8.4400     5.9220    -0.9990 H     1 <1>   0.1500 
 44 H        7.2750     0.7390     2.4560 H     1 <1>   0.1500 
 45 H        7.7840     0.8270     0.7510 H     1 <1>   0.1500 
@<TRIPOS>BOND
  1   1   2  2   
  2   2   3  am  
  3   2   4  1   
  4   3   5  1   
  5   3   6  1   
  6   4   7  1   
  7   4  23  1   
  8   4  24  1   
  9   5   8  1   
 10   5   9  1   
 11   5  10  1   
 12   6   7  1   
 13   6  25  1   
 14   6  26  1   
 15   7  11  1   
 16   7  27  1   
 17   8  28  1   
 18   8  29  1   
 19   8  30  1   
 20   9  31  1   
 21   9  32  1   
 22   9  33  1   
 23  10  34  1   
 24  10  35  1   
 25  10  36  1   
 26  11  12  2   
 27  11  13  1   
 28  12  14  1   
 29  13  15  1   
 30  13  16  1   
 31  14  15  ar  
 32  14  17  ar  
 33  15  18  ar  
 34  16  19  1   
 35  16  37  1   
 36  16  38  1   
 37  17  20  ar  
 38  17  39  1   
 39  18  21  ar  
 40  18  40  1   
 41  19  22  2   
 42  19  41  1   
 43  20  21  ar  
 44  20  42  1   
 45  21  43  1   
 46  22  44  1   
 47  22  45  1   
@<TRIPOS>SUBSTRUCTURE
  1 ****  11 GROUP 4 **** **** 0

# MOE 2024.06 (io_trps.svl 2023.06)
