@<TRIPOS>MOLECULE
NONAME
37 38 1 0 0 
SMALL
USER_CHARGES


@<TRIPOS>ATOM
  1 S       -0.5620     1.5970     1.6190 S.o2  1 <1>   1.4970 
  2 O       -0.1030     2.8790     2.1350 O.2   1 <1>  -0.6500 
  3 O       -0.7950     0.5750     2.6330 O.2   1 <1>  -0.6500 
  4 N       -1.9950     1.7170     0.7820 N.2   1 <1>  -0.6380 
  5 C        0.6880     0.8590     0.5060 C.ar  1 <1>  -0.0090 
  6 C       -1.9430     2.3670    -0.3170 C.2   1 <1>   0.3610 
  7 C        1.6450     1.6320    -0.1400 C.ar  1 <1>  -0.1500 
  8 C        0.7200    -0.5130     0.2770 C.ar  1 <1>  -0.1500 
  9 O       -0.9440     2.9000    -0.8030 O.3   1 <1>  -0.8610 
 10 N       -3.0100     2.5270    -1.1170 N.pl3 1 <1>  -0.8190 
 11 C        2.6070     1.0650    -0.9590 C.ar  1 <1>  -0.1500 
 12 C        1.6770    -1.0910    -0.5410 C.ar  1 <1>  -0.1500 
 13 C       -3.5230     1.2840    -1.7460 C.3   1 <1>   0.2090 
 14 C        2.6310    -0.3040    -1.1610 C.ar  1 <1>  -0.1430 
 15 C       -4.4600     0.5060    -0.8070 C.3   1 <1>   0.2000 
 16 C        3.6800    -0.9300    -2.0610 C.3   1 <1>  -0.0970 
 17 O       -5.1060    -0.5160    -1.5040 O.3   1 <1>  -0.5600 
 18 C       -5.6000     1.3250    -0.2130 C.3   1 <1>  -0.1600 
 19 C       -6.2160    -0.9300    -0.7780 C.3   1 <1>   0.1200 
 20 C       -6.7150     0.3050    -0.0310 C.3   1 <1>  -0.1600 
 21 H        1.6110     2.7010    -0.0040 H     1 <1>   0.1500 
 22 H       -0.0200    -1.1330     0.7530 H     1 <1>   0.1500 
 23 H       -2.6150     3.1470    -1.8230 H     1 <1>   0.4000 
 24 H        3.3240     1.7030    -1.4430 H     1 <1>   0.1500 
 25 H        1.6690    -2.1560    -0.6920 H     1 <1>   0.1500 
 26 H       -2.6910     0.6570    -2.0150 H     1 <1>   0.0800 
 27 H       -4.0610     1.5510    -2.6370 H     1 <1>   0.0800 
 28 H       -3.8840     0.0480    -0.0210 H     1 <1>   0.0800 
 29 H        4.5800    -0.3420    -2.0530 H     1 <1>   0.0800 
 30 H        3.3060    -0.9810    -3.0680 H     1 <1>   0.0800 
 31 H        3.9190    -1.9230    -1.7260 H     1 <1>   0.0800 
 32 H       -5.8950     2.0920    -0.9060 H     1 <1>   0.0800 
 33 H       -5.2910     1.7870     0.7080 H     1 <1>   0.0800 
 34 H       -5.8950    -1.6950    -0.0910 H     1 <1>   0.0800 
 35 H       -6.9500    -1.3240    -1.4590 H     1 <1>   0.0800 
 36 H       -7.6370     0.6610    -0.4540 H     1 <1>   0.0800 
 37 H       -6.8670     0.0720     1.0080 H     1 <1>   0.0800 
@<TRIPOS>BOND
  1   1   2  2   
  2   1   3  2   
  3   1   4  1   
  4   1   5  1   
  5   4   6  2   
  6   5   7  ar  
  7   5   8  ar  
  8   6   9  1   
  9   6  10  1   
 10   7  11  ar  
 11   7  21  1   
 12   8  12  ar  
 13   8  22  1   
 14  10  13  1   
 15  10  23  1   
 16  11  14  ar  
 17  11  24  1   
 18  12  14  ar  
 19  12  25  1   
 20  13  15  1   
 21  13  26  1   
 22  13  27  1   
 23  14  16  1   
 24  15  17  1   
 25  15  18  1   
 26  15  28  1   
 27  16  29  1   
 28  16  30  1   
 29  16  31  1   
 30  17  19  1   
 31  18  20  1   
 32  18  32  1   
 33  18  33  1   
 34  19  20  1   
 35  19  34  1   
 36  19  35  1   
 37  20  36  1   
 38  20  37  1   
@<TRIPOS>SUBSTRUCTURE
  1 ****   4 GROUP 4 **** **** 0

# MOE 2024.06 (io_trps.svl 2023.06)
