@<TRIPOS>MOLECULE
NONAME
34 36 1 0 0 
SMALL
USER_CHARGES


@<TRIPOS>ATOM
  1 BR      -0.1090    -0.3520     0.6080 Br    1 <1>  -0.1110 
  2 C        1.6670    -0.9420     0.1620 C.ar  1 <1>   0.1110 
  3 C        2.7450    -0.2210     0.5960 C.ar  1 <1>  -0.1500 
  4 C        1.8000    -2.1000    -0.6000 C.ar  1 <1>  -0.1500 
  5 C        4.0540    -0.6410     0.2770 C.ar  1 <1>   0.0000 
  6 C        3.0660    -2.5200    -0.9180 C.ar  1 <1>  -0.1500 
  7 C        5.2270     0.0460     0.6860 C.ar  1 <1>   0.1000 
  8 C        4.2040    -1.8130    -0.4940 C.ar  1 <1>   0.3100 
  9 N        5.1140     1.1920     1.4370 N.pl3 1 <1>  -0.9000 
 10 C        6.4710    -0.4660     0.3130 C.ar  1 <1>   0.0860 
 11 N        5.4160    -2.2950    -0.8500 N.ar  1 <1>  -0.6200 
 12 C        7.7230     0.1550     0.6830 C.2   1 <1>   0.4230 
 13 C        6.4720    -1.6530    -0.4610 C.ar  1 <1>   0.1670 
 14 O        7.8350     1.1780     1.3200 O.2   1 <1>  -0.5700 
 15 C        9.0410    -0.4700     0.2560 C.3   1 <1>  -0.0990 
 16 C        7.7880    -2.2710    -0.9150 C.3   1 <1>  -0.0170 
 17 C        8.9530    -1.9880     0.0470 C.3   1 <1>   0.0000 
 18 C        8.7360    -2.7090     1.3910 C.3   1 <1>  -0.2400 
 19 C       10.2670    -2.4980    -0.5670 C.3   1 <1>  -0.2400 
 20 H        2.5860     0.6640     1.1810 H     1 <1>   0.1500 
 21 H        0.9230    -2.6350    -0.9200 H     1 <1>   0.1500 
 22 H        3.2200    -3.4080    -1.5030 H     1 <1>   0.1500 
 23 H        5.9740     1.6920     1.7290 H     1 <1>   0.4000 
 24 H        4.2400     1.6260     1.7420 H     1 <1>   0.4000 
 25 H        9.7880    -0.2510     0.9990 H     1 <1>   0.0800 
 26 H        9.3460     0.0100    -0.6570 H     1 <1>   0.0800 
 27 H        8.0160    -1.8780    -1.8900 H     1 <1>   0.0800 
 28 H        7.6650    -3.3350    -1.0200 H     1 <1>   0.0800 
 29 H        7.8280    -2.3930     1.8730 H     1 <1>   0.0800 
 30 H        9.5540    -2.5090     2.0620 H     1 <1>   0.0800 
 31 H        8.6780    -3.7730     1.2420 H     1 <1>   0.0800 
 32 H       10.4600    -2.0210    -1.5120 H     1 <1>   0.0800 
 33 H       10.2200    -3.5610    -0.7310 H     1 <1>   0.0800 
 34 H       11.0950    -2.2940     0.0890 H     1 <1>   0.0800 
@<TRIPOS>BOND
  1   1   2  1   
  2   2   3  ar  
  3   2   4  ar  
  4   3   5  ar  
  5   3  20  1   
  6   4   6  ar  
  7   4  21  1   
  8   5   7  ar  
  9   5   8  ar  
 10   6   8  ar  
 11   6  22  1   
 12   7   9  1   
 13   7  10  ar  
 14   8  11  ar  
 15   9  23  1   
 16   9  24  1   
 17  10  12  1   
 18  10  13  ar  
 19  11  13  ar  
 20  12  14  2   
 21  12  15  1   
 22  13  16  1   
 23  15  17  1   
 24  15  25  1   
 25  15  26  1   
 26  16  17  1   
 27  16  27  1   
 28  16  28  1   
 29  17  18  1   
 30  17  19  1   
 31  18  29  1   
 32  18  30  1   
 33  18  31  1   
 34  19  32  1   
 35  19  33  1   
 36  19  34  1   
@<TRIPOS>SUBSTRUCTURE
  1 ****  10 GROUP 4 **** **** 0

# MOE 2024.06 (io_trps.svl 2023.06)
