@<TRIPOS>MOLECULE
NONAME
41 42 1 0 0 
SMALL
USER_CHARGES


@<TRIPOS>ATOM
  1 O        2.8650    -1.8110     0.7480 O.2   1 <1>  -0.5700 
  2 C        2.2400    -1.2840    -0.1390 C.2   1 <1>   0.5690 
  3 N        1.0620    -1.7920    -0.5370 N.am  1 <1>  -0.8000 
  4 C        2.8070    -0.0310    -0.7910 C.3   1 <1>  -0.0190 
  5 C        4.3140    -0.2380    -1.0110 C.3   1 <1>   0.3430 
  6 C        2.5040     1.2240     0.0670 C.3   1 <1>  -0.1600 
  7 N        5.0280    -0.1090     0.2960 N.4   1 <1>  -0.9590 
  8 C        3.7620     2.0690     0.3340 C.3   1 <1>  -0.1600 
  9 C        4.9130     1.2440     0.9330 C.3   1 <1>   0.3430 
 10 C        6.4260    -0.6610     0.3050 C.3   1 <1>   0.3430 
 11 C        7.3400    -0.2140    -0.8570 C.3   1 <1>   0.0630 
 12 C        8.6890    -0.8990    -0.6780 C.ar  1 <1>  -0.1440 
 13 C        7.5390     1.3060    -0.9870 C.3   1 <1>  -0.2400 
 14 C        9.1190    -1.8380    -1.6060 C.ar  1 <1>  -0.1500 
 15 C        9.5020    -0.6090     0.4110 C.ar  1 <1>  -0.1500 
 16 C       10.3350    -2.4790    -1.4460 C.ar  1 <1>  -0.1500 
 17 C       10.7170    -1.2500     0.5710 C.ar  1 <1>  -0.1500 
 18 C       11.1350    -2.1870    -0.3570 C.ar  1 <1>  -0.1500 
 19 H        0.6890    -2.6220    -0.0690 H     1 <1>   0.3700 
 20 H        0.4490    -1.3790    -1.2420 H     1 <1>   0.3700 
 21 H        2.3500     0.0820    -1.7570 H     1 <1>   0.0800 
 22 H        4.6870     0.4990    -1.7030 H     1 <1>   0.0800 
 23 H        4.4820    -1.2180    -1.4290 H     1 <1>   0.0800 
 24 H        2.0890     0.9250     1.0160 H     1 <1>   0.0800 
 25 H        1.7600     1.8290    -0.4250 H     1 <1>   0.0800 
 26 H        4.4730    -0.7460     0.9080 H     1 <1>   0.4500 
 27 H        3.5210     2.8730     1.0090 H     1 <1>   0.0800 
 28 H        4.0960     2.5230    -0.5830 H     1 <1>   0.0800 
 29 H        5.8320     1.7940     0.8170 H     1 <1>   0.0800 
 30 H        4.7410     1.1160     1.9900 H     1 <1>   0.0800 
 31 H        6.3700    -1.7380     0.2720 H     1 <1>   0.0800 
 32 H        6.9020    -0.4040     1.2370 H     1 <1>   0.0800 
 33 H        6.9150    -0.5710    -1.7780 H     1 <1>   0.0800 
 34 H        7.8930     1.7330    -0.0660 H     1 <1>   0.0800 
 35 H        6.6260     1.7940    -1.2750 H     1 <1>   0.0800 
 36 H        8.2730     1.5070    -1.7490 H     1 <1>   0.0800 
 37 H        8.5180    -2.0830    -2.4650 H     1 <1>   0.1500 
 38 H        9.2060     0.1180     1.1450 H     1 <1>   0.1500 
 39 H       10.6620    -3.2060    -2.1700 H     1 <1>   0.1500 
 40 H       11.3430    -1.0210     1.4170 H     1 <1>   0.1500 
 41 H       12.0810    -2.6850    -0.2330 H     1 <1>   0.1500 
@<TRIPOS>BOND
  1   1   2  2   
  2   2   3  am  
  3   2   4  1   
  4   3  19  1   
  5   3  20  1   
  6   4   5  1   
  7   4   6  1   
  8   4  21  1   
  9   5   7  1   
 10   5  22  1   
 11   5  23  1   
 12   6   8  1   
 13   6  24  1   
 14   6  25  1   
 15   7   9  1   
 16   7  10  1   
 17   7  26  1   
 18   8   9  1   
 19   8  27  1   
 20   8  28  1   
 21   9  29  1   
 22   9  30  1   
 23  10  11  1   
 24  10  31  1   
 25  10  32  1   
 26  11  12  1   
 27  11  13  1   
 28  11  33  1   
 29  12  14  ar  
 30  12  15  ar  
 31  13  34  1   
 32  13  35  1   
 33  13  36  1   
 34  14  16  ar  
 35  14  37  1   
 36  15  17  ar  
 37  15  38  1   
 38  16  18  ar  
 39  16  39  1   
 40  17  18  ar  
 41  17  40  1   
 42  18  41  1   
@<TRIPOS>SUBSTRUCTURE
  1 ****  10 GROUP 4 **** **** 0

# MOE 2024.06 (io_trps.svl 2023.06)
