@<TRIPOS>MOLECULE
NONAME
26 26 1 0 0 
SMALL
USER_CHARGES


@<TRIPOS>ATOM
  1 BR      -0.8590    -0.2900    -1.7470 Br    1 <1>  -0.1110 
  2 C       -0.2690    -1.8340    -0.7640 C.ar  1 <1>   0.1110 
  3 C        1.0110    -2.3070    -0.9710 C.ar  1 <1>  -0.1500 
  4 C       -1.1450    -2.4270     0.1240 C.ar  1 <1>  -0.1500 
  5 C        1.4760    -3.4240    -0.2720 C.ar  1 <1>   0.0860 
  6 C       -0.7080    -3.5380     0.8220 C.ar  1 <1>  -0.1500 
  7 C        0.5750    -4.0220     0.6210 C.ar  1 <1>   0.1770 
  8 C        2.8310    -3.8890    -0.5070 C.2   1 <1>   0.5440 
  9 CL       1.0090    -5.4440     1.5430 Cl    1 <1>  -0.1770 
 10 O        3.3300    -3.7630    -1.6070 O.2   1 <1>  -0.5700 
 11 N        3.5990    -4.4300     0.4860 N.am  1 <1>  -0.7300 
 12 C        4.9620    -4.9950     0.2990 C.3   1 <1>   0.1400 
 13 C        5.9980    -3.8780     0.1790 C.3   1 <1>   0.1200 
 14 O        7.2700    -4.4460     0.2250 O.3   1 <1>  -0.5600 
 15 C        8.2990    -3.5300     0.0400 C.3   1 <1>   0.0400 
 16 H        1.6530    -1.8110    -1.6790 H     1 <1>   0.1500 
 17 H       -2.1370    -2.0300     0.2610 H     1 <1>   0.1500 
 18 H       -1.3620    -4.0330     1.5200 H     1 <1>   0.1500 
 19 H        3.1610    -4.6410     1.3860 H     1 <1>   0.3700 
 20 H        4.9810    -5.5930    -0.5960 H     1 <1>   0.0800 
 21 H        5.2030    -5.6190     1.1420 H     1 <1>   0.0800 
 22 H        5.9040    -3.1890     1.0010 H     1 <1>   0.0800 
 23 H        5.8770    -3.3640    -0.7590 H     1 <1>   0.0800 
 24 H        9.2330    -4.0610     0.0980 H     1 <1>   0.0800 
 25 H        8.2560    -2.7850     0.8150 H     1 <1>   0.0800 
 26 H        8.2000    -3.0760    -0.9310 H     1 <1>   0.0800 
@<TRIPOS>BOND
  1   1   2  1   
  2   2   3  ar  
  3   2   4  ar  
  4   3   5  ar  
  5   3  16  1   
  6   4   6  ar  
  7   4  17  1   
  8   5   7  ar  
  9   5   8  1   
 10   6   7  ar  
 11   6  18  1   
 12   7   9  1   
 13   8  10  2   
 14   8  11  am  
 15  11  12  1   
 16  11  19  1   
 17  12  13  1   
 18  12  20  1   
 19  12  21  1   
 20  13  14  1   
 21  13  22  1   
 22  13  23  1   
 23  14  15  1   
 24  15  24  1   
 25  15  25  1   
 26  15  26  1   
@<TRIPOS>SUBSTRUCTURE
  1 ****   8 GROUP 4 **** **** 0

# MOE 2024.06 (io_trps.svl 2023.06)
