@<TRIPOS>MOLECULE
NONAME
29 30 1 0 0 
SMALL
USER_CHARGES


@<TRIPOS>ATOM
  1 S       -0.1020    -0.2520    -0.0170 S.3   1 <1>  -0.2860 
  2 C       -1.8830    -0.1140     0.0000 C.2   1 <1>   0.2420 
  3 C        0.4510     1.5080     0.0120 C.3   1 <1>   0.0700 
  4 N       -2.6460    -1.2240    -0.0150 N.pl3 1 <1>   0.0330 
  5 N       -2.5150     1.0040     0.0260 N.2   1 <1>  -0.5650 
  6 C        1.9780     1.5260    -0.0010 C.3   1 <1>  -0.2400 
  7 C       -3.9260    -0.7660     0.0040 C.ar  1 <1>  -0.1520 
  8 C       -3.8270     0.6170     0.0300 C.ar  1 <1>   0.2270 
  9 C       -5.1610    -1.4130     0.0020 C.ar  1 <1>  -0.1500 
 10 C       -4.9830     1.4010     0.0540 C.ar  1 <1>  -0.1440 
 11 C       -6.3080    -0.6500     0.0260 C.ar  1 <1>  -0.1430 
 12 C       -6.2080     0.7540     0.0510 C.ar  1 <1>   0.0830 
 13 C       -4.8270     2.9190     0.0810 C.3   1 <1>  -0.0970 
 14 C       -7.6650    -1.3450     0.0240 C.3   1 <1>  -0.0970 
 15 O       -7.3480     1.4750     0.0740 O.3   1 <1>  -0.5320 
 16 H        0.0490     1.9530     0.9050 H     1 <1>   0.0800 
 17 H        0.0340     1.9870    -0.8580 H     1 <1>   0.0800 
 18 H       -2.3140    -2.1890    -0.0360 H     1 <1>   0.2700 
 19 H        2.3610     1.0130     0.8630 H     1 <1>   0.0800 
 20 H        2.3310     2.5410     0.0150 H     1 <1>   0.0800 
 21 H        2.3470     1.0460    -0.8900 H     1 <1>   0.0800 
 22 H       -5.1980    -2.4880    -0.0180 H     1 <1>   0.1500 
 23 H       -4.2730     3.2060     0.9560 H     1 <1>   0.0800 
 24 H       -5.7750     3.4220     0.0970 H     1 <1>   0.0800 
 25 H       -4.2840     3.2390    -0.7890 H     1 <1>   0.0800 
 26 H       -7.5470    -2.4130     0.0030 H     1 <1>   0.0800 
 27 H       -8.2280    -1.0530    -0.8450 H     1 <1>   0.0800 
 28 H       -8.2140    -1.0860     0.9110 H     1 <1>   0.0800 
 29 H       -8.1310     0.9000     0.0700 H     1 <1>   0.4500 
@<TRIPOS>BOND
  1   1   2  1   
  2   1   3  1   
  3   2   4  1   
  4   2   5  2   
  5   3   6  1   
  6   3  16  1   
  7   3  17  1   
  8   4   7  1   
  9   4  18  1   
 10   5   8  1   
 11   6  19  1   
 12   6  20  1   
 13   6  21  1   
 14   7   8  ar  
 15   7   9  ar  
 16   8  10  ar  
 17   9  11  ar  
 18   9  22  1   
 19  10  12  ar  
 20  10  13  1   
 21  11  12  ar  
 22  11  14  1   
 23  12  15  1   
 24  13  23  1   
 25  13  24  1   
 26  13  25  1   
 27  14  26  1   
 28  14  27  1   
 29  14  28  1   
 30  15  29  1   
@<TRIPOS>SUBSTRUCTURE
  1 ****   8 GROUP 4 **** **** 0

# MOE 2024.06 (io_trps.svl 2023.06)
