@<TRIPOS>MOLECULE
NONAME
38 39 1 0 0 
SMALL
USER_CHARGES


@<TRIPOS>ATOM
  1 O       -0.7720     0.0310     0.8510 O.2   1 <1>  -0.5700 
  2 C       -1.7420    -0.6840     0.7790 C.2   1 <1>   0.5940 
  3 C       -3.0000    -0.2470     0.2370 C.2   1 <1>   0.0550 
  4 C       -1.5980    -2.1090     1.2700 C.3   1 <1>  -0.0990 
  5 O       -4.0310    -1.0790     0.1160 O.3   1 <1>  -0.2800 
  6 C       -3.3820     0.9740    -0.2320 C.2   1 <1>  -0.1500 
  7 C       -1.3280    -3.0340     0.0910 C.3   1 <1>   0.2090 
  8 C       -5.0450    -0.4330    -0.4060 C.2   1 <1>  -0.0400 
  9 C       -4.7070     0.8520    -0.6470 C.2   1 <1>  -0.1500 
 10 N       -1.1820    -4.4180     0.5960 N.pl3 1 <1>  -0.8690 
 11 C       -6.3450    -1.1710    -0.6410 C.3   1 <1>  -0.0600 
 12 C        0.0320    -5.0770     0.4410 C.ar  1 <1>   0.1000 
 13 C        0.0530    -6.3780    -0.0450 C.ar  1 <1>  -0.1500 
 14 C        1.2410    -4.4750     0.7700 C.ar  1 <1>  -0.1500 
 15 C        1.2480    -7.0540    -0.2120 C.ar  1 <1>  -0.1500 
 16 C        2.4380    -5.1490     0.6030 C.ar  1 <1>  -0.1500 
 17 C        2.4500    -6.4440     0.1100 C.ar  1 <1>  -0.1430 
 18 C        3.7640    -7.1860    -0.0730 C.3   1 <1>  -0.0170 
 19 C        4.3260    -6.9460    -1.4760 C.3   1 <1>  -0.2400 
 20 H       -2.4960    -2.4100     1.7760 H     1 <1>   0.0800 
 21 H       -0.7800    -2.1610     1.9640 H     1 <1>   0.0800 
 22 H       -2.7850     1.8690    -0.2780 H     1 <1>   0.1500 
 23 H       -0.4320    -2.7270    -0.4230 H     1 <1>   0.0800 
 24 H       -2.1470    -2.9950    -0.6080 H     1 <1>   0.0800 
 25 H       -5.3090     1.6380    -1.0680 H     1 <1>   0.1500 
 26 H       -1.9970    -4.9980     0.3700 H     1 <1>   0.4000 
 27 H       -6.7200    -1.5510     0.2920 H     1 <1>   0.0800 
 28 H       -6.1800    -1.9930    -1.3130 H     1 <1>   0.0800 
 29 H       -7.0760    -0.5100    -1.0690 H     1 <1>   0.0800 
 30 H       -0.8720    -6.8620    -0.2960 H     1 <1>   0.1500 
 31 H        1.2440    -3.4770     1.1640 H     1 <1>   0.1500 
 32 H        1.2400    -8.0590    -0.5950 H     1 <1>   0.1500 
 33 H        3.3610    -4.6610     0.8600 H     1 <1>   0.1500 
 34 H        3.6090    -8.2400     0.0780 H     1 <1>   0.0800 
 35 H        4.4740    -6.8520     0.6630 H     1 <1>   0.0800 
 36 H        3.6290    -7.2910    -2.2180 H     1 <1>   0.0800 
 37 H        5.2550    -7.4730    -1.5990 H     1 <1>   0.0800 
 38 H        4.5000    -5.8950    -1.6290 H     1 <1>   0.0800 
@<TRIPOS>BOND
  1   1   2  2   
  2   2   3  1   
  3   2   4  1   
  4   3   5  1   
  5   3   6  2   
  6   4   7  1   
  7   4  20  1   
  8   4  21  1   
  9   5   8  1   
 10   6   9  1   
 11   6  22  1   
 12   7  10  1   
 13   7  23  1   
 14   7  24  1   
 15   8   9  2   
 16   8  11  1   
 17   9  25  1   
 18  10  12  1   
 19  10  26  1   
 20  11  27  1   
 21  11  28  1   
 22  11  29  1   
 23  12  13  ar  
 24  12  14  ar  
 25  13  15  ar  
 26  13  30  1   
 27  14  16  ar  
 28  14  31  1   
 29  15  17  ar  
 30  15  32  1   
 31  16  17  ar  
 32  16  33  1   
 33  17  18  1   
 34  18  19  1   
 35  18  34  1   
 36  18  35  1   
 37  19  36  1   
 38  19  37  1   
 39  19  38  1   
@<TRIPOS>SUBSTRUCTURE
  1 ****   7 GROUP 4 **** **** 0

# MOE 2024.06 (io_trps.svl 2023.06)
