@<TRIPOS>MOLECULE
NONAME
47 49 1 0 0 
SMALL
USER_CHARGES


@<TRIPOS>ATOM
  1 CL      -0.4300    -2.8090     0.8160 Cl    1 <1>  -0.1770 
  2 C        1.0610    -2.7200    -0.0880 C.ar  1 <1>   0.1770 
  3 C        2.2620    -2.6590     0.5900 C.ar  1 <1>  -0.1500 
  4 C        1.0110    -2.7110    -1.4710 C.ar  1 <1>  -0.1500 
  5 C        3.4510    -2.5880    -0.1210 C.ar  1 <1>   0.1000 
  6 C        2.1960    -2.6400    -2.1860 C.ar  1 <1>  -0.1500 
  7 N        4.6550    -2.5290     0.5670 N.pl3 1 <1>  -0.8380 
  8 C        3.4040    -2.5790    -1.5130 C.ar  1 <1>  -0.1500 
  9 C        5.5300    -3.7360     0.4620 C.3   1 <1>   0.2090 
 10 C        5.4270    -1.2530     0.4340 C.3   1 <1>   0.2090 
 11 C        6.6900    -3.6810     1.4730 C.3   1 <1>   0.1400 
 12 C        6.5750    -1.1940     1.4560 C.3   1 <1>   0.1400 
 13 N        7.4530    -2.3990     1.3400 N.am  1 <1>  -0.6600 
 14 C        8.6720    -2.3190     0.7200 C.2   1 <1>   0.6900 
 15 O        8.9680    -1.3250     0.0820 O.2   1 <1>  -0.5700 
 16 N        9.5320    -3.3690     0.8490 N.am  1 <1>  -0.5470 
 17 C       10.7780    -3.6900     0.2830 C.ar  1 <1>   0.1170 
 18 C       11.4910    -4.7640     0.8290 C.ar  1 <1>   0.0830 
 19 C       11.3250    -3.0020    -0.7940 C.ar  1 <1>  -0.1500 
 20 O       10.9180    -5.4260     1.8810 O.3   1 <1>  -0.3620 
 21 C       12.7270    -5.1180     0.2990 C.ar  1 <1>  -0.1500 
 22 C       12.5570    -3.3540    -1.3210 C.ar  1 <1>  -0.1430 
 23 C       11.6080    -6.4530     2.5590 C.3   1 <1>   0.0400 
 24 C       13.2550    -4.4150    -0.7700 C.ar  1 <1>  -0.1500 
 25 C       13.1390    -2.5870    -2.4940 C.3   1 <1>  -0.0970 
 26 H        2.2840    -2.6660     1.6620 H     1 <1>   0.1500 
 27 H        0.0620    -2.7590    -1.9720 H     1 <1>   0.1500 
 28 H        2.1760    -2.6320    -3.2620 H     1 <1>   0.1500 
 29 H        4.3240    -2.5240    -2.0650 H     1 <1>   0.1500 
 30 H        5.9320    -3.8030    -0.5340 H     1 <1>   0.0800 
 31 H        4.9390    -4.6180     0.6430 H     1 <1>   0.0800 
 32 H        4.7660    -0.4190     0.5900 H     1 <1>   0.0800 
 33 H        5.8370    -1.1770    -0.5580 H     1 <1>   0.0800 
 34 H        7.3310    -4.5290     1.3120 H     1 <1>   0.0800 
 35 H        6.2900    -3.7500     2.4690 H     1 <1>   0.0800 
 36 H        6.1610    -1.1530     2.4470 H     1 <1>   0.0800 
 37 H        7.1460    -0.2950     1.3010 H     1 <1>   0.0800 
 38 H        9.2870    -3.9940     1.6110 H     1 <1>   0.3700 
 39 H       10.7840    -2.1830    -1.2290 H     1 <1>   0.1500 
 40 H       13.2970    -5.9360     0.6960 H     1 <1>   0.1500 
 41 H       10.9900    -6.7950     3.3680 H     1 <1>   0.0800 
 42 H       12.5300    -6.0570     2.9460 H     1 <1>   0.0800 
 43 H       11.7920    -7.2620     1.8730 H     1 <1>   0.0800 
 44 H       14.2120    -4.6960    -1.1740 H     1 <1>   0.1500 
 45 H       12.6610    -1.6290    -2.5960 H     1 <1>   0.0800 
 46 H       12.9920    -3.1440    -3.4020 H     1 <1>   0.0800 
 47 H       14.1920    -2.4270    -2.3480 H     1 <1>   0.0800 
@<TRIPOS>BOND
  1   1   2  1   
  2   2   3  ar  
  3   2   4  ar  
  4   3   5  ar  
  5   3  26  1   
  6   4   6  ar  
  7   4  27  1   
  8   5   7  1   
  9   5   8  ar  
 10   6   8  ar  
 11   6  28  1   
 12   7   9  1   
 13   7  10  1   
 14   8  29  1   
 15   9  11  1   
 16   9  30  1   
 17   9  31  1   
 18  10  12  1   
 19  10  32  1   
 20  10  33  1   
 21  11  13  1   
 22  11  34  1   
 23  11  35  1   
 24  12  13  1   
 25  12  36  1   
 26  12  37  1   
 27  13  14  am  
 28  14  15  2   
 29  14  16  am  
 30  16  17  1   
 31  16  38  1   
 32  17  18  ar  
 33  17  19  ar  
 34  18  20  1   
 35  18  21  ar  
 36  19  22  ar  
 37  19  39  1   
 38  20  23  1   
 39  21  24  ar  
 40  21  40  1   
 41  22  24  ar  
 42  22  25  1   
 43  23  41  1   
 44  23  42  1   
 45  23  43  1   
 46  24  44  1   
 47  25  45  1   
 48  25  46  1   
 49  25  47  1   
@<TRIPOS>SUBSTRUCTURE
  1 ****  13 GROUP 4 **** **** 0

# MOE 2024.06 (io_trps.svl 2023.06)
