@<TRIPOS>MOLECULE
NONAME
43 44 1 0 0 
SMALL
USER_CHARGES


@<TRIPOS>ATOM
  1 O        0.2720     1.1120    -1.5710 O.2   1 <1>  -0.5700 
  2 C       -0.1000     1.9590    -0.7810 C.2   1 <1>   0.6900 
  3 N        0.7740     2.8870    -0.2980 N.am  1 <1>  -0.6600 
  4 N       -1.3870     2.0510    -0.3470 N.am  1 <1>  -0.5470 
  5 C        1.5760     2.5990     0.9220 C.3   1 <1>   0.2200 
  6 C        1.4590     3.7470    -1.3040 C.3   1 <1>   0.2200 
  7 C       -2.5560     1.3170    -0.6030 C.ar  1 <1>   0.1170 
  8 C        2.8500     1.8290     0.5300 C.3   1 <1>  -0.1600 
  9 C        0.7750     1.8560     1.9950 C.3   1 <1>  -0.2400 
 10 C        2.9910     3.7480    -1.1300 C.3   1 <1>  -0.1600 
 11 C        0.8860     5.1590    -1.2030 C.3   1 <1>  -0.2400 
 12 C       -3.6430     1.4240     0.2710 C.ar  1 <1>  -0.1440 
 13 C       -2.6780     0.4930    -1.7190 C.ar  1 <1>  -0.1500 
 14 C        3.5060     2.3490    -0.7640 C.3   1 <1>  -0.1600 
 15 C       -4.8090     0.7210     0.0120 C.ar  1 <1>  -0.1500 
 16 C       -3.5900     2.2970     1.5230 C.3   1 <1>  -0.0170 
 17 C       -3.8420    -0.2080    -1.9680 C.ar  1 <1>  -0.1500 
 18 C       -4.9120    -0.0930    -1.1010 C.ar  1 <1>  -0.1500 
 19 C       -3.8770     3.7630     1.1850 C.3   1 <1>  -0.2400 
 20 H       -1.4940     2.8020     0.3240 H     1 <1>   0.3700 
 21 H        1.8710     3.5460     1.3430 H     1 <1>   0.0800 
 22 H        1.2400     3.3610    -2.2870 H     1 <1>   0.0800 
 23 H        2.6130     0.7860     0.4020 H     1 <1>   0.0800 
 24 H        3.5510     1.9010     1.3420 H     1 <1>   0.0800 
 25 H        0.4710     0.8850     1.6460 H     1 <1>   0.0800 
 26 H       -0.0900     2.4280     2.2740 H     1 <1>   0.0800 
 27 H        1.3840     1.7210     2.8700 H     1 <1>   0.0800 
 28 H        3.2770     4.4460    -0.3640 H     1 <1>   0.0800 
 29 H        3.4470     4.0750    -2.0480 H     1 <1>   0.0800 
 30 H        1.0670     5.5710    -0.2270 H     1 <1>   0.0800 
 31 H       -0.1720     5.1370    -1.3890 H     1 <1>   0.0800 
 32 H        1.3460     5.7940    -1.9380 H     1 <1>   0.0800 
 33 H       -1.8600     0.3980    -2.4080 H     1 <1>   0.1500 
 34 H        3.2570     1.6760    -1.5690 H     1 <1>   0.0800 
 35 H        4.5770     2.3560    -0.6610 H     1 <1>   0.0800 
 36 H       -5.6510     0.8020     0.6770 H     1 <1>   0.1500 
 37 H       -2.6290     2.2060     1.9980 H     1 <1>   0.0800 
 38 H       -4.3200     1.9520     2.2350 H     1 <1>   0.0800 
 39 H       -3.9130    -0.8390    -2.8360 H     1 <1>   0.1500 
 40 H       -5.8220    -0.6360    -1.2930 H     1 <1>   0.1500 
 41 H       -3.1560     4.1420     0.4840 H     1 <1>   0.0800 
 42 H       -3.8430     4.3630     2.0770 H     1 <1>   0.0800 
 43 H       -4.8560     3.8520     0.7470 H     1 <1>   0.0800 
@<TRIPOS>BOND
  1   1   2  2   
  2   2   3  am  
  3   2   4  am  
  4   3   5  1   
  5   3   6  1   
  6   4   7  1   
  7   4  20  1   
  8   5   8  1   
  9   5   9  1   
 10   5  21  1   
 11   6  10  1   
 12   6  11  1   
 13   6  22  1   
 14   7  12  ar  
 15   7  13  ar  
 16   8  14  1   
 17   8  23  1   
 18   8  24  1   
 19   9  25  1   
 20   9  26  1   
 21   9  27  1   
 22  10  14  1   
 23  10  28  1   
 24  10  29  1   
 25  11  30  1   
 26  11  31  1   
 27  11  32  1   
 28  12  15  ar  
 29  12  16  1   
 30  13  17  ar  
 31  13  33  1   
 32  14  34  1   
 33  14  35  1   
 34  15  18  ar  
 35  15  36  1   
 36  16  19  1   
 37  16  37  1   
 38  16  38  1   
 39  17  18  ar  
 40  17  39  1   
 41  18  40  1   
 42  19  41  1   
 43  19  42  1   
 44  19  43  1   
@<TRIPOS>SUBSTRUCTURE
  1 ****   4 GROUP 4 **** **** 0

# MOE 2024.06 (io_trps.svl 2023.06)
