@<TRIPOS>MOLECULE
NONAME
34 36 1 0 0 
SMALL
USER_CHARGES


@<TRIPOS>ATOM
  1 O       -0.6090    -0.0500     0.0660 O.2   1 <1>  -0.5700 
  2 C       -1.5940    -0.7640     0.0530 C.2   1 <1>   0.7060 
  3 O       -2.7860    -0.1690     0.0720 O.3   1 <1>  -0.2330 
  4 C       -1.5450    -2.1980     0.0250 C.2   1 <1>  -0.1240 
  5 C       -3.9600    -0.8410     0.0490 C.ar  1 <1>   0.0820 
  6 C       -2.6880    -2.9300     0.0290 C.2   1 <1>  -0.1670 
  7 C       -0.1550    -2.8340     0.0020 C.3   1 <1>  -0.0220 
  8 C       -3.9550    -2.2450     0.0120 C.ar  1 <1>   0.0280 
  9 C       -5.1460    -0.1090     0.0500 C.ar  1 <1>  -0.1440 
 10 C       -2.6690    -4.4600     0.0440 C.3   1 <1>  -0.0220 
 11 C       -0.1910    -4.3140    -0.3950 C.3   1 <1>  -0.1600 
 12 C       -5.1950    -2.8870    -0.0500 C.ar  1 <1>  -0.1500 
 13 C       -6.3620    -0.7800    -0.0100 C.ar  1 <1>   0.0820 
 14 C       -5.1110     1.4200     0.1050 C.3   1 <1>  -0.0960 
 15 C       -1.2910    -5.0430     0.3790 C.3   1 <1>  -0.1600 
 16 C       -6.3740    -2.1740    -0.0600 C.ar  1 <1>  -0.1500 
 17 O       -7.5030    -0.0460    -0.0270 O.3   1 <1>  -0.3630 
 18 C       -8.7830    -0.6350    -0.0960 C.3   1 <1>   0.0400 
 19 H        0.2820    -2.7340     0.9800 H     1 <1>   0.0800 
 20 H        0.4770    -2.3080    -0.6930 H     1 <1>   0.0800 
 21 H       -2.9790    -4.8150    -0.9240 H     1 <1>   0.0800 
 22 H       -3.3660    -4.8290     0.7760 H     1 <1>   0.0800 
 23 H        0.7650    -4.7650    -0.1930 H     1 <1>   0.0800 
 24 H       -0.3830    -4.3960    -1.4510 H     1 <1>   0.0800 
 25 H       -5.2490    -3.9580    -0.0950 H     1 <1>   0.1500 
 26 H       -4.2410     1.7740     0.6270 H     1 <1>   0.0800 
 27 H       -5.9720     1.8070     0.6180 H     1 <1>   0.0800 
 28 H       -5.1000     1.8150    -0.8950 H     1 <1>   0.0800 
 29 H       -1.2750    -6.0920     0.1410 H     1 <1>   0.0800 
 30 H       -1.1080    -4.9390     1.4350 H     1 <1>   0.0800 
 31 H       -7.2980    -2.7160    -0.1090 H     1 <1>   0.1500 
 32 H       -9.5130     0.1540    -0.0970 H     1 <1>   0.0800 
 33 H       -8.9250    -1.2630     0.7650 H     1 <1>   0.0800 
 34 H       -8.8570    -1.2020    -1.0070 H     1 <1>   0.0800 
@<TRIPOS>BOND
  1   1   2  2   
  2   2   3  1   
  3   2   4  1   
  4   3   5  1   
  5   4   6  2   
  6   4   7  1   
  7   5   8  ar  
  8   5   9  ar  
  9   6   8  1   
 10   6  10  1   
 11   7  11  1   
 12   7  19  1   
 13   7  20  1   
 14   8  12  ar  
 15   9  13  ar  
 16   9  14  1   
 17  10  15  1   
 18  10  21  1   
 19  10  22  1   
 20  11  15  1   
 21  11  23  1   
 22  11  24  1   
 23  12  16  ar  
 24  12  25  1   
 25  13  16  ar  
 26  13  17  1   
 27  14  26  1   
 28  14  27  1   
 29  14  28  1   
 30  15  29  1   
 31  15  30  1   
 32  16  31  1   
 33  17  18  1   
 34  18  32  1   
 35  18  33  1   
 36  18  34  1   
@<TRIPOS>SUBSTRUCTURE
  1 ****   8 GROUP 4 **** **** 0

# MOE 2024.06 (io_trps.svl 2023.06)
