@<TRIPOS>MOLECULE
NONAME
49 51 1 0 0 
SMALL
USER_CHARGES


@<TRIPOS>ATOM
  1 O       -0.1070     0.5550    -1.5820 O.2   1 <1>  -0.5700 
  2 C       -0.1750     1.5090    -0.8350 C.2   1 <1>   0.5440 
  3 N        0.9050     1.8280    -0.0620 N.am  1 <1>  -0.7300 
  4 C       -1.3910     2.3020    -0.7740 C.ar  1 <1>   0.0860 
  5 C        2.1780     1.0880    -0.0270 C.3   1 <1>   0.2200 
  6 C       -1.8190     2.9170     0.4030 C.ar  1 <1>  -0.1500 
  7 C       -2.1880     2.4680    -1.9050 C.ar  1 <1>  -0.1500 
  8 C        2.5050     0.7340     1.4270 C.3   1 <1>  -0.1600 
  9 C        3.2760     1.9590    -0.6480 C.3   1 <1>  -0.1600 
 10 C       -2.9880     3.6550     0.4500 C.ar  1 <1>  -0.1500 
 11 C       -3.3580     3.2040    -1.8690 C.ar  1 <1>  -0.1500 
 12 C        3.8770     0.0530     1.5380 C.3   1 <1>  -0.1600 
 13 C        4.6490     1.2800    -0.5400 C.3   1 <1>  -0.1600 
 14 C       -3.7730     3.7950    -0.6850 C.ar  1 <1>  -0.1430 
 15 C        4.9790     0.9210     0.9150 C.3   1 <1>  -0.1600 
 16 C       -5.0770     4.5690    -0.6360 C.3   1 <1>   0.4860 
 17 N       -6.1050     3.7190     0.0260 N.4   1 <1>  -0.9590 
 18 C       -6.3570     2.4450    -0.7390 C.3   1 <1>   0.3430 
 19 C       -7.3890     4.4660     0.2560 C.3   1 <1>   0.3430 
 20 C       -7.4970     1.6240    -0.1090 C.3   1 <1>   0.1200 
 21 C       -8.4800     3.5470     0.8390 C.3   1 <1>   0.1200 
 22 O       -8.6400     2.4160     0.0330 O.3   1 <1>  -0.5600 
 23 H        0.9110     2.7000     0.4630 H     1 <1>   0.3700 
 24 H        2.0890     0.1770    -0.5970 H     1 <1>   0.0800 
 25 H       -1.2280     2.8050     1.2960 H     1 <1>   0.1500 
 26 H       -1.8740     2.0040    -2.8270 H     1 <1>   0.1500 
 27 H        1.7480     0.0710     1.8090 H     1 <1>   0.0800 
 28 H        2.5100     1.6290     2.0250 H     1 <1>   0.0800 
 29 H        3.3140     2.9080    -0.1430 H     1 <1>   0.0800 
 30 H        3.0450     2.1310    -1.6850 H     1 <1>   0.0800 
 31 H       -3.2740     4.1130     1.3820 H     1 <1>   0.1500 
 32 H       -3.9330     3.3040    -2.7740 H     1 <1>   0.1500 
 33 H        3.8430    -0.8970     1.0320 H     1 <1>   0.0800 
 34 H        4.1050    -0.1330     2.5740 H     1 <1>   0.0800 
 35 H        5.4080     1.9360    -0.9320 H     1 <1>   0.0800 
 36 H        4.6490     0.3840    -1.1370 H     1 <1>   0.0800 
 37 H        5.9170     0.3930     0.9510 H     1 <1>   0.0800 
 38 H        5.0890     1.8250     1.4890 H     1 <1>   0.0800 
 39 H       -5.3920     4.8250    -1.6350 H     1 <1>   0.0800 
 40 H       -4.9310     5.4800    -0.0800 H     1 <1>   0.0800 
 41 H       -5.7210     3.4420     0.9370 H     1 <1>   0.4500 
 42 H       -5.4620     1.8450    -0.7670 H     1 <1>   0.0800 
 43 H       -6.6300     2.6770    -1.7560 H     1 <1>   0.0800 
 44 H       -7.7510     4.8660    -0.6770 H     1 <1>   0.0800 
 45 H       -7.2240     5.2920     0.9290 H     1 <1>   0.0800 
 46 H       -7.2150     1.2410     0.8570 H     1 <1>   0.0800 
 47 H       -7.7510     0.7930    -0.7440 H     1 <1>   0.0800 
 48 H       -9.4240     4.0640     0.8670 H     1 <1>   0.0800 
 49 H       -8.2350     3.2300     1.8380 H     1 <1>   0.0800 
@<TRIPOS>BOND
  1   1   2  2   
  2   2   3  am  
  3   2   4  1   
  4   3   5  1   
  5   3  23  1   
  6   4   6  ar  
  7   4   7  ar  
  8   5   8  1   
  9   5   9  1   
 10   5  24  1   
 11   6  10  ar  
 12   6  25  1   
 13   7  11  ar  
 14   7  26  1   
 15   8  12  1   
 16   8  27  1   
 17   8  28  1   
 18   9  13  1   
 19   9  29  1   
 20   9  30  1   
 21  10  14  ar  
 22  10  31  1   
 23  11  14  ar  
 24  11  32  1   
 25  12  15  1   
 26  12  33  1   
 27  12  34  1   
 28  13  15  1   
 29  13  35  1   
 30  13  36  1   
 31  14  16  1   
 32  15  37  1   
 33  15  38  1   
 34  16  17  1   
 35  16  39  1   
 36  16  40  1   
 37  17  18  1   
 38  17  19  1   
 39  17  41  1   
 40  18  20  1   
 41  18  42  1   
 42  18  43  1   
 43  19  21  1   
 44  19  44  1   
 45  19  45  1   
 46  20  22  1   
 47  20  46  1   
 48  20  47  1   
 49  21  22  1   
 50  21  48  1   
 51  21  49  1   
@<TRIPOS>SUBSTRUCTURE
  1 ****   4 GROUP 4 **** **** 0

# MOE 2024.06 (io_trps.svl 2023.06)
