@<TRIPOS>MOLECULE
NONAME
34 35 1 0 0 
SMALL
USER_CHARGES


@<TRIPOS>ATOM
  1 O       -0.7530    -0.7540     2.4830 O.3   1 <1>  -0.2800 
  2 C       -1.6820    -1.6270     2.1570 C.2   1 <1>  -0.0100 
  3 C       -0.1830    -0.3390     1.3710 C.2   1 <1>  -0.0100 
  4 C       -1.7360    -1.7830     0.8150 C.2   1 <1>  -0.1810 
  5 C       -0.7430    -0.9370     0.2980 C.2   1 <1>  -0.1500 
  6 C       -2.6560    -2.6710     0.0070 C.3   1 <1>   0.5240 
  7 N       -3.9620    -1.9840    -0.1500 N.4   1 <1>  -0.9590 
  8 C       -5.0260    -2.8260    -0.7860 C.3   1 <1>   0.3430 
  9 C       -3.8830    -0.6350    -0.8040 C.3   1 <1>   0.3430 
 10 C       -6.3920    -2.0950    -0.7870 C.3   1 <1>   0.1100 
 11 C       -5.2660     0.0620    -0.8120 C.3   1 <1>   0.1100 
 12 N       -6.3200    -0.7510    -0.1560 N.3   1 <1>  -0.8100 
 13 C       -7.6200    -0.0460    -0.1940 C.3   1 <1>   0.1100 
 14 C       -8.6230    -0.6420     0.8030 C.3   1 <1>   0.1200 
 15 O       -9.8060     0.0760     0.7380 O.3   1 <1>  -0.6800 
 16 H       -2.2510    -2.0810     2.9510 H     1 <1>   0.1500 
 17 H        0.6170     0.3810     1.4380 H     1 <1>   0.1500 
 18 H       -0.4810    -0.8030    -0.7380 H     1 <1>   0.1500 
 19 H       -2.7940    -3.6050     0.5280 H     1 <1>   0.0800 
 20 H       -2.2180    -2.8750    -0.9560 H     1 <1>   0.0800 
 21 H       -4.3320    -1.7640     0.7870 H     1 <1>   0.4500 
 22 H       -5.1310    -3.7540    -0.2490 H     1 <1>   0.0800 
 23 H       -4.7530    -3.0630    -1.8010 H     1 <1>   0.0800 
 24 H       -3.5280    -0.7320    -1.8160 H     1 <1>   0.0800 
 25 H       -3.1870    -0.0090    -0.2700 H     1 <1>   0.0800 
 26 H       -7.1030    -2.7070    -0.2590 H     1 <1>   0.0800 
 27 H       -6.7410    -2.0050    -1.8020 H     1 <1>   0.0800 
 28 H       -5.5480     0.2730    -1.8310 H     1 <1>   0.0800 
 29 H       -5.1760     1.0060    -0.3020 H     1 <1>   0.0800 
 30 H       -8.0340    -0.0870    -1.1890 H     1 <1>   0.0800 
 31 H       -7.4670     0.9860     0.0710 H     1 <1>   0.0800 
 32 H       -8.2470    -0.5870     1.8100 H     1 <1>   0.0800 
 33 H       -8.8560    -1.6610     0.5550 H     1 <1>   0.0800 
 34 H       -9.7060     0.9600     1.1420 H     1 <1>   0.4000 
@<TRIPOS>BOND
  1   1   2  1   
  2   1   3  1   
  3   2   4  2   
  4   2  16  1   
  5   3   5  2   
  6   3  17  1   
  7   4   5  1   
  8   4   6  1   
  9   5  18  1   
 10   6   7  1   
 11   6  19  1   
 12   6  20  1   
 13   7   8  1   
 14   7   9  1   
 15   7  21  1   
 16   8  10  1   
 17   8  22  1   
 18   8  23  1   
 19   9  11  1   
 20   9  24  1   
 21   9  25  1   
 22  10  12  1   
 23  10  26  1   
 24  10  27  1   
 25  11  12  1   
 26  11  28  1   
 27  11  29  1   
 28  12  13  1   
 29  13  14  1   
 30  13  30  1   
 31  13  31  1   
 32  14  15  1   
 33  14  32  1   
 34  14  33  1   
 35  15  34  1   
@<TRIPOS>SUBSTRUCTURE
  1 ****   7 GROUP 4 **** **** 0

# MOE 2024.06 (io_trps.svl 2023.06)
