@<TRIPOS>MOLECULE
NONAME
44 45 1 0 0 
SMALL
USER_CHARGES


@<TRIPOS>ATOM
  1 O        8.3650     0.8180     1.3940 O.3   1 <1>  -0.2800 
  2 C        7.3250     0.2590     0.7960 C.2   1 <1>  -0.0400 
  3 C        7.9290     1.8980     2.0160 C.2   1 <1>  -0.0100 
  4 C        6.2050     0.9810     1.0170 C.2   1 <1>  -0.1500 
  5 C        7.5550    -1.0050    -0.0020 C.3   1 <1>   0.5230 
  6 C        6.6030     2.0560     1.8210 C.2   1 <1>  -0.1500 
  7 N        8.7870    -0.7450    -0.7960 N.4   1 <1>  -0.9060 
  8 C        9.8310    -1.8070    -0.8370 C.3   1 <1>   0.5030 
  9 C       11.0010    -1.2720    -1.6840 C.3   1 <1>  -0.1600 
 10 C       10.3560    -2.1220     0.5810 C.3   1 <1>  -0.1600 
 11 C        9.2160    -3.0750    -1.4880 C.3   1 <1>  -0.0220 
 12 C       11.7730    -0.1270    -1.0230 C.3   1 <1>   0.3430 
 13 C       11.1280    -0.9730     1.2290 C.3   1 <1>   0.3430 
 14 C       10.1890    -4.2360    -1.6510 C.2   1 <1>  -0.2880 
 15 N       12.2370    -0.5390     0.3340 N.4   1 <1>  -0.9590 
 16 C       10.1730    -5.3500    -0.9120 C.2   1 <1>  -0.3000 
 17 C       13.0340     0.5340     1.0000 C.3   1 <1>   0.3430 
 18 C       14.3880     0.6730     0.3150 C.3   1 <1>  -0.2400 
 19 H        8.6170     2.5050     2.5820 H     1 <1>   0.1500 
 20 H        5.1940     0.8170     0.6800 H     1 <1>   0.1500 
 21 H        6.7100    -1.2120    -0.6400 H     1 <1>   0.0800 
 22 H        7.6930    -1.8300     0.6760 H     1 <1>   0.0800 
 23 H        5.9550     2.8330     2.1940 H     1 <1>   0.1500 
 24 H        9.1490     0.1170    -0.3720 H     1 <1>   0.4500 
 25 H        8.4910    -0.4950    -1.7470 H     1 <1>   0.4500 
 26 H       10.6480    -0.9570    -2.6500 H     1 <1>   0.0800 
 27 H       11.7110    -2.0590    -1.8630 H     1 <1>   0.0800 
 28 H       11.0280    -2.9620     0.5310 H     1 <1>   0.0800 
 29 H        9.5590    -2.4280     1.2330 H     1 <1>   0.0800 
 30 H        8.8240    -2.8390    -2.4620 H     1 <1>   0.0800 
 31 H        8.3980    -3.4300    -0.8870 H     1 <1>   0.0800 
 32 H       11.1500     0.7490    -0.9450 H     1 <1>   0.0800 
 33 H       12.6220     0.1260    -1.6400 H     1 <1>   0.0800 
 34 H       11.5320    -1.3040     2.1740 H     1 <1>   0.0800 
 35 H       10.4700    -0.1430     1.4260 H     1 <1>   0.0800 
 36 H       10.9060    -4.1040    -2.4460 H     1 <1>   0.1500 
 37 H       12.8870    -1.3350     0.2250 H     1 <1>   0.4500 
 38 H       10.8620    -6.1690    -1.0520 H     1 <1>   0.1500 
 39 H        9.4780    -5.5610    -0.1160 H     1 <1>   0.1500 
 40 H       13.1990     0.2760     2.0350 H     1 <1>   0.0800 
 41 H       12.5040     1.4740     0.9700 H     1 <1>   0.0800 
 42 H       14.9220    -0.2610     0.3180 H     1 <1>   0.0800 
 43 H       14.9810     1.3900     0.8570 H     1 <1>   0.0800 
 44 H       14.2920     1.0350    -0.6930 H     1 <1>   0.0800 
@<TRIPOS>BOND
  1   1   2  1   
  2   1   3  1   
  3   2   4  2   
  4   2   5  1   
  5   3   6  2   
  6   3  19  1   
  7   4   6  1   
  8   4  20  1   
  9   5   7  1   
 10   5  21  1   
 11   5  22  1   
 12   6  23  1   
 13   7   8  1   
 14   7  24  1   
 15   7  25  1   
 16   8   9  1   
 17   8  10  1   
 18   8  11  1   
 19   9  12  1   
 20   9  26  1   
 21   9  27  1   
 22  10  13  1   
 23  10  28  1   
 24  10  29  1   
 25  11  14  1   
 26  11  30  1   
 27  11  31  1   
 28  12  15  1   
 29  12  32  1   
 30  12  33  1   
 31  13  15  1   
 32  13  34  1   
 33  13  35  1   
 34  14  16  2   
 35  14  36  1   
 36  15  17  1   
 37  15  37  1   
 38  16  38  1   
 39  16  39  1   
 40  17  18  1   
 41  17  40  1   
 42  17  41  1   
 43  18  42  1   
 44  18  43  1   
 45  18  44  1   
@<TRIPOS>SUBSTRUCTURE
  1 ****   7 GROUP 4 **** **** 0

# MOE 2024.06 (io_trps.svl 2023.06)
