@<TRIPOS>MOLECULE
NONAME
36 37 1 0 0 
SMALL
USER_CHARGES


@<TRIPOS>ATOM
  1 O        0.6180     1.2600    -0.8830 O.2   1 <1>  -0.5700 
  2 C        0.2550     2.0610    -0.0450 C.2   1 <1>   0.5440 
  3 N        1.1460     2.4580     0.9120 N.am  1 <1>  -0.7300 
  4 C       -1.0900     2.6090    -0.0440 C.ar  1 <1>   0.0860 
  5 C        2.5430     1.9560     1.0470 C.3   1 <1>   0.1400 
  6 C       -2.2410     1.8110    -0.0220 C.ar  1 <1>  -0.1430 
  7 C       -1.2580     3.9950    -0.0520 C.ar  1 <1>  -0.1500 
  8 C        3.4420     2.4220    -0.1090 C.3   1 <1>   0.2000 
  9 C       -3.4960     2.3980    -0.0060 C.ar  1 <1>  -0.1500 
 10 C       -2.1400     0.2910    -0.0140 C.3   1 <1>  -0.0960 
 11 C       -2.5100     4.5820    -0.0350 C.ar  1 <1>  -0.1430 
 12 O        4.7680     2.1430     0.1980 O.3   1 <1>  -0.5600 
 13 C        3.4370     3.9230    -0.3710 C.3   1 <1>  -0.1600 
 14 C       -3.6320     3.7740    -0.0100 C.ar  1 <1>  -0.1500 
 15 C       -2.6640     6.0920    -0.0440 C.3   1 <1>  -0.0970 
 16 C        5.6060     2.9110    -0.6030 C.3   1 <1>   0.1200 
 17 C        4.8270     4.1830    -0.9310 C.3   1 <1>  -0.1600 
 18 H        0.8210     3.0800     1.6530 H     1 <1>   0.3700 
 19 H        2.5280     0.8800     1.0610 H     1 <1>   0.0800 
 20 H        2.9520     2.3100     1.9760 H     1 <1>   0.0800 
 21 H       -0.3820     4.6180    -0.0780 H     1 <1>   0.1500 
 22 H        3.1970     1.8810    -1.0080 H     1 <1>   0.0800 
 23 H       -4.3810     1.7860     0.0090 H     1 <1>   0.1500 
 24 H       -1.4730    -0.0350     0.7640 H     1 <1>   0.0800 
 25 H       -1.7580    -0.0540    -0.9590 H     1 <1>   0.0800 
 26 H       -3.1000    -0.1630     0.1510 H     1 <1>   0.0800 
 27 H        3.3030     4.4550     0.5550 H     1 <1>   0.0800 
 28 H        2.6540     4.1970    -1.0560 H     1 <1>   0.0800 
 29 H       -4.6160     4.2110     0.0040 H     1 <1>   0.1500 
 30 H       -1.7550     6.5670    -0.3670 H     1 <1>   0.0800 
 31 H       -2.9050     6.4400     0.9450 H     1 <1>   0.0800 
 32 H       -3.4530     6.3800    -0.7150 H     1 <1>   0.0800 
 33 H        5.8240     2.3460    -1.4940 H     1 <1>   0.0800 
 34 H        6.5130     3.1130    -0.0600 H     1 <1>   0.0800 
 35 H        5.2820     5.0420    -0.4710 H     1 <1>   0.0800 
 36 H        4.7990     4.3270    -1.9970 H     1 <1>   0.0800 
@<TRIPOS>BOND
  1   1   2  2   
  2   2   3  am  
  3   2   4  1   
  4   3   5  1   
  5   3  18  1   
  6   4   6  ar  
  7   4   7  ar  
  8   5   8  1   
  9   5  19  1   
 10   5  20  1   
 11   6   9  ar  
 12   6  10  1   
 13   7  11  ar  
 14   7  21  1   
 15   8  12  1   
 16   8  13  1   
 17   8  22  1   
 18   9  14  ar  
 19   9  23  1   
 20  10  24  1   
 21  10  25  1   
 22  10  26  1   
 23  11  14  ar  
 24  11  15  1   
 25  12  16  1   
 26  13  17  1   
 27  13  27  1   
 28  13  28  1   
 29  14  29  1   
 30  15  30  1   
 31  15  31  1   
 32  15  32  1   
 33  16  17  1   
 34  16  33  1   
 35  16  34  1   
 36  17  35  1   
 37  17  36  1   
@<TRIPOS>SUBSTRUCTURE
  1 ****   2 GROUP 4 **** **** 0

# MOE 2024.06 (io_trps.svl 2023.06)
