@<TRIPOS>MOLECULE
NONAME
37 38 1 0 0 
SMALL
USER_CHARGES


@<TRIPOS>ATOM
  1 O       -0.1990    -0.2510     0.4760 O.2   1 <1>  -0.5700 
  2 C       -0.8000    -1.2500     0.1370 C.2   1 <1>   0.6160 
  3 N       -2.0910    -1.1350    -0.2780 N.am  1 <1>  -0.7300 
  4 C       -0.1520    -2.5290     0.1820 C.2   1 <1>  -0.1360 
  5 C       -2.9020     0.1040    -0.2960 C.3   1 <1>   0.1400 
  6 C       -0.6480    -3.7450    -0.1510 C.2   1 <1>  -0.1780 
  7 C       -4.2870    -0.1660     0.3110 C.3   1 <1>   0.2000 
  8 C        0.0080    -5.0300    -0.1050 C.ar  1 <1>   0.0280 
  9 O       -4.8620    -1.2950    -0.2720 O.3   1 <1>  -0.5600 
 10 C       -5.3030     0.9410     0.0730 C.3   1 <1>  -0.1600 
 11 C        1.3430    -5.1900     0.2660 C.ar  1 <1>  -0.1500 
 12 C       -0.7000    -6.1820    -0.4420 C.ar  1 <1>  -0.1500 
 13 C       -6.2490    -1.2570    -0.1440 C.3   1 <1>   0.1200 
 14 C       -6.6250     0.1960     0.1400 C.3   1 <1>  -0.1600 
 15 C        1.9390    -6.4370     0.2990 C.ar  1 <1>  -0.1500 
 16 C       -0.1080    -7.4320    -0.4110 C.ar  1 <1>  -0.1500 
 17 C        1.2190    -7.5690    -0.0410 C.ar  1 <1>  -0.1430 
 18 C        1.8720    -8.9390    -0.0040 C.3   1 <1>  -0.0970 
 19 H       -2.6440    -1.9700    -0.4830 H     1 <1>   0.3700 
 20 H        0.8560    -2.4390     0.5360 H     1 <1>   0.1500 
 21 H       -2.4080     0.8830     0.2590 H     1 <1>   0.0800 
 22 H       -3.0110     0.4340    -1.3140 H     1 <1>   0.0800 
 23 H       -1.6630    -3.8030    -0.5010 H     1 <1>   0.1500 
 24 H       -4.1930    -0.3600     1.3660 H     1 <1>   0.0800 
 25 H       -5.2280     1.7210     0.8100 H     1 <1>   0.0800 
 26 H       -5.1650     1.3610    -0.9080 H     1 <1>   0.0800 
 27 H        1.9330    -4.3340     0.5340 H     1 <1>   0.1500 
 28 H       -1.7310    -6.1040    -0.7330 H     1 <1>   0.1500 
 29 H       -6.6820    -1.6120    -1.0640 H     1 <1>   0.0800 
 30 H       -6.5330    -1.9030     0.6690 H     1 <1>   0.0800 
 31 H       -7.3330     0.5680    -0.5800 H     1 <1>   0.0800 
 32 H       -7.0560     0.2680     1.1230 H     1 <1>   0.0800 
 33 H        2.9710    -6.5240     0.5920 H     1 <1>   0.1500 
 34 H       -0.6850    -8.3000    -0.6770 H     1 <1>   0.1500 
 35 H        2.9230    -8.8610    -0.2170 H     1 <1>   0.0800 
 36 H        1.4260    -9.5880    -0.7360 H     1 <1>   0.0800 
 37 H        1.7460    -9.3760     0.9700 H     1 <1>   0.0800 
@<TRIPOS>BOND
  1   1   2  2   
  2   2   3  am  
  3   2   4  1   
  4   3   5  1   
  5   3  19  1   
  6   4   6  2   
  7   4  20  1   
  8   5   7  1   
  9   5  21  1   
 10   5  22  1   
 11   6   8  1   
 12   6  23  1   
 13   7   9  1   
 14   7  10  1   
 15   7  24  1   
 16   8  11  ar  
 17   8  12  ar  
 18   9  13  1   
 19  10  14  1   
 20  10  25  1   
 21  10  26  1   
 22  11  15  ar  
 23  11  27  1   
 24  12  16  ar  
 25  12  28  1   
 26  13  14  1   
 27  13  29  1   
 28  13  30  1   
 29  14  31  1   
 30  14  32  1   
 31  15  17  ar  
 32  15  33  1   
 33  16  17  ar  
 34  16  34  1   
 35  17  18  1   
 36  18  35  1   
 37  18  36  1   
 38  18  37  1   
@<TRIPOS>SUBSTRUCTURE
  1 ****   6 GROUP 4 **** **** 0

# MOE 2024.06 (io_trps.svl 2023.06)
