@<TRIPOS>MOLECULE
NONAME
57 58 1 0 0 
SMALL
USER_CHARGES


@<TRIPOS>ATOM
  1 O       -0.4260     0.1240     1.1640 O.2   1 <1>  -0.5700 
  2 C       -0.9410     1.2260     1.2090 C.2   1 <1>   0.5440 
  3 N       -2.2700     1.3610     0.8600 N.am  1 <1>  -0.6600 
  4 C       -0.1310     2.3600     1.6120 C.ar  1 <1>   0.0860 
  5 C       -2.8920     2.6570     0.4530 C.3   1 <1>   0.1400 
  6 C       -3.1590     0.1760     0.6920 C.3   1 <1>   0.1400 
  7 C        1.0870     2.6170     0.9900 C.ar  1 <1>  -0.1500 
  8 C       -0.5340     3.2210     2.6320 C.ar  1 <1>  -0.1500 
  9 C       -3.3580     2.5840    -1.0070 C.3   1 <1>  -0.0190 
 10 C       -3.6150     0.0750    -0.7670 C.3   1 <1>  -0.1600 
 11 C        1.8840     3.6970     1.3410 C.ar  1 <1>   0.1170 
 12 C        0.2450     4.3030     3.0000 C.ar  1 <1>  -0.1500 
 13 C       -4.0220     3.8930    -1.3990 C.2   1 <1>   0.6590 
 14 C       -4.2850     1.3740    -1.2410 C.3   1 <1>  -0.1600 
 15 N        3.1020     3.8780     0.6680 N.am  1 <1>  -0.5470 
 16 C        1.4450     4.5390     2.3570 C.ar  1 <1>  -0.1500 
 17 O       -3.5890     4.5760    -2.2910 O.2   1 <1>  -0.5700 
 18 O       -5.0960     4.2420    -0.7020 O.3   1 <1>  -0.4300 
 19 C        3.8790     4.9930     0.4980 C.2   1 <1>   0.5690 
 20 C       -5.7970     5.4320    -0.9800 C.3   1 <1>   0.1200 
 21 O        3.5770     6.0830     0.9200 O.2   1 <1>  -0.5700 
 22 C        5.1880     4.8320    -0.2820 C.3   1 <1>  -0.0190 
 23 C       -6.9730     5.5260    -0.0140 C.3   1 <1>  -0.2400 
 24 C        6.3800     5.1680     0.6460 C.3   1 <1>  -0.1600 
 25 C        5.1520     5.6880    -1.5720 C.3   1 <1>  -0.1600 
 26 C        7.7630     4.9120     0.0340 C.3   1 <1>  -0.2400 
 27 C        5.8230     5.0130    -2.7780 C.3   1 <1>  -0.2400 
 28 H       -2.1920     3.4680     0.5530 H     1 <1>   0.0800 
 29 H       -3.7310     2.8560     1.0980 H     1 <1>   0.0800 
 30 H       -4.0130     0.2860     1.3360 H     1 <1>   0.0800 
 31 H       -2.6470    -0.7290     0.9750 H     1 <1>   0.0800 
 32 H        1.4080     1.9470     0.2130 H     1 <1>   0.1500 
 33 H       -1.4640     3.0330     3.1400 H     1 <1>   0.1500 
 34 H       -2.4850     2.4710    -1.6240 H     1 <1>   0.0800 
 35 H       -4.3030    -0.7450    -0.8670 H     1 <1>   0.0800 
 36 H       -2.7580    -0.1420    -1.3810 H     1 <1>   0.0800 
 37 H       -0.0780     4.9620     3.7870 H     1 <1>   0.1500 
 38 H       -4.5240     1.2970    -2.2880 H     1 <1>   0.0800 
 39 H       -5.2060     1.5140    -0.6990 H     1 <1>   0.0800 
 40 H        3.4450     3.0450     0.1940 H     1 <1>   0.3700 
 41 H        2.0430     5.3810     2.6570 H     1 <1>   0.1500 
 42 H       -6.1370     5.3960    -2.0020 H     1 <1>   0.0800 
 43 H       -5.1230     6.2620    -0.8540 H     1 <1>   0.0800 
 44 H        5.2710     3.7980    -0.5630 H     1 <1>   0.0800 
 45 H       -7.6290     4.6840    -0.1450 H     1 <1>   0.0800 
 46 H       -7.5290     6.4260    -0.2070 H     1 <1>   0.0800 
 47 H       -6.6190     5.5540     1.0010 H     1 <1>   0.0800 
 48 H        6.2920     4.5730     1.5390 H     1 <1>   0.0800 
 49 H        6.3160     6.2010     0.9480 H     1 <1>   0.0800 
 50 H        5.6030     6.6480    -1.3860 H     1 <1>   0.0800 
 51 H        4.1250     5.8750    -1.8400 H     1 <1>   0.0800 
 52 H        7.8300     3.9100    -0.3510 H     1 <1>   0.0800 
 53 H        8.5210     5.0400     0.7870 H     1 <1>   0.0800 
 54 H        7.9630     5.6120    -0.7570 H     1 <1>   0.0800 
 55 H        6.8610     4.8120    -2.5920 H     1 <1>   0.0800 
 56 H        5.7550     5.6570    -3.6370 H     1 <1>   0.0800 
 57 H        5.3300     4.0860    -3.0120 H     1 <1>   0.0800 
@<TRIPOS>BOND
  1   1   2  2   
  2   2   3  am  
  3   2   4  1   
  4   3   5  1   
  5   3   6  1   
  6   4   7  ar  
  7   4   8  ar  
  8   5   9  1   
  9   5  28  1   
 10   5  29  1   
 11   6  10  1   
 12   6  30  1   
 13   6  31  1   
 14   7  11  ar  
 15   7  32  1   
 16   8  12  ar  
 17   8  33  1   
 18   9  13  1   
 19   9  14  1   
 20   9  34  1   
 21  10  14  1   
 22  10  35  1   
 23  10  36  1   
 24  11  15  1   
 25  11  16  ar  
 26  12  16  ar  
 27  12  37  1   
 28  13  17  2   
 29  13  18  1   
 30  14  38  1   
 31  14  39  1   
 32  15  19  am  
 33  15  40  1   
 34  16  41  1   
 35  18  20  1   
 36  19  21  2   
 37  19  22  1   
 38  20  23  1   
 39  20  42  1   
 40  20  43  1   
 41  22  24  1   
 42  22  25  1   
 43  22  44  1   
 44  23  45  1   
 45  23  46  1   
 46  23  47  1   
 47  24  26  1   
 48  24  48  1   
 49  24  49  1   
 50  25  27  1   
 51  25  50  1   
 52  25  51  1   
 53  26  52  1   
 54  26  53  1   
 55  26  54  1   
 56  27  55  1   
 57  27  56  1   
 58  27  57  1   
@<TRIPOS>SUBSTRUCTURE
  1 ****   7 GROUP 4 **** **** 0

# MOE 2024.06 (io_trps.svl 2023.06)
