@<TRIPOS>MOLECULE
NONAME
32 32 1 0 0 
SMALL
USER_CHARGES


@<TRIPOS>ATOM
  1 BR       0.5950    -0.7310     2.3640 Br    1 <1>  -0.1110 
  2 C        0.2490    -2.0920     1.0400 C.ar  1 <1>   0.1110 
  3 C        1.3080    -2.6230     0.3150 C.ar  1 <1>   0.0830 
  4 C       -1.0590    -2.4980     0.8530 C.ar  1 <1>  -0.1500 
  5 O        2.5600    -2.1600     0.5730 O.3   1 <1>  -0.3630 
  6 C        1.0250    -3.6020    -0.6360 C.ar  1 <1>  -0.1500 
  7 C       -1.3220    -3.4720    -0.0960 C.ar  1 <1>  -0.1500 
  8 C        3.6820    -2.5940    -0.1650 C.3   1 <1>   0.1200 
  9 C       -0.2830    -4.0180    -0.8350 C.ar  1 <1>  -0.1500 
 10 C        4.9150    -1.8450     0.3580 C.3   1 <1>   0.2000 
 11 O        4.6430    -0.4750     0.3750 O.3   1 <1>  -0.6800 
 12 C        6.1750    -2.0910    -0.4990 C.3   1 <1>   0.3430 
 13 N        7.1610    -0.9780    -0.3130 N.4   1 <1>  -0.9590 
 14 C        8.0410    -0.7830    -1.5030 C.3   1 <1>   0.2630 
 15 C        7.9450    -1.1060     0.9510 C.3   1 <1>   0.2630 
 16 H       -1.8510    -2.0620     1.4350 H     1 <1>   0.1500 
 17 H        1.7980    -4.0530    -1.2280 H     1 <1>   0.1500 
 18 H       -2.3330    -3.8040    -0.2600 H     1 <1>   0.1500 
 19 H        3.5120    -2.3730    -1.2040 H     1 <1>   0.0800 
 20 H        3.7920    -3.6560    -0.0250 H     1 <1>   0.0800 
 21 H       -0.4970    -4.7750    -1.5710 H     1 <1>   0.1500 
 22 H        5.1040    -2.1520     1.3730 H     1 <1>   0.0800 
 23 H        3.7330    -0.3430     0.7360 H     1 <1>   0.4000 
 24 H        5.8710    -2.1240    -1.5320 H     1 <1>   0.0800 
 25 H        6.6180    -3.0420    -0.2540 H     1 <1>   0.0800 
 26 H        6.5390    -0.1470    -0.2050 H     1 <1>   0.4500 
 27 H        8.6660    -1.6480    -1.6540 H     1 <1>   0.0800 
 28 H        8.6720     0.0790    -1.3620 H     1 <1>   0.0800 
 29 H        7.4440    -0.6270    -2.3880 H     1 <1>   0.0800 
 30 H        8.5620    -1.9900     0.9240 H     1 <1>   0.0800 
 31 H        7.2800    -1.1710     1.7970 H     1 <1>   0.0800 
 32 H        8.5800    -0.2450     1.0840 H     1 <1>   0.0800 
@<TRIPOS>BOND
  1   1   2  1   
  2   2   3  ar  
  3   2   4  ar  
  4   3   5  1   
  5   3   6  ar  
  6   4   7  ar  
  7   4  16  1   
  8   5   8  1   
  9   6   9  ar  
 10   6  17  1   
 11   7   9  ar  
 12   7  18  1   
 13   8  10  1   
 14   8  19  1   
 15   8  20  1   
 16   9  21  1   
 17  10  11  1   
 18  10  12  1   
 19  10  22  1   
 20  11  23  1   
 21  12  13  1   
 22  12  24  1   
 23  12  25  1   
 24  13  14  1   
 25  13  15  1   
 26  13  26  1   
 27  14  27  1   
 28  14  28  1   
 29  14  29  1   
 30  15  30  1   
 31  15  31  1   
 32  15  32  1   
@<TRIPOS>SUBSTRUCTURE
  1 ****   5 GROUP 4 **** **** 0

# MOE 2024.06 (io_trps.svl 2023.06)
