@<TRIPOS>MOLECULE
NONAME
54 56 1 0 0 
SMALL
USER_CHARGES


@<TRIPOS>ATOM
  1 O       -0.1070    -1.4440     0.7220 O.3   1 <1>  -0.3630 
  2 C       -1.1130    -1.6390    -0.1880 C.ar  1 <1>   0.0830 
  3 C       -0.1270    -0.3400     1.6000 C.3   1 <1>   0.1200 
  4 C       -1.0150    -2.7290    -1.0740 C.ar  1 <1>   0.1000 
  5 C       -2.2200    -0.7960    -0.2590 C.ar  1 <1>  -0.1500 
  6 C        1.1400    -0.3860     2.4500 C.3   1 <1>  -0.2400 
  7 N        0.0510    -3.6400    -1.0880 N.pl3 1 <1>  -0.8380 
  8 C       -2.0280    -2.9310    -1.9990 C.ar  1 <1>  -0.1500 
  9 C       -3.2180    -1.0210    -1.1920 C.ar  1 <1>  -0.1500 
 10 C        1.3570    -3.1430    -1.6160 C.3   1 <1>   0.2090 
 11 C        0.1120    -4.6180     0.0380 C.3   1 <1>   0.2090 
 12 C       -3.1220    -2.0890    -2.0630 C.ar  1 <1>  -0.1500 
 13 C        2.3520    -2.7820    -0.4930 C.3   1 <1>   0.3430 
 14 C        1.1340    -4.2110     1.1190 C.3   1 <1>   0.3430 
 15 N        2.4850    -3.8660     0.5490 N.4   1 <1>  -0.9590 
 16 C        3.4420    -3.4780     1.6170 C.3   1 <1>   0.4860 
 17 C        4.8160    -3.2990     1.0020 C.ar  1 <1>  -0.1430 
 18 C        5.5830    -4.4040     0.6570 C.ar  1 <1>  -0.1500 
 19 C        5.3170    -2.0250     0.7760 C.ar  1 <1>  -0.1500 
 20 C        6.8320    -4.2390     0.0820 C.ar  1 <1>  -0.1500 
 21 C        6.5640    -1.8610     0.2000 C.ar  1 <1>  -0.1500 
 22 C        7.3280    -2.9600    -0.1510 C.ar  1 <1>   0.0830 
 23 O        8.5370    -2.7070    -0.7090 O.3   1 <1>  -0.3620 
 24 C        9.4410    -3.7420    -1.0200 C.3   1 <1>   0.1200 
 25 C       10.7080    -3.1070    -1.5840 C.3   1 <1>  -0.2400 
 26 H       -1.0040    -0.4120     2.2220 H     1 <1>   0.0800 
 27 H       -0.1590     0.5640     1.0150 H     1 <1>   0.0800 
 28 H       -2.3370     0.0440     0.3970 H     1 <1>   0.1500 
 29 H        1.1690    -1.2910     3.0280 H     1 <1>   0.0800 
 30 H        1.1420     0.4480     3.1290 H     1 <1>   0.0800 
 31 H        2.0110    -0.3130     1.8240 H     1 <1>   0.0800 
 32 H       -1.9530    -3.7620    -2.6760 H     1 <1>   0.1500 
 33 H       -4.0700    -0.3640    -1.2400 H     1 <1>   0.1500 
 34 H        1.1850    -2.2720    -2.2260 H     1 <1>   0.0800 
 35 H        1.7870    -3.8990    -2.2490 H     1 <1>   0.0800 
 36 H        0.3670    -5.5860    -0.3560 H     1 <1>   0.0800 
 37 H       -0.8630    -4.7000     0.4890 H     1 <1>   0.0800 
 38 H       -3.8970    -2.2650    -2.7890 H     1 <1>   0.1500 
 39 H        2.0130    -1.8730    -0.0260 H     1 <1>   0.0800 
 40 H        3.3130    -2.5800    -0.9380 H     1 <1>   0.0800 
 41 H        1.2280    -5.0170     1.8270 H     1 <1>   0.0800 
 42 H        0.7380    -3.3590     1.6460 H     1 <1>   0.0800 
 43 H        2.8650    -4.6910     0.0720 H     1 <1>   0.4500 
 44 H        3.4880    -4.2450     2.3720 H     1 <1>   0.0800 
 45 H        3.1250    -2.5590     2.0830 H     1 <1>   0.0800 
 46 H        5.2250    -5.4040     0.8340 H     1 <1>   0.1500 
 47 H        4.7520    -1.1480     1.0440 H     1 <1>   0.1500 
 48 H        7.4050    -5.1100    -0.1750 H     1 <1>   0.1500 
 49 H        6.9610    -0.8770     0.0210 H     1 <1>   0.1500 
 50 H        8.9840    -4.3880    -1.7490 H     1 <1>   0.0800 
 51 H        9.6590    -4.2880    -0.1180 H     1 <1>   0.0800 
 52 H       10.4780    -2.5500    -2.4740 H     1 <1>   0.0800 
 53 H       11.4210    -3.8720    -1.8310 H     1 <1>   0.0800 
 54 H       11.1490    -2.4510    -0.8540 H     1 <1>   0.0800 
@<TRIPOS>BOND
  1   1   2  1   
  2   1   3  1   
  3   2   4  ar  
  4   2   5  ar  
  5   3   6  1   
  6   3  26  1   
  7   3  27  1   
  8   4   7  1   
  9   4   8  ar  
 10   5   9  ar  
 11   5  28  1   
 12   6  29  1   
 13   6  30  1   
 14   6  31  1   
 15   7  10  1   
 16   7  11  1   
 17   8  12  ar  
 18   8  32  1   
 19   9  12  ar  
 20   9  33  1   
 21  10  13  1   
 22  10  34  1   
 23  10  35  1   
 24  11  14  1   
 25  11  36  1   
 26  11  37  1   
 27  12  38  1   
 28  13  15  1   
 29  13  39  1   
 30  13  40  1   
 31  14  15  1   
 32  14  41  1   
 33  14  42  1   
 34  15  16  1   
 35  15  43  1   
 36  16  17  1   
 37  16  44  1   
 38  16  45  1   
 39  17  18  ar  
 40  17  19  ar  
 41  18  20  ar  
 42  18  46  1   
 43  19  21  ar  
 44  19  47  1   
 45  20  22  ar  
 46  20  48  1   
 47  21  22  ar  
 48  21  49  1   
 49  22  23  1   
 50  23  24  1   
 51  24  25  1   
 52  24  50  1   
 53  24  51  1   
 54  25  52  1   
 55  25  53  1   
 56  25  54  1   
@<TRIPOS>SUBSTRUCTURE
  1 ****  13 GROUP 4 **** **** 0

# MOE 2024.06 (io_trps.svl 2023.06)
