@<TRIPOS>MOLECULE
NONAME
53 55 1 0 0 
SMALL
USER_CHARGES


@<TRIPOS>ATOM
  1 CL      -1.0490    -0.0550    -3.5840 Cl    1 <1>  -0.1770 
  2 C       -2.4220     0.1380    -2.5260 C.ar  1 <1>   0.1770 
  3 C       -3.6970     0.1190    -3.0580 C.ar  1 <1>  -0.1500 
  4 C       -2.2150     0.3070    -1.1710 C.ar  1 <1>  -0.1500 
  5 C       -4.7840     0.2740    -2.2160 C.ar  1 <1>  -0.1500 
  6 C       -3.3060     0.4620    -0.3330 C.ar  1 <1>  -0.1500 
  7 C       -4.5980     0.4490    -0.8480 C.ar  1 <1>  -0.1430 
  8 C       -5.7970     0.6290     0.0810 C.3   1 <1>   0.5020 
  9 N       -6.5920    -0.6140     0.0240 N.am  1 <1>  -0.7300 
 10 C       -6.6130     1.8740    -0.2970 C.2   1 <1>  -0.1240 
 11 C       -7.7990    -0.6980    -0.5560 C.2   1 <1>   0.6900 
 12 C       -7.8650     1.7130    -0.8140 C.2   1 <1>  -0.0290 
 13 C       -5.9180     3.1050    -0.0660 C.2   1 <1>   0.7060 
 14 O       -8.3580    -1.7600    -0.6930 O.2   1 <1>  -0.5700 
 15 N       -8.3850     0.4440    -0.9810 N.am  1 <1>  -0.5390 
 16 C       -8.8170     2.8350    -1.2550 C.3   1 <1>   0.2480 
 17 O       -6.2920     4.1770    -0.5000 O.2   1 <1>  -0.5700 
 18 O       -4.8080     3.0830     0.6800 O.3   1 <1>  -0.4300 
 19 N      -10.2260     2.5140    -0.9150 N.3   1 <1>  -0.8100 
 20 C       -4.0420     4.2460     0.9070 C.3   1 <1>   0.1200 
 21 C      -10.4420     2.5060     0.5560 C.3   1 <1>   0.1100 
 22 C      -11.1560     3.4740    -1.5590 C.3   1 <1>   0.1100 
 23 C       -2.8160     3.8510     1.7230 C.3   1 <1>  -0.2400 
 24 C      -11.9060     2.1730     0.9400 C.3   1 <1>   0.3430 
 25 C      -12.6370     3.2290    -1.1700 C.3   1 <1>   0.3430 
 26 N      -12.7770     2.0320    -0.2760 N.4   1 <1>  -0.9590 
 27 C      -14.1930     1.6950     0.0500 C.3   1 <1>   0.2630 
 28 H       -3.8330    -0.0160    -4.1160 H     1 <1>   0.1500 
 29 H       -1.2120     0.3180    -0.7820 H     1 <1>   0.1500 
 30 H       -5.7790     0.2560    -2.6300 H     1 <1>   0.1500 
 31 H       -3.1400     0.5980     0.7230 H     1 <1>   0.1500 
 32 H       -5.4520     0.7350     1.0960 H     1 <1>   0.0800 
 33 H       -6.0860    -1.4870     0.1550 H     1 <1>   0.3700 
 34 H       -9.3220     0.3350    -1.3670 H     1 <1>   0.3700 
 35 H       -8.7260     2.9390    -2.3230 H     1 <1>   0.0800 
 36 H       -8.5560     3.7770    -0.8090 H     1 <1>   0.0800 
 37 H       -4.6500     4.9590     1.4390 H     1 <1>   0.0800 
 38 H       -3.7530     4.6580    -0.0460 H     1 <1>   0.0800 
 39 H      -10.1820     3.4670     0.9680 H     1 <1>   0.0800 
 40 H       -9.7970     1.7780     1.0170 H     1 <1>   0.0800 
 41 H      -11.0620     3.3940    -2.6290 H     1 <1>   0.0800 
 42 H      -10.8880     4.4820    -1.2890 H     1 <1>   0.0800 
 43 H       -3.1160     3.4260     2.6650 H     1 <1>   0.0800 
 44 H       -2.2170     4.7220     1.9180 H     1 <1>   0.0800 
 45 H       -2.2200     3.1430     1.1770 H     1 <1>   0.0800 
 46 H      -12.2870     2.9510     1.5800 H     1 <1>   0.0800 
 47 H      -11.9150     1.2540     1.5020 H     1 <1>   0.0800 
 48 H      -13.2130     3.0860    -2.0690 H     1 <1>   0.0800 
 49 H      -13.0190     4.1040    -0.6730 H     1 <1>   0.0800 
 50 H      -12.3350     1.2650    -0.8090 H     1 <1>   0.4500 
 51 H      -14.6500     2.4960     0.6080 H     1 <1>   0.0800 
 52 H      -14.2370     0.7940     0.6400 H     1 <1>   0.0800 
 53 H      -14.7570     1.5390    -0.8550 H     1 <1>   0.0800 
@<TRIPOS>BOND
  1   1   2  1   
  2   2   3  ar  
  3   2   4  ar  
  4   3   5  ar  
  5   3  28  1   
  6   4   6  ar  
  7   4  29  1   
  8   5   7  ar  
  9   5  30  1   
 10   6   7  ar  
 11   6  31  1   
 12   7   8  1   
 13   8   9  1   
 14   8  10  1   
 15   8  32  1   
 16   9  11  am  
 17   9  33  1   
 18  10  12  2   
 19  10  13  1   
 20  11  14  2   
 21  11  15  am  
 22  12  15  1   
 23  12  16  1   
 24  13  17  2   
 25  13  18  1   
 26  15  34  1   
 27  16  19  1   
 28  16  35  1   
 29  16  36  1   
 30  18  20  1   
 31  19  21  1   
 32  19  22  1   
 33  20  23  1   
 34  20  37  1   
 35  20  38  1   
 36  21  24  1   
 37  21  39  1   
 38  21  40  1   
 39  22  25  1   
 40  22  41  1   
 41  22  42  1   
 42  23  43  1   
 43  23  44  1   
 44  23  45  1   
 45  24  26  1   
 46  24  46  1   
 47  24  47  1   
 48  25  26  1   
 49  25  48  1   
 50  25  49  1   
 51  26  27  1   
 52  26  50  1   
 53  27  51  1   
 54  27  52  1   
 55  27  53  1   
@<TRIPOS>SUBSTRUCTURE
  1 ****  10 GROUP 4 **** **** 0

# MOE 2024.06 (io_trps.svl 2023.06)
