@<TRIPOS>MOLECULE
NONAME
48 51 1 0 0 
SMALL
USER_CHARGES


@<TRIPOS>ATOM
  1 S       -0.7290    -2.3650    -1.3270 S.o2  1 <1>   1.4470 
  2 O       -0.7080    -3.7530    -1.7390 O.2   1 <1>  -0.6500 
  3 O       -0.6130    -1.3290    -2.3310 O.2   1 <1>  -0.6500 
  4 N        0.5520    -2.1400    -0.2400 N.am  1 <1>  -0.8490 
  5 C       -2.1950    -2.0840    -0.2950 C.ar  1 <1>  -0.0090 
  6 C        1.8040    -2.6810    -0.7780 C.3   1 <1>   0.1960 
  7 C        0.7120    -0.7310     0.1410 C.3   1 <1>   0.1960 
  8 C       -2.8960    -0.8860    -0.3490 C.ar  1 <1>  -0.1500 
  9 C       -2.6320    -3.0530     0.5990 C.ar  1 <1>  -0.1500 
 10 C        2.9130    -2.6090     0.2770 C.3   1 <1>  -0.1600 
 11 C        1.7730    -0.5950     1.2370 C.3   1 <1>  -0.1600 
 12 C       -4.0090    -0.6330     0.4500 C.ar  1 <1>   0.0860 
 13 C       -3.7320    -2.8330     1.4080 C.ar  1 <1>  -0.1500 
 14 C        3.1170    -1.1770     0.7840 C.3   1 <1>  -0.1600 
 15 C       -4.7040     0.6360     0.3670 C.2   1 <1>   0.5440 
 16 C       -4.4100    -1.6320     1.3340 C.ar  1 <1>  -0.1500 
 17 O       -4.0630     1.6680     0.4410 O.2   1 <1>  -0.5700 
 18 N       -6.0760     0.7160     0.2290 N.am  1 <1>  -0.4770 
 19 C       -7.0190    -0.2370    -0.1690 C.ar  1 <1>   0.1170 
 20 C       -6.7910     1.9600     0.6200 C.3   1 <1>   0.1400 
 21 C       -8.3020     0.1940     0.0900 C.ar  1 <1>  -0.1430 
 22 C       -6.8270    -1.4720    -0.7780 C.ar  1 <1>  -0.1500 
 23 C       -8.2760     1.5740     0.6990 C.3   1 <1>  -0.0170 
 24 C       -9.4030    -0.5860    -0.2070 C.ar  1 <1>  -0.1500 
 25 C       -7.9220    -2.2650    -1.0810 C.ar  1 <1>  -0.1500 
 26 C       -9.2060    -1.8260    -0.7930 C.ar  1 <1>  -0.1500 
 27 H        2.0910    -2.1300    -1.6590 H     1 <1>   0.0800 
 28 H        1.6650    -3.7130    -1.0580 H     1 <1>   0.0800 
 29 H       -0.2210    -0.3440     0.5150 H     1 <1>   0.0800 
 30 H        0.9990    -0.1460    -0.7190 H     1 <1>   0.0800 
 31 H       -2.5730    -0.1160    -1.0300 H     1 <1>   0.1500 
 32 H       -2.1010    -3.9890     0.6610 H     1 <1>   0.1500 
 33 H        3.8310    -2.9780    -0.1460 H     1 <1>   0.0800 
 34 H        2.6490    -3.2520     1.0980 H     1 <1>   0.0800 
 35 H        1.4300    -1.1100     2.1170 H     1 <1>   0.0800 
 36 H        1.8950     0.4430     1.4890 H     1 <1>   0.0800 
 37 H       -4.0570    -3.5960     2.0960 H     1 <1>   0.1500 
 38 H        3.5210    -0.5700    -0.0090 H     1 <1>   0.0800 
 39 H        3.8170    -1.1710     1.6020 H     1 <1>   0.0800 
 40 H       -5.2640    -1.4610     1.9670 H     1 <1>   0.1500 
 41 H       -6.6290     2.7080    -0.1360 H     1 <1>   0.0800 
 42 H       -6.4280     2.3190     1.5680 H     1 <1>   0.0800 
 43 H       -5.8410    -1.8170    -1.0250 H     1 <1>   0.1500 
 44 H       -8.8840     2.2650     0.1420 H     1 <1>   0.0800 
 45 H       -8.6050     1.5410     1.7220 H     1 <1>   0.0800 
 46 H      -10.3970    -0.2360     0.0090 H     1 <1>   0.1500 
 47 H       -7.7760    -3.2240    -1.5460 H     1 <1>   0.1500 
 48 H      -10.0520    -2.4480    -1.0300 H     1 <1>   0.1500 
@<TRIPOS>BOND
  1   1   2  2   
  2   1   3  2   
  3   1   4  am  
  4   1   5  1   
  5   4   6  1   
  6   4   7  1   
  7   5   8  ar  
  8   5   9  ar  
  9   6  10  1   
 10   6  27  1   
 11   6  28  1   
 12   7  11  1   
 13   7  29  1   
 14   7  30  1   
 15   8  12  ar  
 16   8  31  1   
 17   9  13  ar  
 18   9  32  1   
 19  10  14  1   
 20  10  33  1   
 21  10  34  1   
 22  11  14  1   
 23  11  35  1   
 24  11  36  1   
 25  12  15  1   
 26  12  16  ar  
 27  13  16  ar  
 28  13  37  1   
 29  14  38  1   
 30  14  39  1   
 31  15  17  2   
 32  15  18  am  
 33  16  40  1   
 34  18  19  1   
 35  18  20  1   
 36  19  21  ar  
 37  19  22  ar  
 38  20  23  1   
 39  20  41  1   
 40  20  42  1   
 41  21  23  1   
 42  21  24  ar  
 43  22  25  ar  
 44  22  43  1   
 45  23  44  1   
 46  23  45  1   
 47  24  26  ar  
 48  24  46  1   
 49  25  26  ar  
 50  25  47  1   
 51  26  48  1   
@<TRIPOS>SUBSTRUCTURE
  1 ****   8 GROUP 4 **** **** 0

# MOE 2024.06 (io_trps.svl 2023.06)
