@<TRIPOS>MOLECULE
NONAME
40 41 1 0 0 
SMALL
USER_CHARGES


@<TRIPOS>ATOM
  1 F        0.2680    -1.0300    -0.8500 F     1 <1>  -0.1900 
  2 C        1.5060    -1.4200    -0.6980 C.ar  1 <1>   0.1900 
  3 C        1.7610    -2.5460     0.0600 C.ar  1 <1>  -0.1500 
  4 C        2.5130    -0.6900    -1.2990 C.ar  1 <1>  -0.1500 
  5 C        3.0750    -2.9540     0.2190 C.ar  1 <1>  -0.1500 
  6 C        3.8220    -1.1080    -1.1320 C.ar  1 <1>  -0.1500 
  7 C        4.1070    -2.2370    -0.3750 C.ar  1 <1>  -0.1430 
  8 C        5.5510    -2.6760    -0.1990 C.3   1 <1>  -0.0160 
  9 C        6.2140    -1.8730     0.9200 C.3   1 <1>   0.1400 
 10 N        7.6290    -2.2830     1.0680 N.am  1 <1>  -0.7300 
 11 C        8.6510    -1.7400     0.3720 C.2   1 <1>   0.6900 
 12 O        8.4510    -0.8730    -0.4550 O.2   1 <1>  -0.5700 
 13 N        9.8940    -2.2030     0.6230 N.am  1 <1>  -0.7300 
 14 C       11.1210    -1.7290    -0.0360 C.3   1 <1>   0.2200 
 15 C       11.8240    -2.9230    -0.6900 C.3   1 <1>  -0.1600 
 16 C       12.0180    -1.0580     1.0090 C.3   1 <1>  -0.1600 
 17 C       13.1690    -2.5070    -1.3030 C.3   1 <1>  -0.1600 
 18 C       13.3630    -0.6390     0.3990 C.3   1 <1>  -0.1600 
 19 C       14.0700    -1.8320    -0.2600 C.3   1 <1>  -0.1600 
 20 H        0.9500    -3.0880     0.5110 H     1 <1>   0.1500 
 21 H        2.2760     0.1820    -1.8810 H     1 <1>   0.1500 
 22 H        3.2890    -3.8300     0.8060 H     1 <1>   0.1500 
 23 H        4.6210    -0.5510    -1.5930 H     1 <1>   0.1500 
 24 H        6.0870    -2.5130    -1.1180 H     1 <1>   0.0800 
 25 H        5.5910    -3.7250     0.0340 H     1 <1>   0.0800 
 26 H        5.6930    -2.0290     1.8490 H     1 <1>   0.0800 
 27 H        6.1690    -0.8220     0.6820 H     1 <1>   0.0800 
 28 H        7.8180    -3.0710     1.6820 H     1 <1>   0.3700 
 29 H       10.0300    -2.8730     1.3710 H     1 <1>   0.3700 
 30 H       10.8720    -1.0090    -0.7990 H     1 <1>   0.0800 
 31 H       11.1920    -3.3270    -1.4610 H     1 <1>   0.0800 
 32 H       11.9980    -3.6880     0.0470 H     1 <1>   0.0800 
 33 H       12.2000    -1.7400     1.8210 H     1 <1>   0.0800 
 34 H       11.5170    -0.1880     1.3970 H     1 <1>   0.0800 
 35 H       12.9920    -1.8230    -2.1160 H     1 <1>   0.0800 
 36 H       13.6670    -3.3730    -1.7040 H     1 <1>   0.0800 
 37 H       13.9940    -0.2230     1.1660 H     1 <1>   0.0800 
 38 H       13.1950     0.1270    -0.3400 H     1 <1>   0.0800 
 39 H       14.9780    -1.4960    -0.7310 H     1 <1>   0.0800 
 40 H       14.3390    -2.5490     0.4970 H     1 <1>   0.0800 
@<TRIPOS>BOND
  1   1   2  1   
  2   2   3  ar  
  3   2   4  ar  
  4   3   5  ar  
  5   3  20  1   
  6   4   6  ar  
  7   4  21  1   
  8   5   7  ar  
  9   5  22  1   
 10   6   7  ar  
 11   6  23  1   
 12   7   8  1   
 13   8   9  1   
 14   8  24  1   
 15   8  25  1   
 16   9  10  1   
 17   9  26  1   
 18   9  27  1   
 19  10  11  am  
 20  10  28  1   
 21  11  12  2   
 22  11  13  am  
 23  13  14  1   
 24  13  29  1   
 25  14  15  1   
 26  14  16  1   
 27  14  30  1   
 28  15  17  1   
 29  15  31  1   
 30  15  32  1   
 31  16  18  1   
 32  16  33  1   
 33  16  34  1   
 34  17  19  1   
 35  17  35  1   
 36  17  36  1   
 37  18  19  1   
 38  18  37  1   
 39  18  38  1   
 40  19  39  1   
 41  19  40  1   
@<TRIPOS>SUBSTRUCTURE
  1 ****  10 GROUP 4 **** **** 0

# MOE 2024.06 (io_trps.svl 2023.06)
