@<TRIPOS>MOLECULE
NONAME
42 45 1 0 0 
SMALL
USER_CHARGES


@<TRIPOS>ATOM
  1 O       -0.3920    -0.4580    -0.9740 O.2   1 <1>  -0.5700 
  2 C        0.7820    -0.7480    -0.8510 C.2   1 <1>   0.5440 
  3 N        1.7170     0.1160    -1.3780 N.am  1 <1>  -0.4200 
  4 C        1.2160    -1.9190    -0.1210 C.ar  1 <1>   0.0860 
  5 C        3.0260     0.0910    -0.9460 C.2   1 <1>   0.5440 
  6 C        1.2880     1.1220    -2.4010 C.3   1 <1>   0.1400 
  7 C        2.5960    -2.0510     0.1820 C.ar  1 <1>   0.0000 
  8 C        0.3400    -2.9020     0.2930 C.ar  1 <1>  -0.1500 
  9 O        3.7030     1.0850    -1.1380 O.2   1 <1>  -0.5700 
 10 C        3.5230    -1.0550    -0.2190 C.ar  1 <1>   0.0860 
 11 C        0.6940     2.3900    -1.7600 C.3   1 <1>   0.3430 
 12 C        3.0490    -3.1790     0.8990 C.ar  1 <1>   0.0000 
 13 C        0.7860    -4.0190     0.9980 C.ar  1 <1>  -0.1500 
 14 C        4.8570    -1.2070     0.1050 C.ar  1 <1>  -0.1500 
 15 N        1.5540     2.9170    -0.6530 N.4   1 <1>  -0.9590 
 16 C        2.1140    -4.1530     1.2930 C.ar  1 <1>  -0.1500 
 17 C        4.4190    -3.2880     1.1980 C.ar  1 <1>  -0.1500 
 18 C        5.3060    -2.3230     0.8110 C.ar  1 <1>  -0.1500 
 19 C        1.0340     2.5550     0.7050 C.3   1 <1>   0.3430 
 20 C        1.8480     4.3850    -0.7460 C.3   1 <1>   0.3430 
 21 C        2.0050     3.0110     1.8190 C.3   1 <1>   0.1200 
 22 C        2.5150     4.9280     0.5390 C.3   1 <1>   0.1200 
 23 O        2.9940     3.8820     1.3370 O.3   1 <1>  -0.5600 
 24 H        0.5510     0.6790    -3.0490 H     1 <1>   0.0800 
 25 H        2.1270     1.3930    -3.0190 H     1 <1>   0.0800 
 26 H       -0.7120    -2.8170     0.0710 H     1 <1>   0.1500 
 27 H       -0.2890     2.1590    -1.3820 H     1 <1>   0.0800 
 28 H        0.5820     3.1380    -2.5270 H     1 <1>   0.0800 
 29 H        0.0750    -4.7690     1.3030 H     1 <1>   0.1500 
 30 H        5.5750    -0.4590    -0.1890 H     1 <1>   0.1500 
 31 H        2.4880     2.4510    -0.7200 H     1 <1>   0.4500 
 32 H        2.4640    -5.0140     1.8370 H     1 <1>   0.1500 
 33 H        4.7620    -4.1510     1.7440 H     1 <1>   0.1500 
 34 H        6.3540    -2.4120     1.0450 H     1 <1>   0.1500 
 35 H        0.8840     1.4910     0.7790 H     1 <1>   0.0800 
 36 H        0.0780     3.0270     0.8640 H     1 <1>   0.0800 
 37 H        0.9400     4.9370    -0.9240 H     1 <1>   0.0800 
 38 H        2.5060     4.5660    -1.5800 H     1 <1>   0.0800 
 39 H        2.5090     2.1570     2.2390 H     1 <1>   0.0800 
 40 H        1.4680     3.5050     2.6100 H     1 <1>   0.0800 
 41 H        1.8150     5.5060     1.1180 H     1 <1>   0.0800 
 42 H        3.3470     5.5620     0.2860 H     1 <1>   0.0800 
@<TRIPOS>BOND
  1   1   2  2   
  2   2   3  am  
  3   2   4  1   
  4   3   5  am  
  5   3   6  1   
  6   4   7  ar  
  7   4   8  ar  
  8   5   9  2   
  9   5  10  1   
 10   6  11  1   
 11   6  24  1   
 12   6  25  1   
 13   7  10  ar  
 14   7  12  ar  
 15   8  13  ar  
 16   8  26  1   
 17  10  14  ar  
 18  11  15  1   
 19  11  27  1   
 20  11  28  1   
 21  12  16  ar  
 22  12  17  ar  
 23  13  16  ar  
 24  13  29  1   
 25  14  18  ar  
 26  14  30  1   
 27  15  19  1   
 28  15  20  1   
 29  15  31  1   
 30  16  32  1   
 31  17  18  ar  
 32  17  33  1   
 33  18  34  1   
 34  19  21  1   
 35  19  35  1   
 36  19  36  1   
 37  20  22  1   
 38  20  37  1   
 39  20  38  1   
 40  21  23  1   
 41  21  39  1   
 42  21  40  1   
 43  22  23  1   
 44  22  41  1   
 45  22  42  1   
@<TRIPOS>SUBSTRUCTURE
  1 ****   5 GROUP 4 **** **** 0

# MOE 2024.06 (io_trps.svl 2023.06)
