@<TRIPOS>MOLECULE
NONAME
34 35 1 0 0 
SMALL
USER_CHARGES


@<TRIPOS>ATOM
  1 BR      -0.0130     0.7110     1.4480 Br    1 <1>  -0.0580 
  2 C       -1.9040     0.4190     1.2850 C.2   1 <1>   0.0980 
  3 S       -2.3930    -0.8340     0.1690 S.3   1 <1>  -0.0800 
  4 C       -2.9430     1.0180     1.8890 C.2   1 <1>  -0.1500 
  5 C       -4.0870    -0.5180     0.5460 C.2   1 <1>  -0.1400 
  6 C       -4.1980     0.4740     1.4620 C.2   1 <1>  -0.1500 
  7 C       -5.0820    -1.3900    -0.1940 C.3   1 <1>   0.5230 
  8 N       -6.4190    -0.7480    -0.1910 N.4   1 <1>  -0.9590 
  9 C       -7.5370    -1.6530    -0.6070 C.3   1 <1>   0.3430 
 10 C       -6.4690     0.5400    -0.9610 C.3   1 <1>   0.3430 
 11 C       -8.9080    -0.9500    -0.4450 C.3   1 <1>   0.1100 
 12 C       -7.8580     1.2130    -0.8300 C.3   1 <1>   0.1100 
 13 N       -8.7810     0.4490     0.0470 N.3   1 <1>  -0.8100 
 14 C      -10.0930     1.1280     0.1370 C.3   1 <1>   0.1100 
 15 C      -10.9320     0.6010     1.3080 C.3   1 <1>   0.1200 
 16 O      -12.1310     1.2940     1.3520 O.3   1 <1>  -0.6800 
 17 H       -2.8740     1.8120     2.6130 H     1 <1>   0.1500 
 18 H       -5.1110     0.8640     1.8790 H     1 <1>   0.1500 
 19 H       -5.1280    -2.3540     0.2860 H     1 <1>   0.0800 
 20 H       -4.7490    -1.5310    -1.2100 H     1 <1>   0.0800 
 21 H       -6.6580    -0.4740     0.7730 H     1 <1>   0.4500 
 22 H       -7.5320    -2.5480    -0.0060 H     1 <1>   0.0800 
 23 H       -7.4110    -1.9470    -1.6360 H     1 <1>   0.0800 
 24 H       -6.2620     0.3580    -2.0020 H     1 <1>   0.0800 
 25 H       -5.7180     1.2200    -0.5930 H     1 <1>   0.0800 
 26 H       -9.5010    -1.5240     0.2460 H     1 <1>   0.0800 
 27 H       -9.4220    -0.9600    -1.3920 H     1 <1>   0.0800 
 28 H       -8.2910     1.3200    -1.8110 H     1 <1>   0.0800 
 29 H       -7.7230     2.2030    -0.4290 H     1 <1>   0.0800 
 30 H      -10.6390     1.0000    -0.7830 H     1 <1>   0.0800 
 31 H       -9.9320     2.1810     0.2950 H     1 <1>   0.0800 
 32 H      -10.4240     0.7430     2.2460 H     1 <1>   0.0800 
 33 H      -11.1720    -0.4380     1.1750 H     1 <1>   0.0800 
 34 H      -12.0010     2.2080     1.6710 H     1 <1>   0.4000 
@<TRIPOS>BOND
  1   1   2  1   
  2   2   3  1   
  3   2   4  2   
  4   3   5  1   
  5   4   6  1   
  6   4  17  1   
  7   5   6  2   
  8   5   7  1   
  9   6  18  1   
 10   7   8  1   
 11   7  19  1   
 12   7  20  1   
 13   8   9  1   
 14   8  10  1   
 15   8  21  1   
 16   9  11  1   
 17   9  22  1   
 18   9  23  1   
 19  10  12  1   
 20  10  24  1   
 21  10  25  1   
 22  11  13  1   
 23  11  26  1   
 24  11  27  1   
 25  12  13  1   
 26  12  28  1   
 27  12  29  1   
 28  13  14  1   
 29  14  15  1   
 30  14  30  1   
 31  14  31  1   
 32  15  16  1   
 33  15  32  1   
 34  15  33  1   
 35  16  34  1   
@<TRIPOS>SUBSTRUCTURE
  1 ****   8 GROUP 4 **** **** 0

# MOE 2024.06 (io_trps.svl 2023.06)
