@<TRIPOS>MOLECULE
NONAME
58 60 1 0 0 
SMALL
USER_CHARGES


@<TRIPOS>ATOM
  1 O       -6.1030    -0.7300     1.6140 O.3   1 <1>  -0.3630 
  2 C       -5.7820    -1.6150     0.6370 C.ar  1 <1>   0.0820 
  3 C       -5.5100     0.5520     1.5740 C.3   1 <1>   0.0400 
  4 C       -5.8810    -1.3400    -0.7310 C.ar  1 <1>   0.0820 
  5 C       -5.3290    -2.8550     1.0510 C.ar  1 <1>  -0.1500 
  6 O       -6.3660    -0.1740    -1.2160 O.3   1 <1>  -0.3630 
  7 C       -5.4800    -2.2940    -1.6490 C.ar  1 <1>  -0.1500 
  8 C       -4.9380    -3.8220     0.1330 C.ar  1 <1>  -0.1440 
  9 C       -7.7570     0.0210    -1.0780 C.3   1 <1>   0.0400 
 10 C       -5.0140    -3.5260    -1.2250 C.ar  1 <1>  -0.1500 
 11 C       -4.4260    -5.1510     0.6670 C.3   1 <1>   0.5660 
 12 N       -3.1300    -5.4410     0.0130 N.4   1 <1>  -0.9060 
 13 C       -5.4130    -6.3250     0.5420 C.3   1 <1>  -0.0190 
 14 C       -2.6930    -6.8500     0.0260 C.3   1 <1>   0.5660 
 15 C       -4.7780    -7.5480     1.2180 C.2   1 <1>   0.3280 
 16 C       -5.8790    -6.6560    -0.8960 C.3   1 <1>  -0.2400 
 17 C       -1.1770    -6.8290    -0.0260 C.ar  1 <1>  -0.1440 
 18 C       -3.2600    -7.6020     1.2260 C.3   1 <1>  -0.0990 
 19 N       -5.4200    -8.4830     1.7690 N.2   1 <1>  -0.5130 
 20 C       -0.5500    -7.1880    -1.2080 C.ar  1 <1>  -0.1500 
 21 C       -0.3940    -6.4460     1.0550 C.ar  1 <1>  -0.1500 
 22 O       -6.7380    -8.4510     1.7830 O.3   1 <1>  -0.3370 
 23 C        0.8290    -7.1690    -1.3380 C.ar  1 <1>   0.0820 
 24 C        0.9850    -6.4220     0.9450 C.ar  1 <1>  -0.1500 
 25 O        1.2630    -7.5500    -2.5740 O.3   1 <1>  -0.3620 
 26 C        1.6190    -6.7750    -0.2440 C.ar  1 <1>   0.0820 
 27 C        2.6160    -7.8110    -2.8790 C.3   1 <1>   0.0400 
 28 O        2.9790    -6.7330    -0.3540 O.3   1 <1>  -0.3630 
 29 C        3.8260    -6.4030     0.7260 C.3   1 <1>   0.0400 
 30 H       -5.6090     0.9980     2.5470 H     1 <1>   0.0800 
 31 H       -6.0180     1.1590     0.8470 H     1 <1>   0.0800 
 32 H       -4.4700     0.4520     1.3180 H     1 <1>   0.0800 
 33 H       -5.2890    -3.0380     2.1110 H     1 <1>   0.1500 
 34 H       -5.5480    -2.0630    -2.6980 H     1 <1>   0.1500 
 35 H       -8.0080     0.9720    -1.5090 H     1 <1>   0.0800 
 36 H       -8.0160     0.0100    -0.0340 H     1 <1>   0.0800 
 37 H       -8.2710    -0.7680    -1.5980 H     1 <1>   0.0800 
 38 H       -4.7300    -4.2370    -1.9810 H     1 <1>   0.1500 
 39 H       -4.2430    -5.0220     1.7220 H     1 <1>   0.0800 
 40 H       -3.1750    -5.1130    -0.9540 H     1 <1>   0.4500 
 41 H       -2.3970    -4.8740     0.4500 H     1 <1>   0.4500 
 42 H       -6.2900    -6.0510     1.1030 H     1 <1>   0.0800 
 43 H       -3.0570    -7.3390    -0.8640 H     1 <1>   0.0800 
 44 H       -5.0610    -6.8590    -1.5610 H     1 <1>   0.0800 
 45 H       -6.4680    -5.8510    -1.2990 H     1 <1>   0.0800 
 46 H       -6.5120    -7.5280    -0.8750 H     1 <1>   0.0800 
 47 H       -2.8970    -7.1880     2.1480 H     1 <1>   0.0800 
 48 H       -2.9410    -8.6290     1.1830 H     1 <1>   0.0800 
 49 H       -1.1190    -7.4970    -2.0680 H     1 <1>   0.1500 
 50 H       -0.8300    -6.1640     1.9980 H     1 <1>   0.1500 
 51 H       -7.1650    -9.2160     2.2260 H     1 <1>   0.4000 
 52 H        1.5520    -6.1200     1.8060 H     1 <1>   0.1500 
 53 H        2.6650    -8.2110    -3.8750 H     1 <1>   0.0800 
 54 H        3.0020    -8.5280    -2.1760 H     1 <1>   0.0800 
 55 H        3.1690    -6.8900    -2.8300 H     1 <1>   0.0800 
 56 H        4.8430    -6.4710     0.3840 H     1 <1>   0.0800 
 57 H        3.6660    -7.1040     1.5260 H     1 <1>   0.0800 
 58 H        3.6170    -5.3970     1.0420 H     1 <1>   0.0800 
@<TRIPOS>BOND
  1   1   2  1   
  2   1   3  1   
  3   2   4  ar  
  4   2   5  ar  
  5   3  30  1   
  6   3  31  1   
  7   3  32  1   
  8   4   6  1   
  9   4   7  ar  
 10   5   8  ar  
 11   5  33  1   
 12   6   9  1   
 13   7  10  ar  
 14   7  34  1   
 15   8  10  ar  
 16   8  11  1   
 17   9  35  1   
 18   9  36  1   
 19   9  37  1   
 20  10  38  1   
 21  11  12  1   
 22  11  13  1   
 23  11  39  1   
 24  12  14  1   
 25  12  40  1   
 26  12  41  1   
 27  13  15  1   
 28  13  16  1   
 29  13  42  1   
 30  14  17  1   
 31  14  18  1   
 32  14  43  1   
 33  15  18  1   
 34  15  19  2   
 35  16  44  1   
 36  16  45  1   
 37  16  46  1   
 38  17  20  ar  
 39  17  21  ar  
 40  18  47  1   
 41  18  48  1   
 42  19  22  1   
 43  20  23  ar  
 44  20  49  1   
 45  21  24  ar  
 46  21  50  1   
 47  22  51  1   
 48  23  25  1   
 49  23  26  ar  
 50  24  26  ar  
 51  24  52  1   
 52  25  27  1   
 53  26  28  1   
 54  27  53  1   
 55  27  54  1   
 56  27  55  1   
 57  28  29  1   
 58  29  56  1   
 59  29  57  1   
 60  29  58  1   
@<TRIPOS>SUBSTRUCTURE
  1 ****  12 GROUP 4 **** **** 0

# MOE 2024.06 (io_trps.svl 2023.06)
