@<TRIPOS>MOLECULE
NONAME
50 52 1 0 0 
SMALL
USER_CHARGES


@<TRIPOS>ATOM
  1 O        2.6850    -4.0750    -1.2840 O.2   1 <1>  -0.5700 
  2 C        2.2730    -3.9440    -0.1550 C.2   1 <1>   0.5690 
  3 N        1.0010    -4.2850     0.1860 N.am  1 <1>  -0.7300 
  4 C        3.2010    -3.3530     0.9210 C.3   1 <1>   0.1710 
  5 C       -0.0190    -4.7910    -0.7490 C.3   1 <1>   0.2200 
  6 N        3.6750    -1.9480     0.7020 N.3   1 <1>  -0.8100 
  7 C       -1.3030    -3.9290    -0.7280 C.3   1 <1>  -0.0800 
  8 C       -0.2980    -6.2490    -0.3900 C.3   1 <1>  -0.2400 
  9 C        4.6580    -1.8700    -0.4090 C.3   1 <1>   0.1100 
 10 C        2.5540    -1.0050     0.4630 C.3   1 <1>   0.1100 
 11 C       -1.0890    -2.4340    -1.0680 C.3   1 <1>  -0.0800 
 12 C       -2.0680    -3.8580     0.6150 C.3   1 <1>  -0.1600 
 13 C        5.2130    -0.4390    -0.6070 C.3   1 <1>   0.3430 
 14 C        3.0390     0.4350     0.1590 C.3   1 <1>   0.3430 
 15 C       -1.0240    -1.7670     0.3010 C.3   1 <1>  -0.1600 
 16 C       -2.4320    -1.8800    -1.5750 C.3   1 <1>  -0.1600 
 17 C       -2.3340    -2.3530     0.7900 C.3   1 <1>  -0.0800 
 18 N        4.5290     0.5450     0.2990 N.4   1 <1>  -0.9590 
 19 C       -3.3060    -1.8840    -0.3070 C.3   1 <1>  -0.1600 
 20 C        5.0410     1.9370     0.1540 C.3   1 <1>   0.2630 
 21 H        0.6690    -4.1810     1.1440 H     1 <1>   0.3700 
 22 H        4.0550    -4.0010     1.0070 H     1 <1>   0.0800 
 23 H        2.6870    -3.3910     1.8640 H     1 <1>   0.0800 
 24 H        0.3790    -4.7640    -1.7510 H     1 <1>   0.0800 
 25 H       -1.9580    -4.3580    -1.4670 H     1 <1>   0.0800 
 26 H       -0.6680    -6.3420     0.6140 H     1 <1>   0.0800 
 27 H        0.6050    -6.8260    -0.4890 H     1 <1>   0.0800 
 28 H       -1.0290    -6.6580    -1.0640 H     1 <1>   0.0800 
 29 H        4.2020    -2.1830    -1.3330 H     1 <1>   0.0800 
 30 H        5.4780    -2.5400    -0.2160 H     1 <1>   0.0800 
 31 H        1.9210    -0.9810     1.3340 H     1 <1>   0.0800 
 32 H        1.9530    -1.3410    -0.3660 H     1 <1>   0.0800 
 33 H       -0.2600    -2.2390    -1.7270 H     1 <1>   0.0800 
 34 H       -1.4670    -4.2140     1.4330 H     1 <1>   0.0800 
 35 H       -2.9820    -4.4250     0.5830 H     1 <1>   0.0800 
 36 H        5.0790    -0.1510    -1.6360 H     1 <1>   0.0800 
 37 H        6.2710    -0.4470    -0.4040 H     1 <1>   0.0800 
 38 H        2.5520     1.1180     0.8340 H     1 <1>   0.0800 
 39 H        2.7460     0.6990    -0.8440 H     1 <1>   0.0800 
 40 H       -1.0510    -0.6920     0.2430 H     1 <1>   0.0800 
 41 H       -0.1910    -2.0820     0.8990 H     1 <1>   0.0800 
 42 H       -2.8560    -2.4800    -2.3620 H     1 <1>   0.0800 
 43 H       -2.3070    -0.8740    -1.9360 H     1 <1>   0.0800 
 44 H       -2.6250    -2.0700     1.7880 H     1 <1>   0.0800 
 45 H        4.7160     0.1760     1.2460 H     1 <1>   0.4500 
 46 H       -4.1490    -2.5470    -0.4010 H     1 <1>   0.0800 
 47 H       -3.6610    -0.8900    -0.0960 H     1 <1>   0.0800 
 48 H        4.8400     2.3080    -0.8380 H     1 <1>   0.0800 
 49 H        6.1050     1.9630     0.3250 H     1 <1>   0.0800 
 50 H        4.5630     2.5870     0.8700 H     1 <1>   0.0800 
@<TRIPOS>BOND
  1   1   2  2   
  2   2   3  am  
  3   2   4  1   
  4   3   5  1   
  5   3  21  1   
  6   4   6  1   
  7   4  22  1   
  8   4  23  1   
  9   5   7  1   
 10   5   8  1   
 11   5  24  1   
 12   6   9  1   
 13   6  10  1   
 14   7  11  1   
 15   7  12  1   
 16   7  25  1   
 17   8  26  1   
 18   8  27  1   
 19   8  28  1   
 20   9  13  1   
 21   9  29  1   
 22   9  30  1   
 23  10  14  1   
 24  10  31  1   
 25  10  32  1   
 26  11  15  1   
 27  11  16  1   
 28  11  33  1   
 29  12  17  1   
 30  12  34  1   
 31  12  35  1   
 32  13  18  1   
 33  13  36  1   
 34  13  37  1   
 35  14  18  1   
 36  14  38  1   
 37  14  39  1   
 38  15  17  1   
 39  15  40  1   
 40  15  41  1   
 41  16  19  1   
 42  16  42  1   
 43  16  43  1   
 44  17  19  1   
 45  17  44  1   
 46  18  20  1   
 47  18  45  1   
 48  19  46  1   
 49  19  47  1   
 50  20  48  1   
 51  20  49  1   
 52  20  50  1   
@<TRIPOS>SUBSTRUCTURE
  1 ****   2 GROUP 4 **** **** 0

# MOE 2024.06 (io_trps.svl 2023.06)
