@<TRIPOS>MOLECULE
NONAME
35 35 1 0 0 
SMALL
USER_CHARGES


@<TRIPOS>ATOM
  1 F       -0.2850     0.6160     1.1310 F     1 <1>  -0.3400 
  2 C        0.2310     0.9070    -0.0570 C.3   1 <1>   1.0200 
  3 F       -0.5810     0.3770    -0.9600 F     1 <1>  -0.3400 
  4 F        1.3540     0.2050    -0.1320 F     1 <1>  -0.3400 
  5 C        0.4930     2.4090    -0.2540 C.3   1 <1>   0.2200 
  6 N        1.6280     2.9650     0.6180 N.am  1 <1>  -0.7300 
  7 C       -0.8350     3.1650    -0.1040 C.3   1 <1>   1.0200 
  8 C        2.8570     3.2630     0.1380 C.2   1 <1>   0.7800 
  9 F       -1.3110     3.1360     1.1350 F     1 <1>  -0.3400 
 10 F       -0.6890     4.4510    -0.3930 F     1 <1>  -0.3400 
 11 F       -1.8100     2.7320    -0.8910 F     1 <1>  -0.3400 
 12 O        3.1080     3.1580    -1.0440 O.2   1 <1>  -0.5700 
 13 O        3.7630     3.6590     1.0300 O.3   1 <1>  -0.2330 
 14 C        5.0480     3.9270     0.6840 C.ar  1 <1>   0.0830 
 15 C        5.9570     2.8860     0.4850 C.ar  1 <1>  -0.1430 
 16 C        5.4330     5.2570     0.5540 C.ar  1 <1>  -0.1430 
 17 C        7.2650     3.1950     0.1200 C.ar  1 <1>  -0.1430 
 18 C        5.5120     1.4330     0.6580 C.3   1 <1>  -0.0970 
 19 C        6.7390     5.5450     0.2050 C.ar  1 <1>  -0.1500 
 20 C        4.4420     6.3900     0.7810 C.3   1 <1>  -0.0970 
 21 C        7.6430     4.5230    -0.0120 C.ar  1 <1>  -0.1500 
 22 C        8.3100     2.1200    -0.1480 C.3   1 <1>  -0.0970 
 23 H        0.7790     2.5220    -1.2830 H     1 <1>   0.0800 
 24 H        1.4770     3.0410     1.6280 H     1 <1>   0.3700 
 25 H        4.7220     1.3530     1.3810 H     1 <1>   0.0800 
 26 H        6.3180     0.8140     1.0040 H     1 <1>   0.0800 
 27 H        5.1590     1.0520    -0.2840 H     1 <1>   0.0800 
 28 H        7.0620     6.5650     0.0950 H     1 <1>   0.1500 
 29 H        4.0100     6.3100     1.7620 H     1 <1>   0.0800 
 30 H        3.6580     6.3400     0.0470 H     1 <1>   0.0800 
 31 H        4.9250     7.3470     0.6990 H     1 <1>   0.0800 
 32 H        8.6520     4.7720    -0.2890 H     1 <1>   0.1500 
 33 H        8.5860     1.6390     0.7730 H     1 <1>   0.0800 
 34 H        9.1940     2.5430    -0.5890 H     1 <1>   0.0800 
 35 H        7.9190     1.3850    -0.8280 H     1 <1>   0.0800 
@<TRIPOS>BOND
  1   1   2  1   
  2   2   3  1   
  3   2   4  1   
  4   2   5  1   
  5   5   6  1   
  6   5   7  1   
  7   5  23  1   
  8   6   8  am  
  9   6  24  1   
 10   7   9  1   
 11   7  10  1   
 12   7  11  1   
 13   8  12  2   
 14   8  13  1   
 15  13  14  1   
 16  14  15  ar  
 17  14  16  ar  
 18  15  17  ar  
 19  15  18  1   
 20  16  19  ar  
 21  16  20  1   
 22  17  21  ar  
 23  17  22  1   
 24  18  25  1   
 25  18  26  1   
 26  18  27  1   
 27  19  21  ar  
 28  19  28  1   
 29  20  29  1   
 30  20  30  1   
 31  20  31  1   
 32  21  32  1   
 33  22  33  1   
 34  22  34  1   
 35  22  35  1   
@<TRIPOS>SUBSTRUCTURE
  1 ****   8 GROUP 4 **** **** 0

# MOE 2024.06 (io_trps.svl 2023.06)
