@<TRIPOS>MOLECULE
NONAME
34 35 1 0 0 
SMALL
USER_CHARGES


@<TRIPOS>ATOM
  1 F       -0.4170     0.5790    -1.8260 F     1 <1>  -0.3400 
  2 C        0.3260    -0.4170    -1.3440 C.3   1 <1>   1.0200 
  3 F        1.4180     0.1650    -0.8520 F     1 <1>  -0.3400 
  4 F        0.7310    -1.1090    -2.4070 F     1 <1>  -0.3400 
  5 C       -0.4330    -1.2780    -0.2660 C.3   1 <1>   0.4240 
  6 O       -1.5920    -1.8720    -0.8460 O.3   1 <1>  -0.5600 
  7 C        0.4930    -2.4250     0.2190 C.ar  1 <1>  -0.1440 
  8 C       -0.9230    -0.3560     0.8700 C.3   1 <1>  -0.0990 
  9 C       -2.6470    -2.3900    -0.0800 C.3   1 <1>   0.2800 
 10 C        0.6240    -3.5690    -0.5630 C.ar  1 <1>  -0.1500 
 11 C        1.2220    -2.3610     1.4060 C.ar  1 <1>  -0.1500 
 12 C       -1.7110    -1.1390     1.8870 C.2   1 <1>   0.4480 
 13 C       -2.3400    -2.4300     1.4250 C.3   1 <1>  -0.0990 
 14 C       -2.9150    -3.7990    -0.6090 C.3   1 <1>  -0.2400 
 15 C       -3.8600    -1.5030    -0.3780 C.3   1 <1>  -0.2400 
 16 C        1.4350    -4.6180    -0.1720 C.ar  1 <1>  -0.1500 
 17 C        2.0330    -3.4100     1.7990 C.ar  1 <1>  -0.1500 
 18 O       -1.8250    -0.7500     3.0070 O.2   1 <1>  -0.5700 
 19 C        2.1410    -4.5410     1.0130 C.ar  1 <1>  -0.1500 
 20 H       -1.5560     0.4140     0.4700 H     1 <1>   0.0800 
 21 H       -0.1010     0.1360     1.3550 H     1 <1>   0.0800 
 22 H        0.0890    -3.6530    -1.4950 H     1 <1>   0.1500 
 23 H        1.1810    -1.5040     2.0540 H     1 <1>   0.1500 
 24 H       -1.6690    -3.2390     1.6470 H     1 <1>   0.0800 
 25 H       -3.2410    -2.6050     1.9830 H     1 <1>   0.0800 
 26 H       -3.1080    -3.7710    -1.6660 H     1 <1>   0.0800 
 27 H       -3.7710    -4.2240    -0.1180 H     1 <1>   0.0800 
 28 H       -2.0720    -4.4390    -0.4240 H     1 <1>   0.0800 
 29 H       -3.7060    -0.4970    -0.0350 H     1 <1>   0.0800 
 30 H       -4.7340    -1.8910     0.1140 H     1 <1>   0.0800 
 31 H       -4.0530    -1.4820    -1.4360 H     1 <1>   0.0800 
 32 H        1.5190    -5.4940    -0.7920 H     1 <1>   0.1500 
 33 H        2.5850    -3.3460     2.7220 H     1 <1>   0.1500 
 34 H        2.7730    -5.3570     1.3200 H     1 <1>   0.1500 
@<TRIPOS>BOND
  1   1   2  1   
  2   2   3  1   
  3   2   4  1   
  4   2   5  1   
  5   5   6  1   
  6   5   7  1   
  7   5   8  1   
  8   6   9  1   
  9   7  10  ar  
 10   7  11  ar  
 11   8  12  1   
 12   8  20  1   
 13   8  21  1   
 14   9  13  1   
 15   9  14  1   
 16   9  15  1   
 17  10  16  ar  
 18  10  22  1   
 19  11  17  ar  
 20  11  23  1   
 21  12  13  1   
 22  12  18  2   
 23  13  24  1   
 24  13  25  1   
 25  14  26  1   
 26  14  27  1   
 27  14  28  1   
 28  15  29  1   
 29  15  30  1   
 30  15  31  1   
 31  16  19  ar  
 32  16  32  1   
 33  17  19  ar  
 34  17  33  1   
 35  19  34  1   
@<TRIPOS>SUBSTRUCTURE
  1 ****   5 GROUP 4 **** **** 0

# MOE 2024.06 (io_trps.svl 2023.06)
