@<TRIPOS>MOLECULE
NONAME
42 43 1 0 0 
SMALL
USER_CHARGES


@<TRIPOS>ATOM
  1 O       -0.0900    -0.9210     1.3750 O.2   1 <1>  -0.5700 
  2 C        0.0960    -1.4350     0.3010 C.2   1 <1>   0.5950 
  3 C        1.2170    -2.2970     0.0240 C.2   1 <1>  -0.0860 
  4 C       -0.8640    -1.0790    -0.8110 C.3   1 <1>  -0.1790 
  5 C        1.1630    -3.6780    -0.3200 C.2   1 <1>  -0.0860 
  6 C        2.5460    -1.9640     0.0610 C.2   1 <1>  -0.3320 
  7 C        2.4690    -4.0670    -0.5120 C.2   1 <1>  -0.3320 
  8 C       -0.0500    -4.4540    -0.3880 C.2   1 <1>   0.5950 
  9 N        3.3190    -3.0310    -0.2670 N.pl3 1 <1>   0.3260 
 10 C        3.1510    -0.6110     0.4150 C.3   1 <1>  -0.0600 
 11 C        3.0130    -5.4220    -0.9520 C.3   1 <1>  -0.0600 
 12 O       -1.0870    -4.0400    -0.8380 O.2   1 <1>  -0.5700 
 13 C       -0.0680    -5.8650     0.1560 C.3   1 <1>  -0.1790 
 14 C        4.7360    -3.0560    -0.3420 C.ar  1 <1>  -0.0230 
 15 C        5.4950    -3.4130     0.7640 C.ar  1 <1>  -0.1500 
 16 C        5.3840    -2.7270    -1.5230 C.ar  1 <1>  -0.1500 
 17 C        6.8790    -3.4460     0.7030 C.ar  1 <1>  -0.1440 
 18 C        6.7640    -2.7570    -1.5930 C.ar  1 <1>  -0.1500 
 19 C        7.5200    -3.1160    -0.4870 C.ar  1 <1>  -0.1440 
 20 C        7.6640    -3.8430     1.9450 C.3   1 <1>  -0.0970 
 21 C        9.0370    -3.1370    -0.6050 C.3   1 <1>  -0.0970 
 22 H       -0.5410    -1.5120    -1.7390 H     1 <1>   0.0800 
 23 H       -0.9090    -0.0110    -0.9160 H     1 <1>   0.0800 
 24 H       -1.8420    -1.4500    -0.5690 H     1 <1>   0.0800 
 25 H        2.3860     0.1020     0.6630 H     1 <1>   0.0800 
 26 H        3.7190    -0.2300    -0.4140 H     1 <1>   0.0800 
 27 H        3.8050    -0.7120     1.2640 H     1 <1>   0.0800 
 28 H        2.2320    -6.0600    -1.3200 H     1 <1>   0.0800 
 29 H        3.5040    -5.9090    -0.1280 H     1 <1>   0.0800 
 30 H        3.7280    -5.2940    -1.7460 H     1 <1>   0.0800 
 31 H        0.7750    -6.0320     0.8010 H     1 <1>   0.0800 
 32 H       -0.0490    -6.5650    -0.6570 H     1 <1>   0.0800 
 33 H       -0.9690    -6.0150     0.7230 H     1 <1>   0.0800 
 34 H        4.9870    -3.6640     1.6790 H     1 <1>   0.1500 
 35 H        4.8070    -2.4470    -2.3870 H     1 <1>   0.1500 
 36 H        7.2470    -2.4990    -2.5190 H     1 <1>   0.1500 
 37 H        7.0050    -4.0660     2.7640 H     1 <1>   0.0800 
 38 H        8.3120    -3.0390     2.2430 H     1 <1>   0.0800 
 39 H        8.2580    -4.7160     1.7420 H     1 <1>   0.0800 
 40 H        9.4080    -4.1250    -0.4040 H     1 <1>   0.0800 
 41 H        9.4710    -2.4480     0.0970 H     1 <1>   0.0800 
 42 H        9.3520    -2.8530    -1.5930 H     1 <1>   0.0800 
@<TRIPOS>BOND
  1   1   2  2   
  2   2   3  1   
  3   2   4  1   
  4   3   5  1   
  5   3   6  2   
  6   4  22  1   
  7   4  23  1   
  8   4  24  1   
  9   5   7  2   
 10   5   8  1   
 11   6   9  1   
 12   6  10  1   
 13   7   9  1   
 14   7  11  1   
 15   8  12  2   
 16   8  13  1   
 17   9  14  1   
 18  10  25  1   
 19  10  26  1   
 20  10  27  1   
 21  11  28  1   
 22  11  29  1   
 23  11  30  1   
 24  13  31  1   
 25  13  32  1   
 26  13  33  1   
 27  14  15  ar  
 28  14  16  ar  
 29  15  17  ar  
 30  15  34  1   
 31  16  18  ar  
 32  16  35  1   
 33  17  19  ar  
 34  17  20  1   
 35  18  19  ar  
 36  18  36  1   
 37  19  21  1   
 38  20  37  1   
 39  20  38  1   
 40  20  39  1   
 41  21  40  1   
 42  21  41  1   
 43  21  42  1   
@<TRIPOS>SUBSTRUCTURE
  1 ****   9 GROUP 4 **** **** 0

# MOE 2024.06 (io_trps.svl 2023.06)
