@<TRIPOS>MOLECULE
NONAME
49 50 1 0 0 
SMALL
USER_CHARGES


@<TRIPOS>ATOM
  1 S        0.1160    -0.7490     2.1870 S.o2  1 <1>   1.3330 
  2 O        1.3370    -0.7290     2.9590 O.2   1 <1>  -0.6500 
  3 O       -1.0390    -1.4100     2.7500 O.2   1 <1>  -0.6500 
  4 N        0.4620    -1.4560     0.6860 N.am  1 <1>  -0.8490 
  5 C       -0.2640     0.9500     1.8040 C.3   1 <1>  -0.1350 
  6 C       -0.7300    -2.0310     0.0390 C.3   1 <1>   0.3390 
  7 C        1.5350    -2.4800     0.8210 C.3   1 <1>   0.2570 
  8 C       -1.7090    -0.9460    -0.3840 C.ar  1 <1>  -0.1440 
  9 C        2.0560    -3.0840    -0.4940 C.2   1 <1>   0.5690 
 10 C       -2.9200    -0.7900     0.2750 C.ar  1 <1>  -0.1500 
 11 C       -1.3980    -0.1030    -1.4400 C.ar  1 <1>  -0.1500 
 12 O        1.4920    -4.0390    -0.9730 O.2   1 <1>  -0.5700 
 13 N        3.1500    -2.5750    -1.1190 N.am  1 <1>  -0.5470 
 14 C       -3.8040     0.2020    -0.1120 C.ar  1 <1>  -0.1500 
 15 C       -2.2810     0.8890    -1.8290 C.ar  1 <1>  -0.1500 
 16 C        4.0320    -1.5880    -0.6610 C.ar  1 <1>   0.1170 
 17 C       -3.4850     1.0430    -1.1630 C.ar  1 <1>  -0.1500 
 18 C        3.7810    -0.2360    -0.9030 C.ar  1 <1>  -0.1430 
 19 C        5.1750    -1.9590     0.0480 C.ar  1 <1>  -0.1430 
 20 C        4.6610     0.7210    -0.4270 C.ar  1 <1>  -0.1500 
 21 C        2.5540     0.2290    -1.6770 C.3   1 <1>  -0.0970 
 22 C        6.0420    -0.9850     0.5130 C.ar  1 <1>  -0.1500 
 23 C        5.4920    -3.4230     0.3290 C.3   1 <1>  -0.0970 
 24 C        5.7910     0.3560     0.2830 C.ar  1 <1>  -0.1430 
 25 C        6.7480     1.4140     0.8010 C.3   1 <1>  -0.0970 
 26 H       -0.4030     1.5030     2.7120 H     1 <1>   0.0800 
 27 H       -1.1600     1.0270     1.2240 H     1 <1>   0.0800 
 28 H        0.5430     1.3900     1.2540 H     1 <1>   0.0800 
 29 H       -1.2090    -2.7430     0.6920 H     1 <1>   0.0800 
 30 H       -0.4510    -2.5570    -0.8560 H     1 <1>   0.0800 
 31 H        1.1820    -3.2840     1.4430 H     1 <1>   0.0800 
 32 H        2.3850    -2.0460     1.3170 H     1 <1>   0.0800 
 33 H       -3.1770    -1.4370     1.0980 H     1 <1>   0.1500 
 34 H       -0.4660    -0.2210    -1.9640 H     1 <1>   0.1500 
 35 H        3.4140    -3.0660    -1.9720 H     1 <1>   0.3700 
 36 H       -4.7400     0.3180     0.4050 H     1 <1>   0.1500 
 37 H       -2.0330     1.5400    -2.6490 H     1 <1>   0.1500 
 38 H       -4.1730     1.8130    -1.4650 H     1 <1>   0.1500 
 39 H        4.4670     1.7630    -0.6080 H     1 <1>   0.1500 
 40 H        2.7160     1.2050    -2.0950 H     1 <1>   0.0800 
 41 H        2.3310    -0.4450    -2.4840 H     1 <1>   0.0800 
 42 H        1.7100     0.2760    -1.0150 H     1 <1>   0.0800 
 43 H        6.9230    -1.2670     1.0620 H     1 <1>   0.1500 
 44 H        5.5570    -3.9700    -0.5950 H     1 <1>   0.0800 
 45 H        4.7190    -3.8570     0.9380 H     1 <1>   0.0800 
 46 H        6.4280    -3.5250     0.8470 H     1 <1>   0.0800 
 47 H        6.2270     2.3360     0.9840 H     1 <1>   0.0800 
 48 H        7.5230     1.5890     0.0760 H     1 <1>   0.0800 
 49 H        7.2000     1.0920     1.7220 H     1 <1>   0.0800 
@<TRIPOS>BOND
  1   1   2  2   
  2   1   3  2   
  3   1   4  am  
  4   1   5  1   
  5   4   6  1   
  6   4   7  1   
  7   5  26  1   
  8   5  27  1   
  9   5  28  1   
 10   6   8  1   
 11   6  29  1   
 12   6  30  1   
 13   7   9  1   
 14   7  31  1   
 15   7  32  1   
 16   8  10  ar  
 17   8  11  ar  
 18   9  12  2   
 19   9  13  am  
 20  10  14  ar  
 21  10  33  1   
 22  11  15  ar  
 23  11  34  1   
 24  13  16  1   
 25  13  35  1   
 26  14  17  ar  
 27  14  36  1   
 28  15  17  ar  
 29  15  37  1   
 30  16  18  ar  
 31  16  19  ar  
 32  17  38  1   
 33  18  20  ar  
 34  18  21  1   
 35  19  22  ar  
 36  19  23  1   
 37  20  24  ar  
 38  20  39  1   
 39  21  40  1   
 40  21  41  1   
 41  21  42  1   
 42  22  24  ar  
 43  22  43  1   
 44  23  44  1   
 45  23  45  1   
 46  23  46  1   
 47  24  25  1   
 48  25  47  1   
 49  25  48  1   
 50  25  49  1   
@<TRIPOS>SUBSTRUCTURE
  1 ****   4 GROUP 4 **** **** 0

# MOE 2024.06 (io_trps.svl 2023.06)
