@<TRIPOS>MOLECULE
NONAME
50 52 1 0 0 
SMALL
USER_CHARGES


@<TRIPOS>ATOM
  1 S        0.2840    -0.7250    -2.3550 S.3   1 <1>  -0.2860 
  2 C        1.4910     0.3600    -1.5960 C.2   1 <1>   0.2420 
  3 C       -1.1890     0.3570    -2.6990 C.3   1 <1>   0.1310 
  4 N        1.3300     1.6200    -1.4040 N.2   1 <1>  -0.3380 
  5 N        2.6550    -0.0880    -1.1620 N.pl3 1 <1>   0.0330 
  6 C       -2.2370     0.1920    -1.5990 C.2   1 <1>   0.5690 
  7 N        2.4370     2.0370    -0.7890 N.2   1 <1>  -0.3380 
  8 C        3.2340     1.0090    -0.6480 C.2   1 <1>   0.1330 
  9 O       -3.1010    -0.6290    -1.7950 O.2   1 <1>  -0.5700 
 10 N       -2.2330     0.9270    -0.4320 N.am  1 <1>  -0.6600 
 11 C        4.5470     1.0210    -0.0400 C.ar  1 <1>   0.0530 
 12 C       -1.3920     2.1390    -0.1750 C.3   1 <1>   0.1400 
 13 C       -3.0680     0.4860     0.7330 C.3   1 <1>   0.1400 
 14 C        5.2650     2.2090     0.0820 C.ar  1 <1>  -0.1500 
 15 C        5.1470    -0.1390     0.4450 C.ar  1 <1>  -0.1500 
 16 C       -2.1920     3.2760     0.4910 C.3   1 <1>   0.3430 
 17 C       -3.8600     1.6560     1.3400 C.3   1 <1>   0.3430 
 18 C        6.5240     2.2470     0.6540 C.ar  1 <1>   0.0830 
 19 C        6.4070    -0.1240     1.0180 C.ar  1 <1>   0.0830 
 20 N       -2.9620     2.8110     1.6970 N.4   1 <1>  -0.9590 
 21 O        7.1240     3.4630     0.7180 O.3   1 <1>  -0.3630 
 22 C        7.1040     1.0750     1.1250 C.ar  1 <1>  -0.1500 
 23 O        6.8860    -1.3180     1.4490 O.3   1 <1>  -0.3630 
 24 C       -3.7390     3.9320     2.3060 C.3   1 <1>   0.2630 
 25 C        8.3940     3.6320     1.3050 C.3   1 <1>   0.0400 
 26 C        8.1430    -1.4230     2.0800 C.3   1 <1>   0.0400 
 27 H       -1.5970     0.0160    -3.6330 H     1 <1>   0.0800 
 28 H       -0.8520     1.3660    -2.8150 H     1 <1>   0.0800 
 29 H        3.0180    -1.0390    -1.2170 H     1 <1>   0.2700 
 30 H       -0.9990     2.5270    -1.0960 H     1 <1>   0.0800 
 31 H       -0.5600     1.8680     0.4530 H     1 <1>   0.0800 
 32 H       -2.4260     0.0560     1.4810 H     1 <1>   0.0800 
 33 H       -3.7650    -0.2790     0.4350 H     1 <1>   0.0800 
 34 H        4.8360     3.1280    -0.2770 H     1 <1>   0.1500 
 35 H        4.6380    -1.0820     0.3930 H     1 <1>   0.1500 
 36 H       -2.8760     3.6790    -0.2380 H     1 <1>   0.0800 
 37 H       -1.5100     4.0620     0.7710 H     1 <1>   0.0800 
 38 H       -4.3790     1.3090     2.2190 H     1 <1>   0.0800 
 39 H       -4.5990     1.9760     0.6240 H     1 <1>   0.0800 
 40 H       -2.2750     2.4690     2.3860 H     1 <1>   0.4500 
 41 H        8.0780     1.0950     1.5670 H     1 <1>   0.1500 
 42 H       -4.4650     4.3100     1.6030 H     1 <1>   0.0800 
 43 H       -3.0780     4.7380     2.5850 H     1 <1>   0.0800 
 44 H       -4.2570     3.5940     3.1880 H     1 <1>   0.0800 
 45 H        8.6510     4.6740     1.2480 H     1 <1>   0.0800 
 46 H        9.1130     3.0490     0.7570 H     1 <1>   0.0800 
 47 H        8.3470     3.3230     2.3340 H     1 <1>   0.0800 
 48 H        8.3000    -2.4540     2.3420 H     1 <1>   0.0800 
 49 H        8.1400    -0.8170     2.9690 H     1 <1>   0.0800 
 50 H        8.9070    -1.1010     1.3940 H     1 <1>   0.0800 
@<TRIPOS>BOND
  1   1   2  1   
  2   1   3  1   
  3   2   4  2   
  4   2   5  1   
  5   3   6  1   
  6   3  27  1   
  7   3  28  1   
  8   4   7  1   
  9   5   8  1   
 10   5  29  1   
 11   6   9  2   
 12   6  10  am  
 13   7   8  2   
 14   8  11  1   
 15  10  12  1   
 16  10  13  1   
 17  11  14  ar  
 18  11  15  ar  
 19  12  16  1   
 20  12  30  1   
 21  12  31  1   
 22  13  17  1   
 23  13  32  1   
 24  13  33  1   
 25  14  18  ar  
 26  14  34  1   
 27  15  19  ar  
 28  15  35  1   
 29  16  20  1   
 30  16  36  1   
 31  16  37  1   
 32  17  20  1   
 33  17  38  1   
 34  17  39  1   
 35  18  21  1   
 36  18  22  ar  
 37  19  22  ar  
 38  19  23  1   
 39  20  24  1   
 40  20  40  1   
 41  21  25  1   
 42  22  41  1   
 43  23  26  1   
 44  24  42  1   
 45  24  43  1   
 46  24  44  1   
 47  25  45  1   
 48  25  46  1   
 49  25  47  1   
 50  26  48  1   
 51  26  49  1   
 52  26  50  1   
@<TRIPOS>SUBSTRUCTURE
  1 ****   7 GROUP 4 **** **** 0

# MOE 2024.06 (io_trps.svl 2023.06)
