@<TRIPOS>MOLECULE
NONAME
34 34 1 0 0 
SMALL
USER_CHARGES


@<TRIPOS>ATOM
  1 CL      -0.2980     0.8720     2.2410 Cl    1 <1>  -0.1770 
  2 C       -1.0650     2.1370     1.3060 C.ar  1 <1>   0.1770 
  3 C       -0.2940     3.1060     0.6780 C.ar  1 <1>   0.0830 
  4 C       -2.4410     2.1320     1.2040 C.ar  1 <1>  -0.1500 
  5 O        1.0550     3.0540     0.7800 O.3   1 <1>  -0.3630 
  6 C       -0.9520     4.1060    -0.0430 C.ar  1 <1>   0.0830 
  7 C       -3.1120     3.1030     0.4590 C.ar  1 <1>   0.0860 
  8 C        1.7670     2.7020    -0.3850 C.3   1 <1>   0.0400 
  9 O       -0.2970     5.1190    -0.6610 O.3   1 <1>  -0.3630 
 10 C       -2.3320     4.0890    -0.1530 C.ar  1 <1>  -0.1500 
 11 C       -4.5580     3.0790     0.3400 C.2   1 <1>   0.5440 
 12 C        0.4210     6.0140     0.1630 C.3   1 <1>   0.0400 
 13 O       -5.2380     2.5280     1.1830 O.2   1 <1>  -0.5700 
 14 N       -5.1890     3.6640    -0.7230 N.am  1 <1>  -0.7300 
 15 C       -6.6550     3.6230    -0.9690 C.3   1 <1>   0.1400 
 16 C       -7.3920     4.5550    -0.0070 C.3   1 <1>   0.1200 
 17 O       -8.7190     4.6560    -0.4190 O.3   1 <1>  -0.5600 
 18 C       -9.5160     5.4090     0.4370 C.3   1 <1>   0.0400 
 19 H       -3.0040     1.3630     1.7050 H     1 <1>   0.1500 
 20 H        2.8130     2.6620    -0.1410 H     1 <1>   0.0800 
 21 H        1.5940     3.4430    -1.1460 H     1 <1>   0.0800 
 22 H        1.4300     1.7360    -0.7180 H     1 <1>   0.0800 
 23 H       -2.8020     4.8720    -0.7180 H     1 <1>   0.1500 
 24 H        0.7460     6.8410    -0.4420 H     1 <1>   0.0800 
 25 H        1.2740     5.5120     0.5810 H     1 <1>   0.0800 
 26 H       -0.2280     6.3650     0.9470 H     1 <1>   0.0800 
 27 H       -4.6300     4.0440    -1.4890 H     1 <1>   0.3700 
 28 H       -7.0120     2.6170    -0.8280 H     1 <1>   0.0800 
 29 H       -6.8520     3.9260    -1.9820 H     1 <1>   0.0800 
 30 H       -6.9550     5.5380    -0.0270 H     1 <1>   0.0800 
 31 H       -7.3640     4.1510     0.9910 H     1 <1>   0.0800 
 32 H      -10.5120     5.4330     0.0320 H     1 <1>   0.0800 
 33 H       -9.1240     6.4090     0.4990 H     1 <1>   0.0800 
 34 H       -9.5310     4.9450     1.4080 H     1 <1>   0.0800 
@<TRIPOS>BOND
  1   1   2  1   
  2   2   3  ar  
  3   2   4  ar  
  4   3   5  1   
  5   3   6  ar  
  6   4   7  ar  
  7   4  19  1   
  8   5   8  1   
  9   6   9  1   
 10   6  10  ar  
 11   7  10  ar  
 12   7  11  1   
 13   8  20  1   
 14   8  21  1   
 15   8  22  1   
 16   9  12  1   
 17  10  23  1   
 18  11  13  2   
 19  11  14  am  
 20  12  24  1   
 21  12  25  1   
 22  12  26  1   
 23  14  15  1   
 24  14  27  1   
 25  15  16  1   
 26  15  28  1   
 27  15  29  1   
 28  16  17  1   
 29  16  30  1   
 30  16  31  1   
 31  17  18  1   
 32  18  32  1   
 33  18  33  1   
 34  18  34  1   
@<TRIPOS>SUBSTRUCTURE
  1 ****   7 GROUP 4 **** **** 0

# MOE 2024.06 (io_trps.svl 2023.06)
