@<TRIPOS>MOLECULE
NONAME
35 35 1 0 0 
SMALL
USER_CHARGES


@<TRIPOS>ATOM
  1 O       -0.0850     1.1000     1.2750 O.2   1 <1>  -0.5700 
  2 C        0.0130     1.8520     0.3350 C.2   1 <1>   0.5690 
  3 N        1.1870     2.0820    -0.3300 N.am  1 <1>  -0.5470 
  4 C       -1.2310     2.6090    -0.1420 C.3   1 <1>  -0.0190 
  5 C        2.4700     1.5370    -0.1530 C.ar  1 <1>   0.1170 
  6 C       -1.7140     3.5860     0.9580 C.3   1 <1>  -0.1600 
  7 C       -2.3120     1.5950    -0.5840 C.3   1 <1>  -0.1600 
  8 C        2.6960     0.3100     0.4630 C.ar  1 <1>  -0.1500 
  9 C        3.5660     2.2450    -0.6320 C.ar  1 <1>  -0.1500 
 10 C       -2.2460     4.9190     0.4090 C.3   1 <1>  -0.2400 
 11 C       -3.5610     2.2190    -1.2180 C.3   1 <1>  -0.2400 
 12 C        3.9790    -0.1890     0.5980 C.ar  1 <1>  -0.1500 
 13 C        4.8520     1.7510    -0.5010 C.ar  1 <1>  -0.1500 
 14 C        5.0660     0.5240     0.1200 C.ar  1 <1>   0.0830 
 15 O        6.2920    -0.0380     0.2920 O.3   1 <1>  -0.3630 
 16 C        7.4600     0.6220    -0.1400 C.3   1 <1>   0.0400 
 17 H        1.1340     2.7960    -1.0510 H     1 <1>   0.3700 
 18 H       -0.9470     3.1840    -1.0050 H     1 <1>   0.0800 
 19 H       -0.8890     3.8150     1.6110 H     1 <1>   0.0800 
 20 H       -2.4650     3.1100     1.5650 H     1 <1>   0.0800 
 21 H       -2.6100     1.0000     0.2640 H     1 <1>   0.0800 
 22 H       -1.8720     0.9220    -1.3000 H     1 <1>   0.0800 
 23 H        1.8710    -0.2660     0.8390 H     1 <1>   0.1500 
 24 H        3.4160     3.1950    -1.1110 H     1 <1>   0.1500 
 25 H       -1.4770     5.4330    -0.1420 H     1 <1>   0.0800 
 26 H       -2.5530     5.5490     1.2250 H     1 <1>   0.0800 
 27 H       -3.0910     4.7730    -0.2370 H     1 <1>   0.0800 
 28 H       -4.1300     2.7580    -0.4820 H     1 <1>   0.0800 
 29 H       -4.1900     1.4440    -1.6180 H     1 <1>   0.0800 
 30 H       -3.2910     2.8850    -2.0170 H     1 <1>   0.0800 
 31 H        4.1440    -1.1370     1.0770 H     1 <1>   0.1500 
 32 H        5.6710     2.3310    -0.8830 H     1 <1>   0.1500 
 33 H        8.3030     0.0020     0.1070 H     1 <1>   0.0800 
 34 H        7.5380     1.5650     0.3720 H     1 <1>   0.0800 
 35 H        7.4090     0.7620    -1.2050 H     1 <1>   0.0800 
@<TRIPOS>BOND
  1   1   2  2   
  2   2   3  am  
  3   2   4  1   
  4   3   5  1   
  5   3  17  1   
  6   4   6  1   
  7   4   7  1   
  8   4  18  1   
  9   5   8  ar  
 10   5   9  ar  
 11   6  10  1   
 12   6  19  1   
 13   6  20  1   
 14   7  11  1   
 15   7  21  1   
 16   7  22  1   
 17   8  12  ar  
 18   8  23  1   
 19   9  13  ar  
 20   9  24  1   
 21  10  25  1   
 22  10  26  1   
 23  10  27  1   
 24  11  28  1   
 25  11  29  1   
 26  11  30  1   
 27  12  14  ar  
 28  12  31  1   
 29  13  14  ar  
 30  13  32  1   
 31  14  15  1   
 32  15  16  1   
 33  16  33  1   
 34  16  34  1   
 35  16  35  1   
@<TRIPOS>SUBSTRUCTURE
  1 ****   3 GROUP 4 **** **** 0

# MOE 2024.06 (io_trps.svl 2023.06)
