@<TRIPOS>MOLECULE
NONAME
35 36 1 0 0 
SMALL
USER_CHARGES


@<TRIPOS>ATOM
  1 S       -0.2200    -0.3720     0.0730 S.o2  1 <1>   1.4470 
  2 O       -0.0470    -1.5370    -0.7640 O.2   1 <1>  -0.6500 
  3 O       -0.7270    -0.5090     1.4200 O.2   1 <1>  -0.6500 
  4 N       -1.2750     0.6020    -0.7960 N.am  1 <1>  -0.7890 
  5 C        1.3070     0.6050     0.1010 C.ar  1 <1>  -0.0090 
  6 C       -2.6640     0.3730    -0.4870 C.3   1 <1>   0.1310 
  7 C        2.4680     0.1480    -0.5090 C.ar  1 <1>  -0.1500 
  8 C        1.3480     1.8420     0.7320 C.ar  1 <1>  -0.1500 
  9 C       -3.6530     1.3800    -0.9660 C.3   1 <1>  -0.2000 
 10 C       -3.3250     1.2760     0.4960 C.3   1 <1>  -0.2000 
 11 C        3.6490     0.8790    -0.4870 C.ar  1 <1>   0.1170 
 12 C        2.5050     2.6020     0.7500 C.ar  1 <1>  -0.1500 
 13 N        4.8240     0.4050    -1.0980 N.am  1 <1>  -0.5470 
 14 C        3.6590     2.1300     0.1360 C.ar  1 <1>   0.0830 
 15 C        5.4090    -0.8180    -1.1760 C.2   1 <1>   0.5690 
 16 O        4.8240     2.8380     0.1060 O.3   1 <1>  -0.3630 
 17 O        6.4470    -0.9470    -1.7710 O.2   1 <1>  -0.5700 
 18 C        4.8110    -2.0320    -0.5050 C.3   1 <1>  -0.1790 
 19 C        4.9520     4.0800     0.7630 C.3   1 <1>   0.0400 
 20 H       -1.1370     0.2980    -1.7570 H     1 <1>   0.4200 
 21 H       -2.9460    -0.6710    -0.4980 H     1 <1>   0.1000 
 22 H        2.4440    -0.7960    -1.0210 H     1 <1>   0.1500 
 23 H        0.4590     2.2140     1.2140 H     1 <1>   0.1500 
 24 H       -4.6240     1.0490    -1.2890 H     1 <1>   0.1000 
 25 H       -3.3010     2.2400    -1.5090 H     1 <1>   0.1000 
 26 H       -2.7320     2.0430     0.9610 H     1 <1>   0.1000 
 27 H       -4.0590     0.8570     1.1620 H     1 <1>   0.1000 
 28 H        2.4810     3.5550     1.2440 H     1 <1>   0.1500 
 29 H        5.4530     1.1500    -1.4070 H     1 <1>   0.3700 
 30 H        4.3680    -1.7620     0.4350 H     1 <1>   0.0800 
 31 H        5.5840    -2.7560    -0.3230 H     1 <1>   0.0800 
 32 H        4.0720    -2.4740    -1.1460 H     1 <1>   0.0800 
 33 H        5.9590     4.4310     0.6220 H     1 <1>   0.0800 
 34 H        4.7590     3.9430     1.8120 H     1 <1>   0.0800 
 35 H        4.2590     4.7790     0.3300 H     1 <1>   0.0800 
@<TRIPOS>BOND
  1   1   2  2   
  2   1   3  2   
  3   1   4  am  
  4   1   5  1   
  5   4   6  1   
  6   4  20  1   
  7   5   7  ar  
  8   5   8  ar  
  9   6   9  1   
 10   6  10  1   
 11   6  21  1   
 12   7  11  ar  
 13   7  22  1   
 14   8  12  ar  
 15   8  23  1   
 16   9  10  1   
 17   9  24  1   
 18   9  25  1   
 19  10  26  1   
 20  10  27  1   
 21  11  13  1   
 22  11  14  ar  
 23  12  14  ar  
 24  12  28  1   
 25  13  15  am  
 26  13  29  1   
 27  14  16  1   
 28  15  17  2   
 29  15  18  1   
 30  16  19  1   
 31  18  30  1   
 32  18  31  1   
 33  18  32  1   
 34  19  33  1   
 35  19  34  1   
 36  19  35  1   
@<TRIPOS>SUBSTRUCTURE
  1 ****   5 GROUP 4 **** **** 0

# MOE 2024.06 (io_trps.svl 2023.06)
