@<TRIPOS>MOLECULE
NONAME
47 48 1 0 0 
SMALL
USER_CHARGES


@<TRIPOS>ATOM
  1 S       -0.6430     0.2470     1.2150 S.o2  1 <1>   1.4470 
  2 O        0.6660     0.5640     1.7450 O.2   1 <1>  -0.6500 
  3 O       -1.8180     0.5110     2.0180 O.2   1 <1>  -0.6500 
  4 N       -0.8150     1.1400    -0.2140 N.am  1 <1>  -0.8490 
  5 C       -0.6520    -1.4660     0.6150 C.ar  1 <1>  -0.0090 
  6 C       -0.5170     2.5490    -0.0350 C.3   1 <1>   0.1960 
  7 C       -2.1400     1.0960    -0.8080 C.3   1 <1>   0.1960 
  8 C       -1.7340    -2.3050     0.8350 C.ar  1 <1>  -0.1500 
  9 C        0.4210    -1.9730    -0.1040 C.ar  1 <1>  -0.1500 
 10 C       -1.0960     3.2260    -1.2730 C.3   1 <1>  -0.1600 
 11 C       -2.1380     2.2430    -1.8100 C.3   1 <1>  -0.1600 
 12 C       -1.7810    -3.6140     0.3600 C.ar  1 <1>   0.0860 
 13 C        0.4140    -3.2730    -0.5740 C.ar  1 <1>  -0.1500 
 14 C       -0.6730    -4.0990    -0.3440 C.ar  1 <1>  -0.1430 
 15 C       -2.9710    -4.4040     0.6050 C.2   1 <1>   0.5440 
 16 C       -0.6230    -5.5340    -0.8540 C.3   1 <1>  -0.0960 
 17 O       -3.3220    -4.6490     1.7400 O.2   1 <1>  -0.5700 
 18 N       -3.7170    -4.8480    -0.4520 N.am  1 <1>  -0.7300 
 19 C       -4.9380    -5.6910    -0.4260 C.3   1 <1>   0.2200 
 20 C       -5.9820    -5.1720     0.5790 C.3   1 <1>   0.1200 
 21 C       -4.5250    -7.1360    -0.1490 C.3   1 <1>  -0.2400 
 22 O       -7.2070    -5.7980     0.3360 O.3   1 <1>  -0.5600 
 23 C       -8.1990    -5.4490     1.2460 C.3   1 <1>   0.0400 
 24 H        0.5450     2.7100     0.0550 H     1 <1>   0.0800 
 25 H       -1.0120     2.9190     0.8500 H     1 <1>   0.0800 
 26 H       -2.8950     1.2780    -0.0590 H     1 <1>   0.0800 
 27 H       -2.3240     0.1470    -1.2830 H     1 <1>   0.0800 
 28 H       -2.5780    -1.9370     1.3960 H     1 <1>   0.1500 
 29 H        1.2720    -1.3390    -0.2920 H     1 <1>   0.1500 
 30 H       -0.3180     3.3810    -2.0000 H     1 <1>   0.0800 
 31 H       -1.5310     4.1750    -1.0160 H     1 <1>   0.0800 
 32 H       -3.1140     2.6870    -1.8890 H     1 <1>   0.0800 
 33 H       -1.8370     1.8760    -2.7750 H     1 <1>   0.0800 
 34 H        1.2690    -3.6360    -1.1190 H     1 <1>   0.1500 
 35 H       -1.2170    -5.6350    -1.7430 H     1 <1>   0.0800 
 36 H       -0.9980    -6.2120    -0.1060 H     1 <1>   0.0800 
 37 H        0.3870    -5.8240    -1.0840 H     1 <1>   0.0800 
 38 H       -3.3810    -4.6310    -1.3900 H     1 <1>   0.3700 
 39 H       -5.3870    -5.6400    -1.4030 H     1 <1>   0.0800 
 40 H       -6.1150    -4.1120     0.4590 H     1 <1>   0.0800 
 41 H       -5.6760    -5.3950     1.5860 H     1 <1>   0.0800 
 42 H       -4.0770    -7.2160     0.8260 H     1 <1>   0.0800 
 43 H       -3.8300    -7.4780    -0.8940 H     1 <1>   0.0800 
 44 H       -5.3920    -7.7710    -0.1750 H     1 <1>   0.0800 
 45 H       -9.0980    -5.9780     0.9810 H     1 <1>   0.0800 
 46 H       -8.3720    -4.3880     1.1930 H     1 <1>   0.0800 
 47 H       -7.8880    -5.7340     2.2360 H     1 <1>   0.0800 
@<TRIPOS>BOND
  1   1   2  2   
  2   1   3  2   
  3   1   4  am  
  4   1   5  1   
  5   4   6  1   
  6   4   7  1   
  7   5   8  ar  
  8   5   9  ar  
  9   6  10  1   
 10   6  24  1   
 11   6  25  1   
 12   7  11  1   
 13   7  26  1   
 14   7  27  1   
 15   8  12  ar  
 16   8  28  1   
 17   9  13  ar  
 18   9  29  1   
 19  10  11  1   
 20  10  30  1   
 21  10  31  1   
 22  11  32  1   
 23  11  33  1   
 24  12  14  ar  
 25  12  15  1   
 26  13  14  ar  
 27  13  34  1   
 28  14  16  1   
 29  15  17  2   
 30  15  18  am  
 31  16  35  1   
 32  16  36  1   
 33  16  37  1   
 34  18  19  1   
 35  18  38  1   
 36  19  20  1   
 37  19  21  1   
 38  19  39  1   
 39  20  22  1   
 40  20  40  1   
 41  20  41  1   
 42  21  42  1   
 43  21  43  1   
 44  21  44  1   
 45  22  23  1   
 46  23  45  1   
 47  23  46  1   
 48  23  47  1   
@<TRIPOS>SUBSTRUCTURE
  1 ****   8 GROUP 4 **** **** 0

# MOE 2024.06 (io_trps.svl 2023.06)
