@<TRIPOS>MOLECULE
NONAME
42 43 1 0 0 
SMALL
USER_CHARGES


@<TRIPOS>ATOM
  1 O        1.4310    -2.0400     1.2920 O.3   1 <1>  -0.3630 
  2 C        0.5050    -2.9270     0.8300 C.ar  1 <1>   0.0830 
  3 C        2.1470    -1.2190     0.3980 C.3   1 <1>   0.1200 
  4 C       -0.3540    -2.7120    -0.2610 C.ar  1 <1>   0.0830 
  5 C        0.4380    -4.1200     1.5300 C.ar  1 <1>  -0.1500 
  6 C        3.4510    -0.8020     1.0780 C.3   1 <1>  -0.1600 
  7 O       -0.3220    -1.5190    -0.9260 O.3   1 <1>  -0.3630 
  8 C       -1.2370    -3.7250    -0.6310 C.ar  1 <1>  -0.1500 
  9 C       -0.4490    -5.1140     1.1570 C.ar  1 <1>  -0.1500 
 10 C        4.2910     0.0990     0.1610 C.3   1 <1>  -0.1600 
 11 C       -1.2920    -1.1760    -1.8920 C.3   1 <1>   0.0400 
 12 C       -1.2840    -4.9160     0.0730 C.ar  1 <1>  -0.1500 
 13 C        5.6020     0.5190     0.8340 C.3   1 <1>   0.0210 
 14 C        6.4100     1.4100    -0.0930 C.2   1 <1>  -0.1810 
 15 C        6.3420     2.8000    -0.1810 C.2   1 <1>   0.1080 
 16 C        7.3400     1.0540    -1.0060 C.2   1 <1>  -0.3320 
 17 N        7.1580     3.2790    -1.0650 N.2   1 <1>  -0.7070 
 18 C        5.4410     3.6960     0.6400 C.3   1 <1>  -0.0590 
 19 N        7.7750     2.1990    -1.5750 N.pl3 1 <1>   0.3000 
 20 C        7.8630    -0.3170    -1.3980 C.3   1 <1>  -0.0600 
 21 H        1.5430    -0.3570     0.1740 H     1 <1>   0.0800 
 22 H        2.3430    -1.7770    -0.5010 H     1 <1>   0.0800 
 23 H        1.0900    -4.2670     2.3720 H     1 <1>   0.1500 
 24 H        4.0120    -1.6860     1.3250 H     1 <1>   0.0800 
 25 H        3.2160    -0.2740     1.9860 H     1 <1>   0.0800 
 26 H       -1.9030    -3.6110    -1.4640 H     1 <1>   0.1500 
 27 H       -0.4870    -6.0370     1.7090 H     1 <1>   0.1500 
 28 H        3.7280     0.9790    -0.0960 H     1 <1>   0.0800 
 29 H        4.5200    -0.4250    -0.7510 H     1 <1>   0.0800 
 30 H       -1.1040    -0.1650    -2.2070 H     1 <1>   0.0800 
 31 H       -2.2680    -1.2440    -1.4460 H     1 <1>   0.0800 
 32 H       -1.2010    -1.8420    -2.7310 H     1 <1>   0.0800 
 33 H       -1.9710    -5.6900    -0.2210 H     1 <1>   0.1500 
 34 H        6.1800    -0.3530     1.0820 H     1 <1>   0.0800 
 35 H        5.3970     1.0440     1.7500 H     1 <1>   0.0800 
 36 H        4.4440     3.2990     0.6600 H     1 <1>   0.0800 
 37 H        5.4150     4.6790     0.2060 H     1 <1>   0.0800 
 38 H        5.8200     3.7670     1.6410 H     1 <1>   0.0800 
 39 H        8.4870     2.2770    -2.3090 H     1 <1>   0.2700 
 40 H        7.3480    -1.0890    -0.8560 H     1 <1>   0.0800 
 41 H        8.9140    -0.3890    -1.1790 H     1 <1>   0.0800 
 42 H        7.7110    -0.4840    -2.4490 H     1 <1>   0.0800 
@<TRIPOS>BOND
  1   1   2  1   
  2   1   3  1   
  3   2   4  ar  
  4   2   5  ar  
  5   3   6  1   
  6   3  21  1   
  7   3  22  1   
  8   4   7  1   
  9   4   8  ar  
 10   5   9  ar  
 11   5  23  1   
 12   6  10  1   
 13   6  24  1   
 14   6  25  1   
 15   7  11  1   
 16   8  12  ar  
 17   8  26  1   
 18   9  12  ar  
 19   9  27  1   
 20  10  13  1   
 21  10  28  1   
 22  10  29  1   
 23  11  30  1   
 24  11  31  1   
 25  11  32  1   
 26  12  33  1   
 27  13  14  1   
 28  13  34  1   
 29  13  35  1   
 30  14  15  1   
 31  14  16  2   
 32  15  17  2   
 33  15  18  1   
 34  16  19  1   
 35  16  20  1   
 36  17  19  1   
 37  18  36  1   
 38  18  37  1   
 39  18  38  1   
 40  19  39  1   
 41  20  40  1   
 42  20  41  1   
 43  20  42  1   
@<TRIPOS>SUBSTRUCTURE
  1 ****   3 GROUP 4 **** **** 0

# MOE 2024.06 (io_trps.svl 2023.06)
