@<TRIPOS>MOLECULE
NONAME
38 39 1 0 0 
SMALL
USER_CHARGES


@<TRIPOS>ATOM
  1 F       -1.1710     0.0840     1.1560 F     1 <1>  -0.1900 
  2 C       -0.6850     1.1490     0.5750 C.ar  1 <1>   0.1900 
  3 C       -0.7800     1.2610    -0.7990 C.ar  1 <1>  -0.1500 
  4 C       -0.0950     2.1240     1.3580 C.ar  1 <1>  -0.1500 
  5 C       -0.2590     2.3910    -1.4060 C.ar  1 <1>  -0.1500 
  6 C        0.4220     3.2510     0.7410 C.ar  1 <1>  -0.1500 
  7 C        0.3450     3.3850    -0.6460 C.ar  1 <1>   0.0830 
  8 O        0.8340     4.4510    -1.3320 O.3   1 <1>  -0.3630 
  9 C        1.7230     5.3890    -0.7670 C.3   1 <1>   0.1200 
 10 C        3.1170     4.7560    -0.6620 C.3   1 <1>  -0.1600 
 11 C        4.1620     5.7590    -0.1540 C.3   1 <1>  -0.1600 
 12 C        5.5420     5.1010    -0.0790 C.3   1 <1>   0.3430 
 13 N        6.5450     6.0540     0.4670 N.4   1 <1>  -0.9590 
 14 C        6.8760     7.1800    -0.4430 C.3   1 <1>   0.3430 
 15 C        7.8390     5.4000     0.7810 C.3   1 <1>   0.3430 
 16 C        8.2140     7.6990     0.0660 C.3   1 <1>  -0.1600 
 17 C        8.8320     6.5500     0.8680 C.3   1 <1>  -0.1600 
 18 H       -1.2490     0.4830    -1.3740 H     1 <1>   0.1500 
 19 H       -0.0490     1.9980     2.4250 H     1 <1>   0.1500 
 20 H       -0.3180     2.5100    -2.4730 H     1 <1>   0.1500 
 21 H        0.8710     4.0080     1.3540 H     1 <1>   0.1500 
 22 H        1.3390     5.7190     0.1820 H     1 <1>   0.0800 
 23 H        1.7480     6.2330    -1.4340 H     1 <1>   0.0800 
 24 H        3.4010     4.4030    -1.6390 H     1 <1>   0.0800 
 25 H        3.0740     3.9120     0.0050 H     1 <1>   0.0800 
 26 H        3.8710     6.1030     0.8240 H     1 <1>   0.0800 
 27 H        4.1890     6.5980    -0.8270 H     1 <1>   0.0800 
 28 H        5.8430     4.7690    -1.0600 H     1 <1>   0.0800 
 29 H        5.4800     4.2350     0.5630 H     1 <1>   0.0800 
 30 H        6.1870     6.4570     1.3430 H     1 <1>   0.4500 
 31 H        6.1180     7.9470    -0.4250 H     1 <1>   0.0800 
 32 H        6.9920     6.8130    -1.4500 H     1 <1>   0.0800 
 33 H        8.1210     4.7430    -0.0250 H     1 <1>   0.0800 
 34 H        7.7930     4.8400     1.7020 H     1 <1>   0.0800 
 35 H        8.0580     8.5580     0.6960 H     1 <1>   0.0800 
 36 H        8.8400     7.9920    -0.7600 H     1 <1>   0.0800 
 37 H        9.7880     6.2530     0.4710 H     1 <1>   0.0800 
 38 H        8.9660     6.8400     1.8970 H     1 <1>   0.0800 
@<TRIPOS>BOND
  1   1   2  1   
  2   2   3  ar  
  3   2   4  ar  
  4   3   5  ar  
  5   3  18  1   
  6   4   6  ar  
  7   4  19  1   
  8   5   7  ar  
  9   5  20  1   
 10   6   7  ar  
 11   6  21  1   
 12   7   8  1   
 13   8   9  1   
 14   9  10  1   
 15   9  22  1   
 16   9  23  1   
 17  10  11  1   
 18  10  24  1   
 19  10  25  1   
 20  11  12  1   
 21  11  26  1   
 22  11  27  1   
 23  12  13  1   
 24  12  28  1   
 25  12  29  1   
 26  13  14  1   
 27  13  15  1   
 28  13  30  1   
 29  14  16  1   
 30  14  31  1   
 31  14  32  1   
 32  15  17  1   
 33  15  33  1   
 34  15  34  1   
 35  16  17  1   
 36  16  35  1   
 37  16  36  1   
 38  17  37  1   
 39  17  38  1   
@<TRIPOS>SUBSTRUCTURE
  1 ****  10 GROUP 4 **** **** 0

# MOE 2024.06 (io_trps.svl 2023.06)
