@<TRIPOS>MOLECULE
NONAME
48 49 1 0 0 
SMALL
USER_CHARGES


@<TRIPOS>ATOM
  1 S        0.4350     0.7700     0.9240 S.3   1 <1>  -0.3320 
  2 C       -1.2610     1.3730     0.8360 C.ar  1 <1>   0.1020 
  3 C        1.2090     1.1200    -0.7340 C.3   1 <1>   0.1310 
  4 C       -1.7780     1.9670    -0.3050 C.ar  1 <1>  -0.1500 
  5 C       -2.0400     1.2170     1.9690 C.ar  1 <1>  -0.1500 
  6 C        2.6580     0.6510    -0.7870 C.2   1 <1>   0.5690 
  7 C       -3.0910     2.4080    -0.3040 C.ar  1 <1>  -0.1500 
  8 C       -3.3510     1.6600     1.9640 C.ar  1 <1>  -0.1500 
  9 O        3.2750     0.8180    -1.8110 O.2   1 <1>  -0.5700 
 10 N        3.2210     0.0630     0.3070 N.am  1 <1>  -0.7300 
 11 C       -3.8750     2.2550     0.8280 C.ar  1 <1>  -0.1500 
 12 C        4.5920    -0.4600     0.4730 C.3   1 <1>   0.2200 
 13 C        5.6100     0.6680     0.2940 C.3   1 <1>  -0.1600 
 14 C        4.8510    -1.5870    -0.5290 C.3   1 <1>  -0.1600 
 15 C        7.0590     0.1770     0.3780 C.3   1 <1>   0.5030 
 16 C        6.2850    -2.1230    -0.4610 C.3   1 <1>   0.5030 
 17 N        7.2580    -1.0190    -0.4550 N.4   1 <1>  -0.9060 
 18 C        7.4940    -0.0930     1.8220 C.3   1 <1>  -0.2400 
 19 C        7.9930     1.2370    -0.2050 C.3   1 <1>  -0.2400 
 20 C        6.5020    -3.0390     0.7470 C.3   1 <1>  -0.2400 
 21 C        6.5900    -2.9270    -1.7240 C.3   1 <1>  -0.2400 
 22 H        1.1600     2.1800    -0.8940 H     1 <1>   0.0800 
 23 H        0.6290     0.6030    -1.4750 H     1 <1>   0.0800 
 24 H       -1.1890     2.0960    -1.1910 H     1 <1>   0.1500 
 25 H       -1.6240     0.7550     2.8460 H     1 <1>   0.1500 
 26 H       -3.5050     2.8710    -1.1830 H     1 <1>   0.1500 
 27 H       -3.9630     1.5420     2.8420 H     1 <1>   0.1500 
 28 H        2.6100    -0.0320     1.1280 H     1 <1>   0.3700 
 29 H       -4.8950     2.5990     0.8250 H     1 <1>   0.1500 
 30 H        4.6700    -0.8510     1.4730 H     1 <1>   0.0800 
 31 H        5.4420     1.4230     1.0410 H     1 <1>   0.0800 
 32 H        5.4630     1.1320    -0.6650 H     1 <1>   0.0800 
 33 H        4.6690    -1.2260    -1.5250 H     1 <1>   0.0800 
 34 H        4.1570    -2.3890    -0.3500 H     1 <1>   0.0800 
 35 H        8.1830    -1.4030    -0.2570 H     1 <1>   0.4500 
 36 H        7.2860    -0.6770    -1.4180 H     1 <1>   0.4500 
 37 H        6.7880    -0.6940     2.3580 H     1 <1>   0.0800 
 38 H        7.5630     0.8380     2.3570 H     1 <1>   0.0800 
 39 H        8.4620    -0.5600     1.8570 H     1 <1>   0.0800 
 40 H        7.7530     1.4500    -1.2320 H     1 <1>   0.0800 
 41 H        9.0220     0.9300    -0.1400 H     1 <1>   0.0800 
 42 H        7.8920     2.1570     0.3460 H     1 <1>   0.0800 
 43 H        6.1440    -2.6080     1.6600 H     1 <1>   0.0800 
 44 H        7.5390    -3.3010     0.8570 H     1 <1>   0.0800 
 45 H        5.9490    -3.9520     0.6090 H     1 <1>   0.0800 
 46 H        6.4820    -2.3240    -2.6090 H     1 <1>   0.0800 
 47 H        5.9020    -3.7500    -1.8100 H     1 <1>   0.0800 
 48 H        7.5850    -3.3350    -1.6960 H     1 <1>   0.0800 
@<TRIPOS>BOND
  1   1   2  1   
  2   1   3  1   
  3   2   4  ar  
  4   2   5  ar  
  5   3   6  1   
  6   3  22  1   
  7   3  23  1   
  8   4   7  ar  
  9   4  24  1   
 10   5   8  ar  
 11   5  25  1   
 12   6   9  2   
 13   6  10  am  
 14   7  11  ar  
 15   7  26  1   
 16   8  11  ar  
 17   8  27  1   
 18  10  12  1   
 19  10  28  1   
 20  11  29  1   
 21  12  13  1   
 22  12  14  1   
 23  12  30  1   
 24  13  15  1   
 25  13  31  1   
 26  13  32  1   
 27  14  16  1   
 28  14  33  1   
 29  14  34  1   
 30  15  17  1   
 31  15  18  1   
 32  15  19  1   
 33  16  17  1   
 34  16  20  1   
 35  16  21  1   
 36  17  35  1   
 37  17  36  1   
 38  18  37  1   
 39  18  38  1   
 40  18  39  1   
 41  19  40  1   
 42  19  41  1   
 43  19  42  1   
 44  20  43  1   
 45  20  44  1   
 46  20  45  1   
 47  21  46  1   
 48  21  47  1   
 49  21  48  1   
@<TRIPOS>SUBSTRUCTURE
  1 ****  10 GROUP 4 **** **** 0

# MOE 2024.06 (io_trps.svl 2023.06)
