@<TRIPOS>MOLECULE
NONAME
47 50 1 0 0 
SMALL
USER_CHARGES


@<TRIPOS>ATOM
  1 S       -0.0630     2.9180     1.6700 S.3   1 <1>  -0.0800 
  2 C       -0.0930     2.0800     0.1240 C.2   1 <1>   0.3250 
  3 C       -1.7390     3.3280     1.4870 C.2   1 <1>  -0.1100 
  4 N       -1.2500     2.1300    -0.4430 N.2   1 <1>  -0.5650 
  5 C        1.1210     1.4670    -0.3600 C.ar  1 <1>   0.0530 
  6 C       -2.1730     2.8290     0.3200 C.2   1 <1>   0.0460 
  7 C        1.7840     0.4280     0.3090 C.ar  1 <1>  -0.1440 
  8 C        1.6630     1.9220    -1.5620 C.ar  1 <1>  -0.1500 
  9 C       -3.5830     2.9390    -0.2450 C.3   1 <1>   0.5240 
 10 C        2.9510    -0.1030    -0.2160 C.ar  1 <1>  -0.1500 
 11 C        1.2540    -0.1550     1.6130 C.3   1 <1>  -0.0970 
 12 C        2.8240     1.3850    -2.0820 C.ar  1 <1>  -0.1500 
 13 N       -3.9410     1.6160    -0.8200 N.4   1 <1>  -0.9590 
 14 C        3.4720     0.3700    -1.4070 C.ar  1 <1>  -0.1500 
 15 C       -5.0530     1.6930    -1.8380 C.3   1 <1>   0.3430 
 16 C       -4.1950     0.5890     0.2600 C.3   1 <1>   0.3430 
 17 C       -5.4610     0.3060    -2.3820 C.3   1 <1>   0.2090 
 18 C       -4.5940    -0.7820    -0.3200 C.3   1 <1>   0.2090 
 19 N       -5.7540    -0.6110    -1.2440 N.pl3 1 <1>  -0.8380 
 20 C       -7.0430    -0.6910    -0.7680 C.ar  1 <1>   0.7200 
 21 N       -7.2040    -0.6160     0.5520 N.ar  1 <1>  -0.6200 
 22 N       -8.0050    -0.7930    -1.6770 N.ar  1 <1>  -0.6200 
 23 C       -8.4400    -0.7100     0.9850 C.ar  1 <1>   0.1600 
 24 C       -9.2290    -0.8850    -1.2160 C.ar  1 <1>   0.1600 
 25 C       -9.5050    -0.8510     0.1290 C.ar  1 <1>  -0.1500 
 26 H       -2.2010     3.8950     2.2760 H     1 <1>   0.1500 
 27 H        1.1650     2.7130    -2.0940 H     1 <1>   0.1500 
 28 H       -3.5790     3.6840    -1.0230 H     1 <1>   0.0800 
 29 H       -4.2830     3.2330     0.5190 H     1 <1>   0.0800 
 30 H        3.4680    -0.8960     0.2970 H     1 <1>   0.1500 
 31 H        0.1850    -0.2590     1.5770 H     1 <1>   0.0800 
 32 H        1.5200     0.4840     2.4360 H     1 <1>   0.0800 
 33 H        1.6740    -1.1290     1.7930 H     1 <1>   0.0800 
 34 H        3.2260     1.7550    -3.0100 H     1 <1>   0.1500 
 35 H       -3.0650     1.3250    -1.2900 H     1 <1>   0.4500 
 36 H        4.3790    -0.0520    -1.8050 H     1 <1>   0.1500 
 37 H       -4.7550     2.3190    -2.6620 H     1 <1>   0.0800 
 38 H       -5.9250     2.1340    -1.3830 H     1 <1>   0.0800 
 39 H       -4.9990     0.9220     0.8960 H     1 <1>   0.0800 
 40 H       -3.3140     0.4700     0.8690 H     1 <1>   0.0800 
 41 H       -4.6660    -0.1060    -2.9780 H     1 <1>   0.0800 
 42 H       -6.3200     0.4120    -3.0230 H     1 <1>   0.0800 
 43 H       -4.8440    -1.4610     0.4780 H     1 <1>   0.0800 
 44 H       -3.7660    -1.2100    -0.8580 H     1 <1>   0.0800 
 45 H       -8.6110    -0.6740     2.0480 H     1 <1>   0.1500 
 46 H      -10.0320    -0.9910    -1.9270 H     1 <1>   0.1500 
 47 H      -10.5110    -0.9310     0.4950 H     1 <1>   0.1500 
@<TRIPOS>BOND
  1   1   2  1   
  2   1   3  1   
  3   2   4  2   
  4   2   5  1   
  5   3   6  2   
  6   3  26  1   
  7   4   6  1   
  8   5   7  ar  
  9   5   8  ar  
 10   6   9  1   
 11   7  10  ar  
 12   7  11  1   
 13   8  12  ar  
 14   8  27  1   
 15   9  13  1   
 16   9  28  1   
 17   9  29  1   
 18  10  14  ar  
 19  10  30  1   
 20  11  31  1   
 21  11  32  1   
 22  11  33  1   
 23  12  14  ar  
 24  12  34  1   
 25  13  15  1   
 26  13  16  1   
 27  13  35  1   
 28  14  36  1   
 29  15  17  1   
 30  15  37  1   
 31  15  38  1   
 32  16  18  1   
 33  16  39  1   
 34  16  40  1   
 35  17  19  1   
 36  17  41  1   
 37  17  42  1   
 38  18  19  1   
 39  18  43  1   
 40  18  44  1   
 41  19  20  1   
 42  20  21  ar  
 43  20  22  ar  
 44  21  23  ar  
 45  22  24  ar  
 46  23  25  ar  
 47  23  45  1   
 48  24  25  ar  
 49  24  46  1   
 50  25  47  1   
@<TRIPOS>SUBSTRUCTURE
  1 ****  13 GROUP 4 **** **** 0

# MOE 2024.06 (io_trps.svl 2023.06)
