@<TRIPOS>MOLECULE
NONAME
25 26 1 0 0 
SMALL
USER_CHARGES


@<TRIPOS>ATOM
  1 N       -0.3150     0.2920    -0.7600 N.pl3 1 <1>  -0.7540 
  2 C       -1.0840     1.3020    -0.4410 C.cat 1 <1>   0.6040 
  3 N       -2.3940     1.1310    -0.4250 N.pl3 1 <1>  -0.6530 
  4 C       -0.3500     2.6030    -0.1180 C.3   1 <1>  -0.0550 
  5 C       -3.5150     1.9400    -0.1400 C.ar  1 <1>   0.3490 
  6 C       -1.1620     3.8140     0.3560 C.3   1 <1>  -0.1600 
  7 C       -3.5360     3.3330    -0.2250 C.ar  1 <1>  -0.1430 
  8 C       -4.6810     1.2740     0.2240 C.ar  1 <1>  -0.1500 
  9 C       -2.3090     4.1470    -0.5960 C.3   1 <1>  -0.0170 
 10 C       -4.7120     4.0190     0.0470 C.ar  1 <1>  -0.1500 
 11 C       -5.8470     1.9640     0.4950 C.ar  1 <1>  -0.1500 
 12 C       -5.8620     3.3410     0.4040 C.ar  1 <1>  -0.1500 
 13 H        0.7070     0.3600    -0.7910 H     1 <1>   0.4500 
 14 H       -0.6400    -0.6450    -1.0060 H     1 <1>   0.4500 
 15 H       -2.7110     0.1940    -0.6590 H     1 <1>   0.4500 
 16 H        0.1860     2.8970    -1.0030 H     1 <1>   0.0800 
 17 H        0.3860     2.3920     0.6380 H     1 <1>   0.0800 
 18 H       -0.5010     4.6630     0.4090 H     1 <1>   0.0800 
 19 H       -1.5440     3.6460     1.3490 H     1 <1>   0.0800 
 20 H       -4.6910     0.2030     0.3030 H     1 <1>   0.1500 
 21 H       -2.0350     3.9690    -1.6220 H     1 <1>   0.0800 
 22 H       -2.5320     5.1970    -0.5040 H     1 <1>   0.0800 
 23 H       -4.7480     5.0950    -0.0150 H     1 <1>   0.1500 
 24 H       -6.7430     1.4350     0.7760 H     1 <1>   0.1500 
 25 H       -6.7680     3.8870     0.6130 H     1 <1>   0.1500 
@<TRIPOS>BOND
  1   1   2  ar  
  2   1  13  1   
  3   1  14  1   
  4   2   3  ar  
  5   2   4  1   
  6   3   5  1   
  7   3  15  1   
  8   4   6  1   
  9   4  16  1   
 10   4  17  1   
 11   5   7  ar  
 12   5   8  ar  
 13   6   9  1   
 14   6  18  1   
 15   6  19  1   
 16   7   9  1   
 17   7  10  ar  
 18   8  11  ar  
 19   8  20  1   
 20   9  21  1   
 21   9  22  1   
 22  10  12  ar  
 23  10  23  1   
 24  11  12  ar  
 25  11  24  1   
 26  12  25  1   
@<TRIPOS>SUBSTRUCTURE
  1 ****   5 GROUP 4 **** **** 0

# MOE 2024.06 (io_trps.svl 2023.06)
