@<TRIPOS>MOLECULE
NONAME
46 48 1 0 0 
SMALL
USER_CHARGES


@<TRIPOS>ATOM
  1 CL       4.1710     3.1530     3.6170 Cl    1 <1>  -0.1770 
  2 C        4.1300     2.6900     1.9280 C.ar  1 <1>   0.1770 
  3 C        3.2910     3.3510     1.0400 C.ar  1 <1>   0.0830 
  4 C        4.9500     1.6650     1.5140 C.ar  1 <1>  -0.1500 
  5 O        2.5110     4.3560     1.5170 O.3   1 <1>  -0.3630 
  6 C        3.2960     2.9480    -0.2900 C.ar  1 <1>  -0.1500 
  7 C        4.9840     1.2500     0.1810 C.ar  1 <1>   0.0860 
  8 C        1.5800     5.0390     0.7070 C.3   1 <1>   0.0400 
  9 C        4.1230     1.9100    -0.7190 C.ar  1 <1>   0.0830 
 10 C        5.9040     0.1880    -0.1760 C.2   1 <1>   0.3030 
 11 O        4.1130     1.4980    -2.0140 O.3   1 <1>  -0.3630 
 12 N        6.3650    -0.6930     0.6160 N.2   1 <1>  -0.5130 
 13 C        6.4960     0.0290    -1.5540 C.3   1 <1>  -0.0990 
 14 C        3.2270     2.0130    -2.9860 C.3   1 <1>   0.0400 
 15 O        7.2350    -1.4690     0.0040 O.3   1 <1>  -0.2170 
 16 C        7.6280    -0.9430    -1.2520 C.3   1 <1>   0.2610 
 17 C        8.9700    -0.2170    -1.1160 C.2   1 <1>   0.5690 
 18 O        9.5650     0.1100    -2.1150 O.2   1 <1>  -0.5700 
 19 N        9.4260     0.0990     0.1250 N.am  1 <1>  -0.7300 
 20 C       10.5490     1.0210     0.4370 C.3   1 <1>   0.1400 
 21 C       10.0530     2.4720     0.5180 C.3   1 <1>   0.2000 
 22 O       11.0430     3.2730     1.0740 O.3   1 <1>  -0.5600 
 23 C        8.8480     2.6940     1.4260 C.3   1 <1>  -0.1600 
 24 C       10.4850     4.4460     1.5760 C.3   1 <1>   0.1200 
 25 C        9.0190     4.1370     1.8700 C.3   1 <1>  -0.1600 
 26 H        5.5780     1.1830     2.2420 H     1 <1>   0.1500 
 27 H        2.6530     3.4460    -0.9850 H     1 <1>   0.1500 
 28 H        1.0740     5.7620     1.3210 H     1 <1>   0.0800 
 29 H        0.8700     4.3320     0.3160 H     1 <1>   0.0800 
 30 H        2.1060     5.5400    -0.0860 H     1 <1>   0.0800 
 31 H        6.8530     0.9570    -1.9620 H     1 <1>   0.0800 
 32 H        5.7900    -0.4270    -2.2230 H     1 <1>   0.0800 
 33 H        3.4010     1.4880    -3.9080 H     1 <1>   0.0800 
 34 H        3.4260     3.0620    -3.1230 H     1 <1>   0.0800 
 35 H        2.2150     1.8490    -2.6600 H     1 <1>   0.0800 
 36 H        7.6930    -1.7430    -1.9650 H     1 <1>   0.0800 
 37 H        8.8380    -0.1920     0.9160 H     1 <1>   0.3700 
 38 H       11.2990     0.9460    -0.3320 H     1 <1>   0.0800 
 39 H       10.9850     0.7340     1.3780 H     1 <1>   0.0800 
 40 H        9.8530     2.8470    -0.4710 H     1 <1>   0.0800 
 41 H        8.9060     2.0370     2.2760 H     1 <1>   0.0800 
 42 H        7.9220     2.5260     0.9070 H     1 <1>   0.0800 
 43 H       10.5820     5.2120     0.8250 H     1 <1>   0.0800 
 44 H       11.0270     4.7280     2.4620 H     1 <1>   0.0800 
 45 H        8.7950     4.2600     2.9160 H     1 <1>   0.0800 
 46 H        8.3890     4.7950     1.2980 H     1 <1>   0.0800 
@<TRIPOS>BOND
  1   1   2  1   
  2   2   3  ar  
  3   2   4  ar  
  4   3   5  1   
  5   3   6  ar  
  6   4   7  ar  
  7   4  26  1   
  8   5   8  1   
  9   6   9  ar  
 10   6  27  1   
 11   7   9  ar  
 12   7  10  1   
 13   8  28  1   
 14   8  29  1   
 15   8  30  1   
 16   9  11  1   
 17  10  12  2   
 18  10  13  1   
 19  11  14  1   
 20  12  15  1   
 21  13  16  1   
 22  13  31  1   
 23  13  32  1   
 24  14  33  1   
 25  14  34  1   
 26  14  35  1   
 27  15  16  1   
 28  16  17  1   
 29  16  36  1   
 30  17  18  2   
 31  17  19  am  
 32  19  20  1   
 33  19  37  1   
 34  20  21  1   
 35  20  38  1   
 36  20  39  1   
 37  21  22  1   
 38  21  23  1   
 39  21  40  1   
 40  22  24  1   
 41  23  25  1   
 42  23  41  1   
 43  23  42  1   
 44  24  25  1   
 45  24  43  1   
 46  24  44  1   
 47  25  45  1   
 48  25  46  1   
@<TRIPOS>SUBSTRUCTURE
  1 ****   7 GROUP 4 **** **** 0

# MOE 2024.06 (io_trps.svl 2023.06)
