@<TRIPOS>MOLECULE
NONAME
36 36 1 0 0 
SMALL
USER_CHARGES


@<TRIPOS>ATOM
  1 S       -0.1320    -0.3580    -0.3580 S.o2  1 <1>   1.3330 
  2 O        0.9470    -0.6850    -1.2560 O.2   1 <1>  -0.6500 
  3 O        0.1280     0.4200     0.8290 O.2   1 <1>  -0.6500 
  4 N       -0.8430    -1.8660     0.1390 N.am  1 <1>  -0.6930 
  5 C       -1.3630     0.4760    -1.3400 C.3   1 <1>  -0.1350 
  6 C       -0.0340    -2.9790     0.3790 C.ar  1 <1>   0.1990 
  7 C       -2.2240    -1.8980     0.7230 C.3   1 <1>   0.3370 
  8 C        1.1700    -2.8590     1.0660 C.ar  1 <1>  -0.1500 
  9 C       -0.4260    -4.2450    -0.0470 C.ar  1 <1>  -0.1500 
 10 C       -3.3220    -1.7680    -0.3600 C.2   1 <1>   0.5690 
 11 C       -2.3640    -0.9100     1.8910 C.3   1 <1>  -0.2400 
 12 C        1.9640    -3.9640     1.3170 C.ar  1 <1>  -0.1440 
 13 C        0.3550    -5.3590     0.2010 C.ar  1 <1>  -0.1440 
 14 O       -4.3390    -1.1580    -0.1450 O.2   1 <1>  -0.5700 
 15 N       -3.1400    -2.3310    -1.5760 N.am  1 <1>  -0.8000 
 16 C        1.5510    -5.2130     0.8840 C.ar  1 <1>  -0.1500 
 17 C        3.2780    -3.8150     2.0630 C.3   1 <1>  -0.0970 
 18 C       -0.0770    -6.7370    -0.2680 C.3   1 <1>  -0.0970 
 19 H       -0.9610     1.3990    -1.7100 H     1 <1>   0.0800 
 20 H       -2.2330     0.7020    -0.7560 H     1 <1>   0.0800 
 21 H       -1.6440    -0.1270    -2.1790 H     1 <1>   0.0800 
 22 H       -2.3700    -2.8730     1.1530 H     1 <1>   0.0800 
 23 H        1.4860    -1.8910     1.4090 H     1 <1>   0.1500 
 24 H       -1.3490    -4.3570    -0.5800 H     1 <1>   0.1500 
 25 H       -2.3890     0.1070     1.5460 H     1 <1>   0.0800 
 26 H       -1.5500    -1.0350     2.5840 H     1 <1>   0.0800 
 27 H       -3.2850    -1.1000     2.4120 H     1 <1>   0.0800 
 28 H       -3.8720    -2.2630    -2.2860 H     1 <1>   0.3700 
 29 H       -2.2690    -2.7920    -1.8470 H     1 <1>   0.3700 
 30 H        2.1650    -6.0750     1.0780 H     1 <1>   0.1500 
 31 H        3.6060    -2.7910     2.0520 H     1 <1>   0.0800 
 32 H        4.0370    -4.4180     1.6000 H     1 <1>   0.0800 
 33 H        3.1550    -4.1290     3.0840 H     1 <1>   0.0800 
 34 H       -1.0940    -6.7250    -0.6180 H     1 <1>   0.0800 
 35 H       -0.0040    -7.4410     0.5410 H     1 <1>   0.0800 
 36 H        0.5600    -7.0640    -1.0710 H     1 <1>   0.0800 
@<TRIPOS>BOND
  1   1   2  2   
  2   1   3  2   
  3   1   4  am  
  4   1   5  1   
  5   4   6  1   
  6   4   7  1   
  7   5  19  1   
  8   5  20  1   
  9   5  21  1   
 10   6   8  ar  
 11   6   9  ar  
 12   7  10  1   
 13   7  11  1   
 14   7  22  1   
 15   8  12  ar  
 16   8  23  1   
 17   9  13  ar  
 18   9  24  1   
 19  10  14  2   
 20  10  15  am  
 21  11  25  1   
 22  11  26  1   
 23  11  27  1   
 24  12  16  ar  
 25  12  17  1   
 26  13  16  ar  
 27  13  18  1   
 28  15  28  1   
 29  15  29  1   
 30  16  30  1   
 31  17  31  1   
 32  17  32  1   
 33  17  33  1   
 34  18  34  1   
 35  18  35  1   
 36  18  36  1   
@<TRIPOS>SUBSTRUCTURE
  1 ****   6 GROUP 4 **** **** 0

# MOE 2024.06 (io_trps.svl 2023.06)
