@<TRIPOS>MOLECULE
NONAME
37 38 1 0 0 
SMALL
USER_CHARGES


@<TRIPOS>ATOM
  1 S       -0.0820    -0.1770    -0.6020 S.o2  1 <1>   1.4470 
  2 O        0.0630    -0.2810    -2.0370 O.2   1 <1>  -0.6500 
  3 O        0.3540     1.0170     0.0840 O.2   1 <1>  -0.6500 
  4 N        0.8840    -1.4300     0.0180 N.am  1 <1>  -0.8490 
  5 C       -1.7580    -0.6340    -0.0790 C.ar  1 <1>  -0.0090 
  6 C        0.6770    -2.7110    -0.6930 C.3   1 <1>   0.1960 
  7 C        2.3140    -1.0450    -0.0290 C.3   1 <1>   0.1960 
  8 C       -2.1080    -0.6360     1.2680 C.ar  1 <1>  -0.1500 
  9 C       -2.7250    -1.0100    -1.0070 C.ar  1 <1>  -0.1500 
 10 C        1.5170    -3.8650    -0.0860 C.3   1 <1>   0.3430 
 11 C        3.2710    -2.1840     0.4030 C.3   1 <1>   0.3430 
 12 C       -3.3770    -1.0070     1.6780 C.ar  1 <1>  -0.1500 
 13 C       -3.9990    -1.3840    -0.6110 C.ar  1 <1>  -0.1500 
 14 N        2.5190    -3.3770     0.9280 N.4   1 <1>  -0.9590 
 15 C       -4.3160    -1.3810     0.7370 C.ar  1 <1>   0.1020 
 16 C        3.4180    -4.4600     1.4280 C.3   1 <1>   0.2630 
 17 S       -5.9440    -1.8530     1.3440 S.3   1 <1>  -0.3320 
 18 C       -6.9870    -2.2090    -0.1380 C.3   1 <1>  -0.0100 
 19 H        0.9430    -2.6010    -1.7330 H     1 <1>   0.0800 
 20 H       -0.3640    -2.9860    -0.6580 H     1 <1>   0.0800 
 21 H        2.4740    -0.2010     0.6230 H     1 <1>   0.0800 
 22 H        2.5770    -0.7260    -1.0250 H     1 <1>   0.0800 
 23 H       -1.3800    -0.3370     2.0040 H     1 <1>   0.1500 
 24 H       -2.4830    -1.0070    -2.0580 H     1 <1>   0.1500 
 25 H        2.0230    -4.3810    -0.8860 H     1 <1>   0.0800 
 26 H        0.8490    -4.5700     0.3810 H     1 <1>   0.0800 
 27 H        3.9420    -1.8080     1.1570 H     1 <1>   0.0800 
 28 H        3.8680    -2.4760    -0.4460 H     1 <1>   0.0800 
 29 H       -3.6430    -1.0050     2.7210 H     1 <1>   0.1500 
 30 H       -4.7210    -1.6670    -1.3520 H     1 <1>   0.1500 
 31 H        1.9490    -3.0050     1.7060 H     1 <1>   0.4500 
 32 H        4.0170    -4.8530     0.6220 H     1 <1>   0.0800 
 33 H        2.8360    -5.2650     1.8480 H     1 <1>   0.0800 
 34 H        4.0750    -4.0790     2.1930 H     1 <1>   0.0800 
 35 H       -7.9700    -2.4650     0.2120 H     1 <1>   0.0800 
 36 H       -6.5450    -3.0330    -0.6680 H     1 <1>   0.0800 
 37 H       -7.0190    -1.3210    -0.7440 H     1 <1>   0.0800 
@<TRIPOS>BOND
  1   1   2  2   
  2   1   3  2   
  3   1   4  am  
  4   1   5  1   
  5   4   6  1   
  6   4   7  1   
  7   5   8  ar  
  8   5   9  ar  
  9   6  10  1   
 10   6  19  1   
 11   6  20  1   
 12   7  11  1   
 13   7  21  1   
 14   7  22  1   
 15   8  12  ar  
 16   8  23  1   
 17   9  13  ar  
 18   9  24  1   
 19  10  14  1   
 20  10  25  1   
 21  10  26  1   
 22  11  14  1   
 23  11  27  1   
 24  11  28  1   
 25  12  15  ar  
 26  12  29  1   
 27  13  15  ar  
 28  13  30  1   
 29  14  16  1   
 30  14  31  1   
 31  15  17  1   
 32  16  32  1   
 33  16  33  1   
 34  16  34  1   
 35  17  18  1   
 36  18  35  1   
 37  18  36  1   
 38  18  37  1   
@<TRIPOS>SUBSTRUCTURE
  1 ****   5 GROUP 4 **** **** 0

# MOE 2024.06 (io_trps.svl 2023.06)
