@<TRIPOS>MOLECULE
NONAME
47 49 1 0 0 
SMALL
USER_CHARGES


@<TRIPOS>ATOM
  1 CL      -1.7630    -1.7810    -1.3870 Cl    1 <1>  -0.1850 
  2 C       -0.1020    -1.5890    -0.8820 C.ar  1 <1>   0.1690 
  3 C        0.3140    -2.0790     0.3460 C.ar  1 <1>  -0.1510 
  4 C        0.7740    -0.9520    -1.7460 C.ar  1 <1>  -0.1580 
  5 C        1.6530    -1.9150     0.6630 C.ar  1 <1>   0.1820 
  6 C       -0.6500    -2.7650     1.2990 C.3   1 <1>   0.4920 
  7 C        2.1050    -0.7970    -1.3920 C.ar  1 <1>  -0.1580 
  8 F        2.0980    -2.4040     1.7890 F     1 <1>  -0.1980 
  9 C        2.5530    -1.2840    -0.1760 C.ar  1 <1>  -0.1580 
 10 N       -0.9230    -4.1440     0.8210 N.pl3 1 <1>  -0.7680 
 11 C       -0.0580    -5.1160     0.5390 C.cat 1 <1>   1.0690 
 12 C       -2.2020    -4.6090     0.4380 C.2   1 <1>   0.2700 
 13 N       -0.6940    -6.1360    -0.0080 N.pl3 1 <1>  -0.7040 
 14 N        1.2540    -5.0910     0.7690 N.pl3 1 <1>  -0.7180 
 15 C       -3.5390    -4.0980     0.5070 C.2   1 <1>   0.6990 
 16 C       -2.0150    -5.8410    -0.0800 C.2   1 <1>   0.4200 
 17 C        2.2970    -6.0220     0.2410 C.3   1 <1>   0.1600 
 18 O       -3.7810    -3.0320     1.0500 O.2   1 <1>  -0.5750 
 19 N       -4.5650    -4.8660    -0.0290 N.am  1 <1>  -0.4260 
 20 N       -3.0290    -6.6370    -0.5700 N.am  1 <1>  -0.4420 
 21 C        2.2670    -7.4180     0.8850 C.3   1 <1>   0.1120 
 22 C       -4.3240    -6.1410    -0.5300 C.2   1 <1>   0.6860 
 23 C       -5.9650    -4.3400    -0.0220 C.3   1 <1>   0.0520 
 24 C       -2.7350    -7.9980    -1.1100 C.3   1 <1>   0.0520 
 25 O        1.0780    -8.0710     0.5540 O.3   1 <1>  -0.5650 
 26 O       -5.2470    -6.8260    -0.9230 O.2   1 <1>  -0.5750 
 27 C        1.0050    -9.3720     1.0520 C.3   1 <1>   0.0310 
 28 H        0.4150    -0.5800    -2.6910 H     1 <1>   0.1420 
 29 H       -1.5570    -2.1900     1.3500 H     1 <1>   0.0720 
 30 H       -0.2480    -2.8060     2.2970 H     1 <1>   0.0720 
 31 H        2.7870    -0.2990    -2.0620 H     1 <1>   0.1420 
 32 H        3.5840    -1.1730     0.1150 H     1 <1>   0.1420 
 33 H       -0.2140    -7.0370    -0.1360 H     1 <1>   0.4440 
 34 H        1.6310    -4.2670     1.2430 H     1 <1>   0.4440 
 35 H        3.2650    -5.5860     0.4210 H     1 <1>   0.0720 
 36 H        2.1870    -6.1250    -0.8260 H     1 <1>   0.0720 
 37 H        2.3440    -7.3440     1.9570 H     1 <1>   0.0720 
 38 H        3.0900    -8.0050     0.5110 H     1 <1>   0.0720 
 39 H       -5.9690    -3.2630    -0.0400 H     1 <1>   0.0720 
 40 H       -6.4730    -4.6790     0.8640 H     1 <1>   0.0720 
 41 H       -6.5010    -4.6910    -0.8880 H     1 <1>   0.0720 
 42 H       -1.8290    -7.9810    -1.6890 H     1 <1>   0.0720 
 43 H       -3.5340    -8.3340    -1.7480 H     1 <1>   0.0720 
 44 H       -2.6270    -8.6940    -0.2970 H     1 <1>   0.0720 
 45 H        0.0620    -9.7980     0.7580 H     1 <1>   0.0720 
 46 H        1.0730    -9.3490     2.1260 H     1 <1>   0.0720 
 47 H        1.8090    -9.9580     0.6380 H     1 <1>   0.0720 
@<TRIPOS>BOND
  1   1   2  1   
  2   2   3  ar  
  3   2   4  ar  
  4   3   5  ar  
  5   3   6  1   
  6   4   7  ar  
  7   4  28  1   
  8   5   8  1   
  9   5   9  ar  
 10   6  10  1   
 11   6  29  1   
 12   6  30  1   
 13   7   9  ar  
 14   7  31  1   
 15   9  32  1   
 16  10  11  ar  
 17  10  12  1   
 18  11  13  ar  
 19  11  14  ar  
 20  12  15  1   
 21  12  16  2   
 22  13  16  1   
 23  13  33  1   
 24  14  17  1   
 25  14  34  1   
 26  15  18  2   
 27  15  19  am  
 28  16  20  1   
 29  17  21  1   
 30  17  35  1   
 31  17  36  1   
 32  19  22  am  
 33  19  23  1   
 34  20  22  am  
 35  20  24  1   
 36  21  25  1   
 37  21  37  1   
 38  21  38  1   
 39  22  26  2   
 40  23  39  1   
 41  23  40  1   
 42  23  41  1   
 43  24  42  1   
 44  24  43  1   
 45  24  44  1   
 46  25  27  1   
 47  27  45  1   
 48  27  46  1   
 49  27  47  1   
@<TRIPOS>SUBSTRUCTURE
  1 ****  10 GROUP 4 **** **** 0

# MOE 2024.06 (io_trps.svl 2023.06)
