@<TRIPOS>MOLECULE
NONAME
40 41 1 0 0 
SMALL
USER_CHARGES


@<TRIPOS>ATOM
  1 O       -0.7580     0.3560    -1.4550 O.2   1 <1>  -0.5700 
  2 C       -1.6910     0.9670    -0.9580 C.2   1 <1>   0.7060 
  3 O       -2.6800     0.2160    -0.4490 O.3   1 <1>  -0.2270 
  4 C       -1.7830     2.3880    -0.9060 C.2   1 <1>   0.0290 
  5 C       -3.7850     0.7510     0.0640 C.2   1 <1>  -0.0620 
  6 C       -2.9360     2.9610    -0.3900 C.2   1 <1>   0.1000 
  7 C       -0.6970     3.1700    -1.3920 C.2   1 <1>   0.4950 
  8 C       -3.9450     2.0910     0.1050 C.2   1 <1>  -0.1500 
  9 C       -4.7900    -0.2660     0.5650 C.3   1 <1>  -0.1020 
 10 N       -3.1110     4.3130    -0.3420 N.pl3 1 <1>  -0.8690 
 11 O       -0.8550     4.1440    -2.0980 O.2   1 <1>  -0.5700 
 12 C        0.7460     2.8510    -1.0000 C.3   1 <1>  -0.0990 
 13 C       -4.2270     5.1070     0.2060 C.3   1 <1>   0.3530 
 14 C        1.4580     4.0530    -0.3560 C.3   1 <1>  -0.1600 
 15 C       -3.8020     6.5640     0.2300 C.ar  1 <1>  -0.1430 
 16 C        2.8880     3.6960     0.0630 C.3   1 <1>  -0.2400 
 17 C       -3.6990     7.2770    -0.9560 C.ar  1 <1>  -0.1500 
 18 C       -3.5080     7.1960     1.4290 C.ar  1 <1>  -0.1500 
 19 C       -3.3120     8.6060    -0.9430 C.ar  1 <1>  -0.1500 
 20 C       -3.1220     8.5260     1.4430 C.ar  1 <1>  -0.1500 
 21 C       -3.0240     9.2310     0.2570 C.ar  1 <1>  -0.1500 
 22 H       -4.8380     2.5260     0.5120 H     1 <1>   0.1500 
 23 H       -4.3460    -0.8700     1.3360 H     1 <1>   0.0800 
 24 H       -5.0950    -0.9070    -0.2440 H     1 <1>   0.0800 
 25 H       -5.6600     0.2220     0.9650 H     1 <1>   0.0800 
 26 H       -2.4170     4.9130    -0.8220 H     1 <1>   0.4000 
 27 H        1.2750     2.5490    -1.8860 H     1 <1>   0.0800 
 28 H        0.7680     2.0320    -0.3050 H     1 <1>   0.0800 
 29 H       -4.4630     4.7680     1.1990 H     1 <1>   0.0800 
 30 H       -5.0940     4.9900    -0.4210 H     1 <1>   0.0800 
 31 H        0.9030     4.3790     0.5080 H     1 <1>   0.0800 
 32 H        1.4880     4.8710    -1.0570 H     1 <1>   0.0800 
 33 H        2.8830     2.8980     0.7840 H     1 <1>   0.0800 
 34 H        3.3650     4.5530     0.5040 H     1 <1>   0.0800 
 35 H        3.4640     3.3880    -0.7930 H     1 <1>   0.0800 
 36 H       -3.9150     6.7970    -1.8950 H     1 <1>   0.1500 
 37 H       -3.5740     6.6570     2.3580 H     1 <1>   0.1500 
 38 H       -3.2330     9.1520    -1.8670 H     1 <1>   0.1500 
 39 H       -2.8960     9.0110     2.3770 H     1 <1>   0.1500 
 40 H       -2.7230    10.2640     0.2670 H     1 <1>   0.1500 
@<TRIPOS>BOND
  1   1   2  2   
  2   2   3  1   
  3   2   4  1   
  4   3   5  1   
  5   4   6  2   
  6   4   7  1   
  7   5   8  2   
  8   5   9  1   
  9   6   8  1   
 10   6  10  1   
 11   7  11  2   
 12   7  12  1   
 13   8  22  1   
 14   9  23  1   
 15   9  24  1   
 16   9  25  1   
 17  10  13  1   
 18  10  26  1   
 19  12  14  1   
 20  12  27  1   
 21  12  28  1   
 22  13  15  1   
 23  13  29  1   
 24  13  30  1   
 25  14  16  1   
 26  14  31  1   
 27  14  32  1   
 28  15  17  ar  
 29  15  18  ar  
 30  16  33  1   
 31  16  34  1   
 32  16  35  1   
 33  17  19  ar  
 34  17  36  1   
 35  18  20  ar  
 36  18  37  1   
 37  19  21  ar  
 38  19  38  1   
 39  20  21  ar  
 40  20  39  1   
 41  21  40  1   
@<TRIPOS>SUBSTRUCTURE
  1 ****  10 GROUP 4 **** **** 0

# MOE 2024.06 (io_trps.svl 2023.06)
