@<TRIPOS>MOLECULE
NONAME
41 42 1 0 0 
SMALL
USER_CHARGES


@<TRIPOS>ATOM
  1 CL       0.1740    -0.4250     0.0100 Cl    1 <1>  -0.1770 
  2 C       -1.4520    -1.0520    -0.0990 C.ar  1 <1>   0.1770 
  3 C       -2.5230    -0.2110     0.1300 C.ar  1 <1>  -0.1500 
  4 C       -1.6460    -2.3840    -0.4150 C.ar  1 <1>  -0.1500 
  5 C       -3.8100    -0.7130     0.0410 C.ar  1 <1>  -0.1500 
  6 C       -2.9360    -2.8770    -0.5000 C.ar  1 <1>  -0.1500 
  7 C       -4.0350    -2.0530    -0.2710 C.ar  1 <1>   0.1170 
  8 N       -5.3220    -2.6070    -0.3830 N.am  1 <1>  -0.5470 
  9 C       -6.5080    -2.2030     0.1620 C.2   1 <1>   0.5690 
 10 O       -6.6280    -1.2540     0.8940 O.2   1 <1>  -0.5700 
 11 C       -7.7500    -3.0070    -0.1620 C.3   1 <1>  -0.0990 
 12 C       -8.9880    -2.2510     0.3300 C.3   1 <1>   0.3430 
 13 N      -10.2550    -2.9730     0.0040 N.4   1 <1>  -0.9590 
 14 C      -11.4240    -2.0450     0.1570 C.3   1 <1>   0.3430 
 15 C      -10.4560    -4.2040     0.8200 C.3   1 <1>   0.3430 
 16 C      -12.7800    -2.7800     0.0820 C.3   1 <1>  -0.0800 
 17 C      -11.6100    -5.0260     0.2300 C.3   1 <1>  -0.1600 
 18 C      -12.6550    -4.1860    -0.5290 C.3   1 <1>  -0.1600 
 19 C      -13.8020    -1.9480    -0.7040 C.3   1 <1>  -0.2400 
 20 H       -2.3500     0.8220     0.3740 H     1 <1>   0.1500 
 21 H       -0.7950    -3.0180    -0.5890 H     1 <1>   0.1500 
 22 H       -4.6360    -0.0480     0.2150 H     1 <1>   0.1500 
 23 H       -3.0830    -3.9140    -0.7430 H     1 <1>   0.1500 
 24 H       -5.3460    -3.4700    -0.9220 H     1 <1>   0.3700 
 25 H       -7.6670    -3.9580     0.3280 H     1 <1>   0.0800 
 26 H       -7.8040    -3.1450    -1.2250 H     1 <1>   0.0800 
 27 H       -8.9970    -1.2780    -0.1370 H     1 <1>   0.0800 
 28 H       -8.9150    -2.0970     1.3950 H     1 <1>   0.0800 
 29 H      -10.2410    -3.2630    -0.9820 H     1 <1>   0.4500 
 30 H      -11.3850    -1.3020    -0.6230 H     1 <1>   0.0800 
 31 H      -11.3640    -1.5280     1.1020 H     1 <1>   0.0800 
 32 H      -10.6970    -3.9230     1.8330 H     1 <1>   0.0800 
 33 H       -9.5630    -4.8060     0.8400 H     1 <1>   0.0800 
 34 H      -13.1520    -2.8840     1.0880 H     1 <1>   0.0800 
 35 H      -12.0910    -5.5460     1.0400 H     1 <1>   0.0800 
 36 H      -11.2140    -5.7790    -0.4290 H     1 <1>   0.0800 
 37 H      -12.3620    -4.1000    -1.5620 H     1 <1>   0.0800 
 38 H      -13.6070    -4.6900    -0.5070 H     1 <1>   0.0800 
 39 H      -13.4890    -1.8130    -1.7250 H     1 <1>   0.0800 
 40 H      -13.9300    -0.9790    -0.2530 H     1 <1>   0.0800 
 41 H      -14.7600    -2.4410    -0.7070 H     1 <1>   0.0800 
@<TRIPOS>BOND
  1   1   2  1   
  2   2   3  ar  
  3   2   4  ar  
  4   3   5  ar  
  5   3  20  1   
  6   4   6  ar  
  7   4  21  1   
  8   5   7  ar  
  9   5  22  1   
 10   6   7  ar  
 11   6  23  1   
 12   7   8  1   
 13   8   9  am  
 14   8  24  1   
 15   9  10  2   
 16   9  11  1   
 17  11  12  1   
 18  11  25  1   
 19  11  26  1   
 20  12  13  1   
 21  12  27  1   
 22  12  28  1   
 23  13  14  1   
 24  13  15  1   
 25  13  29  1   
 26  14  16  1   
 27  14  30  1   
 28  14  31  1   
 29  15  17  1   
 30  15  32  1   
 31  15  33  1   
 32  16  18  1   
 33  16  19  1   
 34  16  34  1   
 35  17  18  1   
 36  17  35  1   
 37  17  36  1   
 38  18  37  1   
 39  18  38  1   
 40  19  39  1   
 41  19  40  1   
 42  19  41  1   
@<TRIPOS>SUBSTRUCTURE
  1 ****   9 GROUP 4 **** **** 0

# MOE 2024.06 (io_trps.svl 2023.06)
