@<TRIPOS>MOLECULE
NONAME
51 53 1 0 0 
SMALL
USER_CHARGES


@<TRIPOS>ATOM
  1 O       -1.8150    -0.1420     0.8850 O.3   1 <1>  -0.3630 
  2 C       -2.4490     0.1610    -0.2830 C.ar  1 <1>   0.0830 
  3 C       -0.4260     0.0000     1.0700 C.3   1 <1>   0.1200 
  4 C       -1.8910     0.7510    -1.4300 C.ar  1 <1>   0.0820 
  5 C       -3.7940    -0.1650    -0.2890 C.ar  1 <1>  -0.1500 
  6 C       -0.0810    -0.5180     2.4630 C.3   1 <1>  -0.2400 
  7 O       -0.5930     1.1060    -1.5260 O.3   1 <1>  -0.5320 
  8 C       -2.6910     0.9960    -2.5350 C.ar  1 <1>  -0.1500 
  9 C       -4.5980     0.0950    -1.3890 C.ar  1 <1>  -0.1430 
 10 C       -4.0370     0.6730    -2.5170 C.ar  1 <1>  -0.1500 
 11 C       -6.0760    -0.2390    -1.3420 C.3   1 <1>   0.4860 
 12 N       -6.7180     0.6240    -0.3140 N.4   1 <1>  -0.9590 
 13 C       -8.1590     0.2540    -0.0770 C.3   1 <1>   0.3430 
 14 C       -6.5810     2.0930    -0.6450 C.3   1 <1>   0.3430 
 15 C       -8.8220     1.1210     1.0140 C.3   1 <1>   0.2090 
 16 C       -7.2150     3.0060     0.4250 C.3   1 <1>   0.2090 
 17 N       -8.6020     2.5750     0.7700 N.pl3 1 <1>  -0.8380 
 18 C       -9.6640     3.3080     0.2430 C.ar  1 <1>   0.1000 
 19 C      -10.4550     4.1120     1.0650 C.ar  1 <1>  -0.1430 
 20 C       -9.9540     3.2430    -1.1170 C.ar  1 <1>  -0.1500 
 21 C      -11.5090     4.8270     0.5210 C.ar  1 <1>  -0.1500 
 22 C      -10.1720     4.2160     2.5570 C.3   1 <1>  -0.0970 
 23 C      -11.0070     3.9600    -1.6530 C.ar  1 <1>  -0.1500 
 24 C      -11.7870     4.7540    -0.8330 C.ar  1 <1>  -0.1500 
 25 H       -0.1740     1.0420     0.9780 H     1 <1>   0.0800 
 26 H        0.0800    -0.5750     0.3130 H     1 <1>   0.0800 
 27 H       -4.1920    -0.6310     0.5940 H     1 <1>   0.1500 
 28 H       -0.6040     0.0520     3.2090 H     1 <1>   0.0800 
 29 H        0.9760    -0.4180     2.6330 H     1 <1>   0.0800 
 30 H       -0.3460    -1.5560     2.5480 H     1 <1>   0.0800 
 31 H       -0.3520     1.4700    -2.3970 H     1 <1>   0.4500 
 32 H       -2.2680     1.4420    -3.4190 H     1 <1>   0.1500 
 33 H       -4.6320     0.8770    -3.3920 H     1 <1>   0.1500 
 34 H       -6.1970    -1.2780    -1.0840 H     1 <1>   0.0800 
 35 H       -6.5250    -0.0690    -2.3070 H     1 <1>   0.0800 
 36 H       -6.2010     0.4800     0.5620 H     1 <1>   0.4500 
 37 H       -8.2320    -0.7820     0.2110 H     1 <1>   0.0800 
 38 H       -8.7200     0.3830    -0.9880 H     1 <1>   0.0800 
 39 H       -7.0620     2.2970    -1.5860 H     1 <1>   0.0800 
 40 H       -5.5390     2.3520    -0.7460 H     1 <1>   0.0800 
 41 H       -8.4220     0.8630     1.9790 H     1 <1>   0.0800 
 42 H       -9.8800     0.9200     1.0370 H     1 <1>   0.0800 
 43 H       -7.2350     4.0200     0.0640 H     1 <1>   0.0800 
 44 H       -6.6120     2.9930     1.3170 H     1 <1>   0.0800 
 45 H       -9.3570     2.6310    -1.7610 H     1 <1>   0.1500 
 46 H      -12.1240     5.4500     1.1480 H     1 <1>   0.1500 
 47 H      -10.2830     3.2520     3.0170 H     1 <1>   0.0800 
 48 H      -10.8460     4.9040     3.0340 H     1 <1>   0.0800 
 49 H       -9.1660     4.5610     2.7130 H     1 <1>   0.0800 
 50 H      -11.2250     3.9040    -2.7060 H     1 <1>   0.1500 
 51 H      -12.6090     5.3140    -1.2440 H     1 <1>   0.1500 
@<TRIPOS>BOND
  1   1   2  1   
  2   1   3  1   
  3   2   4  ar  
  4   2   5  ar  
  5   3   6  1   
  6   3  25  1   
  7   3  26  1   
  8   4   7  1   
  9   4   8  ar  
 10   5   9  ar  
 11   5  27  1   
 12   6  28  1   
 13   6  29  1   
 14   6  30  1   
 15   7  31  1   
 16   8  10  ar  
 17   8  32  1   
 18   9  10  ar  
 19   9  11  1   
 20  10  33  1   
 21  11  12  1   
 22  11  34  1   
 23  11  35  1   
 24  12  13  1   
 25  12  14  1   
 26  12  36  1   
 27  13  15  1   
 28  13  37  1   
 29  13  38  1   
 30  14  16  1   
 31  14  39  1   
 32  14  40  1   
 33  15  17  1   
 34  15  41  1   
 35  15  42  1   
 36  16  17  1   
 37  16  43  1   
 38  16  44  1   
 39  17  18  1   
 40  18  19  ar  
 41  18  20  ar  
 42  19  21  ar  
 43  19  22  1   
 44  20  23  ar  
 45  20  45  1   
 46  21  24  ar  
 47  21  46  1   
 48  22  47  1   
 49  22  48  1   
 50  22  49  1   
 51  23  24  ar  
 52  23  50  1   
 53  24  51  1   
@<TRIPOS>SUBSTRUCTURE
  1 ****  14 GROUP 4 **** **** 0

# MOE 2024.06 (io_trps.svl 2023.06)
