@<TRIPOS>MOLECULE
NONAME
36 37 1 0 0 
SMALL
USER_CHARGES


@<TRIPOS>ATOM
  1 CL      -0.1190    -0.4480     0.5900 Cl    1 <1>  -0.1770 
  2 C       -1.8290    -0.1980     0.3440 C.ar  1 <1>   0.1770 
  3 C       -2.5380    -1.0890    -0.4380 C.ar  1 <1>  -0.1500 
  4 C       -2.4500     0.8880     0.9350 C.ar  1 <1>  -0.1500 
  5 C       -3.8880    -0.8580    -0.6090 C.ar  1 <1>   0.1900 
  6 C       -3.8090     1.0960     0.7460 C.ar  1 <1>  -0.1500 
  7 F       -4.5640    -1.7000    -1.3520 F     1 <1>  -0.1900 
  8 C       -4.5650     0.2200    -0.0340 C.ar  1 <1>   0.1170 
  9 N       -5.9490     0.3710    -0.2690 N.am  1 <1>  -0.5470 
 10 C       -6.8830     1.2350     0.2340 C.2   1 <1>   0.5690 
 11 O       -6.6290     2.0850     1.0500 O.2   1 <1>  -0.5700 
 12 C       -8.3190     1.0830    -0.2740 C.3   1 <1>  -0.0190 
 13 C       -9.0910     2.4190    -0.2870 C.3   1 <1>  -0.1600 
 14 C       -9.0890     0.0410     0.5580 C.3   1 <1>  -0.1600 
 15 C      -10.5310     2.2350    -0.7710 C.3   1 <1>   0.1400 
 16 C      -10.5330    -0.1200     0.0710 C.3   1 <1>   0.1400 
 17 N      -11.2080     1.2070     0.0680 N.am  1 <1>  -0.6600 
 18 C      -12.3420     1.4190     0.8120 C.2   1 <1>   0.5690 
 19 O      -12.8680     0.5390     1.4500 O.2   1 <1>  -0.5700 
 20 C      -12.9880     2.7840     0.8640 C.3   1 <1>  -0.1790 
 21 H       -2.0520    -1.9300    -0.8960 H     1 <1>   0.1500 
 22 H       -1.8730     1.5670     1.5390 H     1 <1>   0.1500 
 23 H       -4.2680     1.9480     1.2130 H     1 <1>   0.1500 
 24 H       -6.3170    -0.3270    -0.9160 H     1 <1>   0.3700 
 25 H       -8.2700     0.7310    -1.2890 H     1 <1>   0.0800 
 26 H       -8.5860     3.1220    -0.9250 H     1 <1>   0.0800 
 27 H       -9.1130     2.8390     0.7050 H     1 <1>   0.0800 
 28 H       -9.1060     0.3430     1.5910 H     1 <1>   0.0800 
 29 H       -8.5940    -0.9120     0.5070 H     1 <1>   0.0800 
 30 H      -10.5330     1.9040    -1.7950 H     1 <1>   0.0800 
 31 H      -11.0450     3.1780    -0.7290 H     1 <1>   0.0800 
 32 H      -11.0510    -0.8110     0.7140 H     1 <1>   0.0800 
 33 H      -10.5470    -0.5220    -0.9270 H     1 <1>   0.0800 
 34 H      -12.2890     3.5040     1.2420 H     1 <1>   0.0800 
 35 H      -13.8400     2.7560     1.5180 H     1 <1>   0.0800 
 36 H      -13.3180     3.0690    -0.1170 H     1 <1>   0.0800 
@<TRIPOS>BOND
  1   1   2  1   
  2   2   3  ar  
  3   2   4  ar  
  4   3   5  ar  
  5   3  21  1   
  6   4   6  ar  
  7   4  22  1   
  8   5   7  1   
  9   5   8  ar  
 10   6   8  ar  
 11   6  23  1   
 12   8   9  1   
 13   9  10  am  
 14   9  24  1   
 15  10  11  2   
 16  10  12  1   
 17  12  13  1   
 18  12  14  1   
 19  12  25  1   
 20  13  15  1   
 21  13  26  1   
 22  13  27  1   
 23  14  16  1   
 24  14  28  1   
 25  14  29  1   
 26  15  17  1   
 27  15  30  1   
 28  15  31  1   
 29  16  17  1   
 30  16  32  1   
 31  16  33  1   
 32  17  18  am  
 33  18  19  2   
 34  18  20  1   
 35  20  34  1   
 36  20  35  1   
 37  20  36  1   
@<TRIPOS>SUBSTRUCTURE
  1 ****  10 GROUP 4 **** **** 0

# MOE 2024.06 (io_trps.svl 2023.06)
