@<TRIPOS>MOLECULE
NONAME
32 33 1 0 0 
SMALL
USER_CHARGES


@<TRIPOS>ATOM
  1 O       -0.7670    -0.4120    -0.2980 O.2   1 <1>  -0.5770 
  2 C       -1.9210    -0.1200    -0.3940 C.2   1 <1>   0.8480 
  3 N       -2.8140    -1.1320    -0.3540 N.pl3 1 <1>  -0.7350 
  4 C       -2.3210     1.3400    -0.5670 C.3   1 <1>  -0.1110 
  5 C       -4.1340    -1.2160    -0.4060 C.cat 1 <1>   1.0680 
  6 C       -2.7730     2.0140     0.7410 C.3   1 <1>  -0.2510 
  7 N       -4.9880    -0.2080    -0.3720 N.pl3 1 <1>  -0.7060 
  8 N       -4.7820    -2.3750    -0.4860 N.pl3 1 <1>  -0.7690 
  9 C       -6.2680    -0.7160    -0.4190 C.ar  1 <1>   0.2990 
 10 C       -6.1440    -2.0910    -0.4880 C.ar  1 <1>   0.2990 
 11 C       -4.2350    -3.7470    -0.5720 C.3   1 <1>   0.3440 
 12 C       -7.5160    -0.1030    -0.4030 C.ar  1 <1>  -0.1210 
 13 C       -7.2780    -2.8970    -0.5410 C.ar  1 <1>  -0.1210 
 14 C       -4.0570    -4.2960     0.8390 C.3   1 <1>  -0.2510 
 15 C       -8.6390    -0.9040    -0.4580 C.ar  1 <1>  -0.1620 
 16 C       -8.5200    -2.2940    -0.5260 C.ar  1 <1>  -0.1620 
 17 H       -2.3260    -2.0110    -0.2460 H     1 <1>   0.4410 
 18 H       -3.0790     1.4270    -1.3220 H     1 <1>   0.0670 
 19 H       -1.4610     1.8730    -0.9360 H     1 <1>   0.0670 
 20 H       -3.5990     1.5040     1.2010 H     1 <1>   0.0670 
 21 H       -3.0600     3.0340     0.5490 H     1 <1>   0.0670 
 22 H       -1.9560     2.0270     1.4440 H     1 <1>   0.0670 
 23 H       -4.7570     0.7790    -0.2780 H     1 <1>   0.4410 
 24 H       -3.2900    -3.7410    -1.0880 H     1 <1>   0.0670 
 25 H       -4.9110    -4.3760    -1.1280 H     1 <1>   0.0670 
 26 H       -7.6000     0.9680    -0.3490 H     1 <1>   0.1380 
 27 H       -7.1880    -3.9670    -0.5900 H     1 <1>   0.1380 
 28 H       -3.3670    -3.6950     1.4030 H     1 <1>   0.0670 
 29 H       -3.6680    -5.2970     0.7880 H     1 <1>   0.0670 
 30 H       -5.0030    -4.3300     1.3510 H     1 <1>   0.0670 
 31 H       -9.6220    -0.4600    -0.4480 H     1 <1>   0.1380 
 32 H       -9.4140    -2.8960    -0.5660 H     1 <1>   0.1380 
@<TRIPOS>BOND
  1   1   2  2   
  2   2   3  1   
  3   2   4  1   
  4   3   5  ar  
  5   3  17  1   
  6   4   6  1   
  7   4  18  1   
  8   4  19  1   
  9   5   7  ar  
 10   5   8  ar  
 11   6  20  1   
 12   6  21  1   
 13   6  22  1   
 14   7   9  1   
 15   7  23  1   
 16   8  10  1   
 17   8  11  1   
 18   9  10  ar  
 19   9  12  ar  
 20  10  13  ar  
 21  11  14  1   
 22  11  24  1   
 23  11  25  1   
 24  12  15  ar  
 25  12  26  1   
 26  13  16  ar  
 27  13  27  1   
 28  14  28  1   
 29  14  29  1   
 30  14  30  1   
 31  15  16  ar  
 32  15  31  1   
 33  16  32  1   
@<TRIPOS>SUBSTRUCTURE
  1 ****   5 GROUP 4 **** **** 0

# MOE 2024.06 (io_trps.svl 2023.06)
