@<TRIPOS>MOLECULE
NONAME
32 33 1 0 0 
SMALL
USER_CHARGES


@<TRIPOS>ATOM
  1 F        0.1620     1.0580     0.5810 F     1 <1>  -0.1900 
  2 C        1.3010     1.6550     0.3410 C.ar  1 <1>   0.1900 
  3 C        2.2150     1.0360    -0.4900 C.ar  1 <1>  -0.1500 
  4 C        1.5470     2.8820     0.9270 C.ar  1 <1>  -0.1500 
  5 C        3.4190     1.6730    -0.7380 C.ar  1 <1>  -0.1500 
  6 C        2.7560     3.5060     0.6720 C.ar  1 <1>  -0.1500 
  7 C        3.7010     2.9060    -0.1550 C.ar  1 <1>   0.1000 
  8 N        4.9120     3.5380    -0.3900 N.pl3 1 <1>  -0.8690 
  9 C        6.1050     2.9410     0.2830 C.3   1 <1>   0.3500 
 10 C        7.1150     3.9790     0.7720 C.2   1 <1>   0.5690 
 11 C        6.8990     2.0900    -0.7100 C.3   1 <1>  -0.0990 
 12 O        6.8000     4.8820     1.5190 O.2   1 <1>  -0.5700 
 13 N        8.3500     3.7290     0.2390 N.am  1 <1>  -0.1110 
 14 C        8.2940     2.6480    -0.6050 C.2   1 <1>   0.5690 
 15 N        9.5470     4.5500     0.5540 N.3   1 <1>  -0.5490 
 16 O        9.2100     2.1430    -1.2120 O.2   1 <1>  -0.5700 
 17 C       10.0500     5.1660    -0.7030 C.3   1 <1>   0.0300 
 18 C       10.5910     3.6790     1.1570 C.3   1 <1>   0.0300 
 19 H        1.9840     0.0840    -0.9330 H     1 <1>   0.1500 
 20 H        0.8090     3.3330     1.5660 H     1 <1>   0.1500 
 21 H        4.1410     1.2200    -1.3900 H     1 <1>   0.1500 
 22 H        2.9700     4.4610     1.1180 H     1 <1>   0.1500 
 23 H        4.8700     4.5360    -0.1340 H     1 <1>   0.4000 
 24 H        5.7940     2.3450     1.1250 H     1 <1>   0.0800 
 25 H        6.5400     2.2060    -1.7160 H     1 <1>   0.0800 
 26 H        6.8940     1.0540    -0.4260 H     1 <1>   0.0800 
 27 H        9.2530     5.6980    -1.1920 H     1 <1>   0.0800 
 28 H       10.4370     4.4150    -1.3710 H     1 <1>   0.0800 
 29 H       10.8350     5.8650    -0.4700 H     1 <1>   0.0800 
 30 H       10.1740     3.1280     1.9820 H     1 <1>   0.0800 
 31 H       11.3950     4.2900     1.5270 H     1 <1>   0.0800 
 32 H       10.9820     2.9880     0.4310 H     1 <1>   0.0800 
@<TRIPOS>BOND
  1   1   2  1   
  2   2   3  ar  
  3   2   4  ar  
  4   3   5  ar  
  5   3  19  1   
  6   4   6  ar  
  7   4  20  1   
  8   5   7  ar  
  9   5  21  1   
 10   6   7  ar  
 11   6  22  1   
 12   7   8  1   
 13   8   9  1   
 14   8  23  1   
 15   9  10  1   
 16   9  11  1   
 17   9  24  1   
 18  10  12  2   
 19  10  13  am  
 20  11  14  1   
 21  11  25  1   
 22  11  26  1   
 23  13  14  am  
 24  13  15  1   
 25  14  16  2   
 26  15  17  1   
 27  15  18  1   
 28  17  27  1   
 29  17  28  1   
 30  17  29  1   
 31  18  30  1   
 32  18  31  1   
 33  18  32  1   
@<TRIPOS>SUBSTRUCTURE
  1 ****   9 GROUP 4 **** **** 0

# MOE 2024.06 (io_trps.svl 2023.06)
