@<TRIPOS>MOLECULE
NONAME
52 53 1 0 0 
SMALL
USER_CHARGES


@<TRIPOS>ATOM
  1 O       -1.5430    -2.1380     0.9250 O.3   1 <1>  -0.3630 
  2 C       -2.8850    -2.3130     0.8710 C.ar  1 <1>   0.0830 
  3 C       -0.9060    -1.7140    -0.2630 C.3   1 <1>   0.1200 
  4 C       -3.4680    -3.3460     0.1320 C.ar  1 <1>   0.0830 
  5 C       -3.6770    -1.4390     1.5950 C.ar  1 <1>  -0.1500 
  6 C        0.5060    -2.3070    -0.3090 C.3   1 <1>   0.2000 
  7 O       -2.6520    -4.2060    -0.5470 O.3   1 <1>  -0.3630 
  8 C       -4.8550    -3.4630     0.1200 C.ar  1 <1>  -0.1500 
  9 C       -5.0540    -1.5700     1.5760 C.ar  1 <1>  -0.1500 
 10 O        1.1380    -1.8360    -1.4580 O.3   1 <1>  -0.6800 
 11 C        0.4910    -3.8590    -0.2840 C.3   1 <1>   0.1100 
 12 C       -3.1570    -5.3930    -1.1180 C.3   1 <1>   0.0400 
 13 C       -5.6510    -2.5800     0.8360 C.ar  1 <1>  -0.1430 
 14 N        1.8070    -4.5440    -0.1540 N.3   1 <1>  -0.8100 
 15 C       -7.1650    -2.7300     0.8060 C.3   1 <1>   0.1220 
 16 C        2.5110    -4.2100     1.0980 C.3   1 <1>   0.1100 
 17 C        2.6830    -4.4270    -1.3350 C.3   1 <1>   0.1100 
 18 C       -7.6840    -2.5970    -0.6160 C.2   1 <1>  -0.2880 
 19 C        3.7690    -5.0830     1.2740 C.3   1 <1>   0.3430 
 20 C        3.9350    -5.3110    -1.1800 C.3   1 <1>   0.3430 
 21 C       -8.3850    -3.5260    -1.2740 C.2   1 <1>  -0.3000 
 22 N        4.6870    -4.9860     0.0840 N.4   1 <1>  -0.9590 
 23 C        5.8850    -5.8580     0.2460 C.3   1 <1>   0.2630 
 24 H       -1.4810    -2.0420    -1.1110 H     1 <1>   0.0800 
 25 H       -0.8660    -0.6400    -0.2440 H     1 <1>   0.0800 
 26 H       -3.2130    -0.6590     2.1700 H     1 <1>   0.1500 
 27 H        1.0520    -1.9280     0.5350 H     1 <1>   0.0800 
 28 H       -5.3410    -4.2350    -0.4460 H     1 <1>   0.1500 
 29 H       -5.6560    -0.8790     2.1410 H     1 <1>   0.1500 
 30 H        0.6090    -2.0630    -2.2470 H     1 <1>   0.4000 
 31 H       -0.0100    -4.2180    -1.1660 H     1 <1>   0.0800 
 32 H       -0.1160    -4.1700     0.5500 H     1 <1>   0.0800 
 33 H       -2.3300    -5.9550    -1.5110 H     1 <1>   0.0800 
 34 H       -3.6540    -5.9640    -0.3530 H     1 <1>   0.0800 
 35 H       -3.8370    -5.1390    -1.9120 H     1 <1>   0.0800 
 36 H       -7.6270    -1.9770     1.4200 H     1 <1>   0.0800 
 37 H       -7.4330    -3.6910     1.2090 H     1 <1>   0.0800 
 38 H        1.8500    -4.3770     1.9320 H     1 <1>   0.0800 
 39 H        2.7940    -3.1710     1.1000 H     1 <1>   0.0800 
 40 H        2.9950    -3.4080    -1.4740 H     1 <1>   0.0800 
 41 H        2.1400    -4.7350    -2.2120 H     1 <1>   0.0800 
 42 H       -7.4220    -1.6500    -1.0570 H     1 <1>   0.1500 
 43 H        3.4540    -6.1040     1.4070 H     1 <1>   0.0800 
 44 H        4.2900    -4.7760     2.1660 H     1 <1>   0.0800 
 45 H        4.5750    -5.1700    -2.0350 H     1 <1>   0.0800 
 46 H        3.6220    -6.3420    -1.1620 H     1 <1>   0.0800 
 47 H       -8.7390    -3.4040    -2.2830 H     1 <1>   0.1500 
 48 H       -8.6640    -4.4820    -0.8650 H     1 <1>   0.1500 
 49 H        4.9810    -4.0020     0.0100 H     1 <1>   0.4500 
 50 H        5.5870    -6.8910     0.3220 H     1 <1>   0.0800 
 51 H        6.4270    -5.5880     1.1380 H     1 <1>   0.0800 
 52 H        6.5440    -5.7510    -0.6010 H     1 <1>   0.0800 
@<TRIPOS>BOND
  1   1   2  1   
  2   1   3  1   
  3   2   4  ar  
  4   2   5  ar  
  5   3   6  1   
  6   3  24  1   
  7   3  25  1   
  8   4   7  1   
  9   4   8  ar  
 10   5   9  ar  
 11   5  26  1   
 12   6  10  1   
 13   6  11  1   
 14   6  27  1   
 15   7  12  1   
 16   8  13  ar  
 17   8  28  1   
 18   9  13  ar  
 19   9  29  1   
 20  10  30  1   
 21  11  14  1   
 22  11  31  1   
 23  11  32  1   
 24  12  33  1   
 25  12  34  1   
 26  12  35  1   
 27  13  15  1   
 28  14  16  1   
 29  14  17  1   
 30  15  18  1   
 31  15  36  1   
 32  15  37  1   
 33  16  19  1   
 34  16  38  1   
 35  16  39  1   
 36  17  20  1   
 37  17  40  1   
 38  17  41  1   
 39  18  21  2   
 40  18  42  1   
 41  19  22  1   
 42  19  43  1   
 43  19  44  1   
 44  20  22  1   
 45  20  45  1   
 46  20  46  1   
 47  21  47  1   
 48  21  48  1   
 49  22  23  1   
 50  22  49  1   
 51  23  50  1   
 52  23  51  1   
 53  23  52  1   
@<TRIPOS>SUBSTRUCTURE
  1 ****   1 GROUP 4 **** **** 0

# MOE 2024.06 (io_trps.svl 2023.06)
